default_name
  -OEChem-01062215323D

 26 25  0     1  0  0  0  0  0999 V2000
   -3.0232   -3.6924    1.0038 H   0  0  0  0  0  0  0  0  0  0  0  0
   -3.0082   -2.6684    0.6318 C   0  0  0  0  0  0  0  0  0  0  0  0
   -3.6332   -2.0414    1.2658 H   0  0  0  0  0  0  0  0  0  0  0  0
   -3.3762   -2.6444   -0.3912 H   0  0  0  0  0  0  0  0  0  0  0  0
   -1.5882   -2.1554    0.6658 C   0  0  0  0  0  0  0  0  0  0  0  0
   -0.6832   -2.8764    1.0638 O   0  0  0  0  0  0  0  0  0  0  0  0
   -1.3952   -0.9084    0.2428 N   0  0  0  0  0  0  0  0  0  0  0  0
   -2.1972   -0.3644   -0.0422 H   0  0  0  0  0  0  0  0  0  0  0  0
   -0.1122   -0.1994    0.2658 C   0  0  1  0  0  0  0  0  0  0  0  0
    0.2167   -0.1100    1.3044 H   0  0  0  0  0  0  0  0  0  0  0  0
    0.9286   -1.0303   -0.5174 C   0  0  0  0  0  0  0  0  0  0  0  0
    0.5080   -1.3125   -1.4819 H   0  0  0  0  0  0  0  0  0  0  0  0
    1.8140   -0.4218   -0.6948 H   0  0  0  0  0  0  0  0  0  0  0  0
    1.3409   -2.3182    0.1773 C   0  0  0  0  0  0  0  0  0  0  0  0
    1.5579   -2.3859    1.3746 O   0  0  0  0  0  0  0  0  0  0  0  0
    1.4738   -3.3947   -0.5587 N   0  0  0  0  0  0  0  0  0  0  0  0
    1.7300   -4.2345   -0.0700 H   0  0  0  0  0  0  0  0  0  0  0  0
    1.2826   -3.3695   -1.5425 H   0  0  0  0  0  0  0  0  0  0  0  0
   -0.2874    1.2247   -0.3061 C   0  0  0  0  0  0  0  0  0  0  0  0
   -1.3922    1.5955   -0.7030 O   0  0  0  0  0  0  0  0  0  0  0  0
    0.7913    2.0120   -0.3583 N   0  0  0  0  0  0  0  0  0  0  0  0
    1.6772    1.6013   -0.0812 H   0  0  0  0  0  0  0  0  0  0  0  0
    0.7905    3.3856   -0.8584 C   0  0  0  0  0  0  0  0  0  0  0  0
    0.0626    3.9795   -0.3014 H   0  0  0  0  0  0  0  0  0  0  0  0
    1.7810    3.8273   -0.7408 H   0  0  0  0  0  0  0  0  0  0  0  0
    0.5147    3.3932   -1.9142 H   0  0  0  0  0  0  0  0  0  0  0  0
  5  6  2  0  0  0  0
  5  7  1  0  0  0  0
  2  3  1  0  0  0  0
  2  4  1  0  0  0  0
  2  5  1  0  0  0  0
  1  2  1  0  0  0  0
 19 20  2  0  0  0  0
 19 21  1  0  0  0  0
 16 17  1  0  0  0  0
 16 18  1  0  0  0  0
 14 15  2  0  0  0  0
 14 16  1  0  0  0  0
 11 12  1  0  0  0  0
 11 13  1  0  0  0  0
 11 14  1  0  0  0  0
  9 10  1  0  0  0  0
  9 11  1  0  0  0  0
  9 19  1  0  0  0  0
  7  8  1  0  0  0  0
  7  9  1  0  0  0  0
 23 24  1  0  0  0  0
 23 25  1  0  0  0  0
 23 26  1  0  0  0  0
 21 22  1  0  0  0  0
 21 23  1  0  0  0  0
M  END
$$$$
default_name
  -OEChem-01062215323D

 26 25  0     1  0  0  0  0  0999 V2000
   -3.0232   -3.6924    1.0038 H   0  0  0  0  0  0  0  0  0  0  0  0
   -3.0082   -2.6684    0.6318 C   0  0  0  0  0  0  0  0  0  0  0  0
   -3.6332   -2.0414    1.2658 H   0  0  0  0  0  0  0  0  0  0  0  0
   -3.3762   -2.6444   -0.3912 H   0  0  0  0  0  0  0  0  0  0  0  0
   -1.5882   -2.1554    0.6658 C   0  0  0  0  0  0  0  0  0  0  0  0
   -0.6832   -2.8764    1.0638 O   0  0  0  0  0  0  0  0  0  0  0  0
   -1.3952   -0.9084    0.2428 N   0  0  0  0  0  0  0  0  0  0  0  0
   -2.1972   -0.3644   -0.0422 H   0  0  0  0  0  0  0  0  0  0  0  0
   -0.1122   -0.1994    0.2658 C   0  0  1  0  0  0  0  0  0  0  0  0
    0.2167   -0.1100    1.3044 H   0  0  0  0  0  0  0  0  0  0  0  0
    0.9286   -1.0303   -0.5174 C   0  0  0  0  0  0  0  0  0  0  0  0
    0.5080   -1.3125   -1.4819 H   0  0  0  0  0  0  0  0  0  0  0  0
    1.8140   -0.4218   -0.6948 H   0  0  0  0  0  0  0  0  0  0  0  0
    1.3409   -2.3182    0.1773 C   0  0  0  0  0  0  0  0  0  0  0  0
    1.5579   -2.3859    1.3746 O   0  0  0  0  0  0  0  0  0  0  0  0
    1.4738   -3.3947   -0.5587 N   0  0  0  0  0  0  0  0  0  0  0  0
    1.7300   -4.2345   -0.0700 H   0  0  0  0  0  0  0  0  0  0  0  0
    1.2826   -3.3695   -1.5425 H   0  0  0  0  0  0  0  0  0  0  0  0
   -0.2874    1.2247   -0.3061 C   0  0  0  0  0  0  0  0  0  0  0  0
   -1.4161    1.6964   -0.4445 O   0  0  0  0  0  0  0  0  0  0  0  0
    0.8151    1.8998   -0.6449 N   0  0  0  0  0  0  0  0  0  0  0  0
    1.6999    1.4081   -0.5693 H   0  0  0  0  0  0  0  0  0  0  0  0
    0.8211    3.2576   -1.1864 C   0  0  0  0  0  0  0  0  0  0  0  0
    0.3061    3.9307   -0.4975 H   0  0  0  0  0  0  0  0  0  0  0  0
    1.8472    3.6007   -1.3254 H   0  0  0  0  0  0  0  0  0  0  0  0
    0.3018    3.2739   -2.1461 H   0  0  0  0  0  0  0  0  0  0  0  0
  5  6  2  0  0  0  0
  5  7  1  0  0  0  0
  2  3  1  0  0  0  0
  2  4  1  0  0  0  0
  2  5  1  0  0  0  0
  1  2  1  0  0  0  0
 19 20  2  0  0  0  0
 19 21  1  0  0  0  0
 16 17  1  0  0  0  0
 16 18  1  0  0  0  0
 14 15  2  0  0  0  0
 14 16  1  0  0  0  0
 11 12  1  0  0  0  0
 11 13  1  0  0  0  0
 11 14  1  0  0  0  0
  9 10  1  0  0  0  0
  9 11  1  0  0  0  0
  9 19  1  0  0  0  0
  7  8  1  0  0  0  0
  7  9  1  0  0  0  0
 23 24  1  0  0  0  0
 23 25  1  0  0  0  0
 23 26  1  0  0  0  0
 21 22  1  0  0  0  0
 21 23  1  0  0  0  0
M  END
$$$$
default_name
  -OEChem-01062215323D

 26 25  0     1  0  0  0  0  0999 V2000
   -3.0232   -3.6924    1.0038 H   0  0  0  0  0  0  0  0  0  0  0  0
   -3.0082   -2.6684    0.6318 C   0  0  0  0  0  0  0  0  0  0  0  0
   -3.6332   -2.0414    1.2658 H   0  0  0  0  0  0  0  0  0  0  0  0
   -3.3762   -2.6444   -0.3912 H   0  0  0  0  0  0  0  0  0  0  0  0
   -1.5882   -2.1554    0.6658 C   0  0  0  0  0  0  0  0  0  0  0  0
   -0.6832   -2.8764    1.0638 O   0  0  0  0  0  0  0  0  0  0  0  0
   -1.3952   -0.9084    0.2428 N   0  0  0  0  0  0  0  0  0  0  0  0
   -2.1972   -0.3644   -0.0422 H   0  0  0  0  0  0  0  0  0  0  0  0
   -0.1122   -0.1994    0.2658 C   0  0  1  0  0  0  0  0  0  0  0  0
    0.2167   -0.1100    1.3044 H   0  0  0  0  0  0  0  0  0  0  0  0
    0.9286   -1.0303   -0.5174 C   0  0  0  0  0  0  0  0  0  0  0  0
    0.5080   -1.3125   -1.4819 H   0  0  0  0  0  0  0  0  0  0  0  0
    1.8140   -0.4218   -0.6948 H   0  0  0  0  0  0  0  0  0  0  0  0
    1.3409   -2.3182    0.1773 C   0  0  0  0  0  0  0  0  0  0  0  0
    1.5579   -2.3859    1.3746 O   0  0  0  0  0  0  0  0  0  0  0  0
    1.4738   -3.3947   -0.5587 N   0  0  0  0  0  0  0  0  0  0  0  0
    1.7300   -4.2345   -0.0700 H   0  0  0  0  0  0  0  0  0  0  0  0
    1.2826   -3.3695   -1.5425 H   0  0  0  0  0  0  0  0  0  0  0  0
   -0.2874    1.2247   -0.3061 C   0  0  0  0  0  0  0  0  0  0  0  0
   -1.3678    1.8037   -0.1921 O   0  0  0  0  0  0  0  0  0  0  0  0
    0.7590    1.7808   -0.9241 N   0  0  0  0  0  0  0  0  0  0  0  0
    1.5868    1.2049   -1.0404 H   0  0  0  0  0  0  0  0  0  0  0  0
    0.7600    3.1214   -1.5068 C   0  0  0  0  0  0  0  0  0  0  0  0
    0.4899    3.8545   -0.7436 H   0  0  0  0  0  0  0  0  0  0  0  0
    1.7500    3.3583   -1.8991 H   0  0  0  0  0  0  0  0  0  0  0  0
    0.0294    3.1722   -2.3158 H   0  0  0  0  0  0  0  0  0  0  0  0
  5  6  2  0  0  0  0
  5  7  1  0  0  0  0
  2  3  1  0  0  0  0
  2  4  1  0  0  0  0
  2  5  1  0  0  0  0
  1  2  1  0  0  0  0
 19 20  2  0  0  0  0
 19 21  1  0  0  0  0
 16 17  1  0  0  0  0
 16 18  1  0  0  0  0
 14 15  2  0  0  0  0
 14 16  1  0  0  0  0
 11 12  1  0  0  0  0
 11 13  1  0  0  0  0
 11 14  1  0  0  0  0
  9 10  1  0  0  0  0
  9 11  1  0  0  0  0
  9 19  1  0  0  0  0
  7  8  1  0  0  0  0
  7  9  1  0  0  0  0
 23 24  1  0  0  0  0
 23 25  1  0  0  0  0
 23 26  1  0  0  0  0
 21 22  1  0  0  0  0
 21 23  1  0  0  0  0
M  END
$$$$
default_name
  -OEChem-01062215323D

 26 25  0     1  0  0  0  0  0999 V2000
   -3.0232   -3.6924    1.0038 H   0  0  0  0  0  0  0  0  0  0  0  0
   -3.0082   -2.6684    0.6318 C   0  0  0  0  0  0  0  0  0  0  0  0
   -3.6332   -2.0414    1.2658 H   0  0  0  0  0  0  0  0  0  0  0  0
   -3.3762   -2.6444   -0.3912 H   0  0  0  0  0  0  0  0  0  0  0  0
   -1.5882   -2.1554    0.6658 C   0  0  0  0  0  0  0  0  0  0  0  0
   -0.6832   -2.8764    1.0638 O   0  0  0  0  0  0  0  0  0  0  0  0
   -1.3952   -0.9084    0.2428 N   0  0  0  0  0  0  0  0  0  0  0  0
   -2.1972   -0.3644   -0.0422 H   0  0  0  0  0  0  0  0  0  0  0  0
   -0.1122   -0.1994    0.2658 C   0  0  1  0  0  0  0  0  0  0  0  0
    0.2167   -0.1100    1.3044 H   0  0  0  0  0  0  0  0  0  0  0  0
    0.9286   -1.0303   -0.5174 C   0  0  0  0  0  0  0  0  0  0  0  0
    0.5080   -1.3125   -1.4819 H   0  0  0  0  0  0  0  0  0  0  0  0
    1.8140   -0.4218   -0.6948 H   0  0  0  0  0  0  0  0  0  0  0  0
    1.3409   -2.3182    0.1773 C   0  0  0  0  0  0  0  0  0  0  0  0
    1.5579   -2.3859    1.3746 O   0  0  0  0  0  0  0  0  0  0  0  0
    1.4738   -3.3947   -0.5587 N   0  0  0  0  0  0  0  0  0  0  0  0
    1.7300   -4.2345   -0.0700 H   0  0  0  0  0  0  0  0  0  0  0  0
    1.2826   -3.3695   -1.5425 H   0  0  0  0  0  0  0  0  0  0  0  0
   -0.2874    1.2247   -0.3061 C   0  0  0  0  0  0  0  0  0  0  0  0
   -1.2507    1.9102    0.0371 O   0  0  0  0  0  0  0  0  0  0  0  0
    0.6268    1.6630   -1.1770 N   0  0  0  0  0  0  0  0  0  0  0  0
    1.3456    1.0057   -1.4626 H   0  0  0  0  0  0  0  0  0  0  0  0
    0.6116    2.9863   -1.7977 C   0  0  0  0  0  0  0  0  0  0  0  0
    0.6014    3.7560   -1.0230 H   0  0  0  0  0  0  0  0  0  0  0  0
    1.4959    3.1166   -2.4230 H   0  0  0  0  0  0  0  0  0  0  0  0
   -0.2840    3.0951   -2.4117 H   0  0  0  0  0  0  0  0  0  0  0  0
  5  6  2  0  0  0  0
  5  7  1  0  0  0  0
  2  3  1  0  0  0  0
  2  4  1  0  0  0  0
  2  5  1  0  0  0  0
  1  2  1  0  0  0  0
 19 20  2  0  0  0  0
 19 21  1  0  0  0  0
 16 17  1  0  0  0  0
 16 18  1  0  0  0  0
 14 15  2  0  0  0  0
 14 16  1  0  0  0  0
 11 12  1  0  0  0  0
 11 13  1  0  0  0  0
 11 14  1  0  0  0  0
  9 10  1  0  0  0  0
  9 11  1  0  0  0  0
  9 19  1  0  0  0  0
  7  8  1  0  0  0  0
  7  9  1  0  0  0  0
 23 24  1  0  0  0  0
 23 25  1  0  0  0  0
 23 26  1  0  0  0  0
 21 22  1  0  0  0  0
 21 23  1  0  0  0  0
M  END
$$$$
default_name
  -OEChem-01062215323D

 26 25  0     1  0  0  0  0  0999 V2000
   -3.0232   -3.6924    1.0038 H   0  0  0  0  0  0  0  0  0  0  0  0
   -3.0082   -2.6684    0.6318 C   0  0  0  0  0  0  0  0  0  0  0  0
   -3.6332   -2.0414    1.2658 H   0  0  0  0  0  0  0  0  0  0  0  0
   -3.3762   -2.6444   -0.3912 H   0  0  0  0  0  0  0  0  0  0  0  0
   -1.5882   -2.1554    0.6658 C   0  0  0  0  0  0  0  0  0  0  0  0
   -0.6832   -2.8764    1.0638 O   0  0  0  0  0  0  0  0  0  0  0  0
   -1.3952   -0.9084    0.2428 N   0  0  0  0  0  0  0  0  0  0  0  0
   -2.1972   -0.3644   -0.0422 H   0  0  0  0  0  0  0  0  0  0  0  0
   -0.1122   -0.1994    0.2658 C   0  0  1  0  0  0  0  0  0  0  0  0
    0.2167   -0.1100    1.3044 H   0  0  0  0  0  0  0  0  0  0  0  0
    0.9286   -1.0303   -0.5174 C   0  0  0  0  0  0  0  0  0  0  0  0
    0.5080   -1.3125   -1.4819 H   0  0  0  0  0  0  0  0  0  0  0  0
    1.8140   -0.4218   -0.6948 H   0  0  0  0  0  0  0  0  0  0  0  0
    1.3409   -2.3182    0.1773 C   0  0  0  0  0  0  0  0  0  0  0  0
    1.5579   -2.3859    1.3746 O   0  0  0  0  0  0  0  0  0  0  0  0
    1.4738   -3.3947   -0.5587 N   0  0  0  0  0  0  0  0  0  0  0  0
    1.7300   -4.2345   -0.0700 H   0  0  0  0  0  0  0  0  0  0  0  0
    1.2826   -3.3695   -1.5425 H   0  0  0  0  0  0  0  0  0  0  0  0
   -0.2874    1.2247   -0.3061 C   0  0  0  0  0  0  0  0  0  0  0  0
   -1.0726    2.0085    0.2274 O   0  0  0  0  0  0  0  0  0  0  0  0
    0.4274    1.5544   -1.3862 N   0  0  0  0  0  0  0  0  0  0  0  0
    0.9929    0.8240   -1.8069 H   0  0  0  0  0  0  0  0  0  0  0  0
    0.3858    2.8615   -2.0393 C   0  0  0  0  0  0  0  0  0  0  0  0
    0.6330    3.6420   -1.3165 H   0  0  0  0  0  0  0  0  0  0  0  0
    1.1023    2.8922   -2.8613 H   0  0  0  0  0  0  0  0  0  0  0  0
   -0.6170    3.0479   -2.4273 H   0  0  0  0  0  0  0  0  0  0  0  0
  5  6  2  0  0  0  0
  5  7  1  0  0  0  0
  2  3  1  0  0  0  0
  2  4  1  0  0  0  0
  2  5  1  0  0  0  0
  1  2  1  0  0  0  0
 19 20  2  0  0  0  0
 19 21  1  0  0  0  0
 16 17  1  0  0  0  0
 16 18  1  0  0  0  0
 14 15  2  0  0  0  0
 14 16  1  0  0  0  0
 11 12  1  0  0  0  0
 11 13  1  0  0  0  0
 11 14  1  0  0  0  0
  9 10  1  0  0  0  0
  9 11  1  0  0  0  0
  9 19  1  0  0  0  0
  7  8  1  0  0  0  0
  7  9  1  0  0  0  0
 23 24  1  0  0  0  0
 23 25  1  0  0  0  0
 23 26  1  0  0  0  0
 21 22  1  0  0  0  0
 21 23  1  0  0  0  0
M  END
$$$$
default_name
  -OEChem-01062215323D

 26 25  0     1  0  0  0  0  0999 V2000
   -3.0232   -3.6924    1.0038 H   0  0  0  0  0  0  0  0  0  0  0  0
   -3.0082   -2.6684    0.6318 C   0  0  0  0  0  0  0  0  0  0  0  0
   -3.6332   -2.0414    1.2658 H   0  0  0  0  0  0  0  0  0  0  0  0
   -3.3762   -2.6444   -0.3912 H   0  0  0  0  0  0  0  0  0  0  0  0
   -1.5882   -2.1554    0.6658 C   0  0  0  0  0  0  0  0  0  0  0  0
   -0.6832   -2.8764    1.0638 O   0  0  0  0  0  0  0  0  0  0  0  0
   -1.3952   -0.9084    0.2428 N   0  0  0  0  0  0  0  0  0  0  0  0
   -2.1972   -0.3644   -0.0422 H   0  0  0  0  0  0  0  0  0  0  0  0
   -0.1122   -0.1994    0.2658 C   0  0  1  0  0  0  0  0  0  0  0  0
    0.2167   -0.1100    1.3044 H   0  0  0  0  0  0  0  0  0  0  0  0
    0.9286   -1.0303   -0.5174 C   0  0  0  0  0  0  0  0  0  0  0  0
    0.5080   -1.3125   -1.4819 H   0  0  0  0  0  0  0  0  0  0  0  0
    1.8140   -0.4218   -0.6948 H   0  0  0  0  0  0  0  0  0  0  0  0
    1.3409   -2.3182    0.1773 C   0  0  0  0  0  0  0  0  0  0  0  0
    1.5579   -2.3859    1.3746 O   0  0  0  0  0  0  0  0  0  0  0  0
    1.4738   -3.3947   -0.5587 N   0  0  0  0  0  0  0  0  0  0  0  0
    1.7300   -4.2345   -0.0700 H   0  0  0  0  0  0  0  0  0  0  0  0
    1.2826   -3.3695   -1.5425 H   0  0  0  0  0  0  0  0  0  0  0  0
   -0.2874    1.2247   -0.3061 C   0  0  0  0  0  0  0  0  0  0  0  0
   -0.8458    2.0920    0.3658 O   0  0  0  0  0  0  0  0  0  0  0  0
    0.1745    1.4625   -1.5375 N   0  0  0  0  0  0  0  0  0  0  0  0
    0.5526    0.6722   -2.0501 H   0  0  0  0  0  0  0  0  0  0  0  0
    0.0982    2.7555   -2.2151 C   0  0  0  0  0  0  0  0  0  0  0  0
    0.5825    3.5203   -1.6042 H   0  0  0  0  0  0  0  0  0  0  0  0
    0.5960    2.7002   -3.1842 H   0  0  0  0  0  0  0  0  0  0  0  0
   -0.9469    3.0337   -2.3615 H   0  0  0  0  0  0  0  0  0  0  0  0
  5  6  2  0  0  0  0
  5  7  1  0  0  0  0
  2  3  1  0  0  0  0
  2  4  1  0  0  0  0
  2  5  1  0  0  0  0
  1  2  1  0  0  0  0
 19 20  2  0  0  0  0
 19 21  1  0  0  0  0
 16 17  1  0  0  0  0
 16 18  1  0  0  0  0
 14 15  2  0  0  0  0
 14 16  1  0  0  0  0
 11 12  1  0  0  0  0
 11 13  1  0  0  0  0
 11 14  1  0  0  0  0
  9 10  1  0  0  0  0
  9 11  1  0  0  0  0
  9 19  1  0  0  0  0
  7  8  1  0  0  0  0
  7  9  1  0  0  0  0
 23 24  1  0  0  0  0
 23 25  1  0  0  0  0
 23 26  1  0  0  0  0
 21 22  1  0  0  0  0
 21 23  1  0  0  0  0
M  END
$$$$
default_name
  -OEChem-01062215323D

 26 25  0     1  0  0  0  0  0999 V2000
   -3.0232   -3.6924    1.0038 H   0  0  0  0  0  0  0  0  0  0  0  0
   -3.0082   -2.6684    0.6318 C   0  0  0  0  0  0  0  0  0  0  0  0
   -3.6332   -2.0414    1.2658 H   0  0  0  0  0  0  0  0  0  0  0  0
   -3.3762   -2.6444   -0.3912 H   0  0  0  0  0  0  0  0  0  0  0  0
   -1.5882   -2.1554    0.6658 C   0  0  0  0  0  0  0  0  0  0  0  0
   -0.6832   -2.8764    1.0638 O   0  0  0  0  0  0  0  0  0  0  0  0
   -1.3952   -0.9084    0.2428 N   0  0  0  0  0  0  0  0  0  0  0  0
   -2.1972   -0.3644   -0.0422 H   0  0  0  0  0  0  0  0  0  0  0  0
   -0.1122   -0.1994    0.2658 C   0  0  1  0  0  0  0  0  0  0  0  0
    0.2167   -0.1100    1.3044 H   0  0  0  0  0  0  0  0  0  0  0  0
    0.9286   -1.0303   -0.5174 C   0  0  0  0  0  0  0  0  0  0  0  0
    0.5080   -1.3125   -1.4819 H   0  0  0  0  0  0  0  0  0  0  0  0
    1.8140   -0.4218   -0.6948 H   0  0  0  0  0  0  0  0  0  0  0  0
    1.3409   -2.3182    0.1773 C   0  0  0  0  0  0  0  0  0  0  0  0
    1.5579   -2.3859    1.3746 O   0  0  0  0  0  0  0  0  0  0  0  0
    1.4738   -3.3947   -0.5587 N   0  0  0  0  0  0  0  0  0  0  0  0
    1.7300   -4.2345   -0.0700 H   0  0  0  0  0  0  0  0  0  0  0  0
    1.2826   -3.3695   -1.5425 H   0  0  0  0  0  0  0  0  0  0  0  0
   -0.2874    1.2247   -0.3061 C   0  0  0  0  0  0  0  0  0  0  0  0
   -0.5857    2.1550    0.4429 O   0  0  0  0  0  0  0  0  0  0  0  0
   -0.1147    1.3936   -1.6206 N   0  0  0  0  0  0  0  0  0  0  0  0
    0.0547    0.5606   -2.1754 H   0  0  0  0  0  0  0  0  0  0  0  0
   -0.2318    2.6755   -2.3132 C   0  0  0  0  0  0  0  0  0  0  0  0
    0.4535    3.3990   -1.8665 H   0  0  0  0  0  0  0  0  0  0  0  0
    0.0116    2.5538   -3.3696 H   0  0  0  0  0  0  0  0  0  0  0  0
   -1.2512    3.0536   -2.2188 H   0  0  0  0  0  0  0  0  0  0  0  0
  5  6  2  0  0  0  0
  5  7  1  0  0  0  0
  2  3  1  0  0  0  0
  2  4  1  0  0  0  0
  2  5  1  0  0  0  0
  1  2  1  0  0  0  0
 19 20  2  0  0  0  0
 19 21  1  0  0  0  0
 16 17  1  0  0  0  0
 16 18  1  0  0  0  0
 14 15  2  0  0  0  0
 14 16  1  0  0  0  0
 11 12  1  0  0  0  0
 11 13  1  0  0  0  0
 11 14  1  0  0  0  0
  9 10  1  0  0  0  0
  9 11  1  0  0  0  0
  9 19  1  0  0  0  0
  7  8  1  0  0  0  0
  7  9  1  0  0  0  0
 23 24  1  0  0  0  0
 23 25  1  0  0  0  0
 23 26  1  0  0  0  0
 21 22  1  0  0  0  0
 21 23  1  0  0  0  0
M  END
$$$$
default_name
  -OEChem-01062215323D

 26 25  0     1  0  0  0  0  0999 V2000
   -3.0232   -3.6924    1.0038 H   0  0  0  0  0  0  0  0  0  0  0  0
   -3.0082   -2.6684    0.6318 C   0  0  0  0  0  0  0  0  0  0  0  0
   -3.6332   -2.0414    1.2658 H   0  0  0  0  0  0  0  0  0  0  0  0
   -3.3762   -2.6444   -0.3912 H   0  0  0  0  0  0  0  0  0  0  0  0
   -1.5882   -2.1554    0.6658 C   0  0  0  0  0  0  0  0  0  0  0  0
   -0.6832   -2.8764    1.0638 O   0  0  0  0  0  0  0  0  0  0  0  0
   -1.3952   -0.9084    0.2428 N   0  0  0  0  0  0  0  0  0  0  0  0
   -2.1972   -0.3644   -0.0422 H   0  0  0  0  0  0  0  0  0  0  0  0
   -0.1122   -0.1994    0.2658 C   0  0  1  0  0  0  0  0  0  0  0  0
    0.2167   -0.1100    1.3044 H   0  0  0  0  0  0  0  0  0  0  0  0
    0.9286   -1.0303   -0.5174 C   0  0  0  0  0  0  0  0  0  0  0  0
    0.5080   -1.3125   -1.4819 H   0  0  0  0  0  0  0  0  0  0  0  0
    1.8140   -0.4218   -0.6948 H   0  0  0  0  0  0  0  0  0  0  0  0
    1.3409   -2.3182    0.1773 C   0  0  0  0  0  0  0  0  0  0  0  0
    1.5579   -2.3859    1.3746 O   0  0  0  0  0  0  0  0  0  0  0  0
    1.4738   -3.3947   -0.5587 N   0  0  0  0  0  0  0  0  0  0  0  0
    1.7300   -4.2345   -0.0700 H   0  0  0  0  0  0  0  0  0  0  0  0
    1.2826   -3.3695   -1.5425 H   0  0  0  0  0  0  0  0  0  0  0  0
   -0.2874    1.2247   -0.3061 C   0  0  0  0  0  0  0  0  0  0  0  0
   -0.3101    2.1931    0.4535 O   0  0  0  0  0  0  0  0  0  0  0  0
   -0.4205    1.3522   -1.6299 N   0  0  0  0  0  0  0  0  0  0  0  0
   -0.4668    0.4968   -2.1743 H   0  0  0  0  0  0  0  0  0  0  0  0
   -0.5817    2.6270   -2.3269 C   0  0  0  0  0  0  0  0  0  0  0  0
    0.2546    3.2866   -2.0855 H   0  0  0  0  0  0  0  0  0  0  0  0
   -0.6113    2.4630   -3.4050 H   0  0  0  0  0  0  0  0  0  0  0  0
   -1.5092    3.1061   -2.0089 H   0  0  0  0  0  0  0  0  0  0  0  0
  5  6  2  0  0  0  0
  5  7  1  0  0  0  0
  2  3  1  0  0  0  0
  2  4  1  0  0  0  0
  2  5  1  0  0  0  0
  1  2  1  0  0  0  0
 19 20  2  0  0  0  0
 19 21  1  0  0  0  0
 16 17  1  0  0  0  0
 16 18  1  0  0  0  0
 14 15  2  0  0  0  0
 14 16  1  0  0  0  0
 11 12  1  0  0  0  0
 11 13  1  0  0  0  0
 11 14  1  0  0  0  0
  9 10  1  0  0  0  0
  9 11  1  0  0  0  0
  9 19  1  0  0  0  0
  7  8  1  0  0  0  0
  7  9  1  0  0  0  0
 23 24  1  0  0  0  0
 23 25  1  0  0  0  0
 23 26  1  0  0  0  0
 21 22  1  0  0  0  0
 21 23  1  0  0  0  0
M  END
$$$$
default_name
  -OEChem-01062215323D

 26 25  0     1  0  0  0  0  0999 V2000
   -3.0232   -3.6924    1.0038 H   0  0  0  0  0  0  0  0  0  0  0  0
   -3.0082   -2.6684    0.6318 C   0  0  0  0  0  0  0  0  0  0  0  0
   -3.6332   -2.0414    1.2658 H   0  0  0  0  0  0  0  0  0  0  0  0
   -3.3762   -2.6444   -0.3912 H   0  0  0  0  0  0  0  0  0  0  0  0
   -1.5882   -2.1554    0.6658 C   0  0  0  0  0  0  0  0  0  0  0  0
   -0.6832   -2.8764    1.0638 O   0  0  0  0  0  0  0  0  0  0  0  0
   -1.3952   -0.9084    0.2428 N   0  0  0  0  0  0  0  0  0  0  0  0
   -2.1972   -0.3644   -0.0422 H   0  0  0  0  0  0  0  0  0  0  0  0
   -0.1122   -0.1994    0.2658 C   0  0  1  0  0  0  0  0  0  0  0  0
    0.2167   -0.1100    1.3044 H   0  0  0  0  0  0  0  0  0  0  0  0
    0.9286   -1.0303   -0.5174 C   0  0  0  0  0  0  0  0  0  0  0  0
    0.5080   -1.3125   -1.4819 H   0  0  0  0  0  0  0  0  0  0  0  0
    1.8140   -0.4218   -0.6948 H   0  0  0  0  0  0  0  0  0  0  0  0
    1.3409   -2.3182    0.1773 C   0  0  0  0  0  0  0  0  0  0  0  0
    1.5579   -2.3859    1.3746 O   0  0  0  0  0  0  0  0  0  0  0  0
    1.4738   -3.3947   -0.5587 N   0  0  0  0  0  0  0  0  0  0  0  0
    1.7300   -4.2345   -0.0700 H   0  0  0  0  0  0  0  0  0  0  0  0
    1.2826   -3.3695   -1.5425 H   0  0  0  0  0  0  0  0  0  0  0  0
   -0.2874    1.2247   -0.3061 C   0  0  0  0  0  0  0  0  0  0  0  0
   -0.0376    2.2039    0.3968 O   0  0  0  0  0  0  0  0  0  0  0  0
   -0.7220    1.3413   -1.5646 N   0  0  0  0  0  0  0  0  0  0  0  0
   -0.9764    0.4852   -2.0470 H   0  0  0  0  0  0  0  0  0  0  0  0
   -0.9275    2.6132   -2.2552 C   0  0  0  0  0  0  0  0  0  0  0  0
   -0.0005    3.1906   -2.2463 H   0  0  0  0  0  0  0  0  0  0  0  0
   -1.2300    2.4339   -3.2878 H   0  0  0  0  0  0  0  0  0  0  0  0
   -1.7032    3.1877   -1.7462 H   0  0  0  0  0  0  0  0  0  0  0  0
  5  6  2  0  0  0  0
  5  7  1  0  0  0  0
  2  3  1  0  0  0  0
  2  4  1  0  0  0  0
  2  5  1  0  0  0  0
  1  2  1  0  0  0  0
 19 20  2  0  0  0  0
 19 21  1  0  0  0  0
 16 17  1  0  0  0  0
 16 18  1  0  0  0  0
 14 15  2  0  0  0  0
 14 16  1  0  0  0  0
 11 12  1  0  0  0  0
 11 13  1  0  0  0  0
 11 14  1  0  0  0  0
  9 10  1  0  0  0  0
  9 11  1  0  0  0  0
  9 19  1  0  0  0  0
  7  8  1  0  0  0  0
  7  9  1  0  0  0  0
 23 24  1  0  0  0  0
 23 25  1  0  0  0  0
 23 26  1  0  0  0  0
 21 22  1  0  0  0  0
 21 23  1  0  0  0  0
M  END
$$$$
default_name
  -OEChem-01062215323D

 26 25  0     1  0  0  0  0  0999 V2000
   -3.0232   -3.6924    1.0038 H   0  0  0  0  0  0  0  0  0  0  0  0
   -3.0082   -2.6684    0.6318 C   0  0  0  0  0  0  0  0  0  0  0  0
   -3.6332   -2.0414    1.2658 H   0  0  0  0  0  0  0  0  0  0  0  0
   -3.3762   -2.6444   -0.3912 H   0  0  0  0  0  0  0  0  0  0  0  0
   -1.5882   -2.1554    0.6658 C   0  0  0  0  0  0  0  0  0  0  0  0
   -0.6832   -2.8764    1.0638 O   0  0  0  0  0  0  0  0  0  0  0  0
   -1.3952   -0.9084    0.2428 N   0  0  0  0  0  0  0  0  0  0  0  0
   -2.1972   -0.3644   -0.0422 H   0  0  0  0  0  0  0  0  0  0  0  0
   -0.1122   -0.1994    0.2658 C   0  0  1  0  0  0  0  0  0  0  0  0
    0.2167   -0.1100    1.3044 H   0  0  0  0  0  0  0  0  0  0  0  0
    0.9286   -1.0303   -0.5174 C   0  0  0  0  0  0  0  0  0  0  0  0
    0.5080   -1.3125   -1.4819 H   0  0  0  0  0  0  0  0  0  0  0  0
    1.8140   -0.4218   -0.6948 H   0  0  0  0  0  0  0  0  0  0  0  0
    1.3409   -2.3182    0.1773 C   0  0  0  0  0  0  0  0  0  0  0  0
    1.5579   -2.3859    1.3746 O   0  0  0  0  0  0  0  0  0  0  0  0
    1.4738   -3.3947   -0.5587 N   0  0  0  0  0  0  0  0  0  0  0  0
    1.7300   -4.2345   -0.0700 H   0  0  0  0  0  0  0  0  0  0  0  0
    1.2826   -3.3695   -1.5425 H   0  0  0  0  0  0  0  0  0  0  0  0
   -0.2874    1.2247   -0.3061 C   0  0  0  0  0  0  0  0  0  0  0  0
    0.2131    2.1865    0.2768 O   0  0  0  0  0  0  0  0  0  0  0  0
   -0.9987    1.3616   -1.4293 N   0  0  0  0  0  0  0  0  0  0  0  0
   -1.4394    0.5266   -1.8021 H   0  0  0  0  0  0  0  0  0  0  0  0
   -1.2457    2.6352   -2.1030 C   0  0  0  0  0  0  0  0  0  0  0  0
   -0.2945    3.1177   -2.3379 H   0  0  0  0  0  0  0  0  0  0  0  0
   -1.8025    2.4685   -3.0261 H   0  0  0  0  0  0  0  0  0  0  0  0
   -1.8202    3.2929   -1.4486 H   0  0  0  0  0  0  0  0  0  0  0  0
  5  6  2  0  0  0  0
  5  7  1  0  0  0  0
  2  3  1  0  0  0  0
  2  4  1  0  0  0  0
  2  5  1  0  0  0  0
  1  2  1  0  0  0  0
 19 20  2  0  0  0  0
 19 21  1  0  0  0  0
 16 17  1  0  0  0  0
 16 18  1  0  0  0  0
 14 15  2  0  0  0  0
 14 16  1  0  0  0  0
 11 12  1  0  0  0  0
 11 13  1  0  0  0  0
 11 14  1  0  0  0  0
  9 10  1  0  0  0  0
  9 11  1  0  0  0  0
  9 19  1  0  0  0  0
  7  8  1  0  0  0  0
  7  9  1  0  0  0  0
 23 24  1  0  0  0  0
 23 25  1  0  0  0  0
 23 26  1  0  0  0  0
 21 22  1  0  0  0  0
 21 23  1  0  0  0  0
M  END
$$$$
default_name
  -OEChem-01062215323D

 26 25  0     1  0  0  0  0  0999 V2000
   -3.0232   -3.6924    1.0038 H   0  0  0  0  0  0  0  0  0  0  0  0
   -3.0082   -2.6684    0.6318 C   0  0  0  0  0  0  0  0  0  0  0  0
   -3.6332   -2.0414    1.2658 H   0  0  0  0  0  0  0  0  0  0  0  0
   -3.3762   -2.6444   -0.3912 H   0  0  0  0  0  0  0  0  0  0  0  0
   -1.5882   -2.1554    0.6658 C   0  0  0  0  0  0  0  0  0  0  0  0
   -0.6832   -2.8764    1.0638 O   0  0  0  0  0  0  0  0  0  0  0  0
   -1.3952   -0.9084    0.2428 N   0  0  0  0  0  0  0  0  0  0  0  0
   -2.1972   -0.3644   -0.0422 H   0  0  0  0  0  0  0  0  0  0  0  0
   -0.1122   -0.1994    0.2658 C   0  0  1  0  0  0  0  0  0  0  0  0
    0.2167   -0.1100    1.3044 H   0  0  0  0  0  0  0  0  0  0  0  0
    0.9286   -1.0303   -0.5174 C   0  0  0  0  0  0  0  0  0  0  0  0
    0.5080   -1.3125   -1.4819 H   0  0  0  0  0  0  0  0  0  0  0  0
    1.8140   -0.4218   -0.6948 H   0  0  0  0  0  0  0  0  0  0  0  0
    1.3409   -2.3182    0.1773 C   0  0  0  0  0  0  0  0  0  0  0  0
    1.5579   -2.3859    1.3746 O   0  0  0  0  0  0  0  0  0  0  0  0
    1.4738   -3.3947   -0.5587 N   0  0  0  0  0  0  0  0  0  0  0  0
    1.7300   -4.2345   -0.0700 H   0  0  0  0  0  0  0  0  0  0  0  0
    1.2826   -3.3695   -1.5425 H   0  0  0  0  0  0  0  0  0  0  0  0
   -0.2874    1.2247   -0.3061 C   0  0  0  0  0  0  0  0  0  0  0  0
    0.4250    2.1422    0.1015 O   0  0  0  0  0  0  0  0  0  0  0  0
   -1.2318    1.4117   -1.2332 N   0  0  0  0  0  0  0  0  0  0  0  0
   -1.8242    0.6182   -1.4563 H   0  0  0  0  0  0  0  0  0  0  0  0
   -1.5147    2.6913   -1.8807 C   0  0  0  0  0  0  0  0  0  0  0  0
   -0.6073    3.0727   -2.3541 H   0  0  0  0  0  0  0  0  0  0  0  0
   -2.2897    2.5645   -2.6378 H   0  0  0  0  0  0  0  0  0  0  0  0
   -1.8521    3.4144   -1.1362 H   0  0  0  0  0  0  0  0  0  0  0  0
  5  6  2  0  0  0  0
  5  7  1  0  0  0  0
  2  3  1  0  0  0  0
  2  4  1  0  0  0  0
  2  5  1  0  0  0  0
  1  2  1  0  0  0  0
 19 20  2  0  0  0  0
 19 21  1  0  0  0  0
 16 17  1  0  0  0  0
 16 18  1  0  0  0  0
 14 15  2  0  0  0  0
 14 16  1  0  0  0  0
 11 12  1  0  0  0  0
 11 13  1  0  0  0  0
 11 14  1  0  0  0  0
  9 10  1  0  0  0  0
  9 11  1  0  0  0  0
  9 19  1  0  0  0  0
  7  8  1  0  0  0  0
  7  9  1  0  0  0  0
 23 24  1  0  0  0  0
 23 25  1  0  0  0  0
 23 26  1  0  0  0  0
 21 22  1  0  0  0  0
 21 23  1  0  0  0  0
M  END
$$$$
default_name
  -OEChem-01062215323D

 26 25  0     1  0  0  0  0  0999 V2000
   -3.0232   -3.6924    1.0038 H   0  0  0  0  0  0  0  0  0  0  0  0
   -3.0082   -2.6684    0.6318 C   0  0  0  0  0  0  0  0  0  0  0  0
   -3.6332   -2.0414    1.2658 H   0  0  0  0  0  0  0  0  0  0  0  0
   -3.3762   -2.6444   -0.3912 H   0  0  0  0  0  0  0  0  0  0  0  0
   -1.5882   -2.1554    0.6658 C   0  0  0  0  0  0  0  0  0  0  0  0
   -0.6832   -2.8764    1.0638 O   0  0  0  0  0  0  0  0  0  0  0  0
   -1.3952   -0.9084    0.2428 N   0  0  0  0  0  0  0  0  0  0  0  0
   -2.1972   -0.3644   -0.0422 H   0  0  0  0  0  0  0  0  0  0  0  0
   -0.1122   -0.1994    0.2658 C   0  0  1  0  0  0  0  0  0  0  0  0
    0.2167   -0.1100    1.3044 H   0  0  0  0  0  0  0  0  0  0  0  0
    0.9286   -1.0303   -0.5174 C   0  0  0  0  0  0  0  0  0  0  0  0
    0.5080   -1.3125   -1.4819 H   0  0  0  0  0  0  0  0  0  0  0  0
    1.8140   -0.4218   -0.6948 H   0  0  0  0  0  0  0  0  0  0  0  0
    1.3409   -2.3182    0.1773 C   0  0  0  0  0  0  0  0  0  0  0  0
    1.5579   -2.3859    1.3746 O   0  0  0  0  0  0  0  0  0  0  0  0
    1.4738   -3.3947   -0.5587 N   0  0  0  0  0  0  0  0  0  0  0  0
    1.7300   -4.2345   -0.0700 H   0  0  0  0  0  0  0  0  0  0  0  0
    1.2826   -3.3695   -1.5425 H   0  0  0  0  0  0  0  0  0  0  0  0
   -0.2874    1.2247   -0.3061 C   0  0  0  0  0  0  0  0  0  0  0  0
    0.5835    2.0739   -0.1171 O   0  0  0  0  0  0  0  0  0  0  0  0
   -1.4053    1.4881   -0.9896 N   0  0  0  0  0  0  0  0  0  0  0  0
   -2.1045    0.7536   -1.0331 H   0  0  0  0  0  0  0  0  0  0  0  0
   -1.7161    2.7779   -1.6034 C   0  0  0  0  0  0  0  0  0  0  0  0
   -0.9177    3.0587   -2.2937 H   0  0  0  0  0  0  0  0  0  0  0  0
   -2.6585    2.7153   -2.1493 H   0  0  0  0  0  0  0  0  0  0  0  0
   -1.7966    3.5440   -0.8305 H   0  0  0  0  0  0  0  0  0  0  0  0
  5  6  2  0  0  0  0
  5  7  1  0  0  0  0
  2  3  1  0  0  0  0
  2  4  1  0  0  0  0
  2  5  1  0  0  0  0
  1  2  1  0  0  0  0
 19 20  2  0  0  0  0
 19 21  1  0  0  0  0
 16 17  1  0  0  0  0
 16 18  1  0  0  0  0
 14 15  2  0  0  0  0
 14 16  1  0  0  0  0
 11 12  1  0  0  0  0
 11 13  1  0  0  0  0
 11 14  1  0  0  0  0
  9 10  1  0  0  0  0
  9 11  1  0  0  0  0
  9 19  1  0  0  0  0
  7  8  1  0  0  0  0
  7  9  1  0  0  0  0
 23 24  1  0  0  0  0
 23 25  1  0  0  0  0
 23 26  1  0  0  0  0
 21 22  1  0  0  0  0
 21 23  1  0  0  0  0
M  END
$$$$
default_name
  -OEChem-01062215323D

 26 25  0     1  0  0  0  0  0999 V2000
   -3.0232   -3.6924    1.0038 H   0  0  0  0  0  0  0  0  0  0  0  0
   -3.0082   -2.6684    0.6318 C   0  0  0  0  0  0  0  0  0  0  0  0
   -3.6332   -2.0414    1.2658 H   0  0  0  0  0  0  0  0  0  0  0  0
   -3.3762   -2.6444   -0.3912 H   0  0  0  0  0  0  0  0  0  0  0  0
   -1.5882   -2.1554    0.6658 C   0  0  0  0  0  0  0  0  0  0  0  0
   -0.6832   -2.8764    1.0638 O   0  0  0  0  0  0  0  0  0  0  0  0
   -1.3952   -0.9084    0.2428 N   0  0  0  0  0  0  0  0  0  0  0  0
   -2.1972   -0.3644   -0.0422 H   0  0  0  0  0  0  0  0  0  0  0  0
   -0.1122   -0.1994    0.2658 C   0  0  1  0  0  0  0  0  0  0  0  0
    0.2167   -0.1100    1.3044 H   0  0  0  0  0  0  0  0  0  0  0  0
    0.9286   -1.0303   -0.5174 C   0  0  0  0  0  0  0  0  0  0  0  0
    0.5080   -1.3125   -1.4819 H   0  0  0  0  0  0  0  0  0  0  0  0
    1.8140   -0.4218   -0.6948 H   0  0  0  0  0  0  0  0  0  0  0  0
    1.3409   -2.3182    0.1773 C   0  0  0  0  0  0  0  0  0  0  0  0
    1.5579   -2.3859    1.3746 O   0  0  0  0  0  0  0  0  0  0  0  0
    1.4738   -3.3947   -0.5587 N   0  0  0  0  0  0  0  0  0  0  0  0
    1.7300   -4.2345   -0.0700 H   0  0  0  0  0  0  0  0  0  0  0  0
    1.2826   -3.3695   -1.5425 H   0  0  0  0  0  0  0  0  0  0  0  0
   -0.2874    1.2247   -0.3061 C   0  0  0  0  0  0  0  0  0  0  0  0
    0.6779    1.9864   -0.3641 O   0  0  0  0  0  0  0  0  0  0  0  0
   -1.5075    1.5858   -0.7152 N   0  0  0  0  0  0  0  0  0  0  0  0
   -2.2614    0.9237   -0.5614 H   0  0  0  0  0  0  0  0  0  0  0  0
   -1.8361    2.8890   -1.2901 C   0  0  0  0  0  0  0  0  0  0  0  0
   -1.2044    3.0767   -2.1610 H   0  0  0  0  0  0  0  0  0  0  0  0
   -2.8836    2.9107   -1.5938 H   0  0  0  0  0  0  0  0  0  0  0  0
   -1.6577    3.6729   -0.5522 H   0  0  0  0  0  0  0  0  0  0  0  0
  5  6  2  0  0  0  0
  5  7  1  0  0  0  0
  2  3  1  0  0  0  0
  2  4  1  0  0  0  0
  2  5  1  0  0  0  0
  1  2  1  0  0  0  0
 19 20  2  0  0  0  0
 19 21  1  0  0  0  0
 16 17  1  0  0  0  0
 16 18  1  0  0  0  0
 14 15  2  0  0  0  0
 14 16  1  0  0  0  0
 11 12  1  0  0  0  0
 11 13  1  0  0  0  0
 11 14  1  0  0  0  0
  9 10  1  0  0  0  0
  9 11  1  0  0  0  0
  9 19  1  0  0  0  0
  7  8  1  0  0  0  0
  7  9  1  0  0  0  0
 23 24  1  0  0  0  0
 23 25  1  0  0  0  0
 23 26  1  0  0  0  0
 21 22  1  0  0  0  0
 21 23  1  0  0  0  0
M  END
$$$$
default_name
  -OEChem-01062215323D

 26 25  0     1  0  0  0  0  0999 V2000
   -3.0232   -3.6924    1.0038 H   0  0  0  0  0  0  0  0  0  0  0  0
   -3.0082   -2.6684    0.6318 C   0  0  0  0  0  0  0  0  0  0  0  0
   -3.6332   -2.0414    1.2658 H   0  0  0  0  0  0  0  0  0  0  0  0
   -3.3762   -2.6444   -0.3912 H   0  0  0  0  0  0  0  0  0  0  0  0
   -1.5882   -2.1554    0.6658 C   0  0  0  0  0  0  0  0  0  0  0  0
   -0.6832   -2.8764    1.0638 O   0  0  0  0  0  0  0  0  0  0  0  0
   -1.3952   -0.9084    0.2428 N   0  0  0  0  0  0  0  0  0  0  0  0
   -2.1972   -0.3644   -0.0422 H   0  0  0  0  0  0  0  0  0  0  0  0
   -0.1122   -0.1994    0.2658 C   0  0  1  0  0  0  0  0  0  0  0  0
    0.2167   -0.1100    1.3044 H   0  0  0  0  0  0  0  0  0  0  0  0
    0.9286   -1.0303   -0.5174 C   0  0  0  0  0  0  0  0  0  0  0  0
    0.5080   -1.3125   -1.4819 H   0  0  0  0  0  0  0  0  0  0  0  0
    1.8140   -0.4218   -0.6948 H   0  0  0  0  0  0  0  0  0  0  0  0
    1.3409   -2.3182    0.1773 C   0  0  0  0  0  0  0  0  0  0  0  0
    1.5579   -2.3859    1.3746 O   0  0  0  0  0  0  0  0  0  0  0  0
    1.4738   -3.3947   -0.5587 N   0  0  0  0  0  0  0  0  0  0  0  0
    1.7300   -4.2345   -0.0700 H   0  0  0  0  0  0  0  0  0  0  0  0
    1.2826   -3.3695   -1.5425 H   0  0  0  0  0  0  0  0  0  0  0  0
   -0.2874    1.2247   -0.3061 C   0  0  0  0  0  0  0  0  0  0  0  0
    0.7018    1.8855   -0.6226 O   0  0  0  0  0  0  0  0  0  0  0  0
   -1.5313    1.6980   -0.4286 N   0  0  0  0  0  0  0  0  0  0  0  0
   -2.2841    1.1170   -0.0733 H   0  0  0  0  0  0  0  0  0  0  0  0
   -1.8667    3.0169   -0.9621 C   0  0  0  0  0  0  0  0  0  0  0  0
   -1.4479    3.1255   -1.9649 H   0  0  0  0  0  0  0  0  0  0  0  0
   -2.9499    3.1373   -1.0092 H   0  0  0  0  0  0  0  0  0  0  0  0
   -1.4448    3.7922   -0.3203 H   0  0  0  0  0  0  0  0  0  0  0  0
  5  6  2  0  0  0  0
  5  7  1  0  0  0  0
  2  3  1  0  0  0  0
  2  4  1  0  0  0  0
  2  5  1  0  0  0  0
  1  2  1  0  0  0  0
 19 20  2  0  0  0  0
 19 21  1  0  0  0  0
 16 17  1  0  0  0  0
 16 18  1  0  0  0  0
 14 15  2  0  0  0  0
 14 16  1  0  0  0  0
 11 12  1  0  0  0  0
 11 13  1  0  0  0  0
 11 14  1  0  0  0  0
  9 10  1  0  0  0  0
  9 11  1  0  0  0  0
  9 19  1  0  0  0  0
  7  8  1  0  0  0  0
  7  9  1  0  0  0  0
 23 24  1  0  0  0  0
 23 25  1  0  0  0  0
 23 26  1  0  0  0  0
 21 22  1  0  0  0  0
 21 23  1  0  0  0  0
M  END
$$$$
default_name
  -OEChem-01062215323D

 26 25  0     1  0  0  0  0  0999 V2000
   -3.0232   -3.6924    1.0038 H   0  0  0  0  0  0  0  0  0  0  0  0
   -3.0082   -2.6684    0.6318 C   0  0  0  0  0  0  0  0  0  0  0  0
   -3.6332   -2.0414    1.2658 H   0  0  0  0  0  0  0  0  0  0  0  0
   -3.3762   -2.6444   -0.3912 H   0  0  0  0  0  0  0  0  0  0  0  0
   -1.5882   -2.1554    0.6658 C   0  0  0  0  0  0  0  0  0  0  0  0
   -0.6832   -2.8764    1.0638 O   0  0  0  0  0  0  0  0  0  0  0  0
   -1.3952   -0.9084    0.2428 N   0  0  0  0  0  0  0  0  0  0  0  0
   -2.1972   -0.3644   -0.0422 H   0  0  0  0  0  0  0  0  0  0  0  0
   -0.1122   -0.1994    0.2658 C   0  0  1  0  0  0  0  0  0  0  0  0
    0.2167   -0.1100    1.3044 H   0  0  0  0  0  0  0  0  0  0  0  0
    0.9286   -1.0303   -0.5174 C   0  0  0  0  0  0  0  0  0  0  0  0
    0.5080   -1.3125   -1.4819 H   0  0  0  0  0  0  0  0  0  0  0  0
    1.8140   -0.4218   -0.6948 H   0  0  0  0  0  0  0  0  0  0  0  0
    1.3409   -2.3182    0.1773 C   0  0  0  0  0  0  0  0  0  0  0  0
    1.5579   -2.3859    1.3746 O   0  0  0  0  0  0  0  0  0  0  0  0
    1.4738   -3.3947   -0.5587 N   0  0  0  0  0  0  0  0  0  0  0  0
    1.7300   -4.2345   -0.0700 H   0  0  0  0  0  0  0  0  0  0  0  0
    1.2826   -3.3695   -1.5425 H   0  0  0  0  0  0  0  0  0  0  0  0
   -0.2874    1.2247   -0.3061 C   0  0  0  0  0  0  0  0  0  0  0  0
    0.6536    1.7782   -0.8750 O   0  0  0  0  0  0  0  0  0  0  0  0
   -1.4752    1.8170   -0.1493 N   0  0  0  0  0  0  0  0  0  0  0  0
   -2.1710    1.3201    0.3978 H   0  0  0  0  0  0  0  0  0  0  0  0
   -1.8056    3.1531   -0.6417 C   0  0  0  0  0  0  0  0  0  0  0  0
   -1.6317    3.2018   -1.7188 H   0  0  0  0  0  0  0  0  0  0  0  0
   -2.8526    3.3797   -0.4355 H   0  0  0  0  0  0  0  0  0  0  0  0
   -1.1724    3.8939   -0.1506 H   0  0  0  0  0  0  0  0  0  0  0  0
  5  6  2  0  0  0  0
  5  7  1  0  0  0  0
  2  3  1  0  0  0  0
  2  4  1  0  0  0  0
  2  5  1  0  0  0  0
  1  2  1  0  0  0  0
 19 20  2  0  0  0  0
 19 21  1  0  0  0  0
 16 17  1  0  0  0  0
 16 18  1  0  0  0  0
 14 15  2  0  0  0  0
 14 16  1  0  0  0  0
 11 12  1  0  0  0  0
 11 13  1  0  0  0  0
 11 14  1  0  0  0  0
  9 10  1  0  0  0  0
  9 11  1  0  0  0  0
  9 19  1  0  0  0  0
  7  8  1  0  0  0  0
  7  9  1  0  0  0  0
 23 24  1  0  0  0  0
 23 25  1  0  0  0  0
 23 26  1  0  0  0  0
 21 22  1  0  0  0  0
 21 23  1  0  0  0  0
M  END
$$$$
default_name
  -OEChem-01062215323D

 26 25  0     1  0  0  0  0  0999 V2000
   -3.0232   -3.6924    1.0038 H   0  0  0  0  0  0  0  0  0  0  0  0
   -3.0082   -2.6684    0.6318 C   0  0  0  0  0  0  0  0  0  0  0  0
   -3.6332   -2.0414    1.2658 H   0  0  0  0  0  0  0  0  0  0  0  0
   -3.3762   -2.6444   -0.3912 H   0  0  0  0  0  0  0  0  0  0  0  0
   -1.5882   -2.1554    0.6658 C   0  0  0  0  0  0  0  0  0  0  0  0
   -0.6832   -2.8764    1.0638 O   0  0  0  0  0  0  0  0  0  0  0  0
   -1.3952   -0.9084    0.2428 N   0  0  0  0  0  0  0  0  0  0  0  0
   -2.1972   -0.3644   -0.0422 H   0  0  0  0  0  0  0  0  0  0  0  0
   -0.1122   -0.1994    0.2658 C   0  0  1  0  0  0  0  0  0  0  0  0
    0.2167   -0.1100    1.3044 H   0  0  0  0  0  0  0  0  0  0  0  0
    0.9286   -1.0303   -0.5174 C   0  0  0  0  0  0  0  0  0  0  0  0
    0.5080   -1.3125   -1.4819 H   0  0  0  0  0  0  0  0  0  0  0  0
    1.8140   -0.4218   -0.6948 H   0  0  0  0  0  0  0  0  0  0  0  0
    1.3409   -2.3182    0.1773 C   0  0  0  0  0  0  0  0  0  0  0  0
    1.5579   -2.3859    1.3746 O   0  0  0  0  0  0  0  0  0  0  0  0
    1.4738   -3.3947   -0.5587 N   0  0  0  0  0  0  0  0  0  0  0  0
    1.7300   -4.2345   -0.0700 H   0  0  0  0  0  0  0  0  0  0  0  0
    1.2826   -3.3695   -1.5425 H   0  0  0  0  0  0  0  0  0  0  0  0
   -0.2874    1.2247   -0.3061 C   0  0  0  0  0  0  0  0  0  0  0  0
    0.5364    1.6717   -1.1042 O   0  0  0  0  0  0  0  0  0  0  0  0
   -1.3430    1.9348    0.1035 N   0  0  0  0  0  0  0  0  0  0  0  0
   -1.9298    1.5193    0.8200 H   0  0  0  0  0  0  0  0  0  0  0  0
   -1.6572    3.2882   -0.3508 C   0  0  0  0  0  0  0  0  0  0  0  0
   -1.7432    3.3002   -1.4395 H   0  0  0  0  0  0  0  0  0  0  0  0
   -2.5986    3.6214    0.0884 H   0  0  0  0  0  0  0  0  0  0  0  0
   -0.8590    3.9710   -0.0547 H   0  0  0  0  0  0  0  0  0  0  0  0
  5  6  2  0  0  0  0
  5  7  1  0  0  0  0
  2  3  1  0  0  0  0
  2  4  1  0  0  0  0
  2  5  1  0  0  0  0
  1  2  1  0  0  0  0
 19 20  2  0  0  0  0
 19 21  1  0  0  0  0
 16 17  1  0  0  0  0
 16 18  1  0  0  0  0
 14 15  2  0  0  0  0
 14 16  1  0  0  0  0
 11 12  1  0  0  0  0
 11 13  1  0  0  0  0
 11 14  1  0  0  0  0
  9 10  1  0  0  0  0
  9 11  1  0  0  0  0
  9 19  1  0  0  0  0
  7  8  1  0  0  0  0
  7  9  1  0  0  0  0
 23 24  1  0  0  0  0
 23 25  1  0  0  0  0
 23 26  1  0  0  0  0
 21 22  1  0  0  0  0
 21 23  1  0  0  0  0
M  END
$$$$
default_name
  -OEChem-01062215323D

 26 25  0     1  0  0  0  0  0999 V2000
   -3.0232   -3.6924    1.0038 H   0  0  0  0  0  0  0  0  0  0  0  0
   -3.0082   -2.6684    0.6318 C   0  0  0  0  0  0  0  0  0  0  0  0
   -3.6332   -2.0414    1.2658 H   0  0  0  0  0  0  0  0  0  0  0  0
   -3.3762   -2.6444   -0.3912 H   0  0  0  0  0  0  0  0  0  0  0  0
   -1.5882   -2.1554    0.6658 C   0  0  0  0  0  0  0  0  0  0  0  0
   -0.6832   -2.8764    1.0638 O   0  0  0  0  0  0  0  0  0  0  0  0
   -1.3952   -0.9084    0.2428 N   0  0  0  0  0  0  0  0  0  0  0  0
   -2.1972   -0.3644   -0.0422 H   0  0  0  0  0  0  0  0  0  0  0  0
   -0.1122   -0.1994    0.2658 C   0  0  1  0  0  0  0  0  0  0  0  0
    0.2167   -0.1100    1.3044 H   0  0  0  0  0  0  0  0  0  0  0  0
    0.9286   -1.0303   -0.5174 C   0  0  0  0  0  0  0  0  0  0  0  0
    0.5080   -1.3125   -1.4819 H   0  0  0  0  0  0  0  0  0  0  0  0
    1.8140   -0.4218   -0.6948 H   0  0  0  0  0  0  0  0  0  0  0  0
    1.3409   -2.3182    0.1773 C   0  0  0  0  0  0  0  0  0  0  0  0
    1.5579   -2.3859    1.3746 O   0  0  0  0  0  0  0  0  0  0  0  0
    1.4738   -3.3947   -0.5587 N   0  0  0  0  0  0  0  0  0  0  0  0
    1.7300   -4.2345   -0.0700 H   0  0  0  0  0  0  0  0  0  0  0  0
    1.2826   -3.3695   -1.5425 H   0  0  0  0  0  0  0  0  0  0  0  0
   -0.2874    1.2247   -0.3061 C   0  0  0  0  0  0  0  0  0  0  0  0
    0.3584    1.5734   -1.2944 O   0  0  0  0  0  0  0  0  0  0  0  0
   -1.1436    2.0434    0.3127 N   0  0  0  0  0  0  0  0  0  0  0  0
   -1.5771    1.7010    1.1643 H   0  0  0  0  0  0  0  0  0  0  0  0
   -1.4314    3.4130   -0.1092 C   0  0  0  0  0  0  0  0  0  0  0  0
   -1.7748    3.4142   -1.1459 H   0  0  0  0  0  0  0  0  0  0  0  0
   -2.2050    3.8458    0.5267 H   0  0  0  0  0  0  0  0  0  0  0  0
   -0.5260    4.0182   -0.0391 H   0  0  0  0  0  0  0  0  0  0  0  0
  5  6  2  0  0  0  0
  5  7  1  0  0  0  0
  2  3  1  0  0  0  0
  2  4  1  0  0  0  0
  2  5  1  0  0  0  0
  1  2  1  0  0  0  0
 19 20  2  0  0  0  0
 19 21  1  0  0  0  0
 16 17  1  0  0  0  0
 16 18  1  0  0  0  0
 14 15  2  0  0  0  0
 14 16  1  0  0  0  0
 11 12  1  0  0  0  0
 11 13  1  0  0  0  0
 11 14  1  0  0  0  0
  9 10  1  0  0  0  0
  9 11  1  0  0  0  0
  9 19  1  0  0  0  0
  7  8  1  0  0  0  0
  7  9  1  0  0  0  0
 23 24  1  0  0  0  0
 23 25  1  0  0  0  0
 23 26  1  0  0  0  0
 21 22  1  0  0  0  0
 21 23  1  0  0  0  0
M  END
$$$$
default_name
  -OEChem-01062215323D

 26 25  0     1  0  0  0  0  0999 V2000
   -3.0232   -3.6924    1.0038 H   0  0  0  0  0  0  0  0  0  0  0  0
   -3.0082   -2.6684    0.6318 C   0  0  0  0  0  0  0  0  0  0  0  0
   -3.6332   -2.0414    1.2658 H   0  0  0  0  0  0  0  0  0  0  0  0
   -3.3762   -2.6444   -0.3912 H   0  0  0  0  0  0  0  0  0  0  0  0
   -1.5882   -2.1554    0.6658 C   0  0  0  0  0  0  0  0  0  0  0  0
   -0.6832   -2.8764    1.0638 O   0  0  0  0  0  0  0  0  0  0  0  0
   -1.3952   -0.9084    0.2428 N   0  0  0  0  0  0  0  0  0  0  0  0
   -2.1972   -0.3644   -0.0422 H   0  0  0  0  0  0  0  0  0  0  0  0
   -0.1122   -0.1994    0.2658 C   0  0  1  0  0  0  0  0  0  0  0  0
    0.2167   -0.1100    1.3044 H   0  0  0  0  0  0  0  0  0  0  0  0
    0.9286   -1.0303   -0.5174 C   0  0  0  0  0  0  0  0  0  0  0  0
    0.5080   -1.3125   -1.4819 H   0  0  0  0  0  0  0  0  0  0  0  0
    1.8140   -0.4218   -0.6948 H   0  0  0  0  0  0  0  0  0  0  0  0
    1.3409   -2.3182    0.1773 C   0  0  0  0  0  0  0  0  0  0  0  0
    1.5579   -2.3859    1.3746 O   0  0  0  0  0  0  0  0  0  0  0  0
    1.4738   -3.3947   -0.5587 N   0  0  0  0  0  0  0  0  0  0  0  0
    1.7300   -4.2345   -0.0700 H   0  0  0  0  0  0  0  0  0  0  0  0
    1.2826   -3.3695   -1.5425 H   0  0  0  0  0  0  0  0  0  0  0  0
   -0.2874    1.2247   -0.3061 C   0  0  0  0  0  0  0  0  0  0  0  0
    0.1316    1.4899   -1.4329 O   0  0  0  0  0  0  0  0  0  0  0  0
   -0.8907    2.1353    0.4640 N   0  0  0  0  0  0  0  0  0  0  0  0
   -1.1368    1.8529    1.4075 H   0  0  0  0  0  0  0  0  0  0  0  0
   -1.1438    3.5191    0.0667 C   0  0  0  0  0  0  0  0  0  0  0  0
   -1.7243    3.5360   -0.8582 H   0  0  0  0  0  0  0  0  0  0  0  0
   -1.6987    4.0378    0.8496 H   0  0  0  0  0  0  0  0  0  0  0  0
   -0.1961    4.0324   -0.1049 H   0  0  0  0  0  0  0  0  0  0  0  0
  5  6  2  0  0  0  0
  5  7  1  0  0  0  0
  2  3  1  0  0  0  0
  2  4  1  0  0  0  0
  2  5  1  0  0  0  0
  1  2  1  0  0  0  0
 19 20  2  0  0  0  0
 19 21  1  0  0  0  0
 16 17  1  0  0  0  0
 16 18  1  0  0  0  0
 14 15  2  0  0  0  0
 14 16  1  0  0  0  0
 11 12  1  0  0  0  0
 11 13  1  0  0  0  0
 11 14  1  0  0  0  0
  9 10  1  0  0  0  0
  9 11  1  0  0  0  0
  9 19  1  0  0  0  0
  7  8  1  0  0  0  0
  7  9  1  0  0  0  0
 23 24  1  0  0  0  0
 23 25  1  0  0  0  0
 23 26  1  0  0  0  0
 21 22  1  0  0  0  0
 21 23  1  0  0  0  0
M  END
$$$$
default_name
  -OEChem-01062215323D

 26 25  0     1  0  0  0  0  0999 V2000
   -3.0232   -3.6924    1.0038 H   0  0  0  0  0  0  0  0  0  0  0  0
   -3.0082   -2.6684    0.6318 C   0  0  0  0  0  0  0  0  0  0  0  0
   -3.6332   -2.0414    1.2658 H   0  0  0  0  0  0  0  0  0  0  0  0
   -3.3762   -2.6444   -0.3912 H   0  0  0  0  0  0  0  0  0  0  0  0
   -1.5882   -2.1554    0.6658 C   0  0  0  0  0  0  0  0  0  0  0  0
   -0.6832   -2.8764    1.0638 O   0  0  0  0  0  0  0  0  0  0  0  0
   -1.3952   -0.9084    0.2428 N   0  0  0  0  0  0  0  0  0  0  0  0
   -2.1972   -0.3644   -0.0422 H   0  0  0  0  0  0  0  0  0  0  0  0
   -0.1122   -0.1994    0.2658 C   0  0  1  0  0  0  0  0  0  0  0  0
    0.2167   -0.1100    1.3044 H   0  0  0  0  0  0  0  0  0  0  0  0
    0.9286   -1.0303   -0.5174 C   0  0  0  0  0  0  0  0  0  0  0  0
    0.5080   -1.3125   -1.4819 H   0  0  0  0  0  0  0  0  0  0  0  0
    1.8140   -0.4218   -0.6948 H   0  0  0  0  0  0  0  0  0  0  0  0
    1.3409   -2.3182    0.1773 C   0  0  0  0  0  0  0  0  0  0  0  0
    1.5579   -2.3859    1.3746 O   0  0  0  0  0  0  0  0  0  0  0  0
    1.4738   -3.3947   -0.5587 N   0  0  0  0  0  0  0  0  0  0  0  0
    1.7300   -4.2345   -0.0700 H   0  0  0  0  0  0  0  0  0  0  0  0
    1.2826   -3.3695   -1.5425 H   0  0  0  0  0  0  0  0  0  0  0  0
   -0.2874    1.2247   -0.3061 C   0  0  0  0  0  0  0  0  0  0  0  0
   -0.1285    1.4269   -1.5100 O   0  0  0  0  0  0  0  0  0  0  0  0
   -0.6015    2.2043    0.5472 N   0  0  0  0  0  0  0  0  0  0  0  0
   -0.6389    1.9645    1.5328 H   0  0  0  0  0  0  0  0  0  0  0  0
   -0.8138    3.5991    0.1648 C   0  0  0  0  0  0  0  0  0  0  0  0
   -1.5953    3.6572   -0.5959 H   0  0  0  0  0  0  0  0  0  0  0  0
   -1.1142    4.1842    1.0350 H   0  0  0  0  0  0  0  0  0  0  0  0
    0.1082    4.0125   -0.2476 H   0  0  0  0  0  0  0  0  0  0  0  0
  5  6  2  0  0  0  0
  5  7  1  0  0  0  0
  2  3  1  0  0  0  0
  2  4  1  0  0  0  0
  2  5  1  0  0  0  0
  1  2  1  0  0  0  0
 19 20  2  0  0  0  0
 19 21  1  0  0  0  0
 16 17  1  0  0  0  0
 16 18  1  0  0  0  0
 14 15  2  0  0  0  0
 14 16  1  0  0  0  0
 11 12  1  0  0  0  0
 11 13  1  0  0  0  0
 11 14  1  0  0  0  0
  9 10  1  0  0  0  0
  9 11  1  0  0  0  0
  9 19  1  0  0  0  0
  7  8  1  0  0  0  0
  7  9  1  0  0  0  0
 23 24  1  0  0  0  0
 23 25  1  0  0  0  0
 23 26  1  0  0  0  0
 21 22  1  0  0  0  0
 21 23  1  0  0  0  0
M  END
$$$$
default_name
  -OEChem-01062215323D

 26 25  0     1  0  0  0  0  0999 V2000
   -3.0232   -3.6924    1.0038 H   0  0  0  0  0  0  0  0  0  0  0  0
   -3.0082   -2.6684    0.6318 C   0  0  0  0  0  0  0  0  0  0  0  0
   -3.6332   -2.0414    1.2658 H   0  0  0  0  0  0  0  0  0  0  0  0
   -3.3762   -2.6444   -0.3912 H   0  0  0  0  0  0  0  0  0  0  0  0
   -1.5882   -2.1554    0.6658 C   0  0  0  0  0  0  0  0  0  0  0  0
   -0.6832   -2.8764    1.0638 O   0  0  0  0  0  0  0  0  0  0  0  0
   -1.3952   -0.9084    0.2428 N   0  0  0  0  0  0  0  0  0  0  0  0
   -2.1972   -0.3644   -0.0422 H   0  0  0  0  0  0  0  0  0  0  0  0
   -0.1122   -0.1994    0.2658 C   0  0  1  0  0  0  0  0  0  0  0  0
    0.2167   -0.1100    1.3044 H   0  0  0  0  0  0  0  0  0  0  0  0
    0.9286   -1.0303   -0.5174 C   0  0  0  0  0  0  0  0  0  0  0  0
    0.5080   -1.3125   -1.4819 H   0  0  0  0  0  0  0  0  0  0  0  0
    1.8140   -0.4218   -0.6948 H   0  0  0  0  0  0  0  0  0  0  0  0
    1.3409   -2.3182    0.1773 C   0  0  0  0  0  0  0  0  0  0  0  0
    1.5579   -2.3859    1.3746 O   0  0  0  0  0  0  0  0  0  0  0  0
    1.4738   -3.3947   -0.5587 N   0  0  0  0  0  0  0  0  0  0  0  0
    1.7300   -4.2345   -0.0700 H   0  0  0  0  0  0  0  0  0  0  0  0
    1.2826   -3.3695   -1.5425 H   0  0  0  0  0  0  0  0  0  0  0  0
   -0.2874    1.2247   -0.3061 C   0  0  0  0  0  0  0  0  0  0  0  0
   -0.4042    1.3887   -1.5206 O   0  0  0  0  0  0  0  0  0  0  0  0
   -0.2958    2.2456    0.5564 N   0  0  0  0  0  0  0  0  0  0  0  0
   -0.1174    2.0282    1.5317 H   0  0  0  0  0  0  0  0  0  0  0  0
   -0.4640    3.6476    0.1784 C   0  0  0  0  0  0  0  0  0  0  0  0
   -1.3964    3.7696   -0.3769 H   0  0  0  0  0  0  0  0  0  0  0  0
   -0.4914    4.2751    1.0704 H   0  0  0  0  0  0  0  0  0  0  0  0
    0.3661    3.9600   -0.4574 H   0  0  0  0  0  0  0  0  0  0  0  0
  5  6  2  0  0  0  0
  5  7  1  0  0  0  0
  2  3  1  0  0  0  0
  2  4  1  0  0  0  0
  2  5  1  0  0  0  0
  1  2  1  0  0  0  0
 19 20  2  0  0  0  0
 19 21  1  0  0  0  0
 16 17  1  0  0  0  0
 16 18  1  0  0  0  0
 14 15  2  0  0  0  0
 14 16  1  0  0  0  0
 11 12  1  0  0  0  0
 11 13  1  0  0  0  0
 11 14  1  0  0  0  0
  9 10  1  0  0  0  0
  9 11  1  0  0  0  0
  9 19  1  0  0  0  0
  7  8  1  0  0  0  0
  7  9  1  0  0  0  0
 23 24  1  0  0  0  0
 23 25  1  0  0  0  0
 23 26  1  0  0  0  0
 21 22  1  0  0  0  0
 21 23  1  0  0  0  0
M  END
$$$$
default_name
  -OEChem-01062215323D

 26 25  0     1  0  0  0  0  0999 V2000
   -3.0232   -3.6924    1.0038 H   0  0  0  0  0  0  0  0  0  0  0  0
   -3.0082   -2.6684    0.6318 C   0  0  0  0  0  0  0  0  0  0  0  0
   -3.6332   -2.0414    1.2658 H   0  0  0  0  0  0  0  0  0  0  0  0
   -3.3762   -2.6444   -0.3912 H   0  0  0  0  0  0  0  0  0  0  0  0
   -1.5882   -2.1554    0.6658 C   0  0  0  0  0  0  0  0  0  0  0  0
   -0.6832   -2.8764    1.0638 O   0  0  0  0  0  0  0  0  0  0  0  0
   -1.3952   -0.9084    0.2428 N   0  0  0  0  0  0  0  0  0  0  0  0
   -2.1972   -0.3644   -0.0422 H   0  0  0  0  0  0  0  0  0  0  0  0
   -0.1122   -0.1994    0.2658 C   0  0  1  0  0  0  0  0  0  0  0  0
    0.2167   -0.1100    1.3044 H   0  0  0  0  0  0  0  0  0  0  0  0
    0.9286   -1.0303   -0.5174 C   0  0  0  0  0  0  0  0  0  0  0  0
    0.5080   -1.3125   -1.4819 H   0  0  0  0  0  0  0  0  0  0  0  0
    1.8140   -0.4218   -0.6948 H   0  0  0  0  0  0  0  0  0  0  0  0
    1.3409   -2.3182    0.1773 C   0  0  0  0  0  0  0  0  0  0  0  0
    1.5579   -2.3859    1.3746 O   0  0  0  0  0  0  0  0  0  0  0  0
    1.4738   -3.3947   -0.5587 N   0  0  0  0  0  0  0  0  0  0  0  0
    1.7300   -4.2345   -0.0700 H   0  0  0  0  0  0  0  0  0  0  0  0
    1.2826   -3.3695   -1.5425 H   0  0  0  0  0  0  0  0  0  0  0  0
   -0.2874    1.2247   -0.3061 C   0  0  0  0  0  0  0  0  0  0  0  0
   -0.6767    1.3780   -1.4639 O   0  0  0  0  0  0  0  0  0  0  0  0
    0.0058    2.2565    0.4912 N   0  0  0  0  0  0  0  0  0  0  0  0
    0.3922    2.0398    1.4044 H   0  0  0  0  0  0  0  0  0  0  0  0
   -0.1181    3.6614    0.1067 C   0  0  0  0  0  0  0  0  0  0  0  0
   -1.1413    3.8656   -0.2161 H   0  0  0  0  0  0  0  0  0  0  0  0
    0.1274    4.3041    0.9532 H   0  0  0  0  0  0  0  0  0  0  0  0
    0.5602    3.8784   -0.7201 H   0  0  0  0  0  0  0  0  0  0  0  0
  5  6  2  0  0  0  0
  5  7  1  0  0  0  0
  2  3  1  0  0  0  0
  2  4  1  0  0  0  0
  2  5  1  0  0  0  0
  1  2  1  0  0  0  0
 19 20  2  0  0  0  0
 19 21  1  0  0  0  0
 16 17  1  0  0  0  0
 16 18  1  0  0  0  0
 14 15  2  0  0  0  0
 14 16  1  0  0  0  0
 11 12  1  0  0  0  0
 11 13  1  0  0  0  0
 11 14  1  0  0  0  0
  9 10  1  0  0  0  0
  9 11  1  0  0  0  0
  9 19  1  0  0  0  0
  7  8  1  0  0  0  0
  7  9  1  0  0  0  0
 23 24  1  0  0  0  0
 23 25  1  0  0  0  0
 23 26  1  0  0  0  0
 21 22  1  0  0  0  0
 21 23  1  0  0  0  0
M  END
$$$$
default_name
  -OEChem-01062215323D

 26 25  0     1  0  0  0  0  0999 V2000
   -3.0232   -3.6924    1.0038 H   0  0  0  0  0  0  0  0  0  0  0  0
   -3.0082   -2.6684    0.6318 C   0  0  0  0  0  0  0  0  0  0  0  0
   -3.6332   -2.0414    1.2658 H   0  0  0  0  0  0  0  0  0  0  0  0
   -3.3762   -2.6444   -0.3912 H   0  0  0  0  0  0  0  0  0  0  0  0
   -1.5882   -2.1554    0.6658 C   0  0  0  0  0  0  0  0  0  0  0  0
   -0.6832   -2.8764    1.0638 O   0  0  0  0  0  0  0  0  0  0  0  0
   -1.3952   -0.9084    0.2428 N   0  0  0  0  0  0  0  0  0  0  0  0
   -2.1972   -0.3644   -0.0422 H   0  0  0  0  0  0  0  0  0  0  0  0
   -0.1122   -0.1994    0.2658 C   0  0  1  0  0  0  0  0  0  0  0  0
    0.2167   -0.1100    1.3044 H   0  0  0  0  0  0  0  0  0  0  0  0
    0.9286   -1.0303   -0.5174 C   0  0  0  0  0  0  0  0  0  0  0  0
    0.5080   -1.3125   -1.4819 H   0  0  0  0  0  0  0  0  0  0  0  0
    1.8140   -0.4218   -0.6948 H   0  0  0  0  0  0  0  0  0  0  0  0
    1.3409   -2.3182    0.1773 C   0  0  0  0  0  0  0  0  0  0  0  0
    1.5579   -2.3859    1.3746 O   0  0  0  0  0  0  0  0  0  0  0  0
    1.4738   -3.3947   -0.5587 N   0  0  0  0  0  0  0  0  0  0  0  0
    1.7300   -4.2345   -0.0700 H   0  0  0  0  0  0  0  0  0  0  0  0
    1.2826   -3.3695   -1.5425 H   0  0  0  0  0  0  0  0  0  0  0  0
   -0.2874    1.2247   -0.3061 C   0  0  0  0  0  0  0  0  0  0  0  0
   -0.9274    1.3953   -1.3438 O   0  0  0  0  0  0  0  0  0  0  0  0
    0.2825    2.2362    0.3559 N   0  0  0  0  0  0  0  0  0  0  0  0
    0.8552    1.9984    1.1595 H   0  0  0  0  0  0  0  0  0  0  0  0
    0.2001    3.6394   -0.0455 C   0  0  0  0  0  0  0  0  0  0  0  0
   -0.8473    3.9386   -0.1245 H   0  0  0  0  0  0  0  0  0  0  0  0
    0.6998    4.2695    0.6915 H   0  0  0  0  0  0  0  0  0  0  0  0
    0.6772    3.7732   -1.0178 H   0  0  0  0  0  0  0  0  0  0  0  0
  5  6  2  0  0  0  0
  5  7  1  0  0  0  0
  2  3  1  0  0  0  0
  2  4  1  0  0  0  0
  2  5  1  0  0  0  0
  1  2  1  0  0  0  0
 19 20  2  0  0  0  0
 19 21  1  0  0  0  0
 16 17  1  0  0  0  0
 16 18  1  0  0  0  0
 14 15  2  0  0  0  0
 14 16  1  0  0  0  0
 11 12  1  0  0  0  0
 11 13  1  0  0  0  0
 11 14  1  0  0  0  0
  9 10  1  0  0  0  0
  9 11  1  0  0  0  0
  9 19  1  0  0  0  0
  7  8  1  0  0  0  0
  7  9  1  0  0  0  0
 23 24  1  0  0  0  0
 23 25  1  0  0  0  0
 23 26  1  0  0  0  0
 21 22  1  0  0  0  0
 21 23  1  0  0  0  0
M  END
$$$$
default_name
  -OEChem-01062215323D

 26 25  0     1  0  0  0  0  0999 V2000
   -3.0232   -3.6924    1.0038 H   0  0  0  0  0  0  0  0  0  0  0  0
   -3.0082   -2.6684    0.6318 C   0  0  0  0  0  0  0  0  0  0  0  0
   -3.6332   -2.0414    1.2658 H   0  0  0  0  0  0  0  0  0  0  0  0
   -3.3762   -2.6444   -0.3912 H   0  0  0  0  0  0  0  0  0  0  0  0
   -1.5882   -2.1554    0.6658 C   0  0  0  0  0  0  0  0  0  0  0  0
   -0.6832   -2.8764    1.0638 O   0  0  0  0  0  0  0  0  0  0  0  0
   -1.3952   -0.9084    0.2428 N   0  0  0  0  0  0  0  0  0  0  0  0
   -2.1972   -0.3644   -0.0422 H   0  0  0  0  0  0  0  0  0  0  0  0
   -0.1122   -0.1994    0.2658 C   0  0  1  0  0  0  0  0  0  0  0  0
    0.2167   -0.1100    1.3044 H   0  0  0  0  0  0  0  0  0  0  0  0
    0.9286   -1.0303   -0.5174 C   0  0  0  0  0  0  0  0  0  0  0  0
    0.5080   -1.3125   -1.4819 H   0  0  0  0  0  0  0  0  0  0  0  0
    1.8140   -0.4218   -0.6948 H   0  0  0  0  0  0  0  0  0  0  0  0
    1.3409   -2.3182    0.1773 C   0  0  0  0  0  0  0  0  0  0  0  0
    1.5579   -2.3859    1.3746 O   0  0  0  0  0  0  0  0  0  0  0  0
    1.4738   -3.3947   -0.5587 N   0  0  0  0  0  0  0  0  0  0  0  0
    1.7300   -4.2345   -0.0700 H   0  0  0  0  0  0  0  0  0  0  0  0
    1.2826   -3.3695   -1.5425 H   0  0  0  0  0  0  0  0  0  0  0  0
   -0.2874    1.2247   -0.3061 C   0  0  0  0  0  0  0  0  0  0  0  0
   -1.1392    1.4397   -1.1685 O   0  0  0  0  0  0  0  0  0  0  0  0
    0.5156    2.1861    0.1598 N   0  0  0  0  0  0  0  0  0  0  0  0
    1.2400    1.9069    0.8137 H   0  0  0  0  0  0  0  0  0  0  0  0
    0.4691    3.5832   -0.2678 C   0  0  0  0  0  0  0  0  0  0  0  0
   -0.5345    3.9836   -0.1083 H   0  0  0  0  0  0  0  0  0  0  0  0
    1.1871    4.1735    0.3032 H   0  0  0  0  0  0  0  0  0  0  0  0
    0.7090    3.6517   -1.3302 H   0  0  0  0  0  0  0  0  0  0  0  0
  5  6  2  0  0  0  0
  5  7  1  0  0  0  0
  2  3  1  0  0  0  0
  2  4  1  0  0  0  0
  2  5  1  0  0  0  0
  1  2  1  0  0  0  0
 19 20  2  0  0  0  0
 19 21  1  0  0  0  0
 16 17  1  0  0  0  0
 16 18  1  0  0  0  0
 14 15  2  0  0  0  0
 14 16  1  0  0  0  0
 11 12  1  0  0  0  0
 11 13  1  0  0  0  0
 11 14  1  0  0  0  0
  9 10  1  0  0  0  0
  9 11  1  0  0  0  0
  9 19  1  0  0  0  0
  7  8  1  0  0  0  0
  7  9  1  0  0  0  0
 23 24  1  0  0  0  0
 23 25  1  0  0  0  0
 23 26  1  0  0  0  0
 21 22  1  0  0  0  0
 21 23  1  0  0  0  0
M  END
$$$$
default_name
  -OEChem-01062215323D

 26 25  0     1  0  0  0  0  0999 V2000
   -3.0232   -3.6924    1.0038 H   0  0  0  0  0  0  0  0  0  0  0  0
   -3.0082   -2.6684    0.6318 C   0  0  0  0  0  0  0  0  0  0  0  0
   -3.6332   -2.0414    1.2658 H   0  0  0  0  0  0  0  0  0  0  0  0
   -3.3762   -2.6444   -0.3912 H   0  0  0  0  0  0  0  0  0  0  0  0
   -1.5882   -2.1554    0.6658 C   0  0  0  0  0  0  0  0  0  0  0  0
   -0.6832   -2.8764    1.0638 O   0  0  0  0  0  0  0  0  0  0  0  0
   -1.3952   -0.9084    0.2428 N   0  0  0  0  0  0  0  0  0  0  0  0
   -2.1972   -0.3644   -0.0422 H   0  0  0  0  0  0  0  0  0  0  0  0
   -0.1122   -0.1994    0.2658 C   0  0  1  0  0  0  0  0  0  0  0  0
    0.2167   -0.1100    1.3044 H   0  0  0  0  0  0  0  0  0  0  0  0
    0.9286   -1.0303   -0.5174 C   0  0  0  0  0  0  0  0  0  0  0  0
    0.5080   -1.3125   -1.4819 H   0  0  0  0  0  0  0  0  0  0  0  0
    1.8140   -0.4218   -0.6948 H   0  0  0  0  0  0  0  0  0  0  0  0
    1.3409   -2.3182    0.1773 C   0  0  0  0  0  0  0  0  0  0  0  0
    1.5579   -2.3859    1.3746 O   0  0  0  0  0  0  0  0  0  0  0  0
    1.4738   -3.3947   -0.5587 N   0  0  0  0  0  0  0  0  0  0  0  0
    1.7300   -4.2345   -0.0700 H   0  0  0  0  0  0  0  0  0  0  0  0
    1.2826   -3.3695   -1.5425 H   0  0  0  0  0  0  0  0  0  0  0  0
   -0.2874    1.2247   -0.3061 C   0  0  0  0  0  0  0  0  0  0  0  0
   -1.2977    1.5079   -0.9500 O   0  0  0  0  0  0  0  0  0  0  0  0
    0.6891    2.1097   -0.0838 N   0  0  0  0  0  0  0  0  0  0  0  0
    1.5204    1.7714    0.3905 H   0  0  0  0  0  0  0  0  0  0  0  0
    0.6704    3.4966   -0.5450 C   0  0  0  0  0  0  0  0  0  0  0  0
   -0.2241    3.9975   -0.1687 H   0  0  0  0  0  0  0  0  0  0  0  0
    1.5558    4.0227   -0.1853 H   0  0  0  0  0  0  0  0  0  0  0  0
    0.6536    3.5221   -1.6359 H   0  0  0  0  0  0  0  0  0  0  0  0
  5  6  2  0  0  0  0
  5  7  1  0  0  0  0
  2  3  1  0  0  0  0
  2  4  1  0  0  0  0
  2  5  1  0  0  0  0
  1  2  1  0  0  0  0
 19 20  2  0  0  0  0
 19 21  1  0  0  0  0
 16 17  1  0  0  0  0
 16 18  1  0  0  0  0
 14 15  2  0  0  0  0
 14 16  1  0  0  0  0
 11 12  1  0  0  0  0
 11 13  1  0  0  0  0
 11 14  1  0  0  0  0
  9 10  1  0  0  0  0
  9 11  1  0  0  0  0
  9 19  1  0  0  0  0
  7  8  1  0  0  0  0
  7  9  1  0  0  0  0
 23 24  1  0  0  0  0
 23 25  1  0  0  0  0
 23 26  1  0  0  0  0
 21 22  1  0  0  0  0
 21 23  1  0  0  0  0
M  END
$$$$
default_name
  -OEChem-01062215323D

 26 25  0     1  0  0  0  0  0999 V2000
   -3.0232   -3.6924    1.0038 H   0  0  0  0  0  0  0  0  0  0  0  0
   -3.0082   -2.6684    0.6318 C   0  0  0  0  0  0  0  0  0  0  0  0
   -3.6332   -2.0414    1.2658 H   0  0  0  0  0  0  0  0  0  0  0  0
   -3.3762   -2.6444   -0.3912 H   0  0  0  0  0  0  0  0  0  0  0  0
   -1.5882   -2.1554    0.6658 C   0  0  0  0  0  0  0  0  0  0  0  0
   -0.6832   -2.8764    1.0638 O   0  0  0  0  0  0  0  0  0  0  0  0
   -1.3952   -0.9084    0.2428 N   0  0  0  0  0  0  0  0  0  0  0  0
   -2.1972   -0.3644   -0.0422 H   0  0  0  0  0  0  0  0  0  0  0  0
   -0.1122   -0.1994    0.2658 C   0  0  1  0  0  0  0  0  0  0  0  0
    0.3455   -0.3412    1.2482 H   0  0  0  0  0  0  0  0  0  0  0  0
    0.8133   -0.8122   -0.8089 C   0  0  0  0  0  0  0  0  0  0  0  0
    0.2719   -0.8766   -1.7521 H   0  0  0  0  0  0  0  0  0  0  0  0
    1.6757   -0.1631   -0.9527 H   0  0  0  0  0  0  0  0  0  0  0  0
    1.2962   -2.2160   -0.4814 C   0  0  0  0  0  0  0  0  0  0  0  0
    1.6613   -2.5488    0.6327 O   0  0  0  0  0  0  0  0  0  0  0  0
    1.3245   -3.0955   -1.4530 N   0  0  0  0  0  0  0  0  0  0  0  0
    1.6313   -4.0191   -1.2033 H   0  0  0  0  0  0  0  0  0  0  0  0
    1.0115   -2.8519   -2.3737 H   0  0  0  0  0  0  0  0  0  0  0  0
   -0.3431    1.3137    0.0581 C   0  0  0  0  0  0  0  0  0  0  0  0
   -1.4851    1.7442   -0.1034 O   0  0  0  0  0  0  0  0  0  0  0  0
    0.7286    2.1122    0.0518 N   0  0  0  0  0  0  0  0  0  0  0  0
    1.6380    1.6659    0.1158 H   0  0  0  0  0  0  0  0  0  0  0  0
    0.6792    3.5630   -0.1197 C   0  0  0  0  0  0  0  0  0  0  0  0
    0.0332    4.0020    0.6437 H   0  0  0  0  0  0  0  0  0  0  0  0
    1.6811    3.9849   -0.0295 H   0  0  0  0  0  0  0  0  0  0  0  0
    0.2730    3.8042   -1.1035 H   0  0  0  0  0  0  0  0  0  0  0  0
  5  6  2  0  0  0  0
  5  7  1  0  0  0  0
  2  3  1  0  0  0  0
  2  4  1  0  0  0  0
  2  5  1  0  0  0  0
  1  2  1  0  0  0  0
 19 20  2  0  0  0  0
 19 21  1  0  0  0  0
 16 17  1  0  0  0  0
 16 18  1  0  0  0  0
 14 15  2  0  0  0  0
 14 16  1  0  0  0  0
 11 12  1  0  0  0  0
 11 13  1  0  0  0  0
 11 14  1  0  0  0  0
  9 10  1  0  0  0  0
  9 11  1  0  0  0  0
  9 19  1  0  0  0  0
  7  8  1  0  0  0  0
  7  9  1  0  0  0  0
 23 24  1  0  0  0  0
 23 25  1  0  0  0  0
 23 26  1  0  0  0  0
 21 22  1  0  0  0  0
 21 23  1  0  0  0  0
M  END
$$$$
default_name
  -OEChem-01062215323D

 26 25  0     1  0  0  0  0  0999 V2000
   -3.0232   -3.6924    1.0038 H   0  0  0  0  0  0  0  0  0  0  0  0
   -3.0082   -2.6684    0.6318 C   0  0  0  0  0  0  0  0  0  0  0  0
   -3.6332   -2.0414    1.2658 H   0  0  0  0  0  0  0  0  0  0  0  0
   -3.3762   -2.6444   -0.3912 H   0  0  0  0  0  0  0  0  0  0  0  0
   -1.5882   -2.1554    0.6658 C   0  0  0  0  0  0  0  0  0  0  0  0
   -0.6832   -2.8764    1.0638 O   0  0  0  0  0  0  0  0  0  0  0  0
   -1.3952   -0.9084    0.2428 N   0  0  0  0  0  0  0  0  0  0  0  0
   -2.1972   -0.3644   -0.0422 H   0  0  0  0  0  0  0  0  0  0  0  0
   -0.1122   -0.1994    0.2658 C   0  0  1  0  0  0  0  0  0  0  0  0
    0.3455   -0.3412    1.2482 H   0  0  0  0  0  0  0  0  0  0  0  0
    0.8133   -0.8122   -0.8089 C   0  0  0  0  0  0  0  0  0  0  0  0
    0.2719   -0.8766   -1.7521 H   0  0  0  0  0  0  0  0  0  0  0  0
    1.6757   -0.1631   -0.9527 H   0  0  0  0  0  0  0  0  0  0  0  0
    1.2962   -2.2160   -0.4814 C   0  0  0  0  0  0  0  0  0  0  0  0
    1.6613   -2.5488    0.6327 O   0  0  0  0  0  0  0  0  0  0  0  0
    1.3245   -3.0955   -1.4530 N   0  0  0  0  0  0  0  0  0  0  0  0
    1.6313   -4.0191   -1.2033 H   0  0  0  0  0  0  0  0  0  0  0  0
    1.0115   -2.8519   -2.3737 H   0  0  0  0  0  0  0  0  0  0  0  0
   -0.3431    1.3137    0.0581 C   0  0  0  0  0  0  0  0  0  0  0  0
   -1.4753    1.7835    0.1722 O   0  0  0  0  0  0  0  0  0  0  0  0
    0.7151    2.0682   -0.2535 N   0  0  0  0  0  0  0  0  0  0  0  0
    1.5971    1.5885   -0.4023 H   0  0  0  0  0  0  0  0  0  0  0  0
    0.6670    3.5132   -0.4694 C   0  0  0  0  0  0  0  0  0  0  0  0
    0.2497    4.0033    0.4129 H   0  0  0  0  0  0  0  0  0  0  0  0
    1.6710    3.8977   -0.6538 H   0  0  0  0  0  0  0  0  0  0  0  0
    0.0315    3.7366   -1.3280 H   0  0  0  0  0  0  0  0  0  0  0  0
  5  6  2  0  0  0  0
  5  7  1  0  0  0  0
  2  3  1  0  0  0  0
  2  4  1  0  0  0  0
  2  5  1  0  0  0  0
  1  2  1  0  0  0  0
 19 20  2  0  0  0  0
 19 21  1  0  0  0  0
 16 17  1  0  0  0  0
 16 18  1  0  0  0  0
 14 15  2  0  0  0  0
 14 16  1  0  0  0  0
 11 12  1  0  0  0  0
 11 13  1  0  0  0  0
 11 14  1  0  0  0  0
  9 10  1  0  0  0  0
  9 11  1  0  0  0  0
  9 19  1  0  0  0  0
  7  8  1  0  0  0  0
  7  9  1  0  0  0  0
 23 24  1  0  0  0  0
 23 25  1  0  0  0  0
 23 26  1  0  0  0  0
 21 22  1  0  0  0  0
 21 23  1  0  0  0  0
M  END
$$$$
default_name
  -OEChem-01062215323D

 26 25  0     1  0  0  0  0  0999 V2000
   -3.0232   -3.6924    1.0038 H   0  0  0  0  0  0  0  0  0  0  0  0
   -3.0082   -2.6684    0.6318 C   0  0  0  0  0  0  0  0  0  0  0  0
   -3.6332   -2.0414    1.2658 H   0  0  0  0  0  0  0  0  0  0  0  0
   -3.3762   -2.6444   -0.3912 H   0  0  0  0  0  0  0  0  0  0  0  0
   -1.5882   -2.1554    0.6658 C   0  0  0  0  0  0  0  0  0  0  0  0
   -0.6832   -2.8764    1.0638 O   0  0  0  0  0  0  0  0  0  0  0  0
   -1.3952   -0.9084    0.2428 N   0  0  0  0  0  0  0  0  0  0  0  0
   -2.1972   -0.3644   -0.0422 H   0  0  0  0  0  0  0  0  0  0  0  0
   -0.1122   -0.1994    0.2658 C   0  0  1  0  0  0  0  0  0  0  0  0
    0.3455   -0.3412    1.2482 H   0  0  0  0  0  0  0  0  0  0  0  0
    0.8133   -0.8122   -0.8089 C   0  0  0  0  0  0  0  0  0  0  0  0
    0.2719   -0.8766   -1.7521 H   0  0  0  0  0  0  0  0  0  0  0  0
    1.6757   -0.1631   -0.9527 H   0  0  0  0  0  0  0  0  0  0  0  0
    1.2962   -2.2160   -0.4814 C   0  0  0  0  0  0  0  0  0  0  0  0
    1.6613   -2.5488    0.6327 O   0  0  0  0  0  0  0  0  0  0  0  0
    1.3245   -3.0955   -1.4530 N   0  0  0  0  0  0  0  0  0  0  0  0
    1.6313   -4.0191   -1.2033 H   0  0  0  0  0  0  0  0  0  0  0  0
    1.0115   -2.8519   -2.3737 H   0  0  0  0  0  0  0  0  0  0  0  0
   -0.3431    1.3137    0.0581 C   0  0  0  0  0  0  0  0  0  0  0  0
   -1.3946    1.8318    0.4343 O   0  0  0  0  0  0  0  0  0  0  0  0
    0.6231    2.0144   -0.5432 N   0  0  0  0  0  0  0  0  0  0  0  0
    1.4237    1.4952   -0.8893 H   0  0  0  0  0  0  0  0  0  0  0  0
    0.5648    3.4519   -0.8021 C   0  0  0  0  0  0  0  0  0  0  0  0
    0.4003    3.9882    0.1349 H   0  0  0  0  0  0  0  0  0  0  0  0
    1.5000    3.7896   -1.2508 H   0  0  0  0  0  0  0  0  0  0  0  0
   -0.2612    3.6709   -1.4809 H   0  0  0  0  0  0  0  0  0  0  0  0
  5  6  2  0  0  0  0
  5  7  1  0  0  0  0
  2  3  1  0  0  0  0
  2  4  1  0  0  0  0
  2  5  1  0  0  0  0
  1  2  1  0  0  0  0
 19 20  2  0  0  0  0
 19 21  1  0  0  0  0
 16 17  1  0  0  0  0
 16 18  1  0  0  0  0
 14 15  2  0  0  0  0
 14 16  1  0  0  0  0
 11 12  1  0  0  0  0
 11 13  1  0  0  0  0
 11 14  1  0  0  0  0
  9 10  1  0  0  0  0
  9 11  1  0  0  0  0
  9 19  1  0  0  0  0
  7  8  1  0  0  0  0
  7  9  1  0  0  0  0
 23 24  1  0  0  0  0
 23 25  1  0  0  0  0
 23 26  1  0  0  0  0
 21 22  1  0  0  0  0
 21 23  1  0  0  0  0
M  END
$$$$
default_name
  -OEChem-01062215323D

 26 25  0     1  0  0  0  0  0999 V2000
   -3.0232   -3.6924    1.0038 H   0  0  0  0  0  0  0  0  0  0  0  0
   -3.0082   -2.6684    0.6318 C   0  0  0  0  0  0  0  0  0  0  0  0
   -3.6332   -2.0414    1.2658 H   0  0  0  0  0  0  0  0  0  0  0  0
   -3.3762   -2.6444   -0.3912 H   0  0  0  0  0  0  0  0  0  0  0  0
   -1.5882   -2.1554    0.6658 C   0  0  0  0  0  0  0  0  0  0  0  0
   -0.6832   -2.8764    1.0638 O   0  0  0  0  0  0  0  0  0  0  0  0
   -1.3952   -0.9084    0.2428 N   0  0  0  0  0  0  0  0  0  0  0  0
   -2.1972   -0.3644   -0.0422 H   0  0  0  0  0  0  0  0  0  0  0  0
   -0.1122   -0.1994    0.2658 C   0  0  1  0  0  0  0  0  0  0  0  0
    0.3455   -0.3412    1.2482 H   0  0  0  0  0  0  0  0  0  0  0  0
    0.8133   -0.8122   -0.8089 C   0  0  0  0  0  0  0  0  0  0  0  0
    0.2719   -0.8766   -1.7521 H   0  0  0  0  0  0  0  0  0  0  0  0
    1.6757   -0.1631   -0.9527 H   0  0  0  0  0  0  0  0  0  0  0  0
    1.2962   -2.2160   -0.4814 C   0  0  0  0  0  0  0  0  0  0  0  0
    1.6613   -2.5488    0.6327 O   0  0  0  0  0  0  0  0  0  0  0  0
    1.3245   -3.0955   -1.4530 N   0  0  0  0  0  0  0  0  0  0  0  0
    1.6313   -4.0191   -1.2033 H   0  0  0  0  0  0  0  0  0  0  0  0
    1.0115   -2.8519   -2.3737 H   0  0  0  0  0  0  0  0  0  0  0  0
   -0.3431    1.3137    0.0581 C   0  0  0  0  0  0  0  0  0  0  0  0
   -1.2485    1.8858    0.6652 O   0  0  0  0  0  0  0  0  0  0  0  0
    0.4589    1.9544   -0.7977 N   0  0  0  0  0  0  0  0  0  0  0  0
    1.1293    1.3922   -1.3122 H   0  0  0  0  0  0  0  0  0  0  0  0
    0.3796    3.3834   -1.0953 C   0  0  0  0  0  0  0  0  0  0  0  0
    0.4748    3.9575   -0.1711 H   0  0  0  0  0  0  0  0  0  0  0  0
    1.1796    3.6681   -1.7800 H   0  0  0  0  0  0  0  0  0  0  0  0
   -0.5849    3.6117   -1.5520 H   0  0  0  0  0  0  0  0  0  0  0  0
  5  6  2  0  0  0  0
  5  7  1  0  0  0  0
  2  3  1  0  0  0  0
  2  4  1  0  0  0  0
  2  5  1  0  0  0  0
  1  2  1  0  0  0  0
 19 20  2  0  0  0  0
 19 21  1  0  0  0  0
 16 17  1  0  0  0  0
 16 18  1  0  0  0  0
 14 15  2  0  0  0  0
 14 16  1  0  0  0  0
 11 12  1  0  0  0  0
 11 13  1  0  0  0  0
 11 14  1  0  0  0  0
  9 10  1  0  0  0  0
  9 11  1  0  0  0  0
  9 19  1  0  0  0  0
  7  8  1  0  0  0  0
  7  9  1  0  0  0  0
 23 24  1  0  0  0  0
 23 25  1  0  0  0  0
 23 26  1  0  0  0  0
 21 22  1  0  0  0  0
 21 23  1  0  0  0  0
M  END
$$$$
default_name
  -OEChem-01062215323D

 26 25  0     1  0  0  0  0  0999 V2000
   -3.0232   -3.6924    1.0038 H   0  0  0  0  0  0  0  0  0  0  0  0
   -3.0082   -2.6684    0.6318 C   0  0  0  0  0  0  0  0  0  0  0  0
   -3.6332   -2.0414    1.2658 H   0  0  0  0  0  0  0  0  0  0  0  0
   -3.3762   -2.6444   -0.3912 H   0  0  0  0  0  0  0  0  0  0  0  0
   -1.5882   -2.1554    0.6658 C   0  0  0  0  0  0  0  0  0  0  0  0
   -0.6832   -2.8764    1.0638 O   0  0  0  0  0  0  0  0  0  0  0  0
   -1.3952   -0.9084    0.2428 N   0  0  0  0  0  0  0  0  0  0  0  0
   -2.1972   -0.3644   -0.0422 H   0  0  0  0  0  0  0  0  0  0  0  0
   -0.1122   -0.1994    0.2658 C   0  0  1  0  0  0  0  0  0  0  0  0
    0.3455   -0.3412    1.2482 H   0  0  0  0  0  0  0  0  0  0  0  0
    0.8133   -0.8122   -0.8089 C   0  0  0  0  0  0  0  0  0  0  0  0
    0.2719   -0.8766   -1.7521 H   0  0  0  0  0  0  0  0  0  0  0  0
    1.6757   -0.1631   -0.9527 H   0  0  0  0  0  0  0  0  0  0  0  0
    1.2962   -2.2160   -0.4814 C   0  0  0  0  0  0  0  0  0  0  0  0
    1.6613   -2.5488    0.6327 O   0  0  0  0  0  0  0  0  0  0  0  0
    1.3245   -3.0955   -1.4530 N   0  0  0  0  0  0  0  0  0  0  0  0
    1.6313   -4.0191   -1.2033 H   0  0  0  0  0  0  0  0  0  0  0  0
    1.0115   -2.8519   -2.3737 H   0  0  0  0  0  0  0  0  0  0  0  0
   -0.3431    1.3137    0.0581 C   0  0  0  0  0  0  0  0  0  0  0  0
   -1.0469    1.9418    0.8491 O   0  0  0  0  0  0  0  0  0  0  0  0
    0.2337    1.8924   -0.9995 N   0  0  0  0  0  0  0  0  0  0  0  0
    0.7343    1.2867   -1.6421 H   0  0  0  0  0  0  0  0  0  0  0  0
    0.1240    3.3123   -1.3288 C   0  0  0  0  0  0  0  0  0  0  0  0
    0.4680    3.9135   -0.4844 H   0  0  0  0  0  0  0  0  0  0  0  0
    0.7318    3.5414   -2.2052 H   0  0  0  0  0  0  0  0  0  0  0  0
   -0.9177    3.5631   -1.5362 H   0  0  0  0  0  0  0  0  0  0  0  0
  5  6  2  0  0  0  0
  5  7  1  0  0  0  0
  2  3  1  0  0  0  0
  2  4  1  0  0  0  0
  2  5  1  0  0  0  0
  1  2  1  0  0  0  0
 19 20  2  0  0  0  0
 19 21  1  0  0  0  0
 16 17  1  0  0  0  0
 16 18  1  0  0  0  0
 14 15  2  0  0  0  0
 14 16  1  0  0  0  0
 11 12  1  0  0  0  0
 11 13  1  0  0  0  0
 11 14  1  0  0  0  0
  9 10  1  0  0  0  0
  9 11  1  0  0  0  0
  9 19  1  0  0  0  0
  7  8  1  0  0  0  0
  7  9  1  0  0  0  0
 23 24  1  0  0  0  0
 23 25  1  0  0  0  0
 23 26  1  0  0  0  0
 21 22  1  0  0  0  0
 21 23  1  0  0  0  0
M  END
$$$$
default_name
  -OEChem-01062215323D

 26 25  0     1  0  0  0  0  0999 V2000
   -3.0232   -3.6924    1.0038 H   0  0  0  0  0  0  0  0  0  0  0  0
   -3.0082   -2.6684    0.6318 C   0  0  0  0  0  0  0  0  0  0  0  0
   -3.6332   -2.0414    1.2658 H   0  0  0  0  0  0  0  0  0  0  0  0
   -3.3762   -2.6444   -0.3912 H   0  0  0  0  0  0  0  0  0  0  0  0
   -1.5882   -2.1554    0.6658 C   0  0  0  0  0  0  0  0  0  0  0  0
   -0.6832   -2.8764    1.0638 O   0  0  0  0  0  0  0  0  0  0  0  0
   -1.3952   -0.9084    0.2428 N   0  0  0  0  0  0  0  0  0  0  0  0
   -2.1972   -0.3644   -0.0422 H   0  0  0  0  0  0  0  0  0  0  0  0
   -0.1122   -0.1994    0.2658 C   0  0  1  0  0  0  0  0  0  0  0  0
    0.3455   -0.3412    1.2482 H   0  0  0  0  0  0  0  0  0  0  0  0
    0.8133   -0.8122   -0.8089 C   0  0  0  0  0  0  0  0  0  0  0  0
    0.2719   -0.8766   -1.7521 H   0  0  0  0  0  0  0  0  0  0  0  0
    1.6757   -0.1631   -0.9527 H   0  0  0  0  0  0  0  0  0  0  0  0
    1.2962   -2.2160   -0.4814 C   0  0  0  0  0  0  0  0  0  0  0  0
    1.6613   -2.5488    0.6327 O   0  0  0  0  0  0  0  0  0  0  0  0
    1.3245   -3.0955   -1.4530 N   0  0  0  0  0  0  0  0  0  0  0  0
    1.6313   -4.0191   -1.2033 H   0  0  0  0  0  0  0  0  0  0  0  0
    1.0115   -2.8519   -2.3737 H   0  0  0  0  0  0  0  0  0  0  0  0
   -0.3431    1.3137    0.0581 C   0  0  0  0  0  0  0  0  0  0  0  0
   -0.8037    1.9960    0.9735 O   0  0  0  0  0  0  0  0  0  0  0  0
   -0.0371    1.8324   -1.1350 N   0  0  0  0  0  0  0  0  0  0  0  0
    0.2653    1.1857   -1.8564 H   0  0  0  0  0  0  0  0  0  0  0  0
   -0.1846    3.2435   -1.4868 C   0  0  0  0  0  0  0  0  0  0  0  0
    0.3806    3.8591   -0.7836 H   0  0  0  0  0  0  0  0  0  0  0  0
    0.1870    3.4181   -2.4975 H   0  0  0  0  0  0  0  0  0  0  0  0
   -1.2368    3.5283   -1.4347 H   0  0  0  0  0  0  0  0  0  0  0  0
  5  6  2  0  0  0  0
  5  7  1  0  0  0  0
  2  3  1  0  0  0  0
  2  4  1  0  0  0  0
  2  5  1  0  0  0  0
  1  2  1  0  0  0  0
 19 20  2  0  0  0  0
 19 21  1  0  0  0  0
 16 17  1  0  0  0  0
 16 18  1  0  0  0  0
 14 15  2  0  0  0  0
 14 16  1  0  0  0  0
 11 12  1  0  0  0  0
 11 13  1  0  0  0  0
 11 14  1  0  0  0  0
  9 10  1  0  0  0  0
  9 11  1  0  0  0  0
  9 19  1  0  0  0  0
  7  8  1  0  0  0  0
  7  9  1  0  0  0  0
 23 24  1  0  0  0  0
 23 25  1  0  0  0  0
 23 26  1  0  0  0  0
 21 22  1  0  0  0  0
 21 23  1  0  0  0  0
M  END
$$$$
default_name
  -OEChem-01062215323D

 26 25  0     1  0  0  0  0  0999 V2000
   -3.0232   -3.6924    1.0038 H   0  0  0  0  0  0  0  0  0  0  0  0
   -3.0082   -2.6684    0.6318 C   0  0  0  0  0  0  0  0  0  0  0  0
   -3.6332   -2.0414    1.2658 H   0  0  0  0  0  0  0  0  0  0  0  0
   -3.3762   -2.6444   -0.3912 H   0  0  0  0  0  0  0  0  0  0  0  0
   -1.5882   -2.1554    0.6658 C   0  0  0  0  0  0  0  0  0  0  0  0
   -0.6832   -2.8764    1.0638 O   0  0  0  0  0  0  0  0  0  0  0  0
   -1.3952   -0.9084    0.2428 N   0  0  0  0  0  0  0  0  0  0  0  0
   -2.1972   -0.3644   -0.0422 H   0  0  0  0  0  0  0  0  0  0  0  0
   -0.1122   -0.1994    0.2658 C   0  0  1  0  0  0  0  0  0  0  0  0
    0.3455   -0.3412    1.2482 H   0  0  0  0  0  0  0  0  0  0  0  0
    0.8133   -0.8122   -0.8089 C   0  0  0  0  0  0  0  0  0  0  0  0
    0.2719   -0.8766   -1.7521 H   0  0  0  0  0  0  0  0  0  0  0  0
    1.6757   -0.1631   -0.9527 H   0  0  0  0  0  0  0  0  0  0  0  0
    1.2962   -2.2160   -0.4814 C   0  0  0  0  0  0  0  0  0  0  0  0
    1.6613   -2.5488    0.6327 O   0  0  0  0  0  0  0  0  0  0  0  0
    1.3245   -3.0955   -1.4530 N   0  0  0  0  0  0  0  0  0  0  0  0
    1.6313   -4.0191   -1.2033 H   0  0  0  0  0  0  0  0  0  0  0  0
    1.0115   -2.8519   -2.3737 H   0  0  0  0  0  0  0  0  0  0  0  0
   -0.3431    1.3137    0.0581 C   0  0  0  0  0  0  0  0  0  0  0  0
   -0.5353    2.0447    1.0298 O   0  0  0  0  0  0  0  0  0  0  0  0
   -0.3352    1.7787   -1.1948 N   0  0  0  0  0  0  0  0  0  0  0  0
   -0.2455    1.0961   -1.9407 H   0  0  0  0  0  0  0  0  0  0  0  0
   -0.5251    3.1817   -1.5586 C   0  0  0  0  0  0  0  0  0  0  0  0
    0.2183    3.7980   -1.0484 H   0  0  0  0  0  0  0  0  0  0  0  0
   -0.4176    3.3067   -2.6369 H   0  0  0  0  0  0  0  0  0  0  0  0
   -1.5206    3.5097   -1.2545 H   0  0  0  0  0  0  0  0  0  0  0  0
  5  6  2  0  0  0  0
  5  7  1  0  0  0  0
  2  3  1  0  0  0  0
  2  4  1  0  0  0  0
  2  5  1  0  0  0  0
  1  2  1  0  0  0  0
 19 20  2  0  0  0  0
 19 21  1  0  0  0  0
 16 17  1  0  0  0  0
 16 18  1  0  0  0  0
 14 15  2  0  0  0  0
 14 16  1  0  0  0  0
 11 12  1  0  0  0  0
 11 13  1  0  0  0  0
 11 14  1  0  0  0  0
  9 10  1  0  0  0  0
  9 11  1  0  0  0  0
  9 19  1  0  0  0  0
  7  8  1  0  0  0  0
  7  9  1  0  0  0  0
 23 24  1  0  0  0  0
 23 25  1  0  0  0  0
 23 26  1  0  0  0  0
 21 22  1  0  0  0  0
 21 23  1  0  0  0  0
M  END
$$$$
default_name
  -OEChem-01062215323D

 26 25  0     1  0  0  0  0  0999 V2000
   -3.0232   -3.6924    1.0038 H   0  0  0  0  0  0  0  0  0  0  0  0
   -3.0082   -2.6684    0.6318 C   0  0  0  0  0  0  0  0  0  0  0  0
   -3.6332   -2.0414    1.2658 H   0  0  0  0  0  0  0  0  0  0  0  0
   -3.3762   -2.6444   -0.3912 H   0  0  0  0  0  0  0  0  0  0  0  0
   -1.5882   -2.1554    0.6658 C   0  0  0  0  0  0  0  0  0  0  0  0
   -0.6832   -2.8764    1.0638 O   0  0  0  0  0  0  0  0  0  0  0  0
   -1.3952   -0.9084    0.2428 N   0  0  0  0  0  0  0  0  0  0  0  0
   -2.1972   -0.3644   -0.0422 H   0  0  0  0  0  0  0  0  0  0  0  0
   -0.1122   -0.1994    0.2658 C   0  0  1  0  0  0  0  0  0  0  0  0
    0.3455   -0.3412    1.2482 H   0  0  0  0  0  0  0  0  0  0  0  0
    0.8133   -0.8122   -0.8089 C   0  0  0  0  0  0  0  0  0  0  0  0
    0.2719   -0.8766   -1.7521 H   0  0  0  0  0  0  0  0  0  0  0  0
    1.6757   -0.1631   -0.9527 H   0  0  0  0  0  0  0  0  0  0  0  0
    1.2962   -2.2160   -0.4814 C   0  0  0  0  0  0  0  0  0  0  0  0
    1.6613   -2.5488    0.6327 O   0  0  0  0  0  0  0  0  0  0  0  0
    1.3245   -3.0955   -1.4530 N   0  0  0  0  0  0  0  0  0  0  0  0
    1.6313   -4.0191   -1.2033 H   0  0  0  0  0  0  0  0  0  0  0  0
    1.0115   -2.8519   -2.3737 H   0  0  0  0  0  0  0  0  0  0  0  0
   -0.3431    1.3137    0.0581 C   0  0  0  0  0  0  0  0  0  0  0  0
   -0.2601    2.0846    1.0143 O   0  0  0  0  0  0  0  0  0  0  0  0
   -0.6401    1.7349   -1.1750 N   0  0  0  0  0  0  0  0  0  0  0  0
   -0.7633    1.0242   -1.8891 H   0  0  0  0  0  0  0  0  0  0  0  0
   -0.8744    3.1311   -1.5391 C   0  0  0  0  0  0  0  0  0  0  0  0
   -0.0076    3.7344   -1.2606 H   0  0  0  0  0  0  0  0  0  0  0  0
   -1.0409    3.2147   -2.6140 H   0  0  0  0  0  0  0  0  0  0  0  0
   -1.7496    3.5087   -1.0077 H   0  0  0  0  0  0  0  0  0  0  0  0
  5  6  2  0  0  0  0
  5  7  1  0  0  0  0
  2  3  1  0  0  0  0
  2  4  1  0  0  0  0
  2  5  1  0  0  0  0
  1  2  1  0  0  0  0
 19 20  2  0  0  0  0
 19 21  1  0  0  0  0
 16 17  1  0  0  0  0
 16 18  1  0  0  0  0
 14 15  2  0  0  0  0
 14 16  1  0  0  0  0
 11 12  1  0  0  0  0
 11 13  1  0  0  0  0
 11 14  1  0  0  0  0
  9 10  1  0  0  0  0
  9 11  1  0  0  0  0
  9 19  1  0  0  0  0
  7  8  1  0  0  0  0
  7  9  1  0  0  0  0
 23 24  1  0  0  0  0
 23 25  1  0  0  0  0
 23 26  1  0  0  0  0
 21 22  1  0  0  0  0
 21 23  1  0  0  0  0
M  END
$$$$
default_name
  -OEChem-01062215323D

 26 25  0     1  0  0  0  0  0999 V2000
   -3.0232   -3.6924    1.0038 H   0  0  0  0  0  0  0  0  0  0  0  0
   -3.0082   -2.6684    0.6318 C   0  0  0  0  0  0  0  0  0  0  0  0
   -3.6332   -2.0414    1.2658 H   0  0  0  0  0  0  0  0  0  0  0  0
   -3.3762   -2.6444   -0.3912 H   0  0  0  0  0  0  0  0  0  0  0  0
   -1.5882   -2.1554    0.6658 C   0  0  0  0  0  0  0  0  0  0  0  0
   -0.6832   -2.8764    1.0638 O   0  0  0  0  0  0  0  0  0  0  0  0
   -1.3952   -0.9084    0.2428 N   0  0  0  0  0  0  0  0  0  0  0  0
   -2.1972   -0.3644   -0.0422 H   0  0  0  0  0  0  0  0  0  0  0  0
   -0.1122   -0.1994    0.2658 C   0  0  1  0  0  0  0  0  0  0  0  0
    0.3455   -0.3412    1.2482 H   0  0  0  0  0  0  0  0  0  0  0  0
    0.8133   -0.8122   -0.8089 C   0  0  0  0  0  0  0  0  0  0  0  0
    0.2719   -0.8766   -1.7521 H   0  0  0  0  0  0  0  0  0  0  0  0
    1.6757   -0.1631   -0.9527 H   0  0  0  0  0  0  0  0  0  0  0  0
    1.2962   -2.2160   -0.4814 C   0  0  0  0  0  0  0  0  0  0  0  0
    1.6613   -2.5488    0.6327 O   0  0  0  0  0  0  0  0  0  0  0  0
    1.3245   -3.0955   -1.4530 N   0  0  0  0  0  0  0  0  0  0  0  0
    1.6313   -4.0191   -1.2033 H   0  0  0  0  0  0  0  0  0  0  0  0
    1.0115   -2.8519   -2.3737 H   0  0  0  0  0  0  0  0  0  0  0  0
   -0.3431    1.3137    0.0581 C   0  0  0  0  0  0  0  0  0  0  0  0
    0.0032    2.1129    0.9281 O   0  0  0  0  0  0  0  0  0  0  0  0
   -0.9311    1.7039   -1.0769 N   0  0  0  0  0  0  0  0  0  0  0  0
   -1.2530    0.9747   -1.7052 H   0  0  0  0  0  0  0  0  0  0  0  0
   -1.2086    3.0951   -1.4298 C   0  0  0  0  0  0  0  0  0  0  0  0
   -0.2819    3.6726   -1.4059 H   0  0  0  0  0  0  0  0  0  0  0  0
   -1.6403    3.1484   -2.4302 H   0  0  0  0  0  0  0  0  0  0  0  0
   -1.9082    3.5251   -0.7112 H   0  0  0  0  0  0  0  0  0  0  0  0
  5  6  2  0  0  0  0
  5  7  1  0  0  0  0
  2  3  1  0  0  0  0
  2  4  1  0  0  0  0
  2  5  1  0  0  0  0
  1  2  1  0  0  0  0
 19 20  2  0  0  0  0
 19 21  1  0  0  0  0
 16 17  1  0  0  0  0
 16 18  1  0  0  0  0
 14 15  2  0  0  0  0
 14 16  1  0  0  0  0
 11 12  1  0  0  0  0
 11 13  1  0  0  0  0
 11 14  1  0  0  0  0
  9 10  1  0  0  0  0
  9 11  1  0  0  0  0
  9 19  1  0  0  0  0
  7  8  1  0  0  0  0
  7  9  1  0  0  0  0
 23 24  1  0  0  0  0
 23 25  1  0  0  0  0
 23 26  1  0  0  0  0
 21 22  1  0  0  0  0
 21 23  1  0  0  0  0
M  END
$$$$
default_name
  -OEChem-01062215323D

 26 25  0     1  0  0  0  0  0999 V2000
   -3.0232   -3.6924    1.0038 H   0  0  0  0  0  0  0  0  0  0  0  0
   -3.0082   -2.6684    0.6318 C   0  0  0  0  0  0  0  0  0  0  0  0
   -3.6332   -2.0414    1.2658 H   0  0  0  0  0  0  0  0  0  0  0  0
   -3.3762   -2.6444   -0.3912 H   0  0  0  0  0  0  0  0  0  0  0  0
   -1.5882   -2.1554    0.6658 C   0  0  0  0  0  0  0  0  0  0  0  0
   -0.6832   -2.8764    1.0638 O   0  0  0  0  0  0  0  0  0  0  0  0
   -1.3952   -0.9084    0.2428 N   0  0  0  0  0  0  0  0  0  0  0  0
   -2.1972   -0.3644   -0.0422 H   0  0  0  0  0  0  0  0  0  0  0  0
   -0.1122   -0.1994    0.2658 C   0  0  1  0  0  0  0  0  0  0  0  0
    0.3455   -0.3412    1.2482 H   0  0  0  0  0  0  0  0  0  0  0  0
    0.8133   -0.8122   -0.8089 C   0  0  0  0  0  0  0  0  0  0  0  0
    0.2719   -0.8766   -1.7521 H   0  0  0  0  0  0  0  0  0  0  0  0
    1.6757   -0.1631   -0.9527 H   0  0  0  0  0  0  0  0  0  0  0  0
    1.2962   -2.2160   -0.4814 C   0  0  0  0  0  0  0  0  0  0  0  0
    1.6613   -2.5488    0.6327 O   0  0  0  0  0  0  0  0  0  0  0  0
    1.3245   -3.0955   -1.4530 N   0  0  0  0  0  0  0  0  0  0  0  0
    1.6313   -4.0191   -1.2033 H   0  0  0  0  0  0  0  0  0  0  0  0
    1.0115   -2.8519   -2.3737 H   0  0  0  0  0  0  0  0  0  0  0  0
   -0.3431    1.3137    0.0581 C   0  0  0  0  0  0  0  0  0  0  0  0
    0.2366    2.1278    0.7769 O   0  0  0  0  0  0  0  0  0  0  0  0
   -1.1884    1.6880   -0.9071 N   0  0  0  0  0  0  0  0  0  0  0  0
   -1.6811    0.9510   -1.4015 H   0  0  0  0  0  0  0  0  0  0  0  0
   -1.5049    3.0761   -1.2382 C   0  0  0  0  0  0  0  0  0  0  0  0
   -0.5858    3.6168   -1.4743 H   0  0  0  0  0  0  0  0  0  0  0  0
   -2.1750    3.1124   -2.0982 H   0  0  0  0  0  0  0  0  0  0  0  0
   -1.9858    3.5580   -0.3852 H   0  0  0  0  0  0  0  0  0  0  0  0
  5  6  2  0  0  0  0
  5  7  1  0  0  0  0
  2  3  1  0  0  0  0
  2  4  1  0  0  0  0
  2  5  1  0  0  0  0
  1  2  1  0  0  0  0
 19 20  2  0  0  0  0
 19 21  1  0  0  0  0
 16 17  1  0  0  0  0
 16 18  1  0  0  0  0
 14 15  2  0  0  0  0
 14 16  1  0  0  0  0
 11 12  1  0  0  0  0
 11 13  1  0  0  0  0
 11 14  1  0  0  0  0
  9 10  1  0  0  0  0
  9 11  1  0  0  0  0
  9 19  1  0  0  0  0
  7  8  1  0  0  0  0
  7  9  1  0  0  0  0
 23 24  1  0  0  0  0
 23 25  1  0  0  0  0
 23 26  1  0  0  0  0
 21 22  1  0  0  0  0
 21 23  1  0  0  0  0
M  END
$$$$
default_name
  -OEChem-01062215323D

 26 25  0     1  0  0  0  0  0999 V2000
   -3.0232   -3.6924    1.0038 H   0  0  0  0  0  0  0  0  0  0  0  0
   -3.0082   -2.6684    0.6318 C   0  0  0  0  0  0  0  0  0  0  0  0
   -3.6332   -2.0414    1.2658 H   0  0  0  0  0  0  0  0  0  0  0  0
   -3.3762   -2.6444   -0.3912 H   0  0  0  0  0  0  0  0  0  0  0  0
   -1.5882   -2.1554    0.6658 C   0  0  0  0  0  0  0  0  0  0  0  0
   -0.6832   -2.8764    1.0638 O   0  0  0  0  0  0  0  0  0  0  0  0
   -1.3952   -0.9084    0.2428 N   0  0  0  0  0  0  0  0  0  0  0  0
   -2.1972   -0.3644   -0.0422 H   0  0  0  0  0  0  0  0  0  0  0  0
   -0.1122   -0.1994    0.2658 C   0  0  1  0  0  0  0  0  0  0  0  0
    0.3455   -0.3412    1.2482 H   0  0  0  0  0  0  0  0  0  0  0  0
    0.8133   -0.8122   -0.8089 C   0  0  0  0  0  0  0  0  0  0  0  0
    0.2719   -0.8766   -1.7521 H   0  0  0  0  0  0  0  0  0  0  0  0
    1.6757   -0.1631   -0.9527 H   0  0  0  0  0  0  0  0  0  0  0  0
    1.2962   -2.2160   -0.4814 C   0  0  0  0  0  0  0  0  0  0  0  0
    1.6613   -2.5488    0.6327 O   0  0  0  0  0  0  0  0  0  0  0  0
    1.3245   -3.0955   -1.4530 N   0  0  0  0  0  0  0  0  0  0  0  0
    1.6313   -4.0191   -1.2033 H   0  0  0  0  0  0  0  0  0  0  0  0
    1.0115   -2.8519   -2.3737 H   0  0  0  0  0  0  0  0  0  0  0  0
   -0.3431    1.3137    0.0581 C   0  0  0  0  0  0  0  0  0  0  0  0
    0.4243    2.1282    0.5711 O   0  0  0  0  0  0  0  0  0  0  0  0
   -1.3945    1.6881   -0.6772 N   0  0  0  0  0  0  0  0  0  0  0  0
   -2.0184    0.9548   -0.9987 H   0  0  0  0  0  0  0  0  0  0  0  0
   -1.7432    3.0756   -0.9772 C   0  0  0  0  0  0  0  0  0  0  0  0
   -0.8986    3.5708   -1.4611 H   0  0  0  0  0  0  0  0  0  0  0  0
   -2.6085    3.1090   -1.6406 H   0  0  0  0  0  0  0  0  0  0  0  0
   -1.9769    3.6051   -0.0520 H   0  0  0  0  0  0  0  0  0  0  0  0
  5  6  2  0  0  0  0
  5  7  1  0  0  0  0
  2  3  1  0  0  0  0
  2  4  1  0  0  0  0
  2  5  1  0  0  0  0
  1  2  1  0  0  0  0
 19 20  2  0  0  0  0
 19 21  1  0  0  0  0
 16 17  1  0  0  0  0
 16 18  1  0  0  0  0
 14 15  2  0  0  0  0
 14 16  1  0  0  0  0
 11 12  1  0  0  0  0
 11 13  1  0  0  0  0
 11 14  1  0  0  0  0
  9 10  1  0  0  0  0
  9 11  1  0  0  0  0
  9 19  1  0  0  0  0
  7  8  1  0  0  0  0
  7  9  1  0  0  0  0
 23 24  1  0  0  0  0
 23 25  1  0  0  0  0
 23 26  1  0  0  0  0
 21 22  1  0  0  0  0
 21 23  1  0  0  0  0
M  END
$$$$
default_name
  -OEChem-01062215323D

 26 25  0     1  0  0  0  0  0999 V2000
   -3.0232   -3.6924    1.0038 H   0  0  0  0  0  0  0  0  0  0  0  0
   -3.0082   -2.6684    0.6318 C   0  0  0  0  0  0  0  0  0  0  0  0
   -3.6332   -2.0414    1.2658 H   0  0  0  0  0  0  0  0  0  0  0  0
   -3.3762   -2.6444   -0.3912 H   0  0  0  0  0  0  0  0  0  0  0  0
   -1.5882   -2.1554    0.6658 C   0  0  0  0  0  0  0  0  0  0  0  0
   -0.6832   -2.8764    1.0638 O   0  0  0  0  0  0  0  0  0  0  0  0
   -1.3952   -0.9084    0.2428 N   0  0  0  0  0  0  0  0  0  0  0  0
   -2.1972   -0.3644   -0.0422 H   0  0  0  0  0  0  0  0  0  0  0  0
   -0.1122   -0.1994    0.2658 C   0  0  1  0  0  0  0  0  0  0  0  0
    0.3455   -0.3412    1.2482 H   0  0  0  0  0  0  0  0  0  0  0  0
    0.8133   -0.8122   -0.8089 C   0  0  0  0  0  0  0  0  0  0  0  0
    0.2719   -0.8766   -1.7521 H   0  0  0  0  0  0  0  0  0  0  0  0
    1.6757   -0.1631   -0.9527 H   0  0  0  0  0  0  0  0  0  0  0  0
    1.2962   -2.2160   -0.4814 C   0  0  0  0  0  0  0  0  0  0  0  0
    1.6613   -2.5488    0.6327 O   0  0  0  0  0  0  0  0  0  0  0  0
    1.3245   -3.0955   -1.4530 N   0  0  0  0  0  0  0  0  0  0  0  0
    1.6313   -4.0191   -1.2033 H   0  0  0  0  0  0  0  0  0  0  0  0
    1.0115   -2.8519   -2.3737 H   0  0  0  0  0  0  0  0  0  0  0  0
   -0.3431    1.3137    0.0581 C   0  0  0  0  0  0  0  0  0  0  0  0
    0.5534    2.1141    0.3247 O   0  0  0  0  0  0  0  0  0  0  0  0
   -1.5353    1.7042   -0.4029 N   0  0  0  0  0  0  0  0  0  0  0  0
   -2.2420    0.9858   -0.5243 H   0  0  0  0  0  0  0  0  0  0  0  0
   -1.9073    3.0934   -0.6646 C   0  0  0  0  0  0  0  0  0  0  0  0
   -1.1991    3.5379   -1.3673 H   0  0  0  0  0  0  0  0  0  0  0  0
   -2.9114    3.1386   -1.0885 H   0  0  0  0  0  0  0  0  0  0  0  0
   -1.8822    3.6632    0.2658 H   0  0  0  0  0  0  0  0  0  0  0  0
  5  6  2  0  0  0  0
  5  7  1  0  0  0  0
  2  3  1  0  0  0  0
  2  4  1  0  0  0  0
  2  5  1  0  0  0  0
  1  2  1  0  0  0  0
 19 20  2  0  0  0  0
 19 21  1  0  0  0  0
 16 17  1  0  0  0  0
 16 18  1  0  0  0  0
 14 15  2  0  0  0  0
 14 16  1  0  0  0  0
 11 12  1  0  0  0  0
 11 13  1  0  0  0  0
 11 14  1  0  0  0  0
  9 10  1  0  0  0  0
  9 11  1  0  0  0  0
  9 19  1  0  0  0  0
  7  8  1  0  0  0  0
  7  9  1  0  0  0  0
 23 24  1  0  0  0  0
 23 25  1  0  0  0  0
 23 26  1  0  0  0  0
 21 22  1  0  0  0  0
 21 23  1  0  0  0  0
M  END
$$$$
default_name
  -OEChem-01062215323D

 26 25  0     1  0  0  0  0  0999 V2000
   -3.0232   -3.6924    1.0038 H   0  0  0  0  0  0  0  0  0  0  0  0
   -3.0082   -2.6684    0.6318 C   0  0  0  0  0  0  0  0  0  0  0  0
   -3.6332   -2.0414    1.2658 H   0  0  0  0  0  0  0  0  0  0  0  0
   -3.3762   -2.6444   -0.3912 H   0  0  0  0  0  0  0  0  0  0  0  0
   -1.5882   -2.1554    0.6658 C   0  0  0  0  0  0  0  0  0  0  0  0
   -0.6832   -2.8764    1.0638 O   0  0  0  0  0  0  0  0  0  0  0  0
   -1.3952   -0.9084    0.2428 N   0  0  0  0  0  0  0  0  0  0  0  0
   -2.1972   -0.3644   -0.0422 H   0  0  0  0  0  0  0  0  0  0  0  0
   -0.1122   -0.1994    0.2658 C   0  0  1  0  0  0  0  0  0  0  0  0
    0.3455   -0.3412    1.2482 H   0  0  0  0  0  0  0  0  0  0  0  0
    0.8133   -0.8122   -0.8089 C   0  0  0  0  0  0  0  0  0  0  0  0
    0.2719   -0.8766   -1.7521 H   0  0  0  0  0  0  0  0  0  0  0  0
    1.6757   -0.1631   -0.9527 H   0  0  0  0  0  0  0  0  0  0  0  0
    1.2962   -2.2160   -0.4814 C   0  0  0  0  0  0  0  0  0  0  0  0
    1.6613   -2.5488    0.6327 O   0  0  0  0  0  0  0  0  0  0  0  0
    1.3245   -3.0955   -1.4530 N   0  0  0  0  0  0  0  0  0  0  0  0
    1.6313   -4.0191   -1.2033 H   0  0  0  0  0  0  0  0  0  0  0  0
    1.0115   -2.8519   -2.3737 H   0  0  0  0  0  0  0  0  0  0  0  0
   -0.3431    1.3137    0.0581 C   0  0  0  0  0  0  0  0  0  0  0  0
    0.6151    2.0864    0.0545 O   0  0  0  0  0  0  0  0  0  0  0  0
   -1.6011    1.7353   -0.1030 N   0  0  0  0  0  0  0  0  0  0  0  0
   -2.3366    1.0419   -0.0105 H   0  0  0  0  0  0  0  0  0  0  0  0
   -1.9858    3.1285   -0.3218 C   0  0  0  0  0  0  0  0  0  0  0  0
   -1.4666    3.5201   -1.1992 H   0  0  0  0  0  0  0  0  0  0  0  0
   -3.0629    3.1990   -0.4796 H   0  0  0  0  0  0  0  0  0  0  0  0
   -1.7081    3.7283    0.5465 H   0  0  0  0  0  0  0  0  0  0  0  0
  5  6  2  0  0  0  0
  5  7  1  0  0  0  0
  2  3  1  0  0  0  0
  2  4  1  0  0  0  0
  2  5  1  0  0  0  0
  1  2  1  0  0  0  0
 19 20  2  0  0  0  0
 19 21  1  0  0  0  0
 16 17  1  0  0  0  0
 16 18  1  0  0  0  0
 14 15  2  0  0  0  0
 14 16  1  0  0  0  0
 11 12  1  0  0  0  0
 11 13  1  0  0  0  0
 11 14  1  0  0  0  0
  9 10  1  0  0  0  0
  9 11  1  0  0  0  0
  9 19  1  0  0  0  0
  7  8  1  0  0  0  0
  7  9  1  0  0  0  0
 23 24  1  0  0  0  0
 23 25  1  0  0  0  0
 23 26  1  0  0  0  0
 21 22  1  0  0  0  0
 21 23  1  0  0  0  0
M  END
$$$$
default_name
  -OEChem-01062215323D

 26 25  0     1  0  0  0  0  0999 V2000
   -3.0232   -3.6924    1.0038 H   0  0  0  0  0  0  0  0  0  0  0  0
   -3.0082   -2.6684    0.6318 C   0  0  0  0  0  0  0  0  0  0  0  0
   -3.6332   -2.0414    1.2658 H   0  0  0  0  0  0  0  0  0  0  0  0
   -3.3762   -2.6444   -0.3912 H   0  0  0  0  0  0  0  0  0  0  0  0
   -1.5882   -2.1554    0.6658 C   0  0  0  0  0  0  0  0  0  0  0  0
   -0.6832   -2.8764    1.0638 O   0  0  0  0  0  0  0  0  0  0  0  0
   -1.3952   -0.9084    0.2428 N   0  0  0  0  0  0  0  0  0  0  0  0
   -2.1972   -0.3644   -0.0422 H   0  0  0  0  0  0  0  0  0  0  0  0
   -0.1122   -0.1994    0.2658 C   0  0  1  0  0  0  0  0  0  0  0  0
    0.3455   -0.3412    1.2482 H   0  0  0  0  0  0  0  0  0  0  0  0
    0.8133   -0.8122   -0.8089 C   0  0  0  0  0  0  0  0  0  0  0  0
    0.2719   -0.8766   -1.7521 H   0  0  0  0  0  0  0  0  0  0  0  0
    1.6757   -0.1631   -0.9527 H   0  0  0  0  0  0  0  0  0  0  0  0
    1.2962   -2.2160   -0.4814 C   0  0  0  0  0  0  0  0  0  0  0  0
    1.6613   -2.5488    0.6327 O   0  0  0  0  0  0  0  0  0  0  0  0
    1.3245   -3.0955   -1.4530 N   0  0  0  0  0  0  0  0  0  0  0  0
    1.6313   -4.0191   -1.2033 H   0  0  0  0  0  0  0  0  0  0  0  0
    1.0115   -2.8519   -2.3737 H   0  0  0  0  0  0  0  0  0  0  0  0
   -0.3431    1.3137    0.0581 C   0  0  0  0  0  0  0  0  0  0  0  0
    0.6053    2.0471   -0.2210 O   0  0  0  0  0  0  0  0  0  0  0  0
   -1.5876    1.7793    0.2023 N   0  0  0  0  0  0  0  0  0  0  0  0
   -2.2957    1.1192    0.5075 H   0  0  0  0  0  0  0  0  0  0  0  0
   -1.9736    3.1784    0.0279 C   0  0  0  0  0  0  0  0  0  0  0  0
   -1.6831    3.5187   -0.9684 H   0  0  0  0  0  0  0  0  0  0  0  0
   -3.0528    3.2862    0.1447 H   0  0  0  0  0  0  0  0  0  0  0  0
   -1.4665    3.7960    0.7710 H   0  0  0  0  0  0  0  0  0  0  0  0
  5  6  2  0  0  0  0
  5  7  1  0  0  0  0
  2  3  1  0  0  0  0
  2  4  1  0  0  0  0
  2  5  1  0  0  0  0
  1  2  1  0  0  0  0
 19 20  2  0  0  0  0
 19 21  1  0  0  0  0
 16 17  1  0  0  0  0
 16 18  1  0  0  0  0
 14 15  2  0  0  0  0
 14 16  1  0  0  0  0
 11 12  1  0  0  0  0
 11 13  1  0  0  0  0
 11 14  1  0  0  0  0
  9 10  1  0  0  0  0
  9 11  1  0  0  0  0
  9 19  1  0  0  0  0
  7  8  1  0  0  0  0
  7  9  1  0  0  0  0
 23 24  1  0  0  0  0
 23 25  1  0  0  0  0
 23 26  1  0  0  0  0
 21 22  1  0  0  0  0
 21 23  1  0  0  0  0
M  END
$$$$
default_name
  -OEChem-01062215323D

 26 25  0     1  0  0  0  0  0999 V2000
   -3.0232   -3.6924    1.0038 H   0  0  0  0  0  0  0  0  0  0  0  0
   -3.0082   -2.6684    0.6318 C   0  0  0  0  0  0  0  0  0  0  0  0
   -3.6332   -2.0414    1.2658 H   0  0  0  0  0  0  0  0  0  0  0  0
   -3.3762   -2.6444   -0.3912 H   0  0  0  0  0  0  0  0  0  0  0  0
   -1.5882   -2.1554    0.6658 C   0  0  0  0  0  0  0  0  0  0  0  0
   -0.6832   -2.8764    1.0638 O   0  0  0  0  0  0  0  0  0  0  0  0
   -1.3952   -0.9084    0.2428 N   0  0  0  0  0  0  0  0  0  0  0  0
   -2.1972   -0.3644   -0.0422 H   0  0  0  0  0  0  0  0  0  0  0  0
   -0.1122   -0.1994    0.2658 C   0  0  1  0  0  0  0  0  0  0  0  0
    0.3455   -0.3412    1.2482 H   0  0  0  0  0  0  0  0  0  0  0  0
    0.8133   -0.8122   -0.8089 C   0  0  0  0  0  0  0  0  0  0  0  0
    0.2719   -0.8766   -1.7521 H   0  0  0  0  0  0  0  0  0  0  0  0
    1.6757   -0.1631   -0.9527 H   0  0  0  0  0  0  0  0  0  0  0  0
    1.2962   -2.2160   -0.4814 C   0  0  0  0  0  0  0  0  0  0  0  0
    1.6613   -2.5488    0.6327 O   0  0  0  0  0  0  0  0  0  0  0  0
    1.3245   -3.0955   -1.4530 N   0  0  0  0  0  0  0  0  0  0  0  0
    1.6313   -4.0191   -1.2033 H   0  0  0  0  0  0  0  0  0  0  0  0
    1.0115   -2.8519   -2.3737 H   0  0  0  0  0  0  0  0  0  0  0  0
   -0.3431    1.3137    0.0581 C   0  0  0  0  0  0  0  0  0  0  0  0
    0.5246    1.9988   -0.4832 O   0  0  0  0  0  0  0  0  0  0  0  0
   -1.4956    1.8331    0.4920 N   0  0  0  0  0  0  0  0  0  0  0  0
   -2.1222    1.2125    0.9946 H   0  0  0  0  0  0  0  0  0  0  0  0
   -1.8714    3.2396    0.3606 C   0  0  0  0  0  0  0  0  0  0  0  0
   -1.8337    3.5339   -0.6904 H   0  0  0  0  0  0  0  0  0  0  0  0
   -2.8818    3.3943    0.7417 H   0  0  0  0  0  0  0  0  0  0  0  0
   -1.1738    3.8617    0.9240 H   0  0  0  0  0  0  0  0  0  0  0  0
  5  6  2  0  0  0  0
  5  7  1  0  0  0  0
  2  3  1  0  0  0  0
  2  4  1  0  0  0  0
  2  5  1  0  0  0  0
  1  2  1  0  0  0  0
 19 20  2  0  0  0  0
 19 21  1  0  0  0  0
 16 17  1  0  0  0  0
 16 18  1  0  0  0  0
 14 15  2  0  0  0  0
 14 16  1  0  0  0  0
 11 12  1  0  0  0  0
 11 13  1  0  0  0  0
 11 14  1  0  0  0  0
  9 10  1  0  0  0  0
  9 11  1  0  0  0  0
  9 19  1  0  0  0  0
  7  8  1  0  0  0  0
  7  9  1  0  0  0  0
 23 24  1  0  0  0  0
 23 25  1  0  0  0  0
 23 26  1  0  0  0  0
 21 22  1  0  0  0  0
 21 23  1  0  0  0  0
M  END
$$$$
default_name
  -OEChem-01062215323D

 26 25  0     1  0  0  0  0  0999 V2000
   -3.0232   -3.6924    1.0038 H   0  0  0  0  0  0  0  0  0  0  0  0
   -3.0082   -2.6684    0.6318 C   0  0  0  0  0  0  0  0  0  0  0  0
   -3.6332   -2.0414    1.2658 H   0  0  0  0  0  0  0  0  0  0  0  0
   -3.3762   -2.6444   -0.3912 H   0  0  0  0  0  0  0  0  0  0  0  0
   -1.5882   -2.1554    0.6658 C   0  0  0  0  0  0  0  0  0  0  0  0
   -0.6832   -2.8764    1.0638 O   0  0  0  0  0  0  0  0  0  0  0  0
   -1.3952   -0.9084    0.2428 N   0  0  0  0  0  0  0  0  0  0  0  0
   -2.1972   -0.3644   -0.0422 H   0  0  0  0  0  0  0  0  0  0  0  0
   -0.1122   -0.1994    0.2658 C   0  0  1  0  0  0  0  0  0  0  0  0
    0.3455   -0.3412    1.2482 H   0  0  0  0  0  0  0  0  0  0  0  0
    0.8133   -0.8122   -0.8089 C   0  0  0  0  0  0  0  0  0  0  0  0
    0.2719   -0.8766   -1.7521 H   0  0  0  0  0  0  0  0  0  0  0  0
    1.6757   -0.1631   -0.9527 H   0  0  0  0  0  0  0  0  0  0  0  0
    1.2962   -2.2160   -0.4814 C   0  0  0  0  0  0  0  0  0  0  0  0
    1.6613   -2.5488    0.6327 O   0  0  0  0  0  0  0  0  0  0  0  0
    1.3245   -3.0955   -1.4530 N   0  0  0  0  0  0  0  0  0  0  0  0
    1.6313   -4.0191   -1.2033 H   0  0  0  0  0  0  0  0  0  0  0  0
    1.0115   -2.8519   -2.3737 H   0  0  0  0  0  0  0  0  0  0  0  0
   -0.3431    1.3137    0.0581 C   0  0  0  0  0  0  0  0  0  0  0  0
    0.3785    1.9448   -0.7141 O   0  0  0  0  0  0  0  0  0  0  0  0
   -1.3314    1.8931    0.7465 N   0  0  0  0  0  0  0  0  0  0  0  0
   -1.8279    1.3155    1.4175 H   0  0  0  0  0  0  0  0  0  0  0  0
   -1.6862    3.3081    0.6538 C   0  0  0  0  0  0  0  0  0  0  0  0
   -1.9082    3.5645   -0.3844 H   0  0  0  0  0  0  0  0  0  0  0  0
   -2.5614    3.5158    1.2709 H   0  0  0  0  0  0  0  0  0  0  0  0
   -0.8501    3.9208    0.9950 H   0  0  0  0  0  0  0  0  0  0  0  0
  5  6  2  0  0  0  0
  5  7  1  0  0  0  0
  2  3  1  0  0  0  0
  2  4  1  0  0  0  0
  2  5  1  0  0  0  0
  1  2  1  0  0  0  0
 19 20  2  0  0  0  0
 19 21  1  0  0  0  0
 16 17  1  0  0  0  0
 16 18  1  0  0  0  0
 14 15  2  0  0  0  0
 14 16  1  0  0  0  0
 11 12  1  0  0  0  0
 11 13  1  0  0  0  0
 11 14  1  0  0  0  0
  9 10  1  0  0  0  0
  9 11  1  0  0  0  0
  9 19  1  0  0  0  0
  7  8  1  0  0  0  0
  7  9  1  0  0  0  0
 23 24  1  0  0  0  0
 23 25  1  0  0  0  0
 23 26  1  0  0  0  0
 21 22  1  0  0  0  0
 21 23  1  0  0  0  0
M  END
$$$$
default_name
  -OEChem-01062215323D

 26 25  0     1  0  0  0  0  0999 V2000
   -3.0232   -3.6924    1.0038 H   0  0  0  0  0  0  0  0  0  0  0  0
   -3.0082   -2.6684    0.6318 C   0  0  0  0  0  0  0  0  0  0  0  0
   -3.6332   -2.0414    1.2658 H   0  0  0  0  0  0  0  0  0  0  0  0
   -3.3762   -2.6444   -0.3912 H   0  0  0  0  0  0  0  0  0  0  0  0
   -1.5882   -2.1554    0.6658 C   0  0  0  0  0  0  0  0  0  0  0  0
   -0.6832   -2.8764    1.0638 O   0  0  0  0  0  0  0  0  0  0  0  0
   -1.3952   -0.9084    0.2428 N   0  0  0  0  0  0  0  0  0  0  0  0
   -2.1972   -0.3644   -0.0422 H   0  0  0  0  0  0  0  0  0  0  0  0
   -0.1122   -0.1994    0.2658 C   0  0  1  0  0  0  0  0  0  0  0  0
    0.3455   -0.3412    1.2482 H   0  0  0  0  0  0  0  0  0  0  0  0
    0.8133   -0.8122   -0.8089 C   0  0  0  0  0  0  0  0  0  0  0  0
    0.2719   -0.8766   -1.7521 H   0  0  0  0  0  0  0  0  0  0  0  0
    1.6757   -0.1631   -0.9527 H   0  0  0  0  0  0  0  0  0  0  0  0
    1.2962   -2.2160   -0.4814 C   0  0  0  0  0  0  0  0  0  0  0  0
    1.6613   -2.5488    0.6327 O   0  0  0  0  0  0  0  0  0  0  0  0
    1.3245   -3.0955   -1.4530 N   0  0  0  0  0  0  0  0  0  0  0  0
    1.6313   -4.0191   -1.2033 H   0  0  0  0  0  0  0  0  0  0  0  0
    1.0115   -2.8519   -2.3737 H   0  0  0  0  0  0  0  0  0  0  0  0
   -0.3431    1.3137    0.0581 C   0  0  0  0  0  0  0  0  0  0  0  0
    0.1770    1.8888   -0.8980 O   0  0  0  0  0  0  0  0  0  0  0  0
   -1.1063    1.9552    0.9483 N   0  0  0  0  0  0  0  0  0  0  0  0
   -1.4328    1.4211    1.7473 H   0  0  0  0  0  0  0  0  0  0  0  0
   -1.4306    3.3792    0.8873 C   0  0  0  0  0  0  0  0  0  0  0  0
   -1.9014    3.6085   -0.0711 H   0  0  0  0  0  0  0  0  0  0  0  0
   -2.1136    3.6425    1.6961 H   0  0  0  0  0  0  0  0  0  0  0  0
   -0.5173    3.9695    0.9793 H   0  0  0  0  0  0  0  0  0  0  0  0
  5  6  2  0  0  0  0
  5  7  1  0  0  0  0
  2  3  1  0  0  0  0
  2  4  1  0  0  0  0
  2  5  1  0  0  0  0
  1  2  1  0  0  0  0
 19 20  2  0  0  0  0
 19 21  1  0  0  0  0
 16 17  1  0  0  0  0
 16 18  1  0  0  0  0
 14 15  2  0  0  0  0
 14 16  1  0  0  0  0
 11 12  1  0  0  0  0
 11 13  1  0  0  0  0
 11 14  1  0  0  0  0
  9 10  1  0  0  0  0
  9 11  1  0  0  0  0
  9 19  1  0  0  0  0
  7  8  1  0  0  0  0
  7  9  1  0  0  0  0
 23 24  1  0  0  0  0
 23 25  1  0  0  0  0
 23 26  1  0  0  0  0
 21 22  1  0  0  0  0
 21 23  1  0  0  0  0
M  END
$$$$
default_name
  -OEChem-01062215323D

 26 25  0     1  0  0  0  0  0999 V2000
   -3.0232   -3.6924    1.0038 H   0  0  0  0  0  0  0  0  0  0  0  0
   -3.0082   -2.6684    0.6318 C   0  0  0  0  0  0  0  0  0  0  0  0
   -3.6332   -2.0414    1.2658 H   0  0  0  0  0  0  0  0  0  0  0  0
   -3.3762   -2.6444   -0.3912 H   0  0  0  0  0  0  0  0  0  0  0  0
   -1.5882   -2.1554    0.6658 C   0  0  0  0  0  0  0  0  0  0  0  0
   -0.6832   -2.8764    1.0638 O   0  0  0  0  0  0  0  0  0  0  0  0
   -1.3952   -0.9084    0.2428 N   0  0  0  0  0  0  0  0  0  0  0  0
   -2.1972   -0.3644   -0.0422 H   0  0  0  0  0  0  0  0  0  0  0  0
   -0.1122   -0.1994    0.2658 C   0  0  1  0  0  0  0  0  0  0  0  0
    0.3455   -0.3412    1.2482 H   0  0  0  0  0  0  0  0  0  0  0  0
    0.8133   -0.8122   -0.8089 C   0  0  0  0  0  0  0  0  0  0  0  0
    0.2719   -0.8766   -1.7521 H   0  0  0  0  0  0  0  0  0  0  0  0
    1.6757   -0.1631   -0.9527 H   0  0  0  0  0  0  0  0  0  0  0  0
    1.2962   -2.2160   -0.4814 C   0  0  0  0  0  0  0  0  0  0  0  0
    1.6613   -2.5488    0.6327 O   0  0  0  0  0  0  0  0  0  0  0  0
    1.3245   -3.0955   -1.4530 N   0  0  0  0  0  0  0  0  0  0  0  0
    1.6313   -4.0191   -1.2033 H   0  0  0  0  0  0  0  0  0  0  0  0
    1.0115   -2.8519   -2.3737 H   0  0  0  0  0  0  0  0  0  0  0  0
   -0.3431    1.3137    0.0581 C   0  0  0  0  0  0  0  0  0  0  0  0
   -0.0663    1.8346   -1.0223 O   0  0  0  0  0  0  0  0  0  0  0  0
   -0.8354    2.0151    1.0838 N   0  0  0  0  0  0  0  0  0  0  0  0
   -0.9639    1.5221    1.9617 H   0  0  0  0  0  0  0  0  0  0  0  0
   -1.1220    3.4480    1.0453 C   0  0  0  0  0  0  0  0  0  0  0  0
   -1.8140    3.6630    0.2281 H   0  0  0  0  0  0  0  0  0  0  0  0
   -1.5688    3.7658    1.9884 H   0  0  0  0  0  0  0  0  0  0  0  0
   -0.1982    4.0042    0.8778 H   0  0  0  0  0  0  0  0  0  0  0  0
  5  6  2  0  0  0  0
  5  7  1  0  0  0  0
  2  3  1  0  0  0  0
  2  4  1  0  0  0  0
  2  5  1  0  0  0  0
  1  2  1  0  0  0  0
 19 20  2  0  0  0  0
 19 21  1  0  0  0  0
 16 17  1  0  0  0  0
 16 18  1  0  0  0  0
 14 15  2  0  0  0  0
 14 16  1  0  0  0  0
 11 12  1  0  0  0  0
 11 13  1  0  0  0  0
 11 14  1  0  0  0  0
  9 10  1  0  0  0  0
  9 11  1  0  0  0  0
  9 19  1  0  0  0  0
  7  8  1  0  0  0  0
  7  9  1  0  0  0  0
 23 24  1  0  0  0  0
 23 25  1  0  0  0  0
 23 26  1  0  0  0  0
 21 22  1  0  0  0  0
 21 23  1  0  0  0  0
M  END
$$$$
default_name
  -OEChem-01062215323D

 26 25  0     1  0  0  0  0  0999 V2000
   -3.0232   -3.6924    1.0038 H   0  0  0  0  0  0  0  0  0  0  0  0
   -3.0082   -2.6684    0.6318 C   0  0  0  0  0  0  0  0  0  0  0  0
   -3.6332   -2.0414    1.2658 H   0  0  0  0  0  0  0  0  0  0  0  0
   -3.3762   -2.6444   -0.3912 H   0  0  0  0  0  0  0  0  0  0  0  0
   -1.5882   -2.1554    0.6658 C   0  0  0  0  0  0  0  0  0  0  0  0
   -0.6832   -2.8764    1.0638 O   0  0  0  0  0  0  0  0  0  0  0  0
   -1.3952   -0.9084    0.2428 N   0  0  0  0  0  0  0  0  0  0  0  0
   -2.1972   -0.3644   -0.0422 H   0  0  0  0  0  0  0  0  0  0  0  0
   -0.1122   -0.1994    0.2658 C   0  0  1  0  0  0  0  0  0  0  0  0
    0.3455   -0.3412    1.2482 H   0  0  0  0  0  0  0  0  0  0  0  0
    0.8133   -0.8122   -0.8089 C   0  0  0  0  0  0  0  0  0  0  0  0
    0.2719   -0.8766   -1.7521 H   0  0  0  0  0  0  0  0  0  0  0  0
    1.6757   -0.1631   -0.9527 H   0  0  0  0  0  0  0  0  0  0  0  0
    1.2962   -2.2160   -0.4814 C   0  0  0  0  0  0  0  0  0  0  0  0
    1.6613   -2.5488    0.6327 O   0  0  0  0  0  0  0  0  0  0  0  0
    1.3245   -3.0955   -1.4530 N   0  0  0  0  0  0  0  0  0  0  0  0
    1.6313   -4.0191   -1.2033 H   0  0  0  0  0  0  0  0  0  0  0  0
    1.0115   -2.8519   -2.3737 H   0  0  0  0  0  0  0  0  0  0  0  0
   -0.3431    1.3137    0.0581 C   0  0  0  0  0  0  0  0  0  0  0  0
   -0.3346    1.7859   -1.0787 O   0  0  0  0  0  0  0  0  0  0  0  0
   -0.5374    2.0688    1.1436 N   0  0  0  0  0  0  0  0  0  0  0  0
   -0.4531    1.6116    2.0460 H   0  0  0  0  0  0  0  0  0  0  0  0
   -0.7815    3.5098    1.1170 C   0  0  0  0  0  0  0  0  0  0  0  0
   -1.6518    3.7241    0.4929 H   0  0  0  0  0  0  0  0  0  0  0  0
   -0.9642    3.8772    2.1278 H   0  0  0  0  0  0  0  0  0  0  0  0
    0.0855    4.0228    0.6975 H   0  0  0  0  0  0  0  0  0  0  0  0
  5  6  2  0  0  0  0
  5  7  1  0  0  0  0
  2  3  1  0  0  0  0
  2  4  1  0  0  0  0
  2  5  1  0  0  0  0
  1  2  1  0  0  0  0
 19 20  2  0  0  0  0
 19 21  1  0  0  0  0
 16 17  1  0  0  0  0
 16 18  1  0  0  0  0
 14 15  2  0  0  0  0
 14 16  1  0  0  0  0
 11 12  1  0  0  0  0
 11 13  1  0  0  0  0
 11 14  1  0  0  0  0
  9 10  1  0  0  0  0
  9 11  1  0  0  0  0
  9 19  1  0  0  0  0
  7  8  1  0  0  0  0
  7  9  1  0  0  0  0
 23 24  1  0  0  0  0
 23 25  1  0  0  0  0
 23 26  1  0  0  0  0
 21 22  1  0  0  0  0
 21 23  1  0  0  0  0
M  END
$$$$
default_name
  -OEChem-01062215323D

 26 25  0     1  0  0  0  0  0999 V2000
   -3.0232   -3.6924    1.0038 H   0  0  0  0  0  0  0  0  0  0  0  0
   -3.0082   -2.6684    0.6318 C   0  0  0  0  0  0  0  0  0  0  0  0
   -3.6332   -2.0414    1.2658 H   0  0  0  0  0  0  0  0  0  0  0  0
   -3.3762   -2.6444   -0.3912 H   0  0  0  0  0  0  0  0  0  0  0  0
   -1.5882   -2.1554    0.6658 C   0  0  0  0  0  0  0  0  0  0  0  0
   -0.6832   -2.8764    1.0638 O   0  0  0  0  0  0  0  0  0  0  0  0
   -1.3952   -0.9084    0.2428 N   0  0  0  0  0  0  0  0  0  0  0  0
   -2.1972   -0.3644   -0.0422 H   0  0  0  0  0  0  0  0  0  0  0  0
   -0.1122   -0.1994    0.2658 C   0  0  1  0  0  0  0  0  0  0  0  0
    0.3455   -0.3412    1.2482 H   0  0  0  0  0  0  0  0  0  0  0  0
    0.8133   -0.8122   -0.8089 C   0  0  0  0  0  0  0  0  0  0  0  0
    0.2719   -0.8766   -1.7521 H   0  0  0  0  0  0  0  0  0  0  0  0
    1.6757   -0.1631   -0.9527 H   0  0  0  0  0  0  0  0  0  0  0  0
    1.2962   -2.2160   -0.4814 C   0  0  0  0  0  0  0  0  0  0  0  0
    1.6613   -2.5488    0.6327 O   0  0  0  0  0  0  0  0  0  0  0  0
    1.3245   -3.0955   -1.4530 N   0  0  0  0  0  0  0  0  0  0  0  0
    1.6313   -4.0191   -1.2033 H   0  0  0  0  0  0  0  0  0  0  0  0
    1.0115   -2.8519   -2.3737 H   0  0  0  0  0  0  0  0  0  0  0  0
   -0.3431    1.3137    0.0581 C   0  0  0  0  0  0  0  0  0  0  0  0
   -0.6098    1.7460   -1.0632 O   0  0  0  0  0  0  0  0  0  0  0  0
   -0.2324    2.1126    1.1238 N   0  0  0  0  0  0  0  0  0  0  0  0
    0.0648    1.6836    1.9944 H   0  0  0  0  0  0  0  0  0  0  0  0
   -0.4323    3.5604    1.0976 C   0  0  0  0  0  0  0  0  0  0  0  0
   -1.4258    3.7877    0.7051 H   0  0  0  0  0  0  0  0  0  0  0  0
   -0.3409    3.9692    2.1049 H   0  0  0  0  0  0  0  0  0  0  0  0
    0.3146    4.0239    0.4507 H   0  0  0  0  0  0  0  0  0  0  0  0
  5  6  2  0  0  0  0
  5  7  1  0  0  0  0
  2  3  1  0  0  0  0
  2  4  1  0  0  0  0
  2  5  1  0  0  0  0
  1  2  1  0  0  0  0
 19 20  2  0  0  0  0
 19 21  1  0  0  0  0
 16 17  1  0  0  0  0
 16 18  1  0  0  0  0
 14 15  2  0  0  0  0
 14 16  1  0  0  0  0
 11 12  1  0  0  0  0
 11 13  1  0  0  0  0
 11 14  1  0  0  0  0
  9 10  1  0  0  0  0
  9 11  1  0  0  0  0
  9 19  1  0  0  0  0
  7  8  1  0  0  0  0
  7  9  1  0  0  0  0
 23 24  1  0  0  0  0
 23 25  1  0  0  0  0
 23 26  1  0  0  0  0
 21 22  1  0  0  0  0
 21 23  1  0  0  0  0
M  END
$$$$
default_name
  -OEChem-01062215323D

 26 25  0     1  0  0  0  0  0999 V2000
   -3.0232   -3.6924    1.0038 H   0  0  0  0  0  0  0  0  0  0  0  0
   -3.0082   -2.6684    0.6318 C   0  0  0  0  0  0  0  0  0  0  0  0
   -3.6332   -2.0414    1.2658 H   0  0  0  0  0  0  0  0  0  0  0  0
   -3.3762   -2.6444   -0.3912 H   0  0  0  0  0  0  0  0  0  0  0  0
   -1.5882   -2.1554    0.6658 C   0  0  0  0  0  0  0  0  0  0  0  0
   -0.6832   -2.8764    1.0638 O   0  0  0  0  0  0  0  0  0  0  0  0
   -1.3952   -0.9084    0.2428 N   0  0  0  0  0  0  0  0  0  0  0  0
   -2.1972   -0.3644   -0.0422 H   0  0  0  0  0  0  0  0  0  0  0  0
   -0.1122   -0.1994    0.2658 C   0  0  1  0  0  0  0  0  0  0  0  0
    0.3455   -0.3412    1.2482 H   0  0  0  0  0  0  0  0  0  0  0  0
    0.8133   -0.8122   -0.8089 C   0  0  0  0  0  0  0  0  0  0  0  0
    0.2719   -0.8766   -1.7521 H   0  0  0  0  0  0  0  0  0  0  0  0
    1.6757   -0.1631   -0.9527 H   0  0  0  0  0  0  0  0  0  0  0  0
    1.2962   -2.2160   -0.4814 C   0  0  0  0  0  0  0  0  0  0  0  0
    1.6613   -2.5488    0.6327 O   0  0  0  0  0  0  0  0  0  0  0  0
    1.3245   -3.0955   -1.4530 N   0  0  0  0  0  0  0  0  0  0  0  0
    1.6313   -4.0191   -1.2033 H   0  0  0  0  0  0  0  0  0  0  0  0
    1.0115   -2.8519   -2.3737 H   0  0  0  0  0  0  0  0  0  0  0  0
   -0.3431    1.3137    0.0581 C   0  0  0  0  0  0  0  0  0  0  0  0
   -0.8731    1.7177   -0.9769 O   0  0  0  0  0  0  0  0  0  0  0  0
    0.0586    2.1436    1.0257 N   0  0  0  0  0  0  0  0  0  0  0  0
    0.5545    1.7331    1.8105 H   0  0  0  0  0  0  0  0  0  0  0  0
   -0.0981    3.5965    0.9883 C   0  0  0  0  0  0  0  0  0  0  0  0
   -1.1515    3.8495    0.8504 H   0  0  0  0  0  0  0  0  0  0  0  0
    0.2585    4.0355    1.9211 H   0  0  0  0  0  0  0  0  0  0  0  0
    0.4732    4.0074    0.1543 H   0  0  0  0  0  0  0  0  0  0  0  0
  5  6  2  0  0  0  0
  5  7  1  0  0  0  0
  2  3  1  0  0  0  0
  2  4  1  0  0  0  0
  2  5  1  0  0  0  0
  1  2  1  0  0  0  0
 19 20  2  0  0  0  0
 19 21  1  0  0  0  0
 16 17  1  0  0  0  0
 16 18  1  0  0  0  0
 14 15  2  0  0  0  0
 14 16  1  0  0  0  0
 11 12  1  0  0  0  0
 11 13  1  0  0  0  0
 11 14  1  0  0  0  0
  9 10  1  0  0  0  0
  9 11  1  0  0  0  0
  9 19  1  0  0  0  0
  7  8  1  0  0  0  0
  7  9  1  0  0  0  0
 23 24  1  0  0  0  0
 23 25  1  0  0  0  0
 23 26  1  0  0  0  0
 21 22  1  0  0  0  0
 21 23  1  0  0  0  0
M  END
$$$$
default_name
  -OEChem-01062215323D

 26 25  0     1  0  0  0  0  0999 V2000
   -3.0232   -3.6924    1.0038 H   0  0  0  0  0  0  0  0  0  0  0  0
   -3.0082   -2.6684    0.6318 C   0  0  0  0  0  0  0  0  0  0  0  0
   -3.6332   -2.0414    1.2658 H   0  0  0  0  0  0  0  0  0  0  0  0
   -3.3762   -2.6444   -0.3912 H   0  0  0  0  0  0  0  0  0  0  0  0
   -1.5882   -2.1554    0.6658 C   0  0  0  0  0  0  0  0  0  0  0  0
   -0.6832   -2.8764    1.0638 O   0  0  0  0  0  0  0  0  0  0  0  0
   -1.3952   -0.9084    0.2428 N   0  0  0  0  0  0  0  0  0  0  0  0
   -2.1972   -0.3644   -0.0422 H   0  0  0  0  0  0  0  0  0  0  0  0
   -0.1122   -0.1994    0.2658 C   0  0  1  0  0  0  0  0  0  0  0  0
    0.3455   -0.3412    1.2482 H   0  0  0  0  0  0  0  0  0  0  0  0
    0.8133   -0.8122   -0.8089 C   0  0  0  0  0  0  0  0  0  0  0  0
    0.2719   -0.8766   -1.7521 H   0  0  0  0  0  0  0  0  0  0  0  0
    1.6757   -0.1631   -0.9527 H   0  0  0  0  0  0  0  0  0  0  0  0
    1.2962   -2.2160   -0.4814 C   0  0  0  0  0  0  0  0  0  0  0  0
    1.6613   -2.5488    0.6327 O   0  0  0  0  0  0  0  0  0  0  0  0
    1.3245   -3.0955   -1.4530 N   0  0  0  0  0  0  0  0  0  0  0  0
    1.6313   -4.0191   -1.2033 H   0  0  0  0  0  0  0  0  0  0  0  0
    1.0115   -2.8519   -2.3737 H   0  0  0  0  0  0  0  0  0  0  0  0
   -0.3431    1.3137    0.0581 C   0  0  0  0  0  0  0  0  0  0  0  0
   -1.1066    1.7028   -0.8257 O   0  0  0  0  0  0  0  0  0  0  0  0
    0.3159    2.1596    0.8559 N   0  0  0  0  0  0  0  0  0  0  0  0
    0.9825    1.7567    1.5068 H   0  0  0  0  0  0  0  0  0  0  0  0
    0.1983    3.6154    0.7967 C   0  0  0  0  0  0  0  0  0  0  0  0
   -0.8476    3.9053    0.9188 H   0  0  0  0  0  0  0  0  0  0  0  0
    0.7932    4.0715    1.5892 H   0  0  0  0  0  0  0  0  0  0  0  0
    0.5508    3.9745   -0.1717 H   0  0  0  0  0  0  0  0  0  0  0  0
  5  6  2  0  0  0  0
  5  7  1  0  0  0  0
  2  3  1  0  0  0  0
  2  4  1  0  0  0  0
  2  5  1  0  0  0  0
  1  2  1  0  0  0  0
 19 20  2  0  0  0  0
 19 21  1  0  0  0  0
 16 17  1  0  0  0  0
 16 18  1  0  0  0  0
 14 15  2  0  0  0  0
 14 16  1  0  0  0  0
 11 12  1  0  0  0  0
 11 13  1  0  0  0  0
 11 14  1  0  0  0  0
  9 10  1  0  0  0  0
  9 11  1  0  0  0  0
  9 19  1  0  0  0  0
  7  8  1  0  0  0  0
  7  9  1  0  0  0  0
 23 24  1  0  0  0  0
 23 25  1  0  0  0  0
 23 26  1  0  0  0  0
 21 22  1  0  0  0  0
 21 23  1  0  0  0  0
M  END
$$$$
default_name
  -OEChem-01062215323D

 26 25  0     1  0  0  0  0  0999 V2000
   -3.0232   -3.6924    1.0038 H   0  0  0  0  0  0  0  0  0  0  0  0
   -3.0082   -2.6684    0.6318 C   0  0  0  0  0  0  0  0  0  0  0  0
   -3.6332   -2.0414    1.2658 H   0  0  0  0  0  0  0  0  0  0  0  0
   -3.3762   -2.6444   -0.3912 H   0  0  0  0  0  0  0  0  0  0  0  0
   -1.5882   -2.1554    0.6658 C   0  0  0  0  0  0  0  0  0  0  0  0
   -0.6832   -2.8764    1.0638 O   0  0  0  0  0  0  0  0  0  0  0  0
   -1.3952   -0.9084    0.2428 N   0  0  0  0  0  0  0  0  0  0  0  0
   -2.1972   -0.3644   -0.0422 H   0  0  0  0  0  0  0  0  0  0  0  0
   -0.1122   -0.1994    0.2658 C   0  0  1  0  0  0  0  0  0  0  0  0
    0.3455   -0.3412    1.2482 H   0  0  0  0  0  0  0  0  0  0  0  0
    0.8133   -0.8122   -0.8089 C   0  0  0  0  0  0  0  0  0  0  0  0
    0.2719   -0.8766   -1.7521 H   0  0  0  0  0  0  0  0  0  0  0  0
    1.6757   -0.1631   -0.9527 H   0  0  0  0  0  0  0  0  0  0  0  0
    1.2962   -2.2160   -0.4814 C   0  0  0  0  0  0  0  0  0  0  0  0
    1.6613   -2.5488    0.6327 O   0  0  0  0  0  0  0  0  0  0  0  0
    1.3245   -3.0955   -1.4530 N   0  0  0  0  0  0  0  0  0  0  0  0
    1.6313   -4.0191   -1.2033 H   0  0  0  0  0  0  0  0  0  0  0  0
    1.0115   -2.8519   -2.3737 H   0  0  0  0  0  0  0  0  0  0  0  0
   -0.3431    1.3137    0.0581 C   0  0  0  0  0  0  0  0  0  0  0  0
   -1.2942    1.7024   -0.6199 O   0  0  0  0  0  0  0  0  0  0  0  0
    0.5220    2.1595    0.6260 N   0  0  0  0  0  0  0  0  0  0  0  0
    1.3198    1.7529    1.1040 H   0  0  0  0  0  0  0  0  0  0  0  0
    0.4366    3.6159    0.5357 C   0  0  0  0  0  0  0  0  0  0  0  0
   -0.5348    3.9512    0.9056 H   0  0  0  0  0  0  0  0  0  0  0  0
    1.2267    4.0749    1.1315 H   0  0  0  0  0  0  0  0  0  0  0  0
    0.5419    3.9274   -0.5049 H   0  0  0  0  0  0  0  0  0  0  0  0
  5  6  2  0  0  0  0
  5  7  1  0  0  0  0
  2  3  1  0  0  0  0
  2  4  1  0  0  0  0
  2  5  1  0  0  0  0
  1  2  1  0  0  0  0
 19 20  2  0  0  0  0
 19 21  1  0  0  0  0
 16 17  1  0  0  0  0
 16 18  1  0  0  0  0
 14 15  2  0  0  0  0
 14 16  1  0  0  0  0
 11 12  1  0  0  0  0
 11 13  1  0  0  0  0
 11 14  1  0  0  0  0
  9 10  1  0  0  0  0
  9 11  1  0  0  0  0
  9 19  1  0  0  0  0
  7  8  1  0  0  0  0
  7  9  1  0  0  0  0
 23 24  1  0  0  0  0
 23 25  1  0  0  0  0
 23 26  1  0  0  0  0
 21 22  1  0  0  0  0
 21 23  1  0  0  0  0
M  END
$$$$
default_name
  -OEChem-01062215323D

 26 25  0     1  0  0  0  0  0999 V2000
   -3.0232   -3.6924    1.0038 H   0  0  0  0  0  0  0  0  0  0  0  0
   -3.0082   -2.6684    0.6318 C   0  0  0  0  0  0  0  0  0  0  0  0
   -3.6332   -2.0414    1.2658 H   0  0  0  0  0  0  0  0  0  0  0  0
   -3.3762   -2.6444   -0.3912 H   0  0  0  0  0  0  0  0  0  0  0  0
   -1.5882   -2.1554    0.6658 C   0  0  0  0  0  0  0  0  0  0  0  0
   -0.6832   -2.8764    1.0638 O   0  0  0  0  0  0  0  0  0  0  0  0
   -1.3952   -0.9084    0.2428 N   0  0  0  0  0  0  0  0  0  0  0  0
   -2.1972   -0.3644   -0.0422 H   0  0  0  0  0  0  0  0  0  0  0  0
   -0.1122   -0.1994    0.2658 C   0  0  1  0  0  0  0  0  0  0  0  0
    0.3455   -0.3412    1.2482 H   0  0  0  0  0  0  0  0  0  0  0  0
    0.8133   -0.8122   -0.8089 C   0  0  0  0  0  0  0  0  0  0  0  0
    0.2719   -0.8766   -1.7521 H   0  0  0  0  0  0  0  0  0  0  0  0
    1.6757   -0.1631   -0.9527 H   0  0  0  0  0  0  0  0  0  0  0  0
    1.2962   -2.2160   -0.4814 C   0  0  0  0  0  0  0  0  0  0  0  0
    1.6613   -2.5488    0.6327 O   0  0  0  0  0  0  0  0  0  0  0  0
    1.3245   -3.0955   -1.4530 N   0  0  0  0  0  0  0  0  0  0  0  0
    1.6313   -4.0191   -1.2033 H   0  0  0  0  0  0  0  0  0  0  0  0
    1.0115   -2.8519   -2.3737 H   0  0  0  0  0  0  0  0  0  0  0  0
   -0.3431    1.3137    0.0581 C   0  0  0  0  0  0  0  0  0  0  0  0
   -1.4233    1.7165   -0.3735 O   0  0  0  0  0  0  0  0  0  0  0  0
    0.6627    2.1433    0.3518 N   0  0  0  0  0  0  0  0  0  0  0  0
    1.5434    1.7219    0.6295 H   0  0  0  0  0  0  0  0  0  0  0  0
    0.6006    3.5981    0.2231 C   0  0  0  0  0  0  0  0  0  0  0  0
   -0.2343    3.9842    0.8118 H   0  0  0  0  0  0  0  0  0  0  0  0
    1.5296    4.0454    0.5794 H   0  0  0  0  0  0  0  0  0  0  0  0
    0.4471    3.8693   -0.8228 H   0  0  0  0  0  0  0  0  0  0  0  0
  5  6  2  0  0  0  0
  5  7  1  0  0  0  0
  2  3  1  0  0  0  0
  2  4  1  0  0  0  0
  2  5  1  0  0  0  0
  1  2  1  0  0  0  0
 19 20  2  0  0  0  0
 19 21  1  0  0  0  0
 16 17  1  0  0  0  0
 16 18  1  0  0  0  0
 14 15  2  0  0  0  0
 14 16  1  0  0  0  0
 11 12  1  0  0  0  0
 11 13  1  0  0  0  0
 11 14  1  0  0  0  0
  9 10  1  0  0  0  0
  9 11  1  0  0  0  0
  9 19  1  0  0  0  0
  7  8  1  0  0  0  0
  7  9  1  0  0  0  0
 23 24  1  0  0  0  0
 23 25  1  0  0  0  0
 23 26  1  0  0  0  0
 21 22  1  0  0  0  0
 21 23  1  0  0  0  0
M  END
$$$$
default_name
  -OEChem-01062215323D

 26 25  0     1  0  0  0  0  0999 V2000
   -3.0232   -3.6924    1.0038 H   0  0  0  0  0  0  0  0  0  0  0  0
   -3.0082   -2.6684    0.6318 C   0  0  0  0  0  0  0  0  0  0  0  0
   -3.6332   -2.0414    1.2658 H   0  0  0  0  0  0  0  0  0  0  0  0
   -3.3762   -2.6444   -0.3912 H   0  0  0  0  0  0  0  0  0  0  0  0
   -1.5882   -2.1554    0.6658 C   0  0  0  0  0  0  0  0  0  0  0  0
   -0.6832   -2.8764    1.0638 O   0  0  0  0  0  0  0  0  0  0  0  0
   -1.3952   -0.9084    0.2428 N   0  0  0  0  0  0  0  0  0  0  0  0
   -2.1972   -0.3644   -0.0422 H   0  0  0  0  0  0  0  0  0  0  0  0
   -0.1122   -0.1994    0.2658 C   0  0  1  0  0  0  0  0  0  0  0  0
    0.4638   -0.5513    1.1256 H   0  0  0  0  0  0  0  0  0  0  0  0
    0.6645   -0.5360   -1.0267 C   0  0  0  0  0  0  0  0  0  0  0  0
    0.0083   -0.3953   -1.8849 H   0  0  0  0  0  0  0  0  0  0  0  0
    1.5087    0.1447   -1.1259 H   0  0  0  0  0  0  0  0  0  0  0  0
    1.1702   -1.9683   -1.0888 C   0  0  0  0  0  0  0  0  0  0  0  0
    1.6689   -2.5377   -0.1337 O   0  0  0  0  0  0  0  0  0  0  0  0
    1.0671   -2.6044   -2.2303 N   0  0  0  0  0  0  0  0  0  0  0  0
    1.3933   -3.5548   -2.2368 H   0  0  0  0  0  0  0  0  0  0  0  0
    0.6434   -2.1647   -3.0254 H   0  0  0  0  0  0  0  0  0  0  0  0
   -0.3517    1.3169    0.4371 C   0  0  0  0  0  0  0  0  0  0  0  0
   -1.5004    1.7516    0.5211 O   0  0  0  0  0  0  0  0  0  0  0  0
    0.7189    2.1158    0.4784 N   0  0  0  0  0  0  0  0  0  0  0  0
    1.6245    1.6835    0.3256 H   0  0  0  0  0  0  0  0  0  0  0  0
    0.6634    3.5667    0.6479 C   0  0  0  0  0  0  0  0  0  0  0  0
    0.1231    3.8095    1.5654 H   0  0  0  0  0  0  0  0  0  0  0  0
    1.6731    3.9756    0.7058 H   0  0  0  0  0  0  0  0  0  0  0  0
    0.1394    4.0166   -0.1970 H   0  0  0  0  0  0  0  0  0  0  0  0
  5  6  2  0  0  0  0
  5  7  1  0  0  0  0
  2  3  1  0  0  0  0
  2  4  1  0  0  0  0
  2  5  1  0  0  0  0
  1  2  1  0  0  0  0
 19 20  2  0  0  0  0
 19 21  1  0  0  0  0
 16 17  1  0  0  0  0
 16 18  1  0  0  0  0
 14 15  2  0  0  0  0
 14 16  1  0  0  0  0
 11 12  1  0  0  0  0
 11 13  1  0  0  0  0
 11 14  1  0  0  0  0
  9 10  1  0  0  0  0
  9 11  1  0  0  0  0
  9 19  1  0  0  0  0
  7  8  1  0  0  0  0
  7  9  1  0  0  0  0
 23 24  1  0  0  0  0
 23 25  1  0  0  0  0
 23 26  1  0  0  0  0
 21 22  1  0  0  0  0
 21 23  1  0  0  0  0
M  END
$$$$
default_name
  -OEChem-01062215323D

 26 25  0     1  0  0  0  0  0999 V2000
   -3.0232   -3.6924    1.0038 H   0  0  0  0  0  0  0  0  0  0  0  0
   -3.0082   -2.6684    0.6318 C   0  0  0  0  0  0  0  0  0  0  0  0
   -3.6332   -2.0414    1.2658 H   0  0  0  0  0  0  0  0  0  0  0  0
   -3.3762   -2.6444   -0.3912 H   0  0  0  0  0  0  0  0  0  0  0  0
   -1.5882   -2.1554    0.6658 C   0  0  0  0  0  0  0  0  0  0  0  0
   -0.6832   -2.8764    1.0638 O   0  0  0  0  0  0  0  0  0  0  0  0
   -1.3952   -0.9084    0.2428 N   0  0  0  0  0  0  0  0  0  0  0  0
   -2.1972   -0.3644   -0.0422 H   0  0  0  0  0  0  0  0  0  0  0  0
   -0.1122   -0.1994    0.2658 C   0  0  1  0  0  0  0  0  0  0  0  0
    0.4638   -0.5513    1.1256 H   0  0  0  0  0  0  0  0  0  0  0  0
    0.6645   -0.5360   -1.0267 C   0  0  0  0  0  0  0  0  0  0  0  0
    0.0083   -0.3953   -1.8849 H   0  0  0  0  0  0  0  0  0  0  0  0
    1.5087    0.1447   -1.1259 H   0  0  0  0  0  0  0  0  0  0  0  0
    1.1702   -1.9683   -1.0888 C   0  0  0  0  0  0  0  0  0  0  0  0
    1.6689   -2.5377   -0.1337 O   0  0  0  0  0  0  0  0  0  0  0  0
    1.0671   -2.6044   -2.2303 N   0  0  0  0  0  0  0  0  0  0  0  0
    1.3933   -3.5548   -2.2368 H   0  0  0  0  0  0  0  0  0  0  0  0
    0.6434   -2.1647   -3.0254 H   0  0  0  0  0  0  0  0  0  0  0  0
   -0.3517    1.3169    0.4371 C   0  0  0  0  0  0  0  0  0  0  0  0
   -1.4556    1.7277    0.7950 O   0  0  0  0  0  0  0  0  0  0  0  0
    0.6667    2.1418    0.1753 N   0  0  0  0  0  0  0  0  0  0  0  0
    1.5181    1.7246   -0.1873 H   0  0  0  0  0  0  0  0  0  0  0  0
    0.6069    3.5970    0.3004 C   0  0  0  0  0  0  0  0  0  0  0  0
    0.3088    3.8670    1.3157 H   0  0  0  0  0  0  0  0  0  0  0  0
    1.5837    4.0318    0.0842 H   0  0  0  0  0  0  0  0  0  0  0  0
   -0.1291    3.9970   -0.3991 H   0  0  0  0  0  0  0  0  0  0  0  0
  5  6  2  0  0  0  0
  5  7  1  0  0  0  0
  2  3  1  0  0  0  0
  2  4  1  0  0  0  0
  2  5  1  0  0  0  0
  1  2  1  0  0  0  0
 19 20  2  0  0  0  0
 19 21  1  0  0  0  0
 16 17  1  0  0  0  0
 16 18  1  0  0  0  0
 14 15  2  0  0  0  0
 14 16  1  0  0  0  0
 11 12  1  0  0  0  0
 11 13  1  0  0  0  0
 11 14  1  0  0  0  0
  9 10  1  0  0  0  0
  9 11  1  0  0  0  0
  9 19  1  0  0  0  0
  7  8  1  0  0  0  0
  7  9  1  0  0  0  0
 23 24  1  0  0  0  0
 23 25  1  0  0  0  0
 23 26  1  0  0  0  0
 21 22  1  0  0  0  0
 21 23  1  0  0  0  0
M  END
$$$$
default_name
  -OEChem-01062215323D

 26 25  0     1  0  0  0  0  0999 V2000
   -3.0232   -3.6924    1.0038 H   0  0  0  0  0  0  0  0  0  0  0  0
   -3.0082   -2.6684    0.6318 C   0  0  0  0  0  0  0  0  0  0  0  0
   -3.6332   -2.0414    1.2658 H   0  0  0  0  0  0  0  0  0  0  0  0
   -3.3762   -2.6444   -0.3912 H   0  0  0  0  0  0  0  0  0  0  0  0
   -1.5882   -2.1554    0.6658 C   0  0  0  0  0  0  0  0  0  0  0  0
   -0.6832   -2.8764    1.0638 O   0  0  0  0  0  0  0  0  0  0  0  0
   -1.3952   -0.9084    0.2428 N   0  0  0  0  0  0  0  0  0  0  0  0
   -2.1972   -0.3644   -0.0422 H   0  0  0  0  0  0  0  0  0  0  0  0
   -0.1122   -0.1994    0.2658 C   0  0  1  0  0  0  0  0  0  0  0  0
    0.4638   -0.5513    1.1256 H   0  0  0  0  0  0  0  0  0  0  0  0
    0.6645   -0.5360   -1.0267 C   0  0  0  0  0  0  0  0  0  0  0  0
    0.0083   -0.3953   -1.8849 H   0  0  0  0  0  0  0  0  0  0  0  0
    1.5087    0.1447   -1.1259 H   0  0  0  0  0  0  0  0  0  0  0  0
    1.1702   -1.9683   -1.0888 C   0  0  0  0  0  0  0  0  0  0  0  0
    1.6689   -2.5377   -0.1337 O   0  0  0  0  0  0  0  0  0  0  0  0
    1.0671   -2.6044   -2.2303 N   0  0  0  0  0  0  0  0  0  0  0  0
    1.3933   -3.5548   -2.2368 H   0  0  0  0  0  0  0  0  0  0  0  0
    0.6434   -2.1647   -3.0254 H   0  0  0  0  0  0  0  0  0  0  0  0
   -0.3517    1.3169    0.4371 C   0  0  0  0  0  0  0  0  0  0  0  0
   -1.3421    1.7169    1.0491 O   0  0  0  0  0  0  0  0  0  0  0  0
    0.5385    2.1533   -0.1053 N   0  0  0  0  0  0  0  0  0  0  0  0
    1.2838    1.7407   -0.6573 H   0  0  0  0  0  0  0  0  0  0  0  0
    0.4630    3.6107   -0.0222 C   0  0  0  0  0  0  0  0  0  0  0  0
    0.4231    3.9179    1.0251 H   0  0  0  0  0  0  0  0  0  0  0  0
    1.3379    4.0584   -0.4957 H   0  0  0  0  0  0  0  0  0  0  0  0
   -0.4394    3.9623   -0.5252 H   0  0  0  0  0  0  0  0  0  0  0  0
  5  6  2  0  0  0  0
  5  7  1  0  0  0  0
  2  3  1  0  0  0  0
  2  4  1  0  0  0  0
  2  5  1  0  0  0  0
  1  2  1  0  0  0  0
 19 20  2  0  0  0  0
 19 21  1  0  0  0  0
 16 17  1  0  0  0  0
 16 18  1  0  0  0  0
 14 15  2  0  0  0  0
 14 16  1  0  0  0  0
 11 12  1  0  0  0  0
 11 13  1  0  0  0  0
 11 14  1  0  0  0  0
  9 10  1  0  0  0  0
  9 11  1  0  0  0  0
  9 19  1  0  0  0  0
  7  8  1  0  0  0  0
  7  9  1  0  0  0  0
 23 24  1  0  0  0  0
 23 25  1  0  0  0  0
 23 26  1  0  0  0  0
 21 22  1  0  0  0  0
 21 23  1  0  0  0  0
M  END
$$$$
default_name
  -OEChem-01062215323D

 26 25  0     1  0  0  0  0  0999 V2000
   -3.0232   -3.6924    1.0038 H   0  0  0  0  0  0  0  0  0  0  0  0
   -3.0082   -2.6684    0.6318 C   0  0  0  0  0  0  0  0  0  0  0  0
   -3.6332   -2.0414    1.2658 H   0  0  0  0  0  0  0  0  0  0  0  0
   -3.3762   -2.6444   -0.3912 H   0  0  0  0  0  0  0  0  0  0  0  0
   -1.5882   -2.1554    0.6658 C   0  0  0  0  0  0  0  0  0  0  0  0
   -0.6832   -2.8764    1.0638 O   0  0  0  0  0  0  0  0  0  0  0  0
   -1.3952   -0.9084    0.2428 N   0  0  0  0  0  0  0  0  0  0  0  0
   -2.1972   -0.3644   -0.0422 H   0  0  0  0  0  0  0  0  0  0  0  0
   -0.1122   -0.1994    0.2658 C   0  0  1  0  0  0  0  0  0  0  0  0
    0.4638   -0.5513    1.1256 H   0  0  0  0  0  0  0  0  0  0  0  0
    0.6645   -0.5360   -1.0267 C   0  0  0  0  0  0  0  0  0  0  0  0
    0.0083   -0.3953   -1.8849 H   0  0  0  0  0  0  0  0  0  0  0  0
    1.5087    0.1447   -1.1259 H   0  0  0  0  0  0  0  0  0  0  0  0
    1.1702   -1.9683   -1.0888 C   0  0  0  0  0  0  0  0  0  0  0  0
    1.6689   -2.5377   -0.1337 O   0  0  0  0  0  0  0  0  0  0  0  0
    1.0671   -2.6044   -2.2303 N   0  0  0  0  0  0  0  0  0  0  0  0
    1.3933   -3.5548   -2.2368 H   0  0  0  0  0  0  0  0  0  0  0  0
    0.6434   -2.1647   -3.0254 H   0  0  0  0  0  0  0  0  0  0  0  0
   -0.3517    1.3169    0.4371 C   0  0  0  0  0  0  0  0  0  0  0  0
   -1.1676    1.7200    1.2661 O   0  0  0  0  0  0  0  0  0  0  0  0
    0.3431    2.1494   -0.3442 N   0  0  0  0  0  0  0  0  0  0  0  0
    0.9377    1.7306   -1.0524 H   0  0  0  0  0  0  0  0  0  0  0  0
    0.2418    3.6069   -0.2978 C   0  0  0  0  0  0  0  0  0  0  0  0
    0.4583    3.9587    0.7132 H   0  0  0  0  0  0  0  0  0  0  0  0
    0.9524    4.0539   -0.9944 H   0  0  0  0  0  0  0  0  0  0  0  0
   -0.7700    3.9148   -0.5669 H   0  0  0  0  0  0  0  0  0  0  0  0
  5  6  2  0  0  0  0
  5  7  1  0  0  0  0
  2  3  1  0  0  0  0
  2  4  1  0  0  0  0
  2  5  1  0  0  0  0
  1  2  1  0  0  0  0
 19 20  2  0  0  0  0
 19 21  1  0  0  0  0
 16 17  1  0  0  0  0
 16 18  1  0  0  0  0
 14 15  2  0  0  0  0
 14 16  1  0  0  0  0
 11 12  1  0  0  0  0
 11 13  1  0  0  0  0
 11 14  1  0  0  0  0
  9 10  1  0  0  0  0
  9 11  1  0  0  0  0
  9 19  1  0  0  0  0
  7  8  1  0  0  0  0
  7  9  1  0  0  0  0
 23 24  1  0  0  0  0
 23 25  1  0  0  0  0
 23 26  1  0  0  0  0
 21 22  1  0  0  0  0
 21 23  1  0  0  0  0
M  END
$$$$
default_name
  -OEChem-01062215323D

 26 25  0     1  0  0  0  0  0999 V2000
   -3.0232   -3.6924    1.0038 H   0  0  0  0  0  0  0  0  0  0  0  0
   -3.0082   -2.6684    0.6318 C   0  0  0  0  0  0  0  0  0  0  0  0
   -3.6332   -2.0414    1.2658 H   0  0  0  0  0  0  0  0  0  0  0  0
   -3.3762   -2.6444   -0.3912 H   0  0  0  0  0  0  0  0  0  0  0  0
   -1.5882   -2.1554    0.6658 C   0  0  0  0  0  0  0  0  0  0  0  0
   -0.6832   -2.8764    1.0638 O   0  0  0  0  0  0  0  0  0  0  0  0
   -1.3952   -0.9084    0.2428 N   0  0  0  0  0  0  0  0  0  0  0  0
   -2.1972   -0.3644   -0.0422 H   0  0  0  0  0  0  0  0  0  0  0  0
   -0.1122   -0.1994    0.2658 C   0  0  1  0  0  0  0  0  0  0  0  0
    0.4638   -0.5513    1.1256 H   0  0  0  0  0  0  0  0  0  0  0  0
    0.6645   -0.5360   -1.0267 C   0  0  0  0  0  0  0  0  0  0  0  0
    0.0083   -0.3953   -1.8849 H   0  0  0  0  0  0  0  0  0  0  0  0
    1.5087    0.1447   -1.1259 H   0  0  0  0  0  0  0  0  0  0  0  0
    1.1702   -1.9683   -1.0888 C   0  0  0  0  0  0  0  0  0  0  0  0
    1.6689   -2.5377   -0.1337 O   0  0  0  0  0  0  0  0  0  0  0  0
    1.0671   -2.6044   -2.2303 N   0  0  0  0  0  0  0  0  0  0  0  0
    1.3933   -3.5548   -2.2368 H   0  0  0  0  0  0  0  0  0  0  0  0
    0.6434   -2.1647   -3.0254 H   0  0  0  0  0  0  0  0  0  0  0  0
   -0.3517    1.3169    0.4371 C   0  0  0  0  0  0  0  0  0  0  0  0
   -0.9440    1.7366    1.4313 O   0  0  0  0  0  0  0  0  0  0  0  0
    0.0937    2.1304   -0.5252 N   0  0  0  0  0  0  0  0  0  0  0  0
    0.5032    1.6952   -1.3457 H   0  0  0  0  0  0  0  0  0  0  0  0
   -0.0419    3.5858   -0.5076 C   0  0  0  0  0  0  0  0  0  0  0  0
    0.4118    3.9866    0.4014 H   0  0  0  0  0  0  0  0  0  0  0  0
    0.4534    4.0184   -1.3780 H   0  0  0  0  0  0  0  0  0  0  0  0
   -1.0987    3.8577   -0.5212 H   0  0  0  0  0  0  0  0  0  0  0  0
  5  6  2  0  0  0  0
  5  7  1  0  0  0  0
  2  3  1  0  0  0  0
  2  4  1  0  0  0  0
  2  5  1  0  0  0  0
  1  2  1  0  0  0  0
 19 20  2  0  0  0  0
 19 21  1  0  0  0  0
 16 17  1  0  0  0  0
 16 18  1  0  0  0  0
 14 15  2  0  0  0  0
 14 16  1  0  0  0  0
 11 12  1  0  0  0  0
 11 13  1  0  0  0  0
 11 14  1  0  0  0  0
  9 10  1  0  0  0  0
  9 11  1  0  0  0  0
  9 19  1  0  0  0  0
  7  8  1  0  0  0  0
  7  9  1  0  0  0  0
 23 24  1  0  0  0  0
 23 25  1  0  0  0  0
 23 26  1  0  0  0  0
 21 22  1  0  0  0  0
 21 23  1  0  0  0  0
M  END
$$$$
default_name
  -OEChem-01062215323D

 26 25  0     1  0  0  0  0  0999 V2000
   -3.0232   -3.6924    1.0038 H   0  0  0  0  0  0  0  0  0  0  0  0
   -3.0082   -2.6684    0.6318 C   0  0  0  0  0  0  0  0  0  0  0  0
   -3.6332   -2.0414    1.2658 H   0  0  0  0  0  0  0  0  0  0  0  0
   -3.3762   -2.6444   -0.3912 H   0  0  0  0  0  0  0  0  0  0  0  0
   -1.5882   -2.1554    0.6658 C   0  0  0  0  0  0  0  0  0  0  0  0
   -0.6832   -2.8764    1.0638 O   0  0  0  0  0  0  0  0  0  0  0  0
   -1.3952   -0.9084    0.2428 N   0  0  0  0  0  0  0  0  0  0  0  0
   -2.1972   -0.3644   -0.0422 H   0  0  0  0  0  0  0  0  0  0  0  0
   -0.1122   -0.1994    0.2658 C   0  0  1  0  0  0  0  0  0  0  0  0
    0.4638   -0.5513    1.1256 H   0  0  0  0  0  0  0  0  0  0  0  0
    0.6645   -0.5360   -1.0267 C   0  0  0  0  0  0  0  0  0  0  0  0
    0.0083   -0.3953   -1.8849 H   0  0  0  0  0  0  0  0  0  0  0  0
    1.5087    0.1447   -1.1259 H   0  0  0  0  0  0  0  0  0  0  0  0
    1.1702   -1.9683   -1.0888 C   0  0  0  0  0  0  0  0  0  0  0  0
    1.6689   -2.5377   -0.1337 O   0  0  0  0  0  0  0  0  0  0  0  0
    1.0671   -2.6044   -2.2303 N   0  0  0  0  0  0  0  0  0  0  0  0
    1.3933   -3.5548   -2.2368 H   0  0  0  0  0  0  0  0  0  0  0  0
    0.6434   -2.1647   -3.0254 H   0  0  0  0  0  0  0  0  0  0  0  0
   -0.3517    1.3169    0.4371 C   0  0  0  0  0  0  0  0  0  0  0  0
   -0.6865    1.7658    1.5334 O   0  0  0  0  0  0  0  0  0  0  0  0
   -0.1926    2.0977   -0.6359 N   0  0  0  0  0  0  0  0  0  0  0  0
    0.0100    1.6366   -1.5171 H   0  0  0  0  0  0  0  0  0  0  0  0
   -0.3685    3.5488   -0.6374 C   0  0  0  0  0  0  0  0  0  0  0  0
    0.2868    3.9997    0.1110 H   0  0  0  0  0  0  0  0  0  0  0  0
   -0.1251    3.9544   -1.6203 H   0  0  0  0  0  0  0  0  0  0  0  0
   -1.4029    3.7950   -0.3913 H   0  0  0  0  0  0  0  0  0  0  0  0
  5  6  2  0  0  0  0
  5  7  1  0  0  0  0
  2  3  1  0  0  0  0
  2  4  1  0  0  0  0
  2  5  1  0  0  0  0
  1  2  1  0  0  0  0
 19 20  2  0  0  0  0
 19 21  1  0  0  0  0
 16 17  1  0  0  0  0
 16 18  1  0  0  0  0
 14 15  2  0  0  0  0
 14 16  1  0  0  0  0
 11 12  1  0  0  0  0
 11 13  1  0  0  0  0
 11 14  1  0  0  0  0
  9 10  1  0  0  0  0
  9 11  1  0  0  0  0
  9 19  1  0  0  0  0
  7  8  1  0  0  0  0
  7  9  1  0  0  0  0
 23 24  1  0  0  0  0
 23 25  1  0  0  0  0
 23 26  1  0  0  0  0
 21 22  1  0  0  0  0
 21 23  1  0  0  0  0
M  END
$$$$
default_name
  -OEChem-01062215323D

 26 25  0     1  0  0  0  0  0999 V2000
   -3.0232   -3.6924    1.0038 H   0  0  0  0  0  0  0  0  0  0  0  0
   -3.0082   -2.6684    0.6318 C   0  0  0  0  0  0  0  0  0  0  0  0
   -3.6332   -2.0414    1.2658 H   0  0  0  0  0  0  0  0  0  0  0  0
   -3.3762   -2.6444   -0.3912 H   0  0  0  0  0  0  0  0  0  0  0  0
   -1.5882   -2.1554    0.6658 C   0  0  0  0  0  0  0  0  0  0  0  0
   -0.6832   -2.8764    1.0638 O   0  0  0  0  0  0  0  0  0  0  0  0
   -1.3952   -0.9084    0.2428 N   0  0  0  0  0  0  0  0  0  0  0  0
   -2.1972   -0.3644   -0.0422 H   0  0  0  0  0  0  0  0  0  0  0  0
   -0.1122   -0.1994    0.2658 C   0  0  1  0  0  0  0  0  0  0  0  0
    0.4638   -0.5513    1.1256 H   0  0  0  0  0  0  0  0  0  0  0  0
    0.6645   -0.5360   -1.0267 C   0  0  0  0  0  0  0  0  0  0  0  0
    0.0083   -0.3953   -1.8849 H   0  0  0  0  0  0  0  0  0  0  0  0
    1.5087    0.1447   -1.1259 H   0  0  0  0  0  0  0  0  0  0  0  0
    1.1702   -1.9683   -1.0888 C   0  0  0  0  0  0  0  0  0  0  0  0
    1.6689   -2.5377   -0.1337 O   0  0  0  0  0  0  0  0  0  0  0  0
    1.0671   -2.6044   -2.2303 N   0  0  0  0  0  0  0  0  0  0  0  0
    1.3933   -3.5548   -2.2368 H   0  0  0  0  0  0  0  0  0  0  0  0
    0.6434   -2.1647   -3.0254 H   0  0  0  0  0  0  0  0  0  0  0  0
   -0.3517    1.3169    0.4371 C   0  0  0  0  0  0  0  0  0  0  0  0
   -0.4127    1.8054    1.5654 O   0  0  0  0  0  0  0  0  0  0  0  0
   -0.4964    2.0534   -0.6687 N   0  0  0  0  0  0  0  0  0  0  0  0
   -0.5082    1.5591   -1.5552 H   0  0  0  0  0  0  0  0  0  0  0  0
   -0.7160    3.4986   -0.6782 C   0  0  0  0  0  0  0  0  0  0  0  0
    0.0920    3.9971   -0.1384 H   0  0  0  0  0  0  0  0  0  0  0  0
   -0.7436    3.8663   -1.7049 H   0  0  0  0  0  0  0  0  0  0  0  0
   -1.6619    3.7308   -0.1860 H   0  0  0  0  0  0  0  0  0  0  0  0
  5  6  2  0  0  0  0
  5  7  1  0  0  0  0
  2  3  1  0  0  0  0
  2  4  1  0  0  0  0
  2  5  1  0  0  0  0
  1  2  1  0  0  0  0
 19 20  2  0  0  0  0
 19 21  1  0  0  0  0
 16 17  1  0  0  0  0
 16 18  1  0  0  0  0
 14 15  2  0  0  0  0
 14 16  1  0  0  0  0
 11 12  1  0  0  0  0
 11 13  1  0  0  0  0
 11 14  1  0  0  0  0
  9 10  1  0  0  0  0
  9 11  1  0  0  0  0
  9 19  1  0  0  0  0
  7  8  1  0  0  0  0
  7  9  1  0  0  0  0
 23 24  1  0  0  0  0
 23 25  1  0  0  0  0
 23 26  1  0  0  0  0
 21 22  1  0  0  0  0
 21 23  1  0  0  0  0
M  END
$$$$
default_name
  -OEChem-01062215323D

 26 25  0     1  0  0  0  0  0999 V2000
   -3.0232   -3.6924    1.0038 H   0  0  0  0  0  0  0  0  0  0  0  0
   -3.0082   -2.6684    0.6318 C   0  0  0  0  0  0  0  0  0  0  0  0
   -3.6332   -2.0414    1.2658 H   0  0  0  0  0  0  0  0  0  0  0  0
   -3.3762   -2.6444   -0.3912 H   0  0  0  0  0  0  0  0  0  0  0  0
   -1.5882   -2.1554    0.6658 C   0  0  0  0  0  0  0  0  0  0  0  0
   -0.6832   -2.8764    1.0638 O   0  0  0  0  0  0  0  0  0  0  0  0
   -1.3952   -0.9084    0.2428 N   0  0  0  0  0  0  0  0  0  0  0  0
   -2.1972   -0.3644   -0.0422 H   0  0  0  0  0  0  0  0  0  0  0  0
   -0.1122   -0.1994    0.2658 C   0  0  1  0  0  0  0  0  0  0  0  0
    0.4638   -0.5513    1.1256 H   0  0  0  0  0  0  0  0  0  0  0  0
    0.6645   -0.5360   -1.0267 C   0  0  0  0  0  0  0  0  0  0  0  0
    0.0083   -0.3953   -1.8849 H   0  0  0  0  0  0  0  0  0  0  0  0
    1.5087    0.1447   -1.1259 H   0  0  0  0  0  0  0  0  0  0  0  0
    1.1702   -1.9683   -1.0888 C   0  0  0  0  0  0  0  0  0  0  0  0
    1.6689   -2.5377   -0.1337 O   0  0  0  0  0  0  0  0  0  0  0  0
    1.0671   -2.6044   -2.2303 N   0  0  0  0  0  0  0  0  0  0  0  0
    1.3933   -3.5548   -2.2368 H   0  0  0  0  0  0  0  0  0  0  0  0
    0.6434   -2.1647   -3.0254 H   0  0  0  0  0  0  0  0  0  0  0  0
   -0.3517    1.3169    0.4371 C   0  0  0  0  0  0  0  0  0  0  0  0
   -0.1412    1.8529    1.5252 O   0  0  0  0  0  0  0  0  0  0  0  0
   -0.7969    2.0006   -0.6215 N   0  0  0  0  0  0  0  0  0  0  0  0
   -1.0162    1.4677   -1.4571 H   0  0  0  0  0  0  0  0  0  0  0  0
   -1.0605    3.4384   -0.6274 C   0  0  0  0  0  0  0  0  0  0  0  0
   -0.1595    3.9790   -0.3297 H   0  0  0  0  0  0  0  0  0  0  0  0
   -1.3599    3.7600   -1.6259 H   0  0  0  0  0  0  0  0  0  0  0  0
   -1.8581    3.6697    0.0807 H   0  0  0  0  0  0  0  0  0  0  0  0
  5  6  2  0  0  0  0
  5  7  1  0  0  0  0
  2  3  1  0  0  0  0
  2  4  1  0  0  0  0
  2  5  1  0  0  0  0
  1  2  1  0  0  0  0
 19 20  2  0  0  0  0
 19 21  1  0  0  0  0
 16 17  1  0  0  0  0
 16 18  1  0  0  0  0
 14 15  2  0  0  0  0
 14 16  1  0  0  0  0
 11 12  1  0  0  0  0
 11 13  1  0  0  0  0
 11 14  1  0  0  0  0
  9 10  1  0  0  0  0
  9 11  1  0  0  0  0
  9 19  1  0  0  0  0
  7  8  1  0  0  0  0
  7  9  1  0  0  0  0
 23 24  1  0  0  0  0
 23 25  1  0  0  0  0
 23 26  1  0  0  0  0
 21 22  1  0  0  0  0
 21 23  1  0  0  0  0
M  END
$$$$
default_name
  -OEChem-01062215323D

 26 25  0     1  0  0  0  0  0999 V2000
   -3.0232   -3.6924    1.0038 H   0  0  0  0  0  0  0  0  0  0  0  0
   -3.0082   -2.6684    0.6318 C   0  0  0  0  0  0  0  0  0  0  0  0
   -3.6332   -2.0414    1.2658 H   0  0  0  0  0  0  0  0  0  0  0  0
   -3.3762   -2.6444   -0.3912 H   0  0  0  0  0  0  0  0  0  0  0  0
   -1.5882   -2.1554    0.6658 C   0  0  0  0  0  0  0  0  0  0  0  0
   -0.6832   -2.8764    1.0638 O   0  0  0  0  0  0  0  0  0  0  0  0
   -1.3952   -0.9084    0.2428 N   0  0  0  0  0  0  0  0  0  0  0  0
   -2.1972   -0.3644   -0.0422 H   0  0  0  0  0  0  0  0  0  0  0  0
   -0.1122   -0.1994    0.2658 C   0  0  1  0  0  0  0  0  0  0  0  0
    0.4638   -0.5513    1.1256 H   0  0  0  0  0  0  0  0  0  0  0  0
    0.6645   -0.5360   -1.0267 C   0  0  0  0  0  0  0  0  0  0  0  0
    0.0083   -0.3953   -1.8849 H   0  0  0  0  0  0  0  0  0  0  0  0
    1.5087    0.1447   -1.1259 H   0  0  0  0  0  0  0  0  0  0  0  0
    1.1702   -1.9683   -1.0888 C   0  0  0  0  0  0  0  0  0  0  0  0
    1.6689   -2.5377   -0.1337 O   0  0  0  0  0  0  0  0  0  0  0  0
    1.0671   -2.6044   -2.2303 N   0  0  0  0  0  0  0  0  0  0  0  0
    1.3933   -3.5548   -2.2368 H   0  0  0  0  0  0  0  0  0  0  0  0
    0.6434   -2.1647   -3.0254 H   0  0  0  0  0  0  0  0  0  0  0  0
   -0.3517    1.3169    0.4371 C   0  0  0  0  0  0  0  0  0  0  0  0
    0.1094    1.9049    1.4154 O   0  0  0  0  0  0  0  0  0  0  0  0
   -1.0736    1.9429   -0.4974 N   0  0  0  0  0  0  0  0  0  0  0  0
   -1.4794    1.3689   -1.2296 H   0  0  0  0  0  0  0  0  0  0  0  0
   -1.3787    3.3724   -0.4883 C   0  0  0  0  0  0  0  0  0  0  0  0
   -0.4505    3.9466   -0.4498 H   0  0  0  0  0  0  0  0  0  0  0  0
   -1.9321    3.6428   -1.3887 H   0  0  0  0  0  0  0  0  0  0  0  0
   -1.9781    3.6158    0.3906 H   0  0  0  0  0  0  0  0  0  0  0  0
  5  6  2  0  0  0  0
  5  7  1  0  0  0  0
  2  3  1  0  0  0  0
  2  4  1  0  0  0  0
  2  5  1  0  0  0  0
  1  2  1  0  0  0  0
 19 20  2  0  0  0  0
 19 21  1  0  0  0  0
 16 17  1  0  0  0  0
 16 18  1  0  0  0  0
 14 15  2  0  0  0  0
 14 16  1  0  0  0  0
 11 12  1  0  0  0  0
 11 13  1  0  0  0  0
 11 14  1  0  0  0  0
  9 10  1  0  0  0  0
  9 11  1  0  0  0  0
  9 19  1  0  0  0  0
  7  8  1  0  0  0  0
  7  9  1  0  0  0  0
 23 24  1  0  0  0  0
 23 25  1  0  0  0  0
 23 26  1  0  0  0  0
 21 22  1  0  0  0  0
 21 23  1  0  0  0  0
M  END
$$$$
default_name
  -OEChem-01062215323D

 26 25  0     1  0  0  0  0  0999 V2000
   -3.0232   -3.6924    1.0038 H   0  0  0  0  0  0  0  0  0  0  0  0
   -3.0082   -2.6684    0.6318 C   0  0  0  0  0  0  0  0  0  0  0  0
   -3.6332   -2.0414    1.2658 H   0  0  0  0  0  0  0  0  0  0  0  0
   -3.3762   -2.6444   -0.3912 H   0  0  0  0  0  0  0  0  0  0  0  0
   -1.5882   -2.1554    0.6658 C   0  0  0  0  0  0  0  0  0  0  0  0
   -0.6832   -2.8764    1.0638 O   0  0  0  0  0  0  0  0  0  0  0  0
   -1.3952   -0.9084    0.2428 N   0  0  0  0  0  0  0  0  0  0  0  0
   -2.1972   -0.3644   -0.0422 H   0  0  0  0  0  0  0  0  0  0  0  0
   -0.1122   -0.1994    0.2658 C   0  0  1  0  0  0  0  0  0  0  0  0
    0.4638   -0.5513    1.1256 H   0  0  0  0  0  0  0  0  0  0  0  0
    0.6645   -0.5360   -1.0267 C   0  0  0  0  0  0  0  0  0  0  0  0
    0.0083   -0.3953   -1.8849 H   0  0  0  0  0  0  0  0  0  0  0  0
    1.5087    0.1447   -1.1259 H   0  0  0  0  0  0  0  0  0  0  0  0
    1.1702   -1.9683   -1.0888 C   0  0  0  0  0  0  0  0  0  0  0  0
    1.6689   -2.5377   -0.1337 O   0  0  0  0  0  0  0  0  0  0  0  0
    1.0671   -2.6044   -2.2303 N   0  0  0  0  0  0  0  0  0  0  0  0
    1.3933   -3.5548   -2.2368 H   0  0  0  0  0  0  0  0  0  0  0  0
    0.6434   -2.1647   -3.0254 H   0  0  0  0  0  0  0  0  0  0  0  0
   -0.3517    1.3169    0.4371 C   0  0  0  0  0  0  0  0  0  0  0  0
    0.3222    1.9579    1.2437 O   0  0  0  0  0  0  0  0  0  0  0  0
   -1.3077    1.8842   -0.3049 N   0  0  0  0  0  0  0  0  0  0  0  0
   -1.8661    1.2692   -0.8882 H   0  0  0  0  0  0  0  0  0  0  0  0
   -1.6488    3.3052   -0.2705 C   0  0  0  0  0  0  0  0  0  0  0  0
   -0.7611    3.9021   -0.4906 H   0  0  0  0  0  0  0  0  0  0  0  0
   -2.4212    3.5227   -1.0095 H   0  0  0  0  0  0  0  0  0  0  0  0
   -2.0137    3.5726    0.7226 H   0  0  0  0  0  0  0  0  0  0  0  0
  5  6  2  0  0  0  0
  5  7  1  0  0  0  0
  2  3  1  0  0  0  0
  2  4  1  0  0  0  0
  2  5  1  0  0  0  0
  1  2  1  0  0  0  0
 19 20  2  0  0  0  0
 19 21  1  0  0  0  0
 16 17  1  0  0  0  0
 16 18  1  0  0  0  0
 14 15  2  0  0  0  0
 14 16  1  0  0  0  0
 11 12  1  0  0  0  0
 11 13  1  0  0  0  0
 11 14  1  0  0  0  0
  9 10  1  0  0  0  0
  9 11  1  0  0  0  0
  9 19  1  0  0  0  0
  7  8  1  0  0  0  0
  7  9  1  0  0  0  0
 23 24  1  0  0  0  0
 23 25  1  0  0  0  0
 23 26  1  0  0  0  0
 21 22  1  0  0  0  0
 21 23  1  0  0  0  0
M  END
$$$$
default_name
  -OEChem-01062215323D

 26 25  0     1  0  0  0  0  0999 V2000
   -3.0232   -3.6924    1.0038 H   0  0  0  0  0  0  0  0  0  0  0  0
   -3.0082   -2.6684    0.6318 C   0  0  0  0  0  0  0  0  0  0  0  0
   -3.6332   -2.0414    1.2658 H   0  0  0  0  0  0  0  0  0  0  0  0
   -3.3762   -2.6444   -0.3912 H   0  0  0  0  0  0  0  0  0  0  0  0
   -1.5882   -2.1554    0.6658 C   0  0  0  0  0  0  0  0  0  0  0  0
   -0.6832   -2.8764    1.0638 O   0  0  0  0  0  0  0  0  0  0  0  0
   -1.3952   -0.9084    0.2428 N   0  0  0  0  0  0  0  0  0  0  0  0
   -2.1972   -0.3644   -0.0422 H   0  0  0  0  0  0  0  0  0  0  0  0
   -0.1122   -0.1994    0.2658 C   0  0  1  0  0  0  0  0  0  0  0  0
    0.4638   -0.5513    1.1256 H   0  0  0  0  0  0  0  0  0  0  0  0
    0.6645   -0.5360   -1.0267 C   0  0  0  0  0  0  0  0  0  0  0  0
    0.0083   -0.3953   -1.8849 H   0  0  0  0  0  0  0  0  0  0  0  0
    1.5087    0.1447   -1.1259 H   0  0  0  0  0  0  0  0  0  0  0  0
    1.1702   -1.9683   -1.0888 C   0  0  0  0  0  0  0  0  0  0  0  0
    1.6689   -2.5377   -0.1337 O   0  0  0  0  0  0  0  0  0  0  0  0
    1.0671   -2.6044   -2.2303 N   0  0  0  0  0  0  0  0  0  0  0  0
    1.3933   -3.5548   -2.2368 H   0  0  0  0  0  0  0  0  0  0  0  0
    0.6434   -2.1647   -3.0254 H   0  0  0  0  0  0  0  0  0  0  0  0
   -0.3517    1.3169    0.4371 C   0  0  0  0  0  0  0  0  0  0  0  0
    0.4825    2.0083    1.0216 O   0  0  0  0  0  0  0  0  0  0  0  0
   -1.4832    1.8284   -0.0572 N   0  0  0  0  0  0  0  0  0  0  0  0
   -2.1501    1.1755   -0.4562 H   0  0  0  0  0  0  0  0  0  0  0  0
   -1.8524    3.2412    0.0112 C   0  0  0  0  0  0  0  0  0  0  0  0
   -1.0703    3.8486   -0.4493 H   0  0  0  0  0  0  0  0  0  0  0  0
   -2.7938    3.4078   -0.5142 H   0  0  0  0  0  0  0  0  0  0  0  0
   -1.9625    3.5433    1.0541 H   0  0  0  0  0  0  0  0  0  0  0  0
  5  6  2  0  0  0  0
  5  7  1  0  0  0  0
  2  3  1  0  0  0  0
  2  4  1  0  0  0  0
  2  5  1  0  0  0  0
  1  2  1  0  0  0  0
 19 20  2  0  0  0  0
 19 21  1  0  0  0  0
 16 17  1  0  0  0  0
 16 18  1  0  0  0  0
 14 15  2  0  0  0  0
 14 16  1  0  0  0  0
 11 12  1  0  0  0  0
 11 13  1  0  0  0  0
 11 14  1  0  0  0  0
  9 10  1  0  0  0  0
  9 11  1  0  0  0  0
  9 19  1  0  0  0  0
  7  8  1  0  0  0  0
  7  9  1  0  0  0  0
 23 24  1  0  0  0  0
 23 25  1  0  0  0  0
 23 26  1  0  0  0  0
 21 22  1  0  0  0  0
 21 23  1  0  0  0  0
M  END
$$$$
default_name
  -OEChem-01062215323D

 26 25  0     1  0  0  0  0  0999 V2000
   -3.0232   -3.6924    1.0038 H   0  0  0  0  0  0  0  0  0  0  0  0
   -3.0082   -2.6684    0.6318 C   0  0  0  0  0  0  0  0  0  0  0  0
   -3.6332   -2.0414    1.2658 H   0  0  0  0  0  0  0  0  0  0  0  0
   -3.3762   -2.6444   -0.3912 H   0  0  0  0  0  0  0  0  0  0  0  0
   -1.5882   -2.1554    0.6658 C   0  0  0  0  0  0  0  0  0  0  0  0
   -0.6832   -2.8764    1.0638 O   0  0  0  0  0  0  0  0  0  0  0  0
   -1.3952   -0.9084    0.2428 N   0  0  0  0  0  0  0  0  0  0  0  0
   -2.1972   -0.3644   -0.0422 H   0  0  0  0  0  0  0  0  0  0  0  0
   -0.1122   -0.1994    0.2658 C   0  0  1  0  0  0  0  0  0  0  0  0
    0.4638   -0.5513    1.1256 H   0  0  0  0  0  0  0  0  0  0  0  0
    0.6645   -0.5360   -1.0267 C   0  0  0  0  0  0  0  0  0  0  0  0
    0.0083   -0.3953   -1.8849 H   0  0  0  0  0  0  0  0  0  0  0  0
    1.5087    0.1447   -1.1259 H   0  0  0  0  0  0  0  0  0  0  0  0
    1.1702   -1.9683   -1.0888 C   0  0  0  0  0  0  0  0  0  0  0  0
    1.6689   -2.5377   -0.1337 O   0  0  0  0  0  0  0  0  0  0  0  0
    1.0671   -2.6044   -2.2303 N   0  0  0  0  0  0  0  0  0  0  0  0
    1.3933   -3.5548   -2.2368 H   0  0  0  0  0  0  0  0  0  0  0  0
    0.6434   -2.1647   -3.0254 H   0  0  0  0  0  0  0  0  0  0  0  0
   -0.3517    1.3169    0.4371 C   0  0  0  0  0  0  0  0  0  0  0  0
    0.5794    2.0527    0.7643 O   0  0  0  0  0  0  0  0  0  0  0  0
   -1.5882    1.7795    0.2290 N   0  0  0  0  0  0  0  0  0  0  0  0
   -2.3120    1.0942    0.0370 H   0  0  0  0  0  0  0  0  0  0  0  0
   -1.9757    3.1848    0.3376 C   0  0  0  0  0  0  0  0  0  0  0  0
   -1.3569    3.7897   -0.3287 H   0  0  0  0  0  0  0  0  0  0  0  0
   -3.0246    3.3061    0.0636 H   0  0  0  0  0  0  0  0  0  0  0  0
   -1.8280    3.5297    1.3624 H   0  0  0  0  0  0  0  0  0  0  0  0
  5  6  2  0  0  0  0
  5  7  1  0  0  0  0
  2  3  1  0  0  0  0
  2  4  1  0  0  0  0
  2  5  1  0  0  0  0
  1  2  1  0  0  0  0
 19 20  2  0  0  0  0
 19 21  1  0  0  0  0
 16 17  1  0  0  0  0
 16 18  1  0  0  0  0
 14 15  2  0  0  0  0
 14 16  1  0  0  0  0
 11 12  1  0  0  0  0
 11 13  1  0  0  0  0
 11 14  1  0  0  0  0
  9 10  1  0  0  0  0
  9 11  1  0  0  0  0
  9 19  1  0  0  0  0
  7  8  1  0  0  0  0
  7  9  1  0  0  0  0
 23 24  1  0  0  0  0
 23 25  1  0  0  0  0
 23 26  1  0  0  0  0
 21 22  1  0  0  0  0
 21 23  1  0  0  0  0
M  END
$$$$
default_name
  -OEChem-01062215323D

 26 25  0     1  0  0  0  0  0999 V2000
   -3.0232   -3.6924    1.0038 H   0  0  0  0  0  0  0  0  0  0  0  0
   -3.0082   -2.6684    0.6318 C   0  0  0  0  0  0  0  0  0  0  0  0
   -3.6332   -2.0414    1.2658 H   0  0  0  0  0  0  0  0  0  0  0  0
   -3.3762   -2.6444   -0.3912 H   0  0  0  0  0  0  0  0  0  0  0  0
   -1.5882   -2.1554    0.6658 C   0  0  0  0  0  0  0  0  0  0  0  0
   -0.6832   -2.8764    1.0638 O   0  0  0  0  0  0  0  0  0  0  0  0
   -1.3952   -0.9084    0.2428 N   0  0  0  0  0  0  0  0  0  0  0  0
   -2.1972   -0.3644   -0.0422 H   0  0  0  0  0  0  0  0  0  0  0  0
   -0.1122   -0.1994    0.2658 C   0  0  1  0  0  0  0  0  0  0  0  0
    0.4638   -0.5513    1.1256 H   0  0  0  0  0  0  0  0  0  0  0  0
    0.6645   -0.5360   -1.0267 C   0  0  0  0  0  0  0  0  0  0  0  0
    0.0083   -0.3953   -1.8849 H   0  0  0  0  0  0  0  0  0  0  0  0
    1.5087    0.1447   -1.1259 H   0  0  0  0  0  0  0  0  0  0  0  0
    1.1702   -1.9683   -1.0888 C   0  0  0  0  0  0  0  0  0  0  0  0
    1.6689   -2.5377   -0.1337 O   0  0  0  0  0  0  0  0  0  0  0  0
    1.0671   -2.6044   -2.2303 N   0  0  0  0  0  0  0  0  0  0  0  0
    1.3933   -3.5548   -2.2368 H   0  0  0  0  0  0  0  0  0  0  0  0
    0.6434   -2.1647   -3.0254 H   0  0  0  0  0  0  0  0  0  0  0  0
   -0.3517    1.3169    0.4371 C   0  0  0  0  0  0  0  0  0  0  0  0
    0.6065    2.0880    0.4893 O   0  0  0  0  0  0  0  0  0  0  0  0
   -1.6155    1.7408    0.5340 N   0  0  0  0  0  0  0  0  0  0  0  0
   -2.3407    1.0309    0.5577 H   0  0  0  0  0  0  0  0  0  0  0  0
   -2.0102    3.1399    0.6865 C   0  0  0  0  0  0  0  0  0  0  0  0
   -1.6014    3.7294   -0.1370 H   0  0  0  0  0  0  0  0  0  0  0  0
   -3.0978    3.2244    0.6844 H   0  0  0  0  0  0  0  0  0  0  0  0
   -1.6194    3.5328    1.6266 H   0  0  0  0  0  0  0  0  0  0  0  0
  5  6  2  0  0  0  0
  5  7  1  0  0  0  0
  2  3  1  0  0  0  0
  2  4  1  0  0  0  0
  2  5  1  0  0  0  0
  1  2  1  0  0  0  0
 19 20  2  0  0  0  0
 19 21  1  0  0  0  0
 16 17  1  0  0  0  0
 16 18  1  0  0  0  0
 14 15  2  0  0  0  0
 14 16  1  0  0  0  0
 11 12  1  0  0  0  0
 11 13  1  0  0  0  0
 11 14  1  0  0  0  0
  9 10  1  0  0  0  0
  9 11  1  0  0  0  0
  9 19  1  0  0  0  0
  7  8  1  0  0  0  0
  7  9  1  0  0  0  0
 23 24  1  0  0  0  0
 23 25  1  0  0  0  0
 23 26  1  0  0  0  0
 21 22  1  0  0  0  0
 21 23  1  0  0  0  0
M  END
$$$$
default_name
  -OEChem-01062215323D

 26 25  0     1  0  0  0  0  0999 V2000
   -3.0232   -3.6924    1.0038 H   0  0  0  0  0  0  0  0  0  0  0  0
   -3.0082   -2.6684    0.6318 C   0  0  0  0  0  0  0  0  0  0  0  0
   -3.6332   -2.0414    1.2658 H   0  0  0  0  0  0  0  0  0  0  0  0
   -3.3762   -2.6444   -0.3912 H   0  0  0  0  0  0  0  0  0  0  0  0
   -1.5882   -2.1554    0.6658 C   0  0  0  0  0  0  0  0  0  0  0  0
   -0.6832   -2.8764    1.0638 O   0  0  0  0  0  0  0  0  0  0  0  0
   -1.3952   -0.9084    0.2428 N   0  0  0  0  0  0  0  0  0  0  0  0
   -2.1972   -0.3644   -0.0422 H   0  0  0  0  0  0  0  0  0  0  0  0
   -0.1122   -0.1994    0.2658 C   0  0  1  0  0  0  0  0  0  0  0  0
    0.4638   -0.5513    1.1256 H   0  0  0  0  0  0  0  0  0  0  0  0
    0.6645   -0.5360   -1.0267 C   0  0  0  0  0  0  0  0  0  0  0  0
    0.0083   -0.3953   -1.8849 H   0  0  0  0  0  0  0  0  0  0  0  0
    1.5087    0.1447   -1.1259 H   0  0  0  0  0  0  0  0  0  0  0  0
    1.1702   -1.9683   -1.0888 C   0  0  0  0  0  0  0  0  0  0  0  0
    1.6689   -2.5377   -0.1337 O   0  0  0  0  0  0  0  0  0  0  0  0
    1.0671   -2.6044   -2.2303 N   0  0  0  0  0  0  0  0  0  0  0  0
    1.3933   -3.5548   -2.2368 H   0  0  0  0  0  0  0  0  0  0  0  0
    0.6434   -2.1647   -3.0254 H   0  0  0  0  0  0  0  0  0  0  0  0
   -0.3517    1.3169    0.4371 C   0  0  0  0  0  0  0  0  0  0  0  0
    0.5617    2.1119    0.2155 O   0  0  0  0  0  0  0  0  0  0  0  0
   -1.5633    1.7148    0.8371 N   0  0  0  0  0  0  0  0  0  0  0  0
   -2.2343    0.9897    1.0706 H   0  0  0  0  0  0  0  0  0  0  0  0
   -1.9537    3.1096    1.0340 C   0  0  0  0  0  0  0  0  0  0  0  0
   -1.7871    3.6719    0.1127 H   0  0  0  0  0  0  0  0  0  0  0  0
   -3.0085    3.1683    1.3059 H   0  0  0  0  0  0  0  0  0  0  0  0
   -1.3508    3.5524    1.8287 H   0  0  0  0  0  0  0  0  0  0  0  0
  5  6  2  0  0  0  0
  5  7  1  0  0  0  0
  2  3  1  0  0  0  0
  2  4  1  0  0  0  0
  2  5  1  0  0  0  0
  1  2  1  0  0  0  0
 19 20  2  0  0  0  0
 19 21  1  0  0  0  0
 16 17  1  0  0  0  0
 16 18  1  0  0  0  0
 14 15  2  0  0  0  0
 14 16  1  0  0  0  0
 11 12  1  0  0  0  0
 11 13  1  0  0  0  0
 11 14  1  0  0  0  0
  9 10  1  0  0  0  0
  9 11  1  0  0  0  0
  9 19  1  0  0  0  0
  7  8  1  0  0  0  0
  7  9  1  0  0  0  0
 23 24  1  0  0  0  0
 23 25  1  0  0  0  0
 23 26  1  0  0  0  0
 21 22  1  0  0  0  0
 21 23  1  0  0  0  0
M  END
$$$$
default_name
  -OEChem-01062215323D

 26 25  0     1  0  0  0  0  0999 V2000
   -3.0232   -3.6924    1.0038 H   0  0  0  0  0  0  0  0  0  0  0  0
   -3.0082   -2.6684    0.6318 C   0  0  0  0  0  0  0  0  0  0  0  0
   -3.6332   -2.0414    1.2658 H   0  0  0  0  0  0  0  0  0  0  0  0
   -3.3762   -2.6444   -0.3912 H   0  0  0  0  0  0  0  0  0  0  0  0
   -1.5882   -2.1554    0.6658 C   0  0  0  0  0  0  0  0  0  0  0  0
   -0.6832   -2.8764    1.0638 O   0  0  0  0  0  0  0  0  0  0  0  0
   -1.3952   -0.9084    0.2428 N   0  0  0  0  0  0  0  0  0  0  0  0
   -2.1972   -0.3644   -0.0422 H   0  0  0  0  0  0  0  0  0  0  0  0
   -0.1122   -0.1994    0.2658 C   0  0  1  0  0  0  0  0  0  0  0  0
    0.4638   -0.5513    1.1256 H   0  0  0  0  0  0  0  0  0  0  0  0
    0.6645   -0.5360   -1.0267 C   0  0  0  0  0  0  0  0  0  0  0  0
    0.0083   -0.3953   -1.8849 H   0  0  0  0  0  0  0  0  0  0  0  0
    1.5087    0.1447   -1.1259 H   0  0  0  0  0  0  0  0  0  0  0  0
    1.1702   -1.9683   -1.0888 C   0  0  0  0  0  0  0  0  0  0  0  0
    1.6689   -2.5377   -0.1337 O   0  0  0  0  0  0  0  0  0  0  0  0
    1.0671   -2.6044   -2.2303 N   0  0  0  0  0  0  0  0  0  0  0  0
    1.3933   -3.5548   -2.2368 H   0  0  0  0  0  0  0  0  0  0  0  0
    0.6434   -2.1647   -3.0254 H   0  0  0  0  0  0  0  0  0  0  0  0
   -0.3517    1.3169    0.4371 C   0  0  0  0  0  0  0  0  0  0  0  0
    0.4482    2.1227   -0.0386 O   0  0  0  0  0  0  0  0  0  0  0  0
   -1.4351    1.7033    1.1177 N   0  0  0  0  0  0  0  0  0  0  0  0
   -2.0000    0.9736    1.5406 H   0  0  0  0  0  0  0  0  0  0  0  0
   -1.8098    3.0959    1.3566 C   0  0  0  0  0  0  0  0  0  0  0  0
   -1.9014    3.6210    0.4034 H   0  0  0  0  0  0  0  0  0  0  0  0
   -2.7627    3.1416    1.8858 H   0  0  0  0  0  0  0  0  0  0  0  0
   -1.0406    3.5871    1.9549 H   0  0  0  0  0  0  0  0  0  0  0  0
  5  6  2  0  0  0  0
  5  7  1  0  0  0  0
  2  3  1  0  0  0  0
  2  4  1  0  0  0  0
  2  5  1  0  0  0  0
  1  2  1  0  0  0  0
 19 20  2  0  0  0  0
 19 21  1  0  0  0  0
 16 17  1  0  0  0  0
 16 18  1  0  0  0  0
 14 15  2  0  0  0  0
 14 16  1  0  0  0  0
 11 12  1  0  0  0  0
 11 13  1  0  0  0  0
 11 14  1  0  0  0  0
  9 10  1  0  0  0  0
  9 11  1  0  0  0  0
  9 19  1  0  0  0  0
  7  8  1  0  0  0  0
  7  9  1  0  0  0  0
 23 24  1  0  0  0  0
 23 25  1  0  0  0  0
 23 26  1  0  0  0  0
 21 22  1  0  0  0  0
 21 23  1  0  0  0  0
M  END
$$$$
default_name
  -OEChem-01062215323D

 26 25  0     1  0  0  0  0  0999 V2000
   -3.0232   -3.6924    1.0038 H   0  0  0  0  0  0  0  0  0  0  0  0
   -3.0082   -2.6684    0.6318 C   0  0  0  0  0  0  0  0  0  0  0  0
   -3.6332   -2.0414    1.2658 H   0  0  0  0  0  0  0  0  0  0  0  0
   -3.3762   -2.6444   -0.3912 H   0  0  0  0  0  0  0  0  0  0  0  0
   -1.5882   -2.1554    0.6658 C   0  0  0  0  0  0  0  0  0  0  0  0
   -0.6832   -2.8764    1.0638 O   0  0  0  0  0  0  0  0  0  0  0  0
   -1.3952   -0.9084    0.2428 N   0  0  0  0  0  0  0  0  0  0  0  0
   -2.1972   -0.3644   -0.0422 H   0  0  0  0  0  0  0  0  0  0  0  0
   -0.1122   -0.1994    0.2658 C   0  0  1  0  0  0  0  0  0  0  0  0
    0.4638   -0.5513    1.1256 H   0  0  0  0  0  0  0  0  0  0  0  0
    0.6645   -0.5360   -1.0267 C   0  0  0  0  0  0  0  0  0  0  0  0
    0.0083   -0.3953   -1.8849 H   0  0  0  0  0  0  0  0  0  0  0  0
    1.5087    0.1447   -1.1259 H   0  0  0  0  0  0  0  0  0  0  0  0
    1.1702   -1.9683   -1.0888 C   0  0  0  0  0  0  0  0  0  0  0  0
    1.6689   -2.5377   -0.1337 O   0  0  0  0  0  0  0  0  0  0  0  0
    1.0671   -2.6044   -2.2303 N   0  0  0  0  0  0  0  0  0  0  0  0
    1.3933   -3.5548   -2.2368 H   0  0  0  0  0  0  0  0  0  0  0  0
    0.6434   -2.1647   -3.0254 H   0  0  0  0  0  0  0  0  0  0  0  0
   -0.3517    1.3169    0.4371 C   0  0  0  0  0  0  0  0  0  0  0  0
    0.2737    2.1196   -0.2557 O   0  0  0  0  0  0  0  0  0  0  0  0
   -1.2396    1.7072    1.3566 N   0  0  0  0  0  0  0  0  0  0  0  0
   -1.6538    0.9837    1.9357 H   0  0  0  0  0  0  0  0  0  0  0  0
   -1.5886    3.0997    1.6322 C   0  0  0  0  0  0  0  0  0  0  0  0
   -1.9365    3.5802    0.7152 H   0  0  0  0  0  0  0  0  0  0  0  0
   -2.3771    3.1462    2.3845 H   0  0  0  0  0  0  0  0  0  0  0  0
   -0.7099    3.6346    1.9965 H   0  0  0  0  0  0  0  0  0  0  0  0
  5  6  2  0  0  0  0
  5  7  1  0  0  0  0
  2  3  1  0  0  0  0
  2  4  1  0  0  0  0
  2  5  1  0  0  0  0
  1  2  1  0  0  0  0
 19 20  2  0  0  0  0
 19 21  1  0  0  0  0
 16 17  1  0  0  0  0
 16 18  1  0  0  0  0
 14 15  2  0  0  0  0
 14 16  1  0  0  0  0
 11 12  1  0  0  0  0
 11 13  1  0  0  0  0
 11 14  1  0  0  0  0
  9 10  1  0  0  0  0
  9 11  1  0  0  0  0
  9 19  1  0  0  0  0
  7  8  1  0  0  0  0
  7  9  1  0  0  0  0
 23 24  1  0  0  0  0
 23 25  1  0  0  0  0
 23 26  1  0  0  0  0
 21 22  1  0  0  0  0
 21 23  1  0  0  0  0
M  END
$$$$
default_name
  -OEChem-01062215323D

 26 25  0     1  0  0  0  0  0999 V2000
   -3.0232   -3.6924    1.0038 H   0  0  0  0  0  0  0  0  0  0  0  0
   -3.0082   -2.6684    0.6318 C   0  0  0  0  0  0  0  0  0  0  0  0
   -3.6332   -2.0414    1.2658 H   0  0  0  0  0  0  0  0  0  0  0  0
   -3.3762   -2.6444   -0.3912 H   0  0  0  0  0  0  0  0  0  0  0  0
   -1.5882   -2.1554    0.6658 C   0  0  0  0  0  0  0  0  0  0  0  0
   -0.6832   -2.8764    1.0638 O   0  0  0  0  0  0  0  0  0  0  0  0
   -1.3952   -0.9084    0.2428 N   0  0  0  0  0  0  0  0  0  0  0  0
   -2.1972   -0.3644   -0.0422 H   0  0  0  0  0  0  0  0  0  0  0  0
   -0.1122   -0.1994    0.2658 C   0  0  1  0  0  0  0  0  0  0  0  0
    0.4638   -0.5513    1.1256 H   0  0  0  0  0  0  0  0  0  0  0  0
    0.6645   -0.5360   -1.0267 C   0  0  0  0  0  0  0  0  0  0  0  0
    0.0083   -0.3953   -1.8849 H   0  0  0  0  0  0  0  0  0  0  0  0
    1.5087    0.1447   -1.1259 H   0  0  0  0  0  0  0  0  0  0  0  0
    1.1702   -1.9683   -1.0888 C   0  0  0  0  0  0  0  0  0  0  0  0
    1.6689   -2.5377   -0.1337 O   0  0  0  0  0  0  0  0  0  0  0  0
    1.0671   -2.6044   -2.2303 N   0  0  0  0  0  0  0  0  0  0  0  0
    1.3933   -3.5548   -2.2368 H   0  0  0  0  0  0  0  0  0  0  0  0
    0.6434   -2.1647   -3.0254 H   0  0  0  0  0  0  0  0  0  0  0  0
   -0.3517    1.3169    0.4371 C   0  0  0  0  0  0  0  0  0  0  0  0
    0.0501    2.1030   -0.4209 O   0  0  0  0  0  0  0  0  0  0  0  0
   -0.9903    1.7261    1.5376 N   0  0  0  0  0  0  0  0  0  0  0  0
   -1.2194    1.0192    2.2290 H   0  0  0  0  0  0  0  0  0  0  0  0
   -1.3049    3.1208    1.8420 C   0  0  0  0  0  0  0  0  0  0  0  0
   -1.8900    3.5523    1.0270 H   0  0  0  0  0  0  0  0  0  0  0  0
   -1.8781    3.1817    2.7682 H   0  0  0  0  0  0  0  0  0  0  0  0
   -0.3813    3.6917    1.9508 H   0  0  0  0  0  0  0  0  0  0  0  0
  5  6  2  0  0  0  0
  5  7  1  0  0  0  0
  2  3  1  0  0  0  0
  2  4  1  0  0  0  0
  2  5  1  0  0  0  0
  1  2  1  0  0  0  0
 19 20  2  0  0  0  0
 19 21  1  0  0  0  0
 16 17  1  0  0  0  0
 16 18  1  0  0  0  0
 14 15  2  0  0  0  0
 14 16  1  0  0  0  0
 11 12  1  0  0  0  0
 11 13  1  0  0  0  0
 11 14  1  0  0  0  0
  9 10  1  0  0  0  0
  9 11  1  0  0  0  0
  9 19  1  0  0  0  0
  7  8  1  0  0  0  0
  7  9  1  0  0  0  0
 23 24  1  0  0  0  0
 23 25  1  0  0  0  0
 23 26  1  0  0  0  0
 21 22  1  0  0  0  0
 21 23  1  0  0  0  0
M  END
$$$$
default_name
  -OEChem-01062215323D

 26 25  0     1  0  0  0  0  0999 V2000
   -3.0232   -3.6924    1.0038 H   0  0  0  0  0  0  0  0  0  0  0  0
   -3.0082   -2.6684    0.6318 C   0  0  0  0  0  0  0  0  0  0  0  0
   -3.6332   -2.0414    1.2658 H   0  0  0  0  0  0  0  0  0  0  0  0
   -3.3762   -2.6444   -0.3912 H   0  0  0  0  0  0  0  0  0  0  0  0
   -1.5882   -2.1554    0.6658 C   0  0  0  0  0  0  0  0  0  0  0  0
   -0.6832   -2.8764    1.0638 O   0  0  0  0  0  0  0  0  0  0  0  0
   -1.3952   -0.9084    0.2428 N   0  0  0  0  0  0  0  0  0  0  0  0
   -2.1972   -0.3644   -0.0422 H   0  0  0  0  0  0  0  0  0  0  0  0
   -0.1122   -0.1994    0.2658 C   0  0  1  0  0  0  0  0  0  0  0  0
    0.4638   -0.5513    1.1256 H   0  0  0  0  0  0  0  0  0  0  0  0
    0.6645   -0.5360   -1.0267 C   0  0  0  0  0  0  0  0  0  0  0  0
    0.0083   -0.3953   -1.8849 H   0  0  0  0  0  0  0  0  0  0  0  0
    1.5087    0.1447   -1.1259 H   0  0  0  0  0  0  0  0  0  0  0  0
    1.1702   -1.9683   -1.0888 C   0  0  0  0  0  0  0  0  0  0  0  0
    1.6689   -2.5377   -0.1337 O   0  0  0  0  0  0  0  0  0  0  0  0
    1.0671   -2.6044   -2.2303 N   0  0  0  0  0  0  0  0  0  0  0  0
    1.3933   -3.5548   -2.2368 H   0  0  0  0  0  0  0  0  0  0  0  0
    0.6434   -2.1647   -3.0254 H   0  0  0  0  0  0  0  0  0  0  0  0
   -0.3517    1.3169    0.4371 C   0  0  0  0  0  0  0  0  0  0  0  0
   -0.2074    2.0738   -0.5229 O   0  0  0  0  0  0  0  0  0  0  0  0
   -0.7039    1.7589    1.6483 N   0  0  0  0  0  0  0  0  0  0  0  0
   -0.7262    1.0777    2.4005 H   0  0  0  0  0  0  0  0  0  0  0  0
   -0.9783    3.1577    1.9718 C   0  0  0  0  0  0  0  0  0  0  0  0
   -1.7651    3.5392    1.3175 H   0  0  0  0  0  0  0  0  0  0  0  0
   -1.2997    3.2457    3.0105 H   0  0  0  0  0  0  0  0  0  0  0  0
   -0.0771    3.7545    1.8209 H   0  0  0  0  0  0  0  0  0  0  0  0
  5  6  2  0  0  0  0
  5  7  1  0  0  0  0
  2  3  1  0  0  0  0
  2  4  1  0  0  0  0
  2  5  1  0  0  0  0
  1  2  1  0  0  0  0
 19 20  2  0  0  0  0
 19 21  1  0  0  0  0
 16 17  1  0  0  0  0
 16 18  1  0  0  0  0
 14 15  2  0  0  0  0
 14 16  1  0  0  0  0
 11 12  1  0  0  0  0
 11 13  1  0  0  0  0
 11 14  1  0  0  0  0
  9 10  1  0  0  0  0
  9 11  1  0  0  0  0
  9 19  1  0  0  0  0
  7  8  1  0  0  0  0
  7  9  1  0  0  0  0
 23 24  1  0  0  0  0
 23 25  1  0  0  0  0
 23 26  1  0  0  0  0
 21 22  1  0  0  0  0
 21 23  1  0  0  0  0
M  END
$$$$
default_name
  -OEChem-01062215323D

 26 25  0     1  0  0  0  0  0999 V2000
   -3.0232   -3.6924    1.0038 H   0  0  0  0  0  0  0  0  0  0  0  0
   -3.0082   -2.6684    0.6318 C   0  0  0  0  0  0  0  0  0  0  0  0
   -3.6332   -2.0414    1.2658 H   0  0  0  0  0  0  0  0  0  0  0  0
   -3.3762   -2.6444   -0.3912 H   0  0  0  0  0  0  0  0  0  0  0  0
   -1.5882   -2.1554    0.6658 C   0  0  0  0  0  0  0  0  0  0  0  0
   -0.6832   -2.8764    1.0638 O   0  0  0  0  0  0  0  0  0  0  0  0
   -1.3952   -0.9084    0.2428 N   0  0  0  0  0  0  0  0  0  0  0  0
   -2.1972   -0.3644   -0.0422 H   0  0  0  0  0  0  0  0  0  0  0  0
   -0.1122   -0.1994    0.2658 C   0  0  1  0  0  0  0  0  0  0  0  0
    0.4638   -0.5513    1.1256 H   0  0  0  0  0  0  0  0  0  0  0  0
    0.6645   -0.5360   -1.0267 C   0  0  0  0  0  0  0  0  0  0  0  0
    0.0083   -0.3953   -1.8849 H   0  0  0  0  0  0  0  0  0  0  0  0
    1.5087    0.1447   -1.1259 H   0  0  0  0  0  0  0  0  0  0  0  0
    1.1702   -1.9683   -1.0888 C   0  0  0  0  0  0  0  0  0  0  0  0
    1.6689   -2.5377   -0.1337 O   0  0  0  0  0  0  0  0  0  0  0  0
    1.0671   -2.6044   -2.2303 N   0  0  0  0  0  0  0  0  0  0  0  0
    1.3933   -3.5548   -2.2368 H   0  0  0  0  0  0  0  0  0  0  0  0
    0.6434   -2.1647   -3.0254 H   0  0  0  0  0  0  0  0  0  0  0  0
   -0.3517    1.3169    0.4371 C   0  0  0  0  0  0  0  0  0  0  0  0
   -0.4812    2.0342   -0.5550 O   0  0  0  0  0  0  0  0  0  0  0  0
   -0.4002    1.8031    1.6811 N   0  0  0  0  0  0  0  0  0  0  0  0
   -0.2080    1.1553    2.4385 H   0  0  0  0  0  0  0  0  0  0  0  0
   -0.6308    3.2080    2.0126 C   0  0  0  0  0  0  0  0  0  0  0  0
   -1.5703    3.5418    1.5668 H   0  0  0  0  0  0  0  0  0  0  0  0
   -0.6812    3.3338    3.0950 H   0  0  0  0  0  0  0  0  0  0  0  0
    0.1819    3.8186    1.6156 H   0  0  0  0  0  0  0  0  0  0  0  0
  5  6  2  0  0  0  0
  5  7  1  0  0  0  0
  2  3  1  0  0  0  0
  2  4  1  0  0  0  0
  2  5  1  0  0  0  0
  1  2  1  0  0  0  0
 19 20  2  0  0  0  0
 19 21  1  0  0  0  0
 16 17  1  0  0  0  0
 16 18  1  0  0  0  0
 14 15  2  0  0  0  0
 14 16  1  0  0  0  0
 11 12  1  0  0  0  0
 11 13  1  0  0  0  0
 11 14  1  0  0  0  0
  9 10  1  0  0  0  0
  9 11  1  0  0  0  0
  9 19  1  0  0  0  0
  7  8  1  0  0  0  0
  7  9  1  0  0  0  0
 23 24  1  0  0  0  0
 23 25  1  0  0  0  0
 23 26  1  0  0  0  0
 21 22  1  0  0  0  0
 21 23  1  0  0  0  0
M  END
$$$$
default_name
  -OEChem-01062215323D

 26 25  0     1  0  0  0  0  0999 V2000
   -3.0232   -3.6924    1.0038 H   0  0  0  0  0  0  0  0  0  0  0  0
   -3.0082   -2.6684    0.6318 C   0  0  0  0  0  0  0  0  0  0  0  0
   -3.6332   -2.0414    1.2658 H   0  0  0  0  0  0  0  0  0  0  0  0
   -3.3762   -2.6444   -0.3912 H   0  0  0  0  0  0  0  0  0  0  0  0
   -1.5882   -2.1554    0.6658 C   0  0  0  0  0  0  0  0  0  0  0  0
   -0.6832   -2.8764    1.0638 O   0  0  0  0  0  0  0  0  0  0  0  0
   -1.3952   -0.9084    0.2428 N   0  0  0  0  0  0  0  0  0  0  0  0
   -2.1972   -0.3644   -0.0422 H   0  0  0  0  0  0  0  0  0  0  0  0
   -0.1122   -0.1994    0.2658 C   0  0  1  0  0  0  0  0  0  0  0  0
    0.4638   -0.5513    1.1256 H   0  0  0  0  0  0  0  0  0  0  0  0
    0.6645   -0.5360   -1.0267 C   0  0  0  0  0  0  0  0  0  0  0  0
    0.0083   -0.3953   -1.8849 H   0  0  0  0  0  0  0  0  0  0  0  0
    1.5087    0.1447   -1.1259 H   0  0  0  0  0  0  0  0  0  0  0  0
    1.1702   -1.9683   -1.0888 C   0  0  0  0  0  0  0  0  0  0  0  0
    1.6689   -2.5377   -0.1337 O   0  0  0  0  0  0  0  0  0  0  0  0
    1.0671   -2.6044   -2.2303 N   0  0  0  0  0  0  0  0  0  0  0  0
    1.3933   -3.5548   -2.2368 H   0  0  0  0  0  0  0  0  0  0  0  0
    0.6434   -2.1647   -3.0254 H   0  0  0  0  0  0  0  0  0  0  0  0
   -0.3517    1.3169    0.4371 C   0  0  0  0  0  0  0  0  0  0  0  0
   -0.7527    1.9867   -0.5147 O   0  0  0  0  0  0  0  0  0  0  0  0
   -0.0997    1.8559    1.6339 N   0  0  0  0  0  0  0  0  0  0  0  0
    0.3001    1.2466    2.3404 H   0  0  0  0  0  0  0  0  0  0  0  0
   -0.2863    3.2682    1.9618 C   0  0  0  0  0  0  0  0  0  0  0  0
   -1.3188    3.5599    1.7581 H   0  0  0  0  0  0  0  0  0  0  0  0
   -0.0649    3.4401    3.0160 H   0  0  0  0  0  0  0  0  0  0  0  0
    0.3781    3.8797    1.3489 H   0  0  0  0  0  0  0  0  0  0  0  0
  5  6  2  0  0  0  0
  5  7  1  0  0  0  0
  2  3  1  0  0  0  0
  2  4  1  0  0  0  0
  2  5  1  0  0  0  0
  1  2  1  0  0  0  0
 19 20  2  0  0  0  0
 19 21  1  0  0  0  0
 16 17  1  0  0  0  0
 16 18  1  0  0  0  0
 14 15  2  0  0  0  0
 14 16  1  0  0  0  0
 11 12  1  0  0  0  0
 11 13  1  0  0  0  0
 11 14  1  0  0  0  0
  9 10  1  0  0  0  0
  9 11  1  0  0  0  0
  9 19  1  0  0  0  0
  7  8  1  0  0  0  0
  7  9  1  0  0  0  0
 23 24  1  0  0  0  0
 23 25  1  0  0  0  0
 23 26  1  0  0  0  0
 21 22  1  0  0  0  0
 21 23  1  0  0  0  0
M  END
$$$$
default_name
  -OEChem-01062215323D

 26 25  0     1  0  0  0  0  0999 V2000
   -3.0232   -3.6924    1.0038 H   0  0  0  0  0  0  0  0  0  0  0  0
   -3.0082   -2.6684    0.6318 C   0  0  0  0  0  0  0  0  0  0  0  0
   -3.6332   -2.0414    1.2658 H   0  0  0  0  0  0  0  0  0  0  0  0
   -3.3762   -2.6444   -0.3912 H   0  0  0  0  0  0  0  0  0  0  0  0
   -1.5882   -2.1554    0.6658 C   0  0  0  0  0  0  0  0  0  0  0  0
   -0.6832   -2.8764    1.0638 O   0  0  0  0  0  0  0  0  0  0  0  0
   -1.3952   -0.9084    0.2428 N   0  0  0  0  0  0  0  0  0  0  0  0
   -2.1972   -0.3644   -0.0422 H   0  0  0  0  0  0  0  0  0  0  0  0
   -0.1122   -0.1994    0.2658 C   0  0  1  0  0  0  0  0  0  0  0  0
    0.4638   -0.5513    1.1256 H   0  0  0  0  0  0  0  0  0  0  0  0
    0.6645   -0.5360   -1.0267 C   0  0  0  0  0  0  0  0  0  0  0  0
    0.0083   -0.3953   -1.8849 H   0  0  0  0  0  0  0  0  0  0  0  0
    1.5087    0.1447   -1.1259 H   0  0  0  0  0  0  0  0  0  0  0  0
    1.1702   -1.9683   -1.0888 C   0  0  0  0  0  0  0  0  0  0  0  0
    1.6689   -2.5377   -0.1337 O   0  0  0  0  0  0  0  0  0  0  0  0
    1.0671   -2.6044   -2.2303 N   0  0  0  0  0  0  0  0  0  0  0  0
    1.3933   -3.5548   -2.2368 H   0  0  0  0  0  0  0  0  0  0  0  0
    0.6434   -2.1647   -3.0254 H   0  0  0  0  0  0  0  0  0  0  0  0
   -0.3517    1.3169    0.4371 C   0  0  0  0  0  0  0  0  0  0  0  0
   -1.0033    1.9347   -0.4050 O   0  0  0  0  0  0  0  0  0  0  0  0
    0.1770    1.9137    1.5098 N   0  0  0  0  0  0  0  0  0  0  0  0
    0.7632    1.3455    2.1129 H   0  0  0  0  0  0  0  0  0  0  0  0
    0.0319    3.3342    1.8227 C   0  0  0  0  0  0  0  0  0  0  0  0
   -1.0278    3.5923    1.8782 H   0  0  0  0  0  0  0  0  0  0  0  0
    0.5074    3.5573    2.7788 H   0  0  0  0  0  0  0  0  0  0  0  0
    0.4981    3.9337    1.0390 H   0  0  0  0  0  0  0  0  0  0  0  0
  5  6  2  0  0  0  0
  5  7  1  0  0  0  0
  2  3  1  0  0  0  0
  2  4  1  0  0  0  0
  2  5  1  0  0  0  0
  1  2  1  0  0  0  0
 19 20  2  0  0  0  0
 19 21  1  0  0  0  0
 16 17  1  0  0  0  0
 16 18  1  0  0  0  0
 14 15  2  0  0  0  0
 14 16  1  0  0  0  0
 11 12  1  0  0  0  0
 11 13  1  0  0  0  0
 11 14  1  0  0  0  0
  9 10  1  0  0  0  0
  9 11  1  0  0  0  0
  9 19  1  0  0  0  0
  7  8  1  0  0  0  0
  7  9  1  0  0  0  0
 23 24  1  0  0  0  0
 23 25  1  0  0  0  0
 23 26  1  0  0  0  0
 21 22  1  0  0  0  0
 21 23  1  0  0  0  0
M  END
$$$$
default_name
  -OEChem-01062215323D

 26 25  0     1  0  0  0  0  0999 V2000
   -3.0232   -3.6924    1.0038 H   0  0  0  0  0  0  0  0  0  0  0  0
   -3.0082   -2.6684    0.6318 C   0  0  0  0  0  0  0  0  0  0  0  0
   -3.6332   -2.0414    1.2658 H   0  0  0  0  0  0  0  0  0  0  0  0
   -3.3762   -2.6444   -0.3912 H   0  0  0  0  0  0  0  0  0  0  0  0
   -1.5882   -2.1554    0.6658 C   0  0  0  0  0  0  0  0  0  0  0  0
   -0.6832   -2.8764    1.0638 O   0  0  0  0  0  0  0  0  0  0  0  0
   -1.3952   -0.9084    0.2428 N   0  0  0  0  0  0  0  0  0  0  0  0
   -2.1972   -0.3644   -0.0422 H   0  0  0  0  0  0  0  0  0  0  0  0
   -0.1122   -0.1994    0.2658 C   0  0  1  0  0  0  0  0  0  0  0  0
    0.4638   -0.5513    1.1256 H   0  0  0  0  0  0  0  0  0  0  0  0
    0.6645   -0.5360   -1.0267 C   0  0  0  0  0  0  0  0  0  0  0  0
    0.0083   -0.3953   -1.8849 H   0  0  0  0  0  0  0  0  0  0  0  0
    1.5087    0.1447   -1.1259 H   0  0  0  0  0  0  0  0  0  0  0  0
    1.1702   -1.9683   -1.0888 C   0  0  0  0  0  0  0  0  0  0  0  0
    1.6689   -2.5377   -0.1337 O   0  0  0  0  0  0  0  0  0  0  0  0
    1.0671   -2.6044   -2.2303 N   0  0  0  0  0  0  0  0  0  0  0  0
    1.3933   -3.5548   -2.2368 H   0  0  0  0  0  0  0  0  0  0  0  0
    0.6434   -2.1647   -3.0254 H   0  0  0  0  0  0  0  0  0  0  0  0
   -0.3517    1.3169    0.4371 C   0  0  0  0  0  0  0  0  0  0  0  0
   -1.2161    1.8817   -0.2332 O   0  0  0  0  0  0  0  0  0  0  0  0
    0.4111    1.9724    1.3173 N   0  0  0  0  0  0  0  0  0  0  0  0
    1.1500    1.4451    1.7716 H   0  0  0  0  0  0  0  0  0  0  0  0
    0.3020    3.4014    1.6049 C   0  0  0  0  0  0  0  0  0  0  0  0
   -0.7172    3.6368    1.9190 H   0  0  0  0  0  0  0  0  0  0  0  0
    0.9964    3.6774    2.3997 H   0  0  0  0  0  0  0  0  0  0  0  0
    0.5338    3.9768    0.7070 H   0  0  0  0  0  0  0  0  0  0  0  0
  5  6  2  0  0  0  0
  5  7  1  0  0  0  0
  2  3  1  0  0  0  0
  2  4  1  0  0  0  0
  2  5  1  0  0  0  0
  1  2  1  0  0  0  0
 19 20  2  0  0  0  0
 19 21  1  0  0  0  0
 16 17  1  0  0  0  0
 16 18  1  0  0  0  0
 14 15  2  0  0  0  0
 14 16  1  0  0  0  0
 11 12  1  0  0  0  0
 11 13  1  0  0  0  0
 11 14  1  0  0  0  0
  9 10  1  0  0  0  0
  9 11  1  0  0  0  0
  9 19  1  0  0  0  0
  7  8  1  0  0  0  0
  7  9  1  0  0  0  0
 23 24  1  0  0  0  0
 23 25  1  0  0  0  0
 23 26  1  0  0  0  0
 21 22  1  0  0  0  0
 21 23  1  0  0  0  0
M  END
$$$$
default_name
  -OEChem-01062215323D

 26 25  0     1  0  0  0  0  0999 V2000
   -3.0232   -3.6924    1.0038 H   0  0  0  0  0  0  0  0  0  0  0  0
   -3.0082   -2.6684    0.6318 C   0  0  0  0  0  0  0  0  0  0  0  0
   -3.6332   -2.0414    1.2658 H   0  0  0  0  0  0  0  0  0  0  0  0
   -3.3762   -2.6444   -0.3912 H   0  0  0  0  0  0  0  0  0  0  0  0
   -1.5882   -2.1554    0.6658 C   0  0  0  0  0  0  0  0  0  0  0  0
   -0.6832   -2.8764    1.0638 O   0  0  0  0  0  0  0  0  0  0  0  0
   -1.3952   -0.9084    0.2428 N   0  0  0  0  0  0  0  0  0  0  0  0
   -2.1972   -0.3644   -0.0422 H   0  0  0  0  0  0  0  0  0  0  0  0
   -0.1122   -0.1994    0.2658 C   0  0  1  0  0  0  0  0  0  0  0  0
    0.4638   -0.5513    1.1256 H   0  0  0  0  0  0  0  0  0  0  0  0
    0.6645   -0.5360   -1.0267 C   0  0  0  0  0  0  0  0  0  0  0  0
    0.0083   -0.3953   -1.8849 H   0  0  0  0  0  0  0  0  0  0  0  0
    1.5087    0.1447   -1.1259 H   0  0  0  0  0  0  0  0  0  0  0  0
    1.1702   -1.9683   -1.0888 C   0  0  0  0  0  0  0  0  0  0  0  0
    1.6689   -2.5377   -0.1337 O   0  0  0  0  0  0  0  0  0  0  0  0
    1.0671   -2.6044   -2.2303 N   0  0  0  0  0  0  0  0  0  0  0  0
    1.3933   -3.5548   -2.2368 H   0  0  0  0  0  0  0  0  0  0  0  0
    0.6434   -2.1647   -3.0254 H   0  0  0  0  0  0  0  0  0  0  0  0
   -0.3517    1.3169    0.4371 C   0  0  0  0  0  0  0  0  0  0  0  0
   -1.3764    1.8313   -0.0111 O   0  0  0  0  0  0  0  0  0  0  0  0
    0.5866    2.0281    1.0696 N   0  0  0  0  0  0  0  0  0  0  0  0
    1.4340    1.5388    1.3396 H   0  0  0  0  0  0  0  0  0  0  0  0
    0.5056    3.4654    1.3232 C   0  0  0  0  0  0  0  0  0  0  0  0
   -0.4080    3.6903    1.8777 H   0  0  0  0  0  0  0  0  0  0  0  0
    1.3691    3.7922    1.9043 H   0  0  0  0  0  0  0  0  0  0  0  0
    0.4826    4.0062    0.3756 H   0  0  0  0  0  0  0  0  0  0  0  0
  5  6  2  0  0  0  0
  5  7  1  0  0  0  0
  2  3  1  0  0  0  0
  2  4  1  0  0  0  0
  2  5  1  0  0  0  0
  1  2  1  0  0  0  0
 19 20  2  0  0  0  0
 19 21  1  0  0  0  0
 16 17  1  0  0  0  0
 16 18  1  0  0  0  0
 14 15  2  0  0  0  0
 14 16  1  0  0  0  0
 11 12  1  0  0  0  0
 11 13  1  0  0  0  0
 11 14  1  0  0  0  0
  9 10  1  0  0  0  0
  9 11  1  0  0  0  0
  9 19  1  0  0  0  0
  7  8  1  0  0  0  0
  7  9  1  0  0  0  0
 23 24  1  0  0  0  0
 23 25  1  0  0  0  0
 23 26  1  0  0  0  0
 21 22  1  0  0  0  0
 21 23  1  0  0  0  0
M  END
$$$$
default_name
  -OEChem-01062215323D

 26 25  0     1  0  0  0  0  0999 V2000
   -3.0232   -3.6924    1.0038 H   0  0  0  0  0  0  0  0  0  0  0  0
   -3.0082   -2.6684    0.6318 C   0  0  0  0  0  0  0  0  0  0  0  0
   -3.6332   -2.0414    1.2658 H   0  0  0  0  0  0  0  0  0  0  0  0
   -3.3762   -2.6444   -0.3912 H   0  0  0  0  0  0  0  0  0  0  0  0
   -1.5882   -2.1554    0.6658 C   0  0  0  0  0  0  0  0  0  0  0  0
   -0.6832   -2.8764    1.0638 O   0  0  0  0  0  0  0  0  0  0  0  0
   -1.3952   -0.9084    0.2428 N   0  0  0  0  0  0  0  0  0  0  0  0
   -2.1972   -0.3644   -0.0422 H   0  0  0  0  0  0  0  0  0  0  0  0
   -0.1122   -0.1994    0.2658 C   0  0  1  0  0  0  0  0  0  0  0  0
    0.4638   -0.5513    1.1256 H   0  0  0  0  0  0  0  0  0  0  0  0
    0.6645   -0.5360   -1.0267 C   0  0  0  0  0  0  0  0  0  0  0  0
    0.0083   -0.3953   -1.8849 H   0  0  0  0  0  0  0  0  0  0  0  0
    1.5087    0.1447   -1.1259 H   0  0  0  0  0  0  0  0  0  0  0  0
    1.1702   -1.9683   -1.0888 C   0  0  0  0  0  0  0  0  0  0  0  0
    1.6689   -2.5377   -0.1337 O   0  0  0  0  0  0  0  0  0  0  0  0
    1.0671   -2.6044   -2.2303 N   0  0  0  0  0  0  0  0  0  0  0  0
    1.3933   -3.5548   -2.2368 H   0  0  0  0  0  0  0  0  0  0  0  0
    0.6434   -2.1647   -3.0254 H   0  0  0  0  0  0  0  0  0  0  0  0
   -0.3517    1.3169    0.4371 C   0  0  0  0  0  0  0  0  0  0  0  0
   -1.4734    1.7869    0.2462 O   0  0  0  0  0  0  0  0  0  0  0  0
    0.6916    2.0770    0.7834 N   0  0  0  0  0  0  0  0  0  0  0  0
    1.5958    1.6201    0.8464 H   0  0  0  0  0  0  0  0  0  0  0  0
    0.6289    3.5218    0.9968 C   0  0  0  0  0  0  0  0  0  0  0  0
   -0.1214    3.7492    1.7571 H   0  0  0  0  0  0  0  0  0  0  0  0
    1.5999    3.8939    1.3265 H   0  0  0  0  0  0  0  0  0  0  0  0
    0.3481    4.0198    0.0672 H   0  0  0  0  0  0  0  0  0  0  0  0
  5  6  2  0  0  0  0
  5  7  1  0  0  0  0
  2  3  1  0  0  0  0
  2  4  1  0  0  0  0
  2  5  1  0  0  0  0
  1  2  1  0  0  0  0
 19 20  2  0  0  0  0
 19 21  1  0  0  0  0
 16 17  1  0  0  0  0
 16 18  1  0  0  0  0
 14 15  2  0  0  0  0
 14 16  1  0  0  0  0
 11 12  1  0  0  0  0
 11 13  1  0  0  0  0
 11 14  1  0  0  0  0
  9 10  1  0  0  0  0
  9 11  1  0  0  0  0
  9 19  1  0  0  0  0
  7  8  1  0  0  0  0
  7  9  1  0  0  0  0
 23 24  1  0  0  0  0
 23 25  1  0  0  0  0
 23 26  1  0  0  0  0
 21 22  1  0  0  0  0
 21 23  1  0  0  0  0
M  END
$$$$
default_name
  -OEChem-01062215323D

 26 25  0     1  0  0  0  0  0999 V2000
   -3.0232   -3.6924    1.0038 H   0  0  0  0  0  0  0  0  0  0  0  0
   -3.0082   -2.6684    0.6318 C   0  0  0  0  0  0  0  0  0  0  0  0
   -3.6332   -2.0414    1.2658 H   0  0  0  0  0  0  0  0  0  0  0  0
   -3.3762   -2.6444   -0.3912 H   0  0  0  0  0  0  0  0  0  0  0  0
   -1.5882   -2.1554    0.6658 C   0  0  0  0  0  0  0  0  0  0  0  0
   -0.6832   -2.8764    1.0638 O   0  0  0  0  0  0  0  0  0  0  0  0
   -1.3952   -0.9084    0.2428 N   0  0  0  0  0  0  0  0  0  0  0  0
   -2.1972   -0.3644   -0.0422 H   0  0  0  0  0  0  0  0  0  0  0  0
   -0.1122   -0.1994    0.2658 C   0  0  1  0  0  0  0  0  0  0  0  0
    0.5635   -0.7260    0.9446 H   0  0  0  0  0  0  0  0  0  0  0  0
    0.4924   -0.2204   -1.1558 C   0  0  0  0  0  0  0  0  0  0  0  0
   -0.2649    0.0986   -1.8710 H   0  0  0  0  0  0  0  0  0  0  0  0
    1.3245    0.4806   -1.2026 H   0  0  0  0  0  0  0  0  0  0  0  0
    0.9715   -1.5919   -1.6037 C   0  0  0  0  0  0  0  0  0  0  0  0
    1.5803   -2.3534   -0.8724 O   0  0  0  0  0  0  0  0  0  0  0  0
    0.7191   -1.9551   -2.8377 N   0  0  0  0  0  0  0  0  0  0  0  0
    1.0321   -2.8732   -3.1002 H   0  0  0  0  0  0  0  0  0  0  0  0
    0.2035   -1.3548   -3.4532 H   0  0  0  0  0  0  0  0  0  0  0  0
   -0.3126    1.2341    0.8050 C   0  0  0  0  0  0  0  0  0  0  0  0
   -1.4370    1.6172    1.1279 O   0  0  0  0  0  0  0  0  0  0  0  0
    0.7630    2.0226    0.8925 N   0  0  0  0  0  0  0  0  0  0  0  0
    1.6377    1.6529    0.5340 H   0  0  0  0  0  0  0  0  0  0  0  0
    0.7443    3.3962    1.3922 C   0  0  0  0  0  0  0  0  0  0  0  0
    0.3260    3.4151    2.4009 H   0  0  0  0  0  0  0  0  0  0  0  0
    1.7574    3.8001    1.4149 H   0  0  0  0  0  0  0  0  0  0  0  0
    0.1230    4.0159    0.7434 H   0  0  0  0  0  0  0  0  0  0  0  0
  5  6  2  0  0  0  0
  5  7  1  0  0  0  0
  2  3  1  0  0  0  0
  2  4  1  0  0  0  0
  2  5  1  0  0  0  0
  1  2  1  0  0  0  0
 19 20  2  0  0  0  0
 19 21  1  0  0  0  0
 16 17  1  0  0  0  0
 16 18  1  0  0  0  0
 14 15  2  0  0  0  0
 14 16  1  0  0  0  0
 11 12  1  0  0  0  0
 11 13  1  0  0  0  0
 11 14  1  0  0  0  0
  9 10  1  0  0  0  0
  9 11  1  0  0  0  0
  9 19  1  0  0  0  0
  7  8  1  0  0  0  0
  7  9  1  0  0  0  0
 23 24  1  0  0  0  0
 23 25  1  0  0  0  0
 23 26  1  0  0  0  0
 21 22  1  0  0  0  0
 21 23  1  0  0  0  0
M  END
$$$$
default_name
  -OEChem-01062215323D

 26 25  0     1  0  0  0  0  0999 V2000
   -3.0232   -3.6924    1.0038 H   0  0  0  0  0  0  0  0  0  0  0  0
   -3.0082   -2.6684    0.6318 C   0  0  0  0  0  0  0  0  0  0  0  0
   -3.6332   -2.0414    1.2658 H   0  0  0  0  0  0  0  0  0  0  0  0
   -3.3762   -2.6444   -0.3912 H   0  0  0  0  0  0  0  0  0  0  0  0
   -1.5882   -2.1554    0.6658 C   0  0  0  0  0  0  0  0  0  0  0  0
   -0.6832   -2.8764    1.0638 O   0  0  0  0  0  0  0  0  0  0  0  0
   -1.3952   -0.9084    0.2428 N   0  0  0  0  0  0  0  0  0  0  0  0
   -2.1972   -0.3644   -0.0422 H   0  0  0  0  0  0  0  0  0  0  0  0
   -0.1122   -0.1994    0.2658 C   0  0  1  0  0  0  0  0  0  0  0  0
    0.5635   -0.7260    0.9446 H   0  0  0  0  0  0  0  0  0  0  0  0
    0.4924   -0.2204   -1.1558 C   0  0  0  0  0  0  0  0  0  0  0  0
   -0.2649    0.0986   -1.8710 H   0  0  0  0  0  0  0  0  0  0  0  0
    1.3245    0.4806   -1.2026 H   0  0  0  0  0  0  0  0  0  0  0  0
    0.9715   -1.5919   -1.6037 C   0  0  0  0  0  0  0  0  0  0  0  0
    1.5803   -2.3534   -0.8724 O   0  0  0  0  0  0  0  0  0  0  0  0
    0.7191   -1.9551   -2.8377 N   0  0  0  0  0  0  0  0  0  0  0  0
    1.0321   -2.8732   -3.1002 H   0  0  0  0  0  0  0  0  0  0  0  0
    0.2035   -1.3548   -3.4532 H   0  0  0  0  0  0  0  0  0  0  0  0
   -0.3126    1.2341    0.8050 C   0  0  0  0  0  0  0  0  0  0  0  0
   -1.3585    1.5329    1.3815 O   0  0  0  0  0  0  0  0  0  0  0  0
    0.6734    2.1156    0.6121 N   0  0  0  0  0  0  0  0  0  0  0  0
    1.4681    1.8070    0.0612 H   0  0  0  0  0  0  0  0  0  0  0  0
    0.6448    3.5034    1.0704 C   0  0  0  0  0  0  0  0  0  0  0  0
    0.4795    3.5311    2.1496 H   0  0  0  0  0  0  0  0  0  0  0  0
    1.5912    3.9937    0.8384 H   0  0  0  0  0  0  0  0  0  0  0  0
   -0.1691    4.0376    0.5773 H   0  0  0  0  0  0  0  0  0  0  0  0
  5  6  2  0  0  0  0
  5  7  1  0  0  0  0
  2  3  1  0  0  0  0
  2  4  1  0  0  0  0
  2  5  1  0  0  0  0
  1  2  1  0  0  0  0
 19 20  2  0  0  0  0
 19 21  1  0  0  0  0
 16 17  1  0  0  0  0
 16 18  1  0  0  0  0
 14 15  2  0  0  0  0
 14 16  1  0  0  0  0
 11 12  1  0  0  0  0
 11 13  1  0  0  0  0
 11 14  1  0  0  0  0
  9 10  1  0  0  0  0
  9 11  1  0  0  0  0
  9 19  1  0  0  0  0
  7  8  1  0  0  0  0
  7  9  1  0  0  0  0
 23 24  1  0  0  0  0
 23 25  1  0  0  0  0
 23 26  1  0  0  0  0
 21 22  1  0  0  0  0
 21 23  1  0  0  0  0
M  END
$$$$
default_name
  -OEChem-01062215323D

 26 25  0     1  0  0  0  0  0999 V2000
   -3.0232   -3.6924    1.0038 H   0  0  0  0  0  0  0  0  0  0  0  0
   -3.0082   -2.6684    0.6318 C   0  0  0  0  0  0  0  0  0  0  0  0
   -3.6332   -2.0414    1.2658 H   0  0  0  0  0  0  0  0  0  0  0  0
   -3.3762   -2.6444   -0.3912 H   0  0  0  0  0  0  0  0  0  0  0  0
   -1.5882   -2.1554    0.6658 C   0  0  0  0  0  0  0  0  0  0  0  0
   -0.6832   -2.8764    1.0638 O   0  0  0  0  0  0  0  0  0  0  0  0
   -1.3952   -0.9084    0.2428 N   0  0  0  0  0  0  0  0  0  0  0  0
   -2.1972   -0.3644   -0.0422 H   0  0  0  0  0  0  0  0  0  0  0  0
   -0.1122   -0.1994    0.2658 C   0  0  1  0  0  0  0  0  0  0  0  0
    0.5635   -0.7260    0.9446 H   0  0  0  0  0  0  0  0  0  0  0  0
    0.4924   -0.2204   -1.1558 C   0  0  0  0  0  0  0  0  0  0  0  0
   -0.2649    0.0986   -1.8710 H   0  0  0  0  0  0  0  0  0  0  0  0
    1.3245    0.4806   -1.2026 H   0  0  0  0  0  0  0  0  0  0  0  0
    0.9715   -1.5919   -1.6037 C   0  0  0  0  0  0  0  0  0  0  0  0
    1.5803   -2.3534   -0.8724 O   0  0  0  0  0  0  0  0  0  0  0  0
    0.7191   -1.9551   -2.8377 N   0  0  0  0  0  0  0  0  0  0  0  0
    1.0321   -2.8732   -3.1002 H   0  0  0  0  0  0  0  0  0  0  0  0
    0.2035   -1.3548   -3.4532 H   0  0  0  0  0  0  0  0  0  0  0  0
   -0.3126    1.2341    0.8050 C   0  0  0  0  0  0  0  0  0  0  0  0
   -1.2141    1.4670    1.6103 O   0  0  0  0  0  0  0  0  0  0  0  0
    0.5111    2.1878    0.3597 N   0  0  0  0  0  0  0  0  0  0  0  0
    1.1768    1.9247   -0.3600 H   0  0  0  0  0  0  0  0  0  0  0  0
    0.4617    3.5870    0.7799 C   0  0  0  0  0  0  0  0  0  0  0  0
    0.5569    3.6486    1.8661 H   0  0  0  0  0  0  0  0  0  0  0  0
    1.2748    4.1464    0.3150 H   0  0  0  0  0  0  0  0  0  0  0  0
   -0.4930    4.0266    0.4862 H   0  0  0  0  0  0  0  0  0  0  0  0
  5  6  2  0  0  0  0
  5  7  1  0  0  0  0
  2  3  1  0  0  0  0
  2  4  1  0  0  0  0
  2  5  1  0  0  0  0
  1  2  1  0  0  0  0
 19 20  2  0  0  0  0
 19 21  1  0  0  0  0
 16 17  1  0  0  0  0
 16 18  1  0  0  0  0
 14 15  2  0  0  0  0
 14 16  1  0  0  0  0
 11 12  1  0  0  0  0
 11 13  1  0  0  0  0
 11 14  1  0  0  0  0
  9 10  1  0  0  0  0
  9 11  1  0  0  0  0
  9 19  1  0  0  0  0
  7  8  1  0  0  0  0
  7  9  1  0  0  0  0
 23 24  1  0  0  0  0
 23 25  1  0  0  0  0
 23 26  1  0  0  0  0
 21 22  1  0  0  0  0
 21 23  1  0  0  0  0
M  END
$$$$
default_name
  -OEChem-01062215323D

 26 25  0     1  0  0  0  0  0999 V2000
   -3.0232   -3.6924    1.0038 H   0  0  0  0  0  0  0  0  0  0  0  0
   -3.0082   -2.6684    0.6318 C   0  0  0  0  0  0  0  0  0  0  0  0
   -3.6332   -2.0414    1.2658 H   0  0  0  0  0  0  0  0  0  0  0  0
   -3.3762   -2.6444   -0.3912 H   0  0  0  0  0  0  0  0  0  0  0  0
   -1.5882   -2.1554    0.6658 C   0  0  0  0  0  0  0  0  0  0  0  0
   -0.6832   -2.8764    1.0638 O   0  0  0  0  0  0  0  0  0  0  0  0
   -1.3952   -0.9084    0.2428 N   0  0  0  0  0  0  0  0  0  0  0  0
   -2.1972   -0.3644   -0.0422 H   0  0  0  0  0  0  0  0  0  0  0  0
   -0.1122   -0.1994    0.2658 C   0  0  1  0  0  0  0  0  0  0  0  0
    0.5635   -0.7260    0.9446 H   0  0  0  0  0  0  0  0  0  0  0  0
    0.4924   -0.2204   -1.1558 C   0  0  0  0  0  0  0  0  0  0  0  0
   -0.2649    0.0986   -1.8710 H   0  0  0  0  0  0  0  0  0  0  0  0
    1.3245    0.4806   -1.2026 H   0  0  0  0  0  0  0  0  0  0  0  0
    0.9715   -1.5919   -1.6037 C   0  0  0  0  0  0  0  0  0  0  0  0
    1.5803   -2.3534   -0.8724 O   0  0  0  0  0  0  0  0  0  0  0  0
    0.7191   -1.9551   -2.8377 N   0  0  0  0  0  0  0  0  0  0  0  0
    1.0321   -2.8732   -3.1002 H   0  0  0  0  0  0  0  0  0  0  0  0
    0.2035   -1.3548   -3.4532 H   0  0  0  0  0  0  0  0  0  0  0  0
   -0.3126    1.2341    0.8050 C   0  0  0  0  0  0  0  0  0  0  0  0
   -1.0136    1.4241    1.7989 O   0  0  0  0  0  0  0  0  0  0  0  0
    0.2871    2.2345    0.1524 N   0  0  0  0  0  0  0  0  0  0  0  0
    0.7837    1.9979   -0.7007 H   0  0  0  0  0  0  0  0  0  0  0  0
    0.2076    3.6416    0.5404 C   0  0  0  0  0  0  0  0  0  0  0  0
    0.5530    3.7595    1.5697 H   0  0  0  0  0  0  0  0  0  0  0  0
    0.8296    4.2476   -0.1197 H   0  0  0  0  0  0  0  0  0  0  0  0
   -0.8268    3.9836    0.4764 H   0  0  0  0  0  0  0  0  0  0  0  0
  5  6  2  0  0  0  0
  5  7  1  0  0  0  0
  2  3  1  0  0  0  0
  2  4  1  0  0  0  0
  2  5  1  0  0  0  0
  1  2  1  0  0  0  0
 19 20  2  0  0  0  0
 19 21  1  0  0  0  0
 16 17  1  0  0  0  0
 16 18  1  0  0  0  0
 14 15  2  0  0  0  0
 14 16  1  0  0  0  0
 11 12  1  0  0  0  0
 11 13  1  0  0  0  0
 11 14  1  0  0  0  0
  9 10  1  0  0  0  0
  9 11  1  0  0  0  0
  9 19  1  0  0  0  0
  7  8  1  0  0  0  0
  7  9  1  0  0  0  0
 23 24  1  0  0  0  0
 23 25  1  0  0  0  0
 23 26  1  0  0  0  0
 21 22  1  0  0  0  0
 21 23  1  0  0  0  0
M  END
$$$$
default_name
  -OEChem-01062215323D

 26 25  0     1  0  0  0  0  0999 V2000
   -3.0232   -3.6924    1.0038 H   0  0  0  0  0  0  0  0  0  0  0  0
   -3.0082   -2.6684    0.6318 C   0  0  0  0  0  0  0  0  0  0  0  0
   -3.6332   -2.0414    1.2658 H   0  0  0  0  0  0  0  0  0  0  0  0
   -3.3762   -2.6444   -0.3912 H   0  0  0  0  0  0  0  0  0  0  0  0
   -1.5882   -2.1554    0.6658 C   0  0  0  0  0  0  0  0  0  0  0  0
   -0.6832   -2.8764    1.0638 O   0  0  0  0  0  0  0  0  0  0  0  0
   -1.3952   -0.9084    0.2428 N   0  0  0  0  0  0  0  0  0  0  0  0
   -2.1972   -0.3644   -0.0422 H   0  0  0  0  0  0  0  0  0  0  0  0
   -0.1122   -0.1994    0.2658 C   0  0  1  0  0  0  0  0  0  0  0  0
    0.5635   -0.7260    0.9446 H   0  0  0  0  0  0  0  0  0  0  0  0
    0.4924   -0.2204   -1.1558 C   0  0  0  0  0  0  0  0  0  0  0  0
   -0.2649    0.0986   -1.8710 H   0  0  0  0  0  0  0  0  0  0  0  0
    1.3245    0.4806   -1.2026 H   0  0  0  0  0  0  0  0  0  0  0  0
    0.9715   -1.5919   -1.6037 C   0  0  0  0  0  0  0  0  0  0  0  0
    1.5803   -2.3534   -0.8724 O   0  0  0  0  0  0  0  0  0  0  0  0
    0.7191   -1.9551   -2.8377 N   0  0  0  0  0  0  0  0  0  0  0  0
    1.0321   -2.8732   -3.1002 H   0  0  0  0  0  0  0  0  0  0  0  0
    0.2035   -1.3548   -3.4532 H   0  0  0  0  0  0  0  0  0  0  0  0
   -0.3126    1.2341    0.8050 C   0  0  0  0  0  0  0  0  0  0  0  0
   -0.7709    1.4070    1.9344 O   0  0  0  0  0  0  0  0  0  0  0  0
    0.0168    2.2524    0.0044 N   0  0  0  0  0  0  0  0  0  0  0  0
    0.3155    2.0217   -0.9379 H   0  0  0  0  0  0  0  0  0  0  0  0
   -0.1004    3.6633    0.3683 C   0  0  0  0  0  0  0  0  0  0  0  0
    0.4680    3.8563    1.2807 H   0  0  0  0  0  0  0  0  0  0  0  0
    0.2860    4.2907   -0.4361 H   0  0  0  0  0  0  0  0  0  0  0  0
   -1.1476    3.9116    0.5486 H   0  0  0  0  0  0  0  0  0  0  0  0
  5  6  2  0  0  0  0
  5  7  1  0  0  0  0
  2  3  1  0  0  0  0
  2  4  1  0  0  0  0
  2  5  1  0  0  0  0
  1  2  1  0  0  0  0
 19 20  2  0  0  0  0
 19 21  1  0  0  0  0
 16 17  1  0  0  0  0
 16 18  1  0  0  0  0
 14 15  2  0  0  0  0
 14 16  1  0  0  0  0
 11 12  1  0  0  0  0
 11 13  1  0  0  0  0
 11 14  1  0  0  0  0
  9 10  1  0  0  0  0
  9 11  1  0  0  0  0
  9 19  1  0  0  0  0
  7  8  1  0  0  0  0
  7  9  1  0  0  0  0
 23 24  1  0  0  0  0
 23 25  1  0  0  0  0
 23 26  1  0  0  0  0
 21 22  1  0  0  0  0
 21 23  1  0  0  0  0
M  END
$$$$
default_name
  -OEChem-01062215323D

 26 25  0     1  0  0  0  0  0999 V2000
   -3.0232   -3.6924    1.0038 H   0  0  0  0  0  0  0  0  0  0  0  0
   -3.0082   -2.6684    0.6318 C   0  0  0  0  0  0  0  0  0  0  0  0
   -3.6332   -2.0414    1.2658 H   0  0  0  0  0  0  0  0  0  0  0  0
   -3.3762   -2.6444   -0.3912 H   0  0  0  0  0  0  0  0  0  0  0  0
   -1.5882   -2.1554    0.6658 C   0  0  0  0  0  0  0  0  0  0  0  0
   -0.6832   -2.8764    1.0638 O   0  0  0  0  0  0  0  0  0  0  0  0
   -1.3952   -0.9084    0.2428 N   0  0  0  0  0  0  0  0  0  0  0  0
   -2.1972   -0.3644   -0.0422 H   0  0  0  0  0  0  0  0  0  0  0  0
   -0.1122   -0.1994    0.2658 C   0  0  1  0  0  0  0  0  0  0  0  0
    0.5635   -0.7260    0.9446 H   0  0  0  0  0  0  0  0  0  0  0  0
    0.4924   -0.2204   -1.1558 C   0  0  0  0  0  0  0  0  0  0  0  0
   -0.2649    0.0986   -1.8710 H   0  0  0  0  0  0  0  0  0  0  0  0
    1.3245    0.4806   -1.2026 H   0  0  0  0  0  0  0  0  0  0  0  0
    0.9715   -1.5919   -1.6037 C   0  0  0  0  0  0  0  0  0  0  0  0
    1.5803   -2.3534   -0.8724 O   0  0  0  0  0  0  0  0  0  0  0  0
    0.7191   -1.9551   -2.8377 N   0  0  0  0  0  0  0  0  0  0  0  0
    1.0321   -2.8732   -3.1002 H   0  0  0  0  0  0  0  0  0  0  0  0
    0.2035   -1.3548   -3.4532 H   0  0  0  0  0  0  0  0  0  0  0  0
   -0.3126    1.2341    0.8050 C   0  0  0  0  0  0  0  0  0  0  0  0
   -0.5023    1.4171    2.0075 O   0  0  0  0  0  0  0  0  0  0  0  0
   -0.2815    2.2402   -0.0742 N   0  0  0  0  0  0  0  0  0  0  0  0
   -0.1959    1.9943   -1.0553 H   0  0  0  0  0  0  0  0  0  0  0  0
   -0.4411    3.6506    0.2753 C   0  0  0  0  0  0  0  0  0  0  0  0
    0.3077    3.9325    1.0187 H   0  0  0  0  0  0  0  0  0  0  0  0
   -0.3189    4.2725   -0.6126 H   0  0  0  0  0  0  0  0  0  0  0  0
   -1.4337    3.8155    0.6978 H   0  0  0  0  0  0  0  0  0  0  0  0
  5  6  2  0  0  0  0
  5  7  1  0  0  0  0
  2  3  1  0  0  0  0
  2  4  1  0  0  0  0
  2  5  1  0  0  0  0
  1  2  1  0  0  0  0
 19 20  2  0  0  0  0
 19 21  1  0  0  0  0
 16 17  1  0  0  0  0
 16 18  1  0  0  0  0
 14 15  2  0  0  0  0
 14 16  1  0  0  0  0
 11 12  1  0  0  0  0
 11 13  1  0  0  0  0
 11 14  1  0  0  0  0
  9 10  1  0  0  0  0
  9 11  1  0  0  0  0
  9 19  1  0  0  0  0
  7  8  1  0  0  0  0
  7  9  1  0  0  0  0
 23 24  1  0  0  0  0
 23 25  1  0  0  0  0
 23 26  1  0  0  0  0
 21 22  1  0  0  0  0
 21 23  1  0  0  0  0
M  END
$$$$
default_name
  -OEChem-01062215323D

 26 25  0     1  0  0  0  0  0999 V2000
   -3.0232   -3.6924    1.0038 H   0  0  0  0  0  0  0  0  0  0  0  0
   -3.0082   -2.6684    0.6318 C   0  0  0  0  0  0  0  0  0  0  0  0
   -3.6332   -2.0414    1.2658 H   0  0  0  0  0  0  0  0  0  0  0  0
   -3.3762   -2.6444   -0.3912 H   0  0  0  0  0  0  0  0  0  0  0  0
   -1.5882   -2.1554    0.6658 C   0  0  0  0  0  0  0  0  0  0  0  0
   -0.6832   -2.8764    1.0638 O   0  0  0  0  0  0  0  0  0  0  0  0
   -1.3952   -0.9084    0.2428 N   0  0  0  0  0  0  0  0  0  0  0  0
   -2.1972   -0.3644   -0.0422 H   0  0  0  0  0  0  0  0  0  0  0  0
   -0.1122   -0.1994    0.2658 C   0  0  1  0  0  0  0  0  0  0  0  0
    0.5635   -0.7260    0.9446 H   0  0  0  0  0  0  0  0  0  0  0  0
    0.4924   -0.2204   -1.1558 C   0  0  0  0  0  0  0  0  0  0  0  0
   -0.2649    0.0986   -1.8710 H   0  0  0  0  0  0  0  0  0  0  0  0
    1.3245    0.4806   -1.2026 H   0  0  0  0  0  0  0  0  0  0  0  0
    0.9715   -1.5919   -1.6037 C   0  0  0  0  0  0  0  0  0  0  0  0
    1.5803   -2.3534   -0.8724 O   0  0  0  0  0  0  0  0  0  0  0  0
    0.7191   -1.9551   -2.8377 N   0  0  0  0  0  0  0  0  0  0  0  0
    1.0321   -2.8732   -3.1002 H   0  0  0  0  0  0  0  0  0  0  0  0
    0.2035   -1.3548   -3.4532 H   0  0  0  0  0  0  0  0  0  0  0  0
   -0.3126    1.2341    0.8050 C   0  0  0  0  0  0  0  0  0  0  0  0
   -0.2263    1.4535    2.0132 O   0  0  0  0  0  0  0  0  0  0  0  0
   -0.5874    2.1989   -0.0781 N   0  0  0  0  0  0  0  0  0  0  0  0
   -0.7156    1.9178   -1.0450 H   0  0  0  0  0  0  0  0  0  0  0  0
   -0.7915    3.6045    0.2678 C   0  0  0  0  0  0  0  0  0  0  0  0
    0.0831    3.9827    0.8015 H   0  0  0  0  0  0  0  0  0  0  0  0
   -0.9440    4.1943   -0.6371 H   0  0  0  0  0  0  0  0  0  0  0  0
   -1.6656    3.7018    0.9139 H   0  0  0  0  0  0  0  0  0  0  0  0
  5  6  2  0  0  0  0
  5  7  1  0  0  0  0
  2  3  1  0  0  0  0
  2  4  1  0  0  0  0
  2  5  1  0  0  0  0
  1  2  1  0  0  0  0
 19 20  2  0  0  0  0
 19 21  1  0  0  0  0
 16 17  1  0  0  0  0
 16 18  1  0  0  0  0
 14 15  2  0  0  0  0
 14 16  1  0  0  0  0
 11 12  1  0  0  0  0
 11 13  1  0  0  0  0
 11 14  1  0  0  0  0
  9 10  1  0  0  0  0
  9 11  1  0  0  0  0
  9 19  1  0  0  0  0
  7  8  1  0  0  0  0
  7  9  1  0  0  0  0
 23 24  1  0  0  0  0
 23 25  1  0  0  0  0
 23 26  1  0  0  0  0
 21 22  1  0  0  0  0
 21 23  1  0  0  0  0
M  END
$$$$
default_name
  -OEChem-01062215323D

 26 25  0     1  0  0  0  0  0999 V2000
   -3.0232   -3.6924    1.0038 H   0  0  0  0  0  0  0  0  0  0  0  0
   -3.0082   -2.6684    0.6318 C   0  0  0  0  0  0  0  0  0  0  0  0
   -3.6332   -2.0414    1.2658 H   0  0  0  0  0  0  0  0  0  0  0  0
   -3.3762   -2.6444   -0.3912 H   0  0  0  0  0  0  0  0  0  0  0  0
   -1.5882   -2.1554    0.6658 C   0  0  0  0  0  0  0  0  0  0  0  0
   -0.6832   -2.8764    1.0638 O   0  0  0  0  0  0  0  0  0  0  0  0
   -1.3952   -0.9084    0.2428 N   0  0  0  0  0  0  0  0  0  0  0  0
   -2.1972   -0.3644   -0.0422 H   0  0  0  0  0  0  0  0  0  0  0  0
   -0.1122   -0.1994    0.2658 C   0  0  1  0  0  0  0  0  0  0  0  0
    0.5635   -0.7260    0.9446 H   0  0  0  0  0  0  0  0  0  0  0  0
    0.4924   -0.2204   -1.1558 C   0  0  0  0  0  0  0  0  0  0  0  0
   -0.2649    0.0986   -1.8710 H   0  0  0  0  0  0  0  0  0  0  0  0
    1.3245    0.4806   -1.2026 H   0  0  0  0  0  0  0  0  0  0  0  0
    0.9715   -1.5919   -1.6037 C   0  0  0  0  0  0  0  0  0  0  0  0
    1.5803   -2.3534   -0.8724 O   0  0  0  0  0  0  0  0  0  0  0  0
    0.7191   -1.9551   -2.8377 N   0  0  0  0  0  0  0  0  0  0  0  0
    1.0321   -2.8732   -3.1002 H   0  0  0  0  0  0  0  0  0  0  0  0
    0.2035   -1.3548   -3.4532 H   0  0  0  0  0  0  0  0  0  0  0  0
   -0.3126    1.2341    0.8050 C   0  0  0  0  0  0  0  0  0  0  0  0
    0.0385    1.5138    1.9513 O   0  0  0  0  0  0  0  0  0  0  0  0
   -0.8801    2.1313   -0.0070 N   0  0  0  0  0  0  0  0  0  0  0  0
   -1.2082    1.7973   -0.9076 H   0  0  0  0  0  0  0  0  0  0  0  0
   -1.1275    3.5280    0.3462 C   0  0  0  0  0  0  0  0  0  0  0  0
   -0.1906    4.0037    0.6440 H   0  0  0  0  0  0  0  0  0  0  0  0
   -1.5466    4.0615   -0.5080 H   0  0  0  0  0  0  0  0  0  0  0  0
   -1.8273    3.5783    1.1821 H   0  0  0  0  0  0  0  0  0  0  0  0
  5  6  2  0  0  0  0
  5  7  1  0  0  0  0
  2  3  1  0  0  0  0
  2  4  1  0  0  0  0
  2  5  1  0  0  0  0
  1  2  1  0  0  0  0
 19 20  2  0  0  0  0
 19 21  1  0  0  0  0
 16 17  1  0  0  0  0
 16 18  1  0  0  0  0
 14 15  2  0  0  0  0
 14 16  1  0  0  0  0
 11 12  1  0  0  0  0
 11 13  1  0  0  0  0
 11 14  1  0  0  0  0
  9 10  1  0  0  0  0
  9 11  1  0  0  0  0
  9 19  1  0  0  0  0
  7  8  1  0  0  0  0
  7  9  1  0  0  0  0
 23 24  1  0  0  0  0
 23 25  1  0  0  0  0
 23 26  1  0  0  0  0
 21 22  1  0  0  0  0
 21 23  1  0  0  0  0
M  END
$$$$
default_name
  -OEChem-01062215323D

 26 25  0     1  0  0  0  0  0999 V2000
   -3.0232   -3.6924    1.0038 H   0  0  0  0  0  0  0  0  0  0  0  0
   -3.0082   -2.6684    0.6318 C   0  0  0  0  0  0  0  0  0  0  0  0
   -3.6332   -2.0414    1.2658 H   0  0  0  0  0  0  0  0  0  0  0  0
   -3.3762   -2.6444   -0.3912 H   0  0  0  0  0  0  0  0  0  0  0  0
   -1.5882   -2.1554    0.6658 C   0  0  0  0  0  0  0  0  0  0  0  0
   -0.6832   -2.8764    1.0638 O   0  0  0  0  0  0  0  0  0  0  0  0
   -1.3952   -0.9084    0.2428 N   0  0  0  0  0  0  0  0  0  0  0  0
   -2.1972   -0.3644   -0.0422 H   0  0  0  0  0  0  0  0  0  0  0  0
   -0.1122   -0.1994    0.2658 C   0  0  1  0  0  0  0  0  0  0  0  0
    0.5635   -0.7260    0.9446 H   0  0  0  0  0  0  0  0  0  0  0  0
    0.4924   -0.2204   -1.1558 C   0  0  0  0  0  0  0  0  0  0  0  0
   -0.2649    0.0986   -1.8710 H   0  0  0  0  0  0  0  0  0  0  0  0
    1.3245    0.4806   -1.2026 H   0  0  0  0  0  0  0  0  0  0  0  0
    0.9715   -1.5919   -1.6037 C   0  0  0  0  0  0  0  0  0  0  0  0
    1.5803   -2.3534   -0.8724 O   0  0  0  0  0  0  0  0  0  0  0  0
    0.7191   -1.9551   -2.8377 N   0  0  0  0  0  0  0  0  0  0  0  0
    1.0321   -2.8732   -3.1002 H   0  0  0  0  0  0  0  0  0  0  0  0
    0.2035   -1.3548   -3.4532 H   0  0  0  0  0  0  0  0  0  0  0  0
   -0.3126    1.2341    0.8050 C   0  0  0  0  0  0  0  0  0  0  0  0
    0.2739    1.5939    1.8258 O   0  0  0  0  0  0  0  0  0  0  0  0
   -1.1396    2.0419    0.1343 N   0  0  0  0  0  0  0  0  0  0  0  0
   -1.6401    1.6410   -0.6525 H   0  0  0  0  0  0  0  0  0  0  0  0
   -1.4263    3.4264    0.5053 C   0  0  0  0  0  0  0  0  0  0  0  0
   -0.4947    3.9940    0.5569 H   0  0  0  0  0  0  0  0  0  0  0  0
   -2.0856    3.8832   -0.2341 H   0  0  0  0  0  0  0  0  0  0  0  0
   -1.9080    3.4534    1.4842 H   0  0  0  0  0  0  0  0  0  0  0  0
  5  6  2  0  0  0  0
  5  7  1  0  0  0  0
  2  3  1  0  0  0  0
  2  4  1  0  0  0  0
  2  5  1  0  0  0  0
  1  2  1  0  0  0  0
 19 20  2  0  0  0  0
 19 21  1  0  0  0  0
 16 17  1  0  0  0  0
 16 18  1  0  0  0  0
 14 15  2  0  0  0  0
 14 16  1  0  0  0  0
 11 12  1  0  0  0  0
 11 13  1  0  0  0  0
 11 14  1  0  0  0  0
  9 10  1  0  0  0  0
  9 11  1  0  0  0  0
  9 19  1  0  0  0  0
  7  8  1  0  0  0  0
  7  9  1  0  0  0  0
 23 24  1  0  0  0  0
 23 25  1  0  0  0  0
 23 26  1  0  0  0  0
 21 22  1  0  0  0  0
 21 23  1  0  0  0  0
M  END
$$$$
default_name
  -OEChem-01062215323D

 26 25  0     1  0  0  0  0  0999 V2000
   -3.0232   -3.6924    1.0038 H   0  0  0  0  0  0  0  0  0  0  0  0
   -3.0082   -2.6684    0.6318 C   0  0  0  0  0  0  0  0  0  0  0  0
   -3.6332   -2.0414    1.2658 H   0  0  0  0  0  0  0  0  0  0  0  0
   -3.3762   -2.6444   -0.3912 H   0  0  0  0  0  0  0  0  0  0  0  0
   -1.5882   -2.1554    0.6658 C   0  0  0  0  0  0  0  0  0  0  0  0
   -0.6832   -2.8764    1.0638 O   0  0  0  0  0  0  0  0  0  0  0  0
   -1.3952   -0.9084    0.2428 N   0  0  0  0  0  0  0  0  0  0  0  0
   -2.1972   -0.3644   -0.0422 H   0  0  0  0  0  0  0  0  0  0  0  0
   -0.1122   -0.1994    0.2658 C   0  0  1  0  0  0  0  0  0  0  0  0
    0.5635   -0.7260    0.9446 H   0  0  0  0  0  0  0  0  0  0  0  0
    0.4924   -0.2204   -1.1558 C   0  0  0  0  0  0  0  0  0  0  0  0
   -0.2649    0.0986   -1.8710 H   0  0  0  0  0  0  0  0  0  0  0  0
    1.3245    0.4806   -1.2026 H   0  0  0  0  0  0  0  0  0  0  0  0
    0.9715   -1.5919   -1.6037 C   0  0  0  0  0  0  0  0  0  0  0  0
    1.5803   -2.3534   -0.8724 O   0  0  0  0  0  0  0  0  0  0  0  0
    0.7191   -1.9551   -2.8377 N   0  0  0  0  0  0  0  0  0  0  0  0
    1.0321   -2.8732   -3.1002 H   0  0  0  0  0  0  0  0  0  0  0  0
    0.2035   -1.3548   -3.4532 H   0  0  0  0  0  0  0  0  0  0  0  0
   -0.3126    1.2341    0.8050 C   0  0  0  0  0  0  0  0  0  0  0  0
    0.4639    1.6883    1.6454 O   0  0  0  0  0  0  0  0  0  0  0  0
   -1.3482    1.9368    0.3361 N   0  0  0  0  0  0  0  0  0  0  0  0
   -1.9819    1.4595   -0.2972 H   0  0  0  0  0  0  0  0  0  0  0  0
   -1.6676    3.3066    0.7341 C   0  0  0  0  0  0  0  0  0  0  0  0
   -0.8085    3.9542    0.5462 H   0  0  0  0  0  0  0  0  0  0  0  0
   -2.5244    3.6714    0.1659 H   0  0  0  0  0  0  0  0  0  0  0  0
   -1.9021    3.3357    1.7995 H   0  0  0  0  0  0  0  0  0  0  0  0
  5  6  2  0  0  0  0
  5  7  1  0  0  0  0
  2  3  1  0  0  0  0
  2  4  1  0  0  0  0
  2  5  1  0  0  0  0
  1  2  1  0  0  0  0
 19 20  2  0  0  0  0
 19 21  1  0  0  0  0
 16 17  1  0  0  0  0
 16 18  1  0  0  0  0
 14 15  2  0  0  0  0
 14 16  1  0  0  0  0
 11 12  1  0  0  0  0
 11 13  1  0  0  0  0
 11 14  1  0  0  0  0
  9 10  1  0  0  0  0
  9 11  1  0  0  0  0
  9 19  1  0  0  0  0
  7  8  1  0  0  0  0
  7  9  1  0  0  0  0
 23 24  1  0  0  0  0
 23 25  1  0  0  0  0
 23 26  1  0  0  0  0
 21 22  1  0  0  0  0
 21 23  1  0  0  0  0
M  END
$$$$
default_name
  -OEChem-01062215323D

 26 25  0     1  0  0  0  0  0999 V2000
   -3.0232   -3.6924    1.0038 H   0  0  0  0  0  0  0  0  0  0  0  0
   -3.0082   -2.6684    0.6318 C   0  0  0  0  0  0  0  0  0  0  0  0
   -3.6332   -2.0414    1.2658 H   0  0  0  0  0  0  0  0  0  0  0  0
   -3.3762   -2.6444   -0.3912 H   0  0  0  0  0  0  0  0  0  0  0  0
   -1.5882   -2.1554    0.6658 C   0  0  0  0  0  0  0  0  0  0  0  0
   -0.6832   -2.8764    1.0638 O   0  0  0  0  0  0  0  0  0  0  0  0
   -1.3952   -0.9084    0.2428 N   0  0  0  0  0  0  0  0  0  0  0  0
   -2.1972   -0.3644   -0.0422 H   0  0  0  0  0  0  0  0  0  0  0  0
   -0.1122   -0.1994    0.2658 C   0  0  1  0  0  0  0  0  0  0  0  0
    0.5635   -0.7260    0.9446 H   0  0  0  0  0  0  0  0  0  0  0  0
    0.4924   -0.2204   -1.1558 C   0  0  0  0  0  0  0  0  0  0  0  0
   -0.2649    0.0986   -1.8710 H   0  0  0  0  0  0  0  0  0  0  0  0
    1.3245    0.4806   -1.2026 H   0  0  0  0  0  0  0  0  0  0  0  0
    0.9715   -1.5919   -1.6037 C   0  0  0  0  0  0  0  0  0  0  0  0
    1.5803   -2.3534   -0.8724 O   0  0  0  0  0  0  0  0  0  0  0  0
    0.7191   -1.9551   -2.8377 N   0  0  0  0  0  0  0  0  0  0  0  0
    1.0321   -2.8732   -3.1002 H   0  0  0  0  0  0  0  0  0  0  0  0
    0.2035   -1.3548   -3.4532 H   0  0  0  0  0  0  0  0  0  0  0  0
   -0.3126    1.2341    0.8050 C   0  0  0  0  0  0  0  0  0  0  0  0
    0.5956    1.7907    1.4223 O   0  0  0  0  0  0  0  0  0  0  0  0
   -1.4918    1.8232    0.5846 N   0  0  0  0  0  0  0  0  0  0  0  0
   -2.2103    1.2653    0.1343 H   0  0  0  0  0  0  0  0  0  0  0  0
   -1.8349    3.1768    1.0171 C   0  0  0  0  0  0  0  0  0  0  0  0
   -1.1105    3.8870    0.6125 H   0  0  0  0  0  0  0  0  0  0  0  0
   -2.8331    3.4406    0.6648 H   0  0  0  0  0  0  0  0  0  0  0  0
   -1.8099    3.2330    2.1066 H   0  0  0  0  0  0  0  0  0  0  0  0
  5  6  2  0  0  0  0
  5  7  1  0  0  0  0
  2  3  1  0  0  0  0
  2  4  1  0  0  0  0
  2  5  1  0  0  0  0
  1  2  1  0  0  0  0
 19 20  2  0  0  0  0
 19 21  1  0  0  0  0
 16 17  1  0  0  0  0
 16 18  1  0  0  0  0
 14 15  2  0  0  0  0
 14 16  1  0  0  0  0
 11 12  1  0  0  0  0
 11 13  1  0  0  0  0
 11 14  1  0  0  0  0
  9 10  1  0  0  0  0
  9 11  1  0  0  0  0
  9 19  1  0  0  0  0
  7  8  1  0  0  0  0
  7  9  1  0  0  0  0
 23 24  1  0  0  0  0
 23 25  1  0  0  0  0
 23 26  1  0  0  0  0
 21 22  1  0  0  0  0
 21 23  1  0  0  0  0
M  END
$$$$
default_name
  -OEChem-01062215323D

 26 25  0     1  0  0  0  0  0999 V2000
   -3.0232   -3.6924    1.0038 H   0  0  0  0  0  0  0  0  0  0  0  0
   -3.0082   -2.6684    0.6318 C   0  0  0  0  0  0  0  0  0  0  0  0
   -3.6332   -2.0414    1.2658 H   0  0  0  0  0  0  0  0  0  0  0  0
   -3.3762   -2.6444   -0.3912 H   0  0  0  0  0  0  0  0  0  0  0  0
   -1.5882   -2.1554    0.6658 C   0  0  0  0  0  0  0  0  0  0  0  0
   -0.6832   -2.8764    1.0638 O   0  0  0  0  0  0  0  0  0  0  0  0
   -1.3952   -0.9084    0.2428 N   0  0  0  0  0  0  0  0  0  0  0  0
   -2.1972   -0.3644   -0.0422 H   0  0  0  0  0  0  0  0  0  0  0  0
   -0.1122   -0.1994    0.2658 C   0  0  1  0  0  0  0  0  0  0  0  0
    0.5635   -0.7260    0.9446 H   0  0  0  0  0  0  0  0  0  0  0  0
    0.4924   -0.2204   -1.1558 C   0  0  0  0  0  0  0  0  0  0  0  0
   -0.2649    0.0986   -1.8710 H   0  0  0  0  0  0  0  0  0  0  0  0
    1.3245    0.4806   -1.2026 H   0  0  0  0  0  0  0  0  0  0  0  0
    0.9715   -1.5919   -1.6037 C   0  0  0  0  0  0  0  0  0  0  0  0
    1.5803   -2.3534   -0.8724 O   0  0  0  0  0  0  0  0  0  0  0  0
    0.7191   -1.9551   -2.8377 N   0  0  0  0  0  0  0  0  0  0  0  0
    1.0321   -2.8732   -3.1002 H   0  0  0  0  0  0  0  0  0  0  0  0
    0.2035   -1.3548   -3.4532 H   0  0  0  0  0  0  0  0  0  0  0  0
   -0.3126    1.2341    0.8050 C   0  0  0  0  0  0  0  0  0  0  0  0
    0.6599    1.8939    1.1717 O   0  0  0  0  0  0  0  0  0  0  0  0
   -1.5606    1.7089    0.8630 N   0  0  0  0  0  0  0  0  0  0  0  0
   -2.3098    1.0716    0.6124 H   0  0  0  0  0  0  0  0  0  0  0  0
   -1.9168    3.0458    1.3350 C   0  0  0  0  0  0  0  0  0  0  0  0
   -1.3803    3.7970    0.7514 H   0  0  0  0  0  0  0  0  0  0  0  0
   -2.9905    3.2065    1.2286 H   0  0  0  0  0  0  0  0  0  0  0  0
   -1.6379    3.1525    2.3846 H   0  0  0  0  0  0  0  0  0  0  0  0
  5  6  2  0  0  0  0
  5  7  1  0  0  0  0
  2  3  1  0  0  0  0
  2  4  1  0  0  0  0
  2  5  1  0  0  0  0
  1  2  1  0  0  0  0
 19 20  2  0  0  0  0
 19 21  1  0  0  0  0
 16 17  1  0  0  0  0
 16 18  1  0  0  0  0
 14 15  2  0  0  0  0
 14 16  1  0  0  0  0
 11 12  1  0  0  0  0
 11 13  1  0  0  0  0
 11 14  1  0  0  0  0
  9 10  1  0  0  0  0
  9 11  1  0  0  0  0
  9 19  1  0  0  0  0
  7  8  1  0  0  0  0
  7  9  1  0  0  0  0
 23 24  1  0  0  0  0
 23 25  1  0  0  0  0
 23 26  1  0  0  0  0
 21 22  1  0  0  0  0
 21 23  1  0  0  0  0
M  END
$$$$
default_name
  -OEChem-01062215323D

 26 25  0     1  0  0  0  0  0999 V2000
   -3.0232   -3.6924    1.0038 H   0  0  0  0  0  0  0  0  0  0  0  0
   -3.0082   -2.6684    0.6318 C   0  0  0  0  0  0  0  0  0  0  0  0
   -3.6332   -2.0414    1.2658 H   0  0  0  0  0  0  0  0  0  0  0  0
   -3.3762   -2.6444   -0.3912 H   0  0  0  0  0  0  0  0  0  0  0  0
   -1.5882   -2.1554    0.6658 C   0  0  0  0  0  0  0  0  0  0  0  0
   -0.6832   -2.8764    1.0638 O   0  0  0  0  0  0  0  0  0  0  0  0
   -1.3952   -0.9084    0.2428 N   0  0  0  0  0  0  0  0  0  0  0  0
   -2.1972   -0.3644   -0.0422 H   0  0  0  0  0  0  0  0  0  0  0  0
   -0.1122   -0.1994    0.2658 C   0  0  1  0  0  0  0  0  0  0  0  0
    0.5635   -0.7260    0.9446 H   0  0  0  0  0  0  0  0  0  0  0  0
    0.4924   -0.2204   -1.1558 C   0  0  0  0  0  0  0  0  0  0  0  0
   -0.2649    0.0986   -1.8710 H   0  0  0  0  0  0  0  0  0  0  0  0
    1.3245    0.4806   -1.2026 H   0  0  0  0  0  0  0  0  0  0  0  0
    0.9715   -1.5919   -1.6037 C   0  0  0  0  0  0  0  0  0  0  0  0
    1.5803   -2.3534   -0.8724 O   0  0  0  0  0  0  0  0  0  0  0  0
    0.7191   -1.9551   -2.8377 N   0  0  0  0  0  0  0  0  0  0  0  0
    1.0321   -2.8732   -3.1002 H   0  0  0  0  0  0  0  0  0  0  0  0
    0.2035   -1.3548   -3.4532 H   0  0  0  0  0  0  0  0  0  0  0  0
   -0.3126    1.2341    0.8050 C   0  0  0  0  0  0  0  0  0  0  0  0
    0.6525    1.9910    0.9108 O   0  0  0  0  0  0  0  0  0  0  0  0
   -1.5497    1.6016    1.1523 N   0  0  0  0  0  0  0  0  0  0  0  0
   -2.2735    0.8915    1.1047 H   0  0  0  0  0  0  0  0  0  0  0  0
   -1.9077    2.9225    1.6661 C   0  0  0  0  0  0  0  0  0  0  0  0
   -1.5994    3.6905    0.9533 H   0  0  0  0  0  0  0  0  0  0  0  0
   -2.9860    2.9851    1.8188 H   0  0  0  0  0  0  0  0  0  0  0  0
   -1.3977    3.0996    2.6145 H   0  0  0  0  0  0  0  0  0  0  0  0
  5  6  2  0  0  0  0
  5  7  1  0  0  0  0
  2  3  1  0  0  0  0
  2  4  1  0  0  0  0
  2  5  1  0  0  0  0
  1  2  1  0  0  0  0
 19 20  2  0  0  0  0
 19 21  1  0  0  0  0
 16 17  1  0  0  0  0
 16 18  1  0  0  0  0
 14 15  2  0  0  0  0
 14 16  1  0  0  0  0
 11 12  1  0  0  0  0
 11 13  1  0  0  0  0
 11 14  1  0  0  0  0
  9 10  1  0  0  0  0
  9 11  1  0  0  0  0
  9 19  1  0  0  0  0
  7  8  1  0  0  0  0
  7  9  1  0  0  0  0
 23 24  1  0  0  0  0
 23 25  1  0  0  0  0
 23 26  1  0  0  0  0
 21 22  1  0  0  0  0
 21 23  1  0  0  0  0
M  END
$$$$
default_name
  -OEChem-01062215323D

 26 25  0     1  0  0  0  0  0999 V2000
   -3.0232   -3.6924    1.0038 H   0  0  0  0  0  0  0  0  0  0  0  0
   -3.0082   -2.6684    0.6318 C   0  0  0  0  0  0  0  0  0  0  0  0
   -3.6332   -2.0414    1.2658 H   0  0  0  0  0  0  0  0  0  0  0  0
   -3.3762   -2.6444   -0.3912 H   0  0  0  0  0  0  0  0  0  0  0  0
   -1.5882   -2.1554    0.6658 C   0  0  0  0  0  0  0  0  0  0  0  0
   -0.6832   -2.8764    1.0638 O   0  0  0  0  0  0  0  0  0  0  0  0
   -1.3952   -0.9084    0.2428 N   0  0  0  0  0  0  0  0  0  0  0  0
   -2.1972   -0.3644   -0.0422 H   0  0  0  0  0  0  0  0  0  0  0  0
   -0.1122   -0.1994    0.2658 C   0  0  1  0  0  0  0  0  0  0  0  0
    0.5635   -0.7260    0.9446 H   0  0  0  0  0  0  0  0  0  0  0  0
    0.4924   -0.2204   -1.1558 C   0  0  0  0  0  0  0  0  0  0  0  0
   -0.2649    0.0986   -1.8710 H   0  0  0  0  0  0  0  0  0  0  0  0
    1.3245    0.4806   -1.2026 H   0  0  0  0  0  0  0  0  0  0  0  0
    0.9715   -1.5919   -1.6037 C   0  0  0  0  0  0  0  0  0  0  0  0
    1.5803   -2.3534   -0.8724 O   0  0  0  0  0  0  0  0  0  0  0  0
    0.7191   -1.9551   -2.8377 N   0  0  0  0  0  0  0  0  0  0  0  0
    1.0321   -2.8732   -3.1002 H   0  0  0  0  0  0  0  0  0  0  0  0
    0.2035   -1.3548   -3.4532 H   0  0  0  0  0  0  0  0  0  0  0  0
   -0.3126    1.2341    0.8050 C   0  0  0  0  0  0  0  0  0  0  0  0
    0.5740    2.0754    0.6573 O   0  0  0  0  0  0  0  0  0  0  0  0
   -1.4601    1.5087    1.4327 N   0  0  0  0  0  0  0  0  0  0  0  0
   -2.1039    0.7374    1.5774 H   0  0  0  0  0  0  0  0  0  0  0  0
   -1.8082    2.8154    1.9879 C   0  0  0  0  0  0  0  0  0  0  0  0
   -1.7529    3.5745    1.2046 H   0  0  0  0  0  0  0  0  0  0  0  0
   -2.8198    2.7915    2.3953 H   0  0  0  0  0  0  0  0  0  0  0  0
   -1.1057    3.0779    2.7807 H   0  0  0  0  0  0  0  0  0  0  0  0
  5  6  2  0  0  0  0
  5  7  1  0  0  0  0
  2  3  1  0  0  0  0
  2  4  1  0  0  0  0
  2  5  1  0  0  0  0
  1  2  1  0  0  0  0
 19 20  2  0  0  0  0
 19 21  1  0  0  0  0
 16 17  1  0  0  0  0
 16 18  1  0  0  0  0
 14 15  2  0  0  0  0
 14 16  1  0  0  0  0
 11 12  1  0  0  0  0
 11 13  1  0  0  0  0
 11 14  1  0  0  0  0
  9 10  1  0  0  0  0
  9 11  1  0  0  0  0
  9 19  1  0  0  0  0
  7  8  1  0  0  0  0
  7  9  1  0  0  0  0
 23 24  1  0  0  0  0
 23 25  1  0  0  0  0
 23 26  1  0  0  0  0
 21 22  1  0  0  0  0
 21 23  1  0  0  0  0
M  END
$$$$
default_name
  -OEChem-01062215323D

 26 25  0     1  0  0  0  0  0999 V2000
   -3.0232   -3.6924    1.0038 H   0  0  0  0  0  0  0  0  0  0  0  0
   -3.0082   -2.6684    0.6318 C   0  0  0  0  0  0  0  0  0  0  0  0
   -3.6332   -2.0414    1.2658 H   0  0  0  0  0  0  0  0  0  0  0  0
   -3.3762   -2.6444   -0.3912 H   0  0  0  0  0  0  0  0  0  0  0  0
   -1.5882   -2.1554    0.6658 C   0  0  0  0  0  0  0  0  0  0  0  0
   -0.6832   -2.8764    1.0638 O   0  0  0  0  0  0  0  0  0  0  0  0
   -1.3952   -0.9084    0.2428 N   0  0  0  0  0  0  0  0  0  0  0  0
   -2.1972   -0.3644   -0.0422 H   0  0  0  0  0  0  0  0  0  0  0  0
   -0.1122   -0.1994    0.2658 C   0  0  1  0  0  0  0  0  0  0  0  0
    0.5635   -0.7260    0.9446 H   0  0  0  0  0  0  0  0  0  0  0  0
    0.4924   -0.2204   -1.1558 C   0  0  0  0  0  0  0  0  0  0  0  0
   -0.2649    0.0986   -1.8710 H   0  0  0  0  0  0  0  0  0  0  0  0
    1.3245    0.4806   -1.2026 H   0  0  0  0  0  0  0  0  0  0  0  0
    0.9715   -1.5919   -1.6037 C   0  0  0  0  0  0  0  0  0  0  0  0
    1.5803   -2.3534   -0.8724 O   0  0  0  0  0  0  0  0  0  0  0  0
    0.7191   -1.9551   -2.8377 N   0  0  0  0  0  0  0  0  0  0  0  0
    1.0321   -2.8732   -3.1002 H   0  0  0  0  0  0  0  0  0  0  0  0
    0.2035   -1.3548   -3.4532 H   0  0  0  0  0  0  0  0  0  0  0  0
   -0.3126    1.2341    0.8050 C   0  0  0  0  0  0  0  0  0  0  0  0
    0.4296    2.1413    0.4284 O   0  0  0  0  0  0  0  0  0  0  0  0
   -1.2978    1.4364    1.6851 N   0  0  0  0  0  0  0  0  0  0  0  0
   -1.8126    0.6197    1.9986 H   0  0  0  0  0  0  0  0  0  0  0  0
   -1.6251    2.7317    2.2784 C   0  0  0  0  0  0  0  0  0  0  0  0
   -1.8303    3.4570    1.4881 H   0  0  0  0  0  0  0  0  0  0  0  0
   -2.5034    2.6389    2.9187 H   0  0  0  0  0  0  0  0  0  0  0  0
   -0.7817    3.0890    2.8717 H   0  0  0  0  0  0  0  0  0  0  0  0
  5  6  2  0  0  0  0
  5  7  1  0  0  0  0
  2  3  1  0  0  0  0
  2  4  1  0  0  0  0
  2  5  1  0  0  0  0
  1  2  1  0  0  0  0
 19 20  2  0  0  0  0
 19 21  1  0  0  0  0
 16 17  1  0  0  0  0
 16 18  1  0  0  0  0
 14 15  2  0  0  0  0
 14 16  1  0  0  0  0
 11 12  1  0  0  0  0
 11 13  1  0  0  0  0
 11 14  1  0  0  0  0
  9 10  1  0  0  0  0
  9 11  1  0  0  0  0
  9 19  1  0  0  0  0
  7  8  1  0  0  0  0
  7  9  1  0  0  0  0
 23 24  1  0  0  0  0
 23 25  1  0  0  0  0
 23 26  1  0  0  0  0
 21 22  1  0  0  0  0
 21 23  1  0  0  0  0
M  END
$$$$
default_name
  -OEChem-01062215323D

 26 25  0     1  0  0  0  0  0999 V2000
   -3.0232   -3.6924    1.0038 H   0  0  0  0  0  0  0  0  0  0  0  0
   -3.0082   -2.6684    0.6318 C   0  0  0  0  0  0  0  0  0  0  0  0
   -3.6332   -2.0414    1.2658 H   0  0  0  0  0  0  0  0  0  0  0  0
   -3.3762   -2.6444   -0.3912 H   0  0  0  0  0  0  0  0  0  0  0  0
   -1.5882   -2.1554    0.6658 C   0  0  0  0  0  0  0  0  0  0  0  0
   -0.6832   -2.8764    1.0638 O   0  0  0  0  0  0  0  0  0  0  0  0
   -1.3952   -0.9084    0.2428 N   0  0  0  0  0  0  0  0  0  0  0  0
   -2.1972   -0.3644   -0.0422 H   0  0  0  0  0  0  0  0  0  0  0  0
   -0.1122   -0.1994    0.2658 C   0  0  1  0  0  0  0  0  0  0  0  0
    0.5635   -0.7260    0.9446 H   0  0  0  0  0  0  0  0  0  0  0  0
    0.4924   -0.2204   -1.1558 C   0  0  0  0  0  0  0  0  0  0  0  0
   -0.2649    0.0986   -1.8710 H   0  0  0  0  0  0  0  0  0  0  0  0
    1.3245    0.4806   -1.2026 H   0  0  0  0  0  0  0  0  0  0  0  0
    0.9715   -1.5919   -1.6037 C   0  0  0  0  0  0  0  0  0  0  0  0
    1.5803   -2.3534   -0.8724 O   0  0  0  0  0  0  0  0  0  0  0  0
    0.7191   -1.9551   -2.8377 N   0  0  0  0  0  0  0  0  0  0  0  0
    1.0321   -2.8732   -3.1002 H   0  0  0  0  0  0  0  0  0  0  0  0
    0.2035   -1.3548   -3.4532 H   0  0  0  0  0  0  0  0  0  0  0  0
   -0.3126    1.2341    0.8050 C   0  0  0  0  0  0  0  0  0  0  0  0
    0.2291    2.1842    0.2398 O   0  0  0  0  0  0  0  0  0  0  0  0
   -1.0739    1.3898    1.8924 N   0  0  0  0  0  0  0  0  0  0  0  0
   -1.4195    0.5465    2.3393 H   0  0  0  0  0  0  0  0  0  0  0  0
   -1.3709    2.6772    2.5178 C   0  0  0  0  0  0  0  0  0  0  0  0
   -1.8264    3.3461    1.7845 H   0  0  0  0  0  0  0  0  0  0  0  0
   -2.0582    2.5376    3.3535 H   0  0  0  0  0  0  0  0  0  0  0  0
   -0.4480    3.1320    2.8815 H   0  0  0  0  0  0  0  0  0  0  0  0
  5  6  2  0  0  0  0
  5  7  1  0  0  0  0
  2  3  1  0  0  0  0
  2  4  1  0  0  0  0
  2  5  1  0  0  0  0
  1  2  1  0  0  0  0
 19 20  2  0  0  0  0
 19 21  1  0  0  0  0
 16 17  1  0  0  0  0
 16 18  1  0  0  0  0
 14 15  2  0  0  0  0
 14 16  1  0  0  0  0
 11 12  1  0  0  0  0
 11 13  1  0  0  0  0
 11 14  1  0  0  0  0
  9 10  1  0  0  0  0
  9 11  1  0  0  0  0
  9 19  1  0  0  0  0
  7  8  1  0  0  0  0
  7  9  1  0  0  0  0
 23 24  1  0  0  0  0
 23 25  1  0  0  0  0
 23 26  1  0  0  0  0
 21 22  1  0  0  0  0
 21 23  1  0  0  0  0
M  END
$$$$
default_name
  -OEChem-01062215323D

 26 25  0     1  0  0  0  0  0999 V2000
   -3.0232   -3.6924    1.0038 H   0  0  0  0  0  0  0  0  0  0  0  0
   -3.0082   -2.6684    0.6318 C   0  0  0  0  0  0  0  0  0  0  0  0
   -3.6332   -2.0414    1.2658 H   0  0  0  0  0  0  0  0  0  0  0  0
   -3.3762   -2.6444   -0.3912 H   0  0  0  0  0  0  0  0  0  0  0  0
   -1.5882   -2.1554    0.6658 C   0  0  0  0  0  0  0  0  0  0  0  0
   -0.6832   -2.8764    1.0638 O   0  0  0  0  0  0  0  0  0  0  0  0
   -1.3952   -0.9084    0.2428 N   0  0  0  0  0  0  0  0  0  0  0  0
   -2.1972   -0.3644   -0.0422 H   0  0  0  0  0  0  0  0  0  0  0  0
   -0.1122   -0.1994    0.2658 C   0  0  1  0  0  0  0  0  0  0  0  0
    0.5635   -0.7260    0.9446 H   0  0  0  0  0  0  0  0  0  0  0  0
    0.4924   -0.2204   -1.1558 C   0  0  0  0  0  0  0  0  0  0  0  0
   -0.2649    0.0986   -1.8710 H   0  0  0  0  0  0  0  0  0  0  0  0
    1.3245    0.4806   -1.2026 H   0  0  0  0  0  0  0  0  0  0  0  0
    0.9715   -1.5919   -1.6037 C   0  0  0  0  0  0  0  0  0  0  0  0
    1.5803   -2.3534   -0.8724 O   0  0  0  0  0  0  0  0  0  0  0  0
    0.7191   -1.9551   -2.8377 N   0  0  0  0  0  0  0  0  0  0  0  0
    1.0321   -2.8732   -3.1002 H   0  0  0  0  0  0  0  0  0  0  0  0
    0.2035   -1.3548   -3.4532 H   0  0  0  0  0  0  0  0  0  0  0  0
   -0.3126    1.2341    0.8050 C   0  0  0  0  0  0  0  0  0  0  0  0
   -0.0136    2.2012    0.1044 O   0  0  0  0  0  0  0  0  0  0  0  0
   -0.8035    1.3719    2.0404 N   0  0  0  0  0  0  0  0  0  0  0  0
   -0.9513    0.5227    2.5765 H   0  0  0  0  0  0  0  0  0  0  0  0
   -1.0630    2.6555    2.6899 C   0  0  0  0  0  0  0  0  0  0  0  0
   -1.7414    3.2493    2.0735 H   0  0  0  0  0  0  0  0  0  0  0  0
   -1.5146    2.4946    3.6698 H   0  0  0  0  0  0  0  0  0  0  0  0
   -0.1271    3.2039    2.8093 H   0  0  0  0  0  0  0  0  0  0  0  0
  5  6  2  0  0  0  0
  5  7  1  0  0  0  0
  2  3  1  0  0  0  0
  2  4  1  0  0  0  0
  2  5  1  0  0  0  0
  1  2  1  0  0  0  0
 19 20  2  0  0  0  0
 19 21  1  0  0  0  0
 16 17  1  0  0  0  0
 16 18  1  0  0  0  0
 14 15  2  0  0  0  0
 14 16  1  0  0  0  0
 11 12  1  0  0  0  0
 11 13  1  0  0  0  0
 11 14  1  0  0  0  0
  9 10  1  0  0  0  0
  9 11  1  0  0  0  0
  9 19  1  0  0  0  0
  7  8  1  0  0  0  0
  7  9  1  0  0  0  0
 23 24  1  0  0  0  0
 23 25  1  0  0  0  0
 23 26  1  0  0  0  0
 21 22  1  0  0  0  0
 21 23  1  0  0  0  0
M  END
$$$$
default_name
  -OEChem-01062215323D

 26 25  0     1  0  0  0  0  0999 V2000
   -3.0232   -3.6924    1.0038 H   0  0  0  0  0  0  0  0  0  0  0  0
   -3.0082   -2.6684    0.6318 C   0  0  0  0  0  0  0  0  0  0  0  0
   -3.6332   -2.0414    1.2658 H   0  0  0  0  0  0  0  0  0  0  0  0
   -3.3762   -2.6444   -0.3912 H   0  0  0  0  0  0  0  0  0  0  0  0
   -1.5882   -2.1554    0.6658 C   0  0  0  0  0  0  0  0  0  0  0  0
   -0.6832   -2.8764    1.0638 O   0  0  0  0  0  0  0  0  0  0  0  0
   -1.3952   -0.9084    0.2428 N   0  0  0  0  0  0  0  0  0  0  0  0
   -2.1972   -0.3644   -0.0422 H   0  0  0  0  0  0  0  0  0  0  0  0
   -0.1122   -0.1994    0.2658 C   0  0  1  0  0  0  0  0  0  0  0  0
    0.5635   -0.7260    0.9446 H   0  0  0  0  0  0  0  0  0  0  0  0
    0.4924   -0.2204   -1.1558 C   0  0  0  0  0  0  0  0  0  0  0  0
   -0.2649    0.0986   -1.8710 H   0  0  0  0  0  0  0  0  0  0  0  0
    1.3245    0.4806   -1.2026 H   0  0  0  0  0  0  0  0  0  0  0  0
    0.9715   -1.5919   -1.6037 C   0  0  0  0  0  0  0  0  0  0  0  0
    1.5803   -2.3534   -0.8724 O   0  0  0  0  0  0  0  0  0  0  0  0
    0.7191   -1.9551   -2.8377 N   0  0  0  0  0  0  0  0  0  0  0  0
    1.0321   -2.8732   -3.1002 H   0  0  0  0  0  0  0  0  0  0  0  0
    0.2035   -1.3548   -3.4532 H   0  0  0  0  0  0  0  0  0  0  0  0
   -0.3126    1.2341    0.8050 C   0  0  0  0  0  0  0  0  0  0  0  0
   -0.2822    2.1912    0.0313 O   0  0  0  0  0  0  0  0  0  0  0  0
   -0.5052    1.3840    2.1190 N   0  0  0  0  0  0  0  0  0  0  0  0
   -0.4399    0.5500    2.6939 H   0  0  0  0  0  0  0  0  0  0  0  0
   -0.7222    2.6681    2.7829 C   0  0  0  0  0  0  0  0  0  0  0  0
   -1.5811    3.1731    2.3355 H   0  0  0  0  0  0  0  0  0  0  0  0
   -0.9097    2.5128    3.8463 H   0  0  0  0  0  0  0  0  0  0  0  0
    0.1590    3.3001    2.6601 H   0  0  0  0  0  0  0  0  0  0  0  0
  5  6  2  0  0  0  0
  5  7  1  0  0  0  0
  2  3  1  0  0  0  0
  2  4  1  0  0  0  0
  2  5  1  0  0  0  0
  1  2  1  0  0  0  0
 19 20  2  0  0  0  0
 19 21  1  0  0  0  0
 16 17  1  0  0  0  0
 16 18  1  0  0  0  0
 14 15  2  0  0  0  0
 14 16  1  0  0  0  0
 11 12  1  0  0  0  0
 11 13  1  0  0  0  0
 11 14  1  0  0  0  0
  9 10  1  0  0  0  0
  9 11  1  0  0  0  0
  9 19  1  0  0  0  0
  7  8  1  0  0  0  0
  7  9  1  0  0  0  0
 23 24  1  0  0  0  0
 23 25  1  0  0  0  0
 23 26  1  0  0  0  0
 21 22  1  0  0  0  0
 21 23  1  0  0  0  0
M  END
$$$$
default_name
  -OEChem-01062215323D

 26 25  0     1  0  0  0  0  0999 V2000
   -3.0232   -3.6924    1.0038 H   0  0  0  0  0  0  0  0  0  0  0  0
   -3.0082   -2.6684    0.6318 C   0  0  0  0  0  0  0  0  0  0  0  0
   -3.6332   -2.0414    1.2658 H   0  0  0  0  0  0  0  0  0  0  0  0
   -3.3762   -2.6444   -0.3912 H   0  0  0  0  0  0  0  0  0  0  0  0
   -1.5882   -2.1554    0.6658 C   0  0  0  0  0  0  0  0  0  0  0  0
   -0.6832   -2.8764    1.0638 O   0  0  0  0  0  0  0  0  0  0  0  0
   -1.3952   -0.9084    0.2428 N   0  0  0  0  0  0  0  0  0  0  0  0
   -2.1972   -0.3644   -0.0422 H   0  0  0  0  0  0  0  0  0  0  0  0
   -0.1122   -0.1994    0.2658 C   0  0  1  0  0  0  0  0  0  0  0  0
    0.5635   -0.7260    0.9446 H   0  0  0  0  0  0  0  0  0  0  0  0
    0.4924   -0.2204   -1.1558 C   0  0  0  0  0  0  0  0  0  0  0  0
   -0.2649    0.0986   -1.8710 H   0  0  0  0  0  0  0  0  0  0  0  0
    1.3245    0.4806   -1.2026 H   0  0  0  0  0  0  0  0  0  0  0  0
    0.9715   -1.5919   -1.6037 C   0  0  0  0  0  0  0  0  0  0  0  0
    1.5803   -2.3534   -0.8724 O   0  0  0  0  0  0  0  0  0  0  0  0
    0.7191   -1.9551   -2.8377 N   0  0  0  0  0  0  0  0  0  0  0  0
    1.0321   -2.8732   -3.1002 H   0  0  0  0  0  0  0  0  0  0  0  0
    0.2035   -1.3548   -3.4532 H   0  0  0  0  0  0  0  0  0  0  0  0
   -0.3126    1.2341    0.8050 C   0  0  0  0  0  0  0  0  0  0  0  0
   -0.5582    2.1547    0.0255 O   0  0  0  0  0  0  0  0  0  0  0  0
   -0.1993    1.4253    2.1229 N   0  0  0  0  0  0  0  0  0  0  0  0
    0.0798    0.6266    2.6836 H   0  0  0  0  0  0  0  0  0  0  0  0
   -0.3719    2.7143    2.7904 C   0  0  0  0  0  0  0  0  0  0  0  0
   -1.3564    3.1229    2.5527 H   0  0  0  0  0  0  0  0  0  0  0  0
   -0.2846    2.5910    3.8708 H   0  0  0  0  0  0  0  0  0  0  0  0
    0.3908    3.4137    2.4441 H   0  0  0  0  0  0  0  0  0  0  0  0
  5  6  2  0  0  0  0
  5  7  1  0  0  0  0
  2  3  1  0  0  0  0
  2  4  1  0  0  0  0
  2  5  1  0  0  0  0
  1  2  1  0  0  0  0
 19 20  2  0  0  0  0
 19 21  1  0  0  0  0
 16 17  1  0  0  0  0
 16 18  1  0  0  0  0
 14 15  2  0  0  0  0
 14 16  1  0  0  0  0
 11 12  1  0  0  0  0
 11 13  1  0  0  0  0
 11 14  1  0  0  0  0
  9 10  1  0  0  0  0
  9 11  1  0  0  0  0
  9 19  1  0  0  0  0
  7  8  1  0  0  0  0
  7  9  1  0  0  0  0
 23 24  1  0  0  0  0
 23 25  1  0  0  0  0
 23 26  1  0  0  0  0
 21 22  1  0  0  0  0
 21 23  1  0  0  0  0
M  END
$$$$
default_name
  -OEChem-01062215323D

 26 25  0     1  0  0  0  0  0999 V2000
   -3.0232   -3.6924    1.0038 H   0  0  0  0  0  0  0  0  0  0  0  0
   -3.0082   -2.6684    0.6318 C   0  0  0  0  0  0  0  0  0  0  0  0
   -3.6332   -2.0414    1.2658 H   0  0  0  0  0  0  0  0  0  0  0  0
   -3.3762   -2.6444   -0.3912 H   0  0  0  0  0  0  0  0  0  0  0  0
   -1.5882   -2.1554    0.6658 C   0  0  0  0  0  0  0  0  0  0  0  0
   -0.6832   -2.8764    1.0638 O   0  0  0  0  0  0  0  0  0  0  0  0
   -1.3952   -0.9084    0.2428 N   0  0  0  0  0  0  0  0  0  0  0  0
   -2.1972   -0.3644   -0.0422 H   0  0  0  0  0  0  0  0  0  0  0  0
   -0.1122   -0.1994    0.2658 C   0  0  1  0  0  0  0  0  0  0  0  0
    0.5635   -0.7260    0.9446 H   0  0  0  0  0  0  0  0  0  0  0  0
    0.4924   -0.2204   -1.1558 C   0  0  0  0  0  0  0  0  0  0  0  0
   -0.2649    0.0986   -1.8710 H   0  0  0  0  0  0  0  0  0  0  0  0
    1.3245    0.4806   -1.2026 H   0  0  0  0  0  0  0  0  0  0  0  0
    0.9715   -1.5919   -1.6037 C   0  0  0  0  0  0  0  0  0  0  0  0
    1.5803   -2.3534   -0.8724 O   0  0  0  0  0  0  0  0  0  0  0  0
    0.7191   -1.9551   -2.8377 N   0  0  0  0  0  0  0  0  0  0  0  0
    1.0321   -2.8732   -3.1002 H   0  0  0  0  0  0  0  0  0  0  0  0
    0.2035   -1.3548   -3.4532 H   0  0  0  0  0  0  0  0  0  0  0  0
   -0.3126    1.2341    0.8050 C   0  0  0  0  0  0  0  0  0  0  0  0
   -0.8230    2.0944    0.0875 O   0  0  0  0  0  0  0  0  0  0  0  0
    0.0933    1.4930    2.0518 N   0  0  0  0  0  0  0  0  0  0  0  0
    0.5724    0.7471    2.5462 H   0  0  0  0  0  0  0  0  0  0  0  0
   -0.0359    2.7908    2.7120 C   0  0  0  0  0  0  0  0  0  0  0  0
   -1.0827    3.1019    2.7102 H   0  0  0  0  0  0  0  0  0  0  0  0
    0.3180    2.7237    3.7417 H   0  0  0  0  0  0  0  0  0  0  0  0
    0.5526    3.5372    2.1758 H   0  0  0  0  0  0  0  0  0  0  0  0
  5  6  2  0  0  0  0
  5  7  1  0  0  0  0
  2  3  1  0  0  0  0
  2  4  1  0  0  0  0
  2  5  1  0  0  0  0
  1  2  1  0  0  0  0
 19 20  2  0  0  0  0
 19 21  1  0  0  0  0
 16 17  1  0  0  0  0
 16 18  1  0  0  0  0
 14 15  2  0  0  0  0
 14 16  1  0  0  0  0
 11 12  1  0  0  0  0
 11 13  1  0  0  0  0
 11 14  1  0  0  0  0
  9 10  1  0  0  0  0
  9 11  1  0  0  0  0
  9 19  1  0  0  0  0
  7  8  1  0  0  0  0
  7  9  1  0  0  0  0
 23 24  1  0  0  0  0
 23 25  1  0  0  0  0
 23 26  1  0  0  0  0
 21 22  1  0  0  0  0
 21 23  1  0  0  0  0
M  END
$$$$
default_name
  -OEChem-01062215323D

 26 25  0     1  0  0  0  0  0999 V2000
   -3.0232   -3.6924    1.0038 H   0  0  0  0  0  0  0  0  0  0  0  0
   -3.0082   -2.6684    0.6318 C   0  0  0  0  0  0  0  0  0  0  0  0
   -3.6332   -2.0414    1.2658 H   0  0  0  0  0  0  0  0  0  0  0  0
   -3.3762   -2.6444   -0.3912 H   0  0  0  0  0  0  0  0  0  0  0  0
   -1.5882   -2.1554    0.6658 C   0  0  0  0  0  0  0  0  0  0  0  0
   -0.6832   -2.8764    1.0638 O   0  0  0  0  0  0  0  0  0  0  0  0
   -1.3952   -0.9084    0.2428 N   0  0  0  0  0  0  0  0  0  0  0  0
   -2.1972   -0.3644   -0.0422 H   0  0  0  0  0  0  0  0  0  0  0  0
   -0.1122   -0.1994    0.2658 C   0  0  1  0  0  0  0  0  0  0  0  0
    0.5635   -0.7260    0.9446 H   0  0  0  0  0  0  0  0  0  0  0  0
    0.4924   -0.2204   -1.1558 C   0  0  0  0  0  0  0  0  0  0  0  0
   -0.2649    0.0986   -1.8710 H   0  0  0  0  0  0  0  0  0  0  0  0
    1.3245    0.4806   -1.2026 H   0  0  0  0  0  0  0  0  0  0  0  0
    0.9715   -1.5919   -1.6037 C   0  0  0  0  0  0  0  0  0  0  0  0
    1.5803   -2.3534   -0.8724 O   0  0  0  0  0  0  0  0  0  0  0  0
    0.7191   -1.9551   -2.8377 N   0  0  0  0  0  0  0  0  0  0  0  0
    1.0321   -2.8732   -3.1002 H   0  0  0  0  0  0  0  0  0  0  0  0
    0.2035   -1.3548   -3.4532 H   0  0  0  0  0  0  0  0  0  0  0  0
   -0.3126    1.2341    0.8050 C   0  0  0  0  0  0  0  0  0  0  0  0
   -1.0584    2.0143    0.2129 O   0  0  0  0  0  0  0  0  0  0  0  0
    0.3529    1.5824    1.9105 N   0  0  0  0  0  0  0  0  0  0  0  0
    1.0043    0.9034    2.2912 H   0  0  0  0  0  0  0  0  0  0  0  0
    0.2630    2.8923    2.5530 C   0  0  0  0  0  0  0  0  0  0  0  0
   -0.7787    3.1116    2.7973 H   0  0  0  0  0  0  0  0  0  0  0  0
    0.8571    2.9021    3.4678 H   0  0  0  0  0  0  0  0  0  0  0  0
    0.6332    3.6621    1.8738 H   0  0  0  0  0  0  0  0  0  0  0  0
  5  6  2  0  0  0  0
  5  7  1  0  0  0  0
  2  3  1  0  0  0  0
  2  4  1  0  0  0  0
  2  5  1  0  0  0  0
  1  2  1  0  0  0  0
 19 20  2  0  0  0  0
 19 21  1  0  0  0  0
 16 17  1  0  0  0  0
 16 18  1  0  0  0  0
 14 15  2  0  0  0  0
 14 16  1  0  0  0  0
 11 12  1  0  0  0  0
 11 13  1  0  0  0  0
 11 14  1  0  0  0  0
  9 10  1  0  0  0  0
  9 11  1  0  0  0  0
  9 19  1  0  0  0  0
  7  8  1  0  0  0  0
  7  9  1  0  0  0  0
 23 24  1  0  0  0  0
 23 25  1  0  0  0  0
 23 26  1  0  0  0  0
 21 22  1  0  0  0  0
 21 23  1  0  0  0  0
M  END
$$$$
default_name
  -OEChem-01062215323D

 26 25  0     1  0  0  0  0  0999 V2000
   -3.0232   -3.6924    1.0038 H   0  0  0  0  0  0  0  0  0  0  0  0
   -3.0082   -2.6684    0.6318 C   0  0  0  0  0  0  0  0  0  0  0  0
   -3.6332   -2.0414    1.2658 H   0  0  0  0  0  0  0  0  0  0  0  0
   -3.3762   -2.6444   -0.3912 H   0  0  0  0  0  0  0  0  0  0  0  0
   -1.5882   -2.1554    0.6658 C   0  0  0  0  0  0  0  0  0  0  0  0
   -0.6832   -2.8764    1.0638 O   0  0  0  0  0  0  0  0  0  0  0  0
   -1.3952   -0.9084    0.2428 N   0  0  0  0  0  0  0  0  0  0  0  0
   -2.1972   -0.3644   -0.0422 H   0  0  0  0  0  0  0  0  0  0  0  0
   -0.1122   -0.1994    0.2658 C   0  0  1  0  0  0  0  0  0  0  0  0
    0.5635   -0.7260    0.9446 H   0  0  0  0  0  0  0  0  0  0  0  0
    0.4924   -0.2204   -1.1558 C   0  0  0  0  0  0  0  0  0  0  0  0
   -0.2649    0.0986   -1.8710 H   0  0  0  0  0  0  0  0  0  0  0  0
    1.3245    0.4806   -1.2026 H   0  0  0  0  0  0  0  0  0  0  0  0
    0.9715   -1.5919   -1.6037 C   0  0  0  0  0  0  0  0  0  0  0  0
    1.5803   -2.3534   -0.8724 O   0  0  0  0  0  0  0  0  0  0  0  0
    0.7191   -1.9551   -2.8377 N   0  0  0  0  0  0  0  0  0  0  0  0
    1.0321   -2.8732   -3.1002 H   0  0  0  0  0  0  0  0  0  0  0  0
    0.2035   -1.3548   -3.4532 H   0  0  0  0  0  0  0  0  0  0  0  0
   -0.3126    1.2341    0.8050 C   0  0  0  0  0  0  0  0  0  0  0  0
   -1.2484    1.9199    0.3934 O   0  0  0  0  0  0  0  0  0  0  0  0
    0.5615    1.6875    1.7087 N   0  0  0  0  0  0  0  0  0  0  0  0
    1.3461    1.0849    1.9358 H   0  0  0  0  0  0  0  0  0  0  0  0
    0.5043    3.0121    2.3242 C   0  0  0  0  0  0  0  0  0  0  0  0
   -0.4649    3.1514    2.8080 H   0  0  0  0  0  0  0  0  0  0  0  0
    1.2959    3.1139    3.0678 H   0  0  0  0  0  0  0  0  0  0  0  0
    0.6273    3.7799    1.5584 H   0  0  0  0  0  0  0  0  0  0  0  0
  5  6  2  0  0  0  0
  5  7  1  0  0  0  0
  2  3  1  0  0  0  0
  2  4  1  0  0  0  0
  2  5  1  0  0  0  0
  1  2  1  0  0  0  0
 19 20  2  0  0  0  0
 19 21  1  0  0  0  0
 16 17  1  0  0  0  0
 16 18  1  0  0  0  0
 14 15  2  0  0  0  0
 14 16  1  0  0  0  0
 11 12  1  0  0  0  0
 11 13  1  0  0  0  0
 11 14  1  0  0  0  0
  9 10  1  0  0  0  0
  9 11  1  0  0  0  0
  9 19  1  0  0  0  0
  7  8  1  0  0  0  0
  7  9  1  0  0  0  0
 23 24  1  0  0  0  0
 23 25  1  0  0  0  0
 23 26  1  0  0  0  0
 21 22  1  0  0  0  0
 21 23  1  0  0  0  0
M  END
$$$$
default_name
  -OEChem-01062215323D

 26 25  0     1  0  0  0  0  0999 V2000
   -3.0232   -3.6924    1.0038 H   0  0  0  0  0  0  0  0  0  0  0  0
   -3.0082   -2.6684    0.6318 C   0  0  0  0  0  0  0  0  0  0  0  0
   -3.6332   -2.0414    1.2658 H   0  0  0  0  0  0  0  0  0  0  0  0
   -3.3762   -2.6444   -0.3912 H   0  0  0  0  0  0  0  0  0  0  0  0
   -1.5882   -2.1554    0.6658 C   0  0  0  0  0  0  0  0  0  0  0  0
   -0.6832   -2.8764    1.0638 O   0  0  0  0  0  0  0  0  0  0  0  0
   -1.3952   -0.9084    0.2428 N   0  0  0  0  0  0  0  0  0  0  0  0
   -2.1972   -0.3644   -0.0422 H   0  0  0  0  0  0  0  0  0  0  0  0
   -0.1122   -0.1994    0.2658 C   0  0  1  0  0  0  0  0  0  0  0  0
    0.5635   -0.7260    0.9446 H   0  0  0  0  0  0  0  0  0  0  0  0
    0.4924   -0.2204   -1.1558 C   0  0  0  0  0  0  0  0  0  0  0  0
   -0.2649    0.0986   -1.8710 H   0  0  0  0  0  0  0  0  0  0  0  0
    1.3245    0.4806   -1.2026 H   0  0  0  0  0  0  0  0  0  0  0  0
    0.9715   -1.5919   -1.6037 C   0  0  0  0  0  0  0  0  0  0  0  0
    1.5803   -2.3534   -0.8724 O   0  0  0  0  0  0  0  0  0  0  0  0
    0.7191   -1.9551   -2.8377 N   0  0  0  0  0  0  0  0  0  0  0  0
    1.0321   -2.8732   -3.1002 H   0  0  0  0  0  0  0  0  0  0  0  0
    0.2035   -1.3548   -3.4532 H   0  0  0  0  0  0  0  0  0  0  0  0
   -0.3126    1.2341    0.8050 C   0  0  0  0  0  0  0  0  0  0  0  0
   -1.3800    1.8176    0.6165 O   0  0  0  0  0  0  0  0  0  0  0  0
    0.7051    1.8010    1.4602 N   0  0  0  0  0  0  0  0  0  0  0  0
    1.5745    1.2791    1.5043 H   0  0  0  0  0  0  0  0  0  0  0  0
    0.6715    3.1420    2.0412 C   0  0  0  0  0  0  0  0  0  0  0  0
   -0.1628    3.2186    2.7417 H   0  0  0  0  0  0  0  0  0  0  0  0
    1.6045    3.3447    2.5689 H   0  0  0  0  0  0  0  0  0  0  0  0
    0.5352    3.8825    1.2513 H   0  0  0  0  0  0  0  0  0  0  0  0
  5  6  2  0  0  0  0
  5  7  1  0  0  0  0
  2  3  1  0  0  0  0
  2  4  1  0  0  0  0
  2  5  1  0  0  0  0
  1  2  1  0  0  0  0
 19 20  2  0  0  0  0
 19 21  1  0  0  0  0
 16 17  1  0  0  0  0
 16 18  1  0  0  0  0
 14 15  2  0  0  0  0
 14 16  1  0  0  0  0
 11 12  1  0  0  0  0
 11 13  1  0  0  0  0
 11 14  1  0  0  0  0
  9 10  1  0  0  0  0
  9 11  1  0  0  0  0
  9 19  1  0  0  0  0
  7  8  1  0  0  0  0
  7  9  1  0  0  0  0
 23 24  1  0  0  0  0
 23 25  1  0  0  0  0
 23 26  1  0  0  0  0
 21 22  1  0  0  0  0
 21 23  1  0  0  0  0
M  END
$$$$
default_name
  -OEChem-01062215323D

 26 25  0     1  0  0  0  0  0999 V2000
   -3.0232   -3.6924    1.0038 H   0  0  0  0  0  0  0  0  0  0  0  0
   -3.0082   -2.6684    0.6318 C   0  0  0  0  0  0  0  0  0  0  0  0
   -3.6332   -2.0414    1.2658 H   0  0  0  0  0  0  0  0  0  0  0  0
   -3.3762   -2.6444   -0.3912 H   0  0  0  0  0  0  0  0  0  0  0  0
   -1.5882   -2.1554    0.6658 C   0  0  0  0  0  0  0  0  0  0  0  0
   -0.6832   -2.8764    1.0638 O   0  0  0  0  0  0  0  0  0  0  0  0
   -1.3952   -0.9084    0.2428 N   0  0  0  0  0  0  0  0  0  0  0  0
   -2.1972   -0.3644   -0.0422 H   0  0  0  0  0  0  0  0  0  0  0  0
   -0.1122   -0.1994    0.2658 C   0  0  1  0  0  0  0  0  0  0  0  0
    0.5635   -0.7260    0.9446 H   0  0  0  0  0  0  0  0  0  0  0  0
    0.4924   -0.2204   -1.1558 C   0  0  0  0  0  0  0  0  0  0  0  0
   -0.2649    0.0986   -1.8710 H   0  0  0  0  0  0  0  0  0  0  0  0
    1.3245    0.4806   -1.2026 H   0  0  0  0  0  0  0  0  0  0  0  0
    0.9715   -1.5919   -1.6037 C   0  0  0  0  0  0  0  0  0  0  0  0
    1.5803   -2.3534   -0.8724 O   0  0  0  0  0  0  0  0  0  0  0  0
    0.7191   -1.9551   -2.8377 N   0  0  0  0  0  0  0  0  0  0  0  0
    1.0321   -2.8732   -3.1002 H   0  0  0  0  0  0  0  0  0  0  0  0
    0.2035   -1.3548   -3.4532 H   0  0  0  0  0  0  0  0  0  0  0  0
   -0.3126    1.2341    0.8050 C   0  0  0  0  0  0  0  0  0  0  0  0
   -1.4444    1.7144    0.8670 O   0  0  0  0  0  0  0  0  0  0  0  0
    0.7738    1.9153    1.1818 N   0  0  0  0  0  0  0  0  0  0  0  0
    1.6740    1.4728    1.0262 H   0  0  0  0  0  0  0  0  0  0  0  0
    0.7534    3.2730    1.7233 C   0  0  0  0  0  0  0  0  0  0  0  0
    0.1069    3.3086    2.6028 H   0  0  0  0  0  0  0  0  0  0  0  0
    1.7619    3.5787    2.0051 H   0  0  0  0  0  0  0  0  0  0  0  0
    0.3632    3.9630    0.9733 H   0  0  0  0  0  0  0  0  0  0  0  0
  5  6  2  0  0  0  0
  5  7  1  0  0  0  0
  2  3  1  0  0  0  0
  2  4  1  0  0  0  0
  2  5  1  0  0  0  0
  1  2  1  0  0  0  0
 19 20  2  0  0  0  0
 19 21  1  0  0  0  0
 16 17  1  0  0  0  0
 16 18  1  0  0  0  0
 14 15  2  0  0  0  0
 14 16  1  0  0  0  0
 11 12  1  0  0  0  0
 11 13  1  0  0  0  0
 11 14  1  0  0  0  0
  9 10  1  0  0  0  0
  9 11  1  0  0  0  0
  9 19  1  0  0  0  0
  7  8  1  0  0  0  0
  7  9  1  0  0  0  0
 23 24  1  0  0  0  0
 23 25  1  0  0  0  0
 23 26  1  0  0  0  0
 21 22  1  0  0  0  0
 21 23  1  0  0  0  0
M  END
$$$$
default_name
  -OEChem-01062215323D

 26 25  0     1  0  0  0  0  0999 V2000
   -3.0232   -3.6924    1.0038 H   0  0  0  0  0  0  0  0  0  0  0  0
   -3.0082   -2.6684    0.6318 C   0  0  0  0  0  0  0  0  0  0  0  0
   -3.6332   -2.0414    1.2658 H   0  0  0  0  0  0  0  0  0  0  0  0
   -3.3762   -2.6444   -0.3912 H   0  0  0  0  0  0  0  0  0  0  0  0
   -1.5882   -2.1554    0.6658 C   0  0  0  0  0  0  0  0  0  0  0  0
   -0.6832   -2.8764    1.0638 O   0  0  0  0  0  0  0  0  0  0  0  0
   -1.3952   -0.9084    0.2428 N   0  0  0  0  0  0  0  0  0  0  0  0
   -2.1972   -0.3644   -0.0422 H   0  0  0  0  0  0  0  0  0  0  0  0
   -0.1122   -0.1994    0.2658 C   0  0  1  0  0  0  0  0  0  0  0  0
    0.6380   -0.8533    0.7178 H   0  0  0  0  0  0  0  0  0  0  0  0
    0.3088    0.1129   -1.1876 C   0  0  0  0  0  0  0  0  0  0  0  0
   -0.5290    0.5715   -1.7116 H   0  0  0  0  0  0  0  0  0  0  0  0
    1.1356    0.8216   -1.1775 H   0  0  0  0  0  0  0  0  0  0  0  0
    0.7135   -1.1126   -1.9909 C   0  0  0  0  0  0  0  0  0  0  0  0
    1.4014   -2.0084   -1.5331 O   0  0  0  0  0  0  0  0  0  0  0  0
    0.3044   -1.1918   -3.2338 N   0  0  0  0  0  0  0  0  0  0  0  0
    0.5724   -2.0207   -3.7345 H   0  0  0  0  0  0  0  0  0  0  0  0
   -0.2782   -0.4774   -3.6278 H   0  0  0  0  0  0  0  0  0  0  0  0
   -0.2284    1.0710    1.1367 C   0  0  0  0  0  0  0  0  0  0  0  0
   -1.2993    1.3503    1.6757 O   0  0  0  0  0  0  0  0  0  0  0  0
    0.8578    1.8390    1.2659 N   0  0  0  0  0  0  0  0  0  0  0  0
    1.6766    1.5762    0.7266 H   0  0  0  0  0  0  0  0  0  0  0  0
    0.9162    3.0634    2.0623 C   0  0  0  0  0  0  0  0  0  0  0  0
    0.6282    2.8458    3.0931 H   0  0  0  0  0  0  0  0  0  0  0  0
    1.9283    3.4703    2.0495 H   0  0  0  0  0  0  0  0  0  0  0  0
    0.2248    3.8022    1.6537 H   0  0  0  0  0  0  0  0  0  0  0  0
  5  6  2  0  0  0  0
  5  7  1  0  0  0  0
  2  3  1  0  0  0  0
  2  4  1  0  0  0  0
  2  5  1  0  0  0  0
  1  2  1  0  0  0  0
 19 20  2  0  0  0  0
 19 21  1  0  0  0  0
 16 17  1  0  0  0  0
 16 18  1  0  0  0  0
 14 15  2  0  0  0  0
 14 16  1  0  0  0  0
 11 12  1  0  0  0  0
 11 13  1  0  0  0  0
 11 14  1  0  0  0  0
  9 10  1  0  0  0  0
  9 11  1  0  0  0  0
  9 19  1  0  0  0  0
  7  8  1  0  0  0  0
  7  9  1  0  0  0  0
 23 24  1  0  0  0  0
 23 25  1  0  0  0  0
 23 26  1  0  0  0  0
 21 22  1  0  0  0  0
 21 23  1  0  0  0  0
M  END
$$$$
default_name
  -OEChem-01062215323D

 26 25  0     1  0  0  0  0  0999 V2000
   -3.0232   -3.6924    1.0038 H   0  0  0  0  0  0  0  0  0  0  0  0
   -3.0082   -2.6684    0.6318 C   0  0  0  0  0  0  0  0  0  0  0  0
   -3.6332   -2.0414    1.2658 H   0  0  0  0  0  0  0  0  0  0  0  0
   -3.3762   -2.6444   -0.3912 H   0  0  0  0  0  0  0  0  0  0  0  0
   -1.5882   -2.1554    0.6658 C   0  0  0  0  0  0  0  0  0  0  0  0
   -0.6832   -2.8764    1.0638 O   0  0  0  0  0  0  0  0  0  0  0  0
   -1.3952   -0.9084    0.2428 N   0  0  0  0  0  0  0  0  0  0  0  0
   -2.1972   -0.3644   -0.0422 H   0  0  0  0  0  0  0  0  0  0  0  0
   -0.1122   -0.1994    0.2658 C   0  0  1  0  0  0  0  0  0  0  0  0
    0.6380   -0.8533    0.7178 H   0  0  0  0  0  0  0  0  0  0  0  0
    0.3088    0.1129   -1.1876 C   0  0  0  0  0  0  0  0  0  0  0  0
   -0.5290    0.5715   -1.7116 H   0  0  0  0  0  0  0  0  0  0  0  0
    1.1356    0.8216   -1.1775 H   0  0  0  0  0  0  0  0  0  0  0  0
    0.7135   -1.1126   -1.9909 C   0  0  0  0  0  0  0  0  0  0  0  0
    1.4014   -2.0084   -1.5331 O   0  0  0  0  0  0  0  0  0  0  0  0
    0.3044   -1.1918   -3.2338 N   0  0  0  0  0  0  0  0  0  0  0  0
    0.5724   -2.0207   -3.7345 H   0  0  0  0  0  0  0  0  0  0  0  0
   -0.2782   -0.4774   -3.6278 H   0  0  0  0  0  0  0  0  0  0  0  0
   -0.2284    1.0710    1.1367 C   0  0  0  0  0  0  0  0  0  0  0  0
   -1.1904    1.2122    1.8917 O   0  0  0  0  0  0  0  0  0  0  0  0
    0.7346    1.9913    1.0273 N   0  0  0  0  0  0  0  0  0  0  0  0
    1.4506    1.8301    0.3260 H   0  0  0  0  0  0  0  0  0  0  0  0
    0.7782    3.2387    1.7882 C   0  0  0  0  0  0  0  0  0  0  0  0
    0.7501    3.0185    2.8576 H   0  0  0  0  0  0  0  0  0  0  0  0
    1.6930    3.7862    1.5573 H   0  0  0  0  0  0  0  0  0  0  0  0
   -0.0856    3.8555    1.5346 H   0  0  0  0  0  0  0  0  0  0  0  0
  5  6  2  0  0  0  0
  5  7  1  0  0  0  0
  2  3  1  0  0  0  0
  2  4  1  0  0  0  0
  2  5  1  0  0  0  0
  1  2  1  0  0  0  0
 19 20  2  0  0  0  0
 19 21  1  0  0  0  0
 16 17  1  0  0  0  0
 16 18  1  0  0  0  0
 14 15  2  0  0  0  0
 14 16  1  0  0  0  0
 11 12  1  0  0  0  0
 11 13  1  0  0  0  0
 11 14  1  0  0  0  0
  9 10  1  0  0  0  0
  9 11  1  0  0  0  0
  9 19  1  0  0  0  0
  7  8  1  0  0  0  0
  7  9  1  0  0  0  0
 23 24  1  0  0  0  0
 23 25  1  0  0  0  0
 23 26  1  0  0  0  0
 21 22  1  0  0  0  0
 21 23  1  0  0  0  0
M  END
$$$$
default_name
  -OEChem-01062215323D

 26 25  0     1  0  0  0  0  0999 V2000
   -3.0232   -3.6924    1.0038 H   0  0  0  0  0  0  0  0  0  0  0  0
   -3.0082   -2.6684    0.6318 C   0  0  0  0  0  0  0  0  0  0  0  0
   -3.6332   -2.0414    1.2658 H   0  0  0  0  0  0  0  0  0  0  0  0
   -3.3762   -2.6444   -0.3912 H   0  0  0  0  0  0  0  0  0  0  0  0
   -1.5882   -2.1554    0.6658 C   0  0  0  0  0  0  0  0  0  0  0  0
   -0.6832   -2.8764    1.0638 O   0  0  0  0  0  0  0  0  0  0  0  0
   -1.3952   -0.9084    0.2428 N   0  0  0  0  0  0  0  0  0  0  0  0
   -2.1972   -0.3644   -0.0422 H   0  0  0  0  0  0  0  0  0  0  0  0
   -0.1122   -0.1994    0.2658 C   0  0  1  0  0  0  0  0  0  0  0  0
    0.6380   -0.8533    0.7178 H   0  0  0  0  0  0  0  0  0  0  0  0
    0.3088    0.1129   -1.1876 C   0  0  0  0  0  0  0  0  0  0  0  0
   -0.5290    0.5715   -1.7116 H   0  0  0  0  0  0  0  0  0  0  0  0
    1.1356    0.8216   -1.1775 H   0  0  0  0  0  0  0  0  0  0  0  0
    0.7135   -1.1126   -1.9909 C   0  0  0  0  0  0  0  0  0  0  0  0
    1.4014   -2.0084   -1.5331 O   0  0  0  0  0  0  0  0  0  0  0  0
    0.3044   -1.1918   -3.2338 N   0  0  0  0  0  0  0  0  0  0  0  0
    0.5724   -2.0207   -3.7345 H   0  0  0  0  0  0  0  0  0  0  0  0
   -0.2782   -0.4774   -3.6278 H   0  0  0  0  0  0  0  0  0  0  0  0
   -0.2284    1.0710    1.1367 C   0  0  0  0  0  0  0  0  0  0  0  0
   -1.0191    1.0989    2.0798 O   0  0  0  0  0  0  0  0  0  0  0  0
    0.5426    2.1158    0.8201 N   0  0  0  0  0  0  0  0  0  0  0  0
    1.1099    2.0346   -0.0177 H   0  0  0  0  0  0  0  0  0  0  0  0
    0.5610    3.3825    1.5494 C   0  0  0  0  0  0  0  0  0  0  0  0
    0.7925    3.1984    2.6007 H   0  0  0  0  0  0  0  0  0  0  0  0
    1.3149    4.0474    1.1258 H   0  0  0  0  0  0  0  0  0  0  0  0
   -0.4185    3.8594    1.4845 H   0  0  0  0  0  0  0  0  0  0  0  0
  5  6  2  0  0  0  0
  5  7  1  0  0  0  0
  2  3  1  0  0  0  0
  2  4  1  0  0  0  0
  2  5  1  0  0  0  0
  1  2  1  0  0  0  0
 19 20  2  0  0  0  0
 19 21  1  0  0  0  0
 16 17  1  0  0  0  0
 16 18  1  0  0  0  0
 14 15  2  0  0  0  0
 14 16  1  0  0  0  0
 11 12  1  0  0  0  0
 11 13  1  0  0  0  0
 11 14  1  0  0  0  0
  9 10  1  0  0  0  0
  9 11  1  0  0  0  0
  9 19  1  0  0  0  0
  7  8  1  0  0  0  0
  7  9  1  0  0  0  0
 23 24  1  0  0  0  0
 23 25  1  0  0  0  0
 23 26  1  0  0  0  0
 21 22  1  0  0  0  0
 21 23  1  0  0  0  0
M  END
$$$$
default_name
  -OEChem-01062215323D

 26 25  0     1  0  0  0  0  0999 V2000
   -3.0232   -3.6924    1.0038 H   0  0  0  0  0  0  0  0  0  0  0  0
   -3.0082   -2.6684    0.6318 C   0  0  0  0  0  0  0  0  0  0  0  0
   -3.6332   -2.0414    1.2658 H   0  0  0  0  0  0  0  0  0  0  0  0
   -3.3762   -2.6444   -0.3912 H   0  0  0  0  0  0  0  0  0  0  0  0
   -1.5882   -2.1554    0.6658 C   0  0  0  0  0  0  0  0  0  0  0  0
   -0.6832   -2.8764    1.0638 O   0  0  0  0  0  0  0  0  0  0  0  0
   -1.3952   -0.9084    0.2428 N   0  0  0  0  0  0  0  0  0  0  0  0
   -2.1972   -0.3644   -0.0422 H   0  0  0  0  0  0  0  0  0  0  0  0
   -0.1122   -0.1994    0.2658 C   0  0  1  0  0  0  0  0  0  0  0  0
    0.6380   -0.8533    0.7178 H   0  0  0  0  0  0  0  0  0  0  0  0
    0.3088    0.1129   -1.1876 C   0  0  0  0  0  0  0  0  0  0  0  0
   -0.5290    0.5715   -1.7116 H   0  0  0  0  0  0  0  0  0  0  0  0
    1.1356    0.8216   -1.1775 H   0  0  0  0  0  0  0  0  0  0  0  0
    0.7135   -1.1126   -1.9909 C   0  0  0  0  0  0  0  0  0  0  0  0
    1.4014   -2.0084   -1.5331 O   0  0  0  0  0  0  0  0  0  0  0  0
    0.3044   -1.1918   -3.2338 N   0  0  0  0  0  0  0  0  0  0  0  0
    0.5724   -2.0207   -3.7345 H   0  0  0  0  0  0  0  0  0  0  0  0
   -0.2782   -0.4774   -3.6278 H   0  0  0  0  0  0  0  0  0  0  0  0
   -0.2284    1.0710    1.1367 C   0  0  0  0  0  0  0  0  0  0  0  0
   -0.7970    1.0182    2.2272 O   0  0  0  0  0  0  0  0  0  0  0  0
    0.2949    2.2040    0.6584 N   0  0  0  0  0  0  0  0  0  0  0  0
    0.6779    2.1758   -0.2813 H   0  0  0  0  0  0  0  0  0  0  0  0
    0.2793    3.4851    1.3621 C   0  0  0  0  0  0  0  0  0  0  0  0
    0.7525    3.3734    2.3401 H   0  0  0  0  0  0  0  0  0  0  0  0
    0.8197    4.2362    0.7844 H   0  0  0  0  0  0  0  0  0  0  0  0
   -0.7513    3.8135    1.5069 H   0  0  0  0  0  0  0  0  0  0  0  0
  5  6  2  0  0  0  0
  5  7  1  0  0  0  0
  2  3  1  0  0  0  0
  2  4  1  0  0  0  0
  2  5  1  0  0  0  0
  1  2  1  0  0  0  0
 19 20  2  0  0  0  0
 19 21  1  0  0  0  0
 16 17  1  0  0  0  0
 16 18  1  0  0  0  0
 14 15  2  0  0  0  0
 14 16  1  0  0  0  0
 11 12  1  0  0  0  0
 11 13  1  0  0  0  0
 11 14  1  0  0  0  0
  9 10  1  0  0  0  0
  9 11  1  0  0  0  0
  9 19  1  0  0  0  0
  7  8  1  0  0  0  0
  7  9  1  0  0  0  0
 23 24  1  0  0  0  0
 23 25  1  0  0  0  0
 23 26  1  0  0  0  0
 21 22  1  0  0  0  0
 21 23  1  0  0  0  0
M  END
$$$$
default_name
  -OEChem-01062215323D

 26 25  0     1  0  0  0  0  0999 V2000
   -3.0232   -3.6924    1.0038 H   0  0  0  0  0  0  0  0  0  0  0  0
   -3.0082   -2.6684    0.6318 C   0  0  0  0  0  0  0  0  0  0  0  0
   -3.6332   -2.0414    1.2658 H   0  0  0  0  0  0  0  0  0  0  0  0
   -3.3762   -2.6444   -0.3912 H   0  0  0  0  0  0  0  0  0  0  0  0
   -1.5882   -2.1554    0.6658 C   0  0  0  0  0  0  0  0  0  0  0  0
   -0.6832   -2.8764    1.0638 O   0  0  0  0  0  0  0  0  0  0  0  0
   -1.3952   -0.9084    0.2428 N   0  0  0  0  0  0  0  0  0  0  0  0
   -2.1972   -0.3644   -0.0422 H   0  0  0  0  0  0  0  0  0  0  0  0
   -0.1122   -0.1994    0.2658 C   0  0  1  0  0  0  0  0  0  0  0  0
    0.6380   -0.8533    0.7178 H   0  0  0  0  0  0  0  0  0  0  0  0
    0.3088    0.1129   -1.1876 C   0  0  0  0  0  0  0  0  0  0  0  0
   -0.5290    0.5715   -1.7116 H   0  0  0  0  0  0  0  0  0  0  0  0
    1.1356    0.8216   -1.1775 H   0  0  0  0  0  0  0  0  0  0  0  0
    0.7135   -1.1126   -1.9909 C   0  0  0  0  0  0  0  0  0  0  0  0
    1.4014   -2.0084   -1.5331 O   0  0  0  0  0  0  0  0  0  0  0  0
    0.3044   -1.1918   -3.2338 N   0  0  0  0  0  0  0  0  0  0  0  0
    0.5724   -2.0207   -3.7345 H   0  0  0  0  0  0  0  0  0  0  0  0
   -0.2782   -0.4774   -3.6278 H   0  0  0  0  0  0  0  0  0  0  0  0
   -0.2284    1.0710    1.1367 C   0  0  0  0  0  0  0  0  0  0  0  0
   -0.5393    0.9754    2.3240 O   0  0  0  0  0  0  0  0  0  0  0  0
    0.0083    2.2499    0.5532 N   0  0  0  0  0  0  0  0  0  0  0  0
    0.1838    2.2439   -0.4466 H   0  0  0  0  0  0  0  0  0  0  0  0
   -0.0476    3.5395    1.2392 C   0  0  0  0  0  0  0  0  0  0  0  0
    0.6329    3.5315    2.0934 H   0  0  0  0  0  0  0  0  0  0  0  0
    0.2412    4.3396    0.5563 H   0  0  0  0  0  0  0  0  0  0  0  0
   -1.0613    3.7212    1.6003 H   0  0  0  0  0  0  0  0  0  0  0  0
  5  6  2  0  0  0  0
  5  7  1  0  0  0  0
  2  3  1  0  0  0  0
  2  4  1  0  0  0  0
  2  5  1  0  0  0  0
  1  2  1  0  0  0  0
 19 20  2  0  0  0  0
 19 21  1  0  0  0  0
 16 17  1  0  0  0  0
 16 18  1  0  0  0  0
 14 15  2  0  0  0  0
 14 16  1  0  0  0  0
 11 12  1  0  0  0  0
 11 13  1  0  0  0  0
 11 14  1  0  0  0  0
  9 10  1  0  0  0  0
  9 11  1  0  0  0  0
  9 19  1  0  0  0  0
  7  8  1  0  0  0  0
  7  9  1  0  0  0  0
 23 24  1  0  0  0  0
 23 25  1  0  0  0  0
 23 26  1  0  0  0  0
 21 22  1  0  0  0  0
 21 23  1  0  0  0  0
M  END
$$$$
default_name
  -OEChem-01062215323D

 26 25  0     1  0  0  0  0  0999 V2000
   -3.0232   -3.6924    1.0038 H   0  0  0  0  0  0  0  0  0  0  0  0
   -3.0082   -2.6684    0.6318 C   0  0  0  0  0  0  0  0  0  0  0  0
   -3.6332   -2.0414    1.2658 H   0  0  0  0  0  0  0  0  0  0  0  0
   -3.3762   -2.6444   -0.3912 H   0  0  0  0  0  0  0  0  0  0  0  0
   -1.5882   -2.1554    0.6658 C   0  0  0  0  0  0  0  0  0  0  0  0
   -0.6832   -2.8764    1.0638 O   0  0  0  0  0  0  0  0  0  0  0  0
   -1.3952   -0.9084    0.2428 N   0  0  0  0  0  0  0  0  0  0  0  0
   -2.1972   -0.3644   -0.0422 H   0  0  0  0  0  0  0  0  0  0  0  0
   -0.1122   -0.1994    0.2658 C   0  0  1  0  0  0  0  0  0  0  0  0
    0.6380   -0.8533    0.7178 H   0  0  0  0  0  0  0  0  0  0  0  0
    0.3088    0.1129   -1.1876 C   0  0  0  0  0  0  0  0  0  0  0  0
   -0.5290    0.5715   -1.7116 H   0  0  0  0  0  0  0  0  0  0  0  0
    1.1356    0.8216   -1.1775 H   0  0  0  0  0  0  0  0  0  0  0  0
    0.7135   -1.1126   -1.9909 C   0  0  0  0  0  0  0  0  0  0  0  0
    1.4014   -2.0084   -1.5331 O   0  0  0  0  0  0  0  0  0  0  0  0
    0.3044   -1.1918   -3.2338 N   0  0  0  0  0  0  0  0  0  0  0  0
    0.5724   -2.0207   -3.7345 H   0  0  0  0  0  0  0  0  0  0  0  0
   -0.2782   -0.4774   -3.6278 H   0  0  0  0  0  0  0  0  0  0  0  0
   -0.2284    1.0710    1.1367 C   0  0  0  0  0  0  0  0  0  0  0  0
   -0.2636    0.9736    2.3634 O   0  0  0  0  0  0  0  0  0  0  0  0
   -0.2976    2.2504    0.5117 N   0  0  0  0  0  0  0  0  0  0  0  0
   -0.3385    2.2344   -0.5024 H   0  0  0  0  0  0  0  0  0  0  0  0
   -0.3974    3.5419    1.1891 C   0  0  0  0  0  0  0  0  0  0  0  0
    0.4418    3.6620    1.8776 H   0  0  0  0  0  0  0  0  0  0  0  0
   -0.3813    4.3506    0.4572 H   0  0  0  0  0  0  0  0  0  0  0  0
   -1.3273    3.5885    1.7583 H   0  0  0  0  0  0  0  0  0  0  0  0
  5  6  2  0  0  0  0
  5  7  1  0  0  0  0
  2  3  1  0  0  0  0
  2  4  1  0  0  0  0
  2  5  1  0  0  0  0
  1  2  1  0  0  0  0
 19 20  2  0  0  0  0
 19 21  1  0  0  0  0
 16 17  1  0  0  0  0
 16 18  1  0  0  0  0
 14 15  2  0  0  0  0
 14 16  1  0  0  0  0
 11 12  1  0  0  0  0
 11 13  1  0  0  0  0
 11 14  1  0  0  0  0
  9 10  1  0  0  0  0
  9 11  1  0  0  0  0
  9 19  1  0  0  0  0
  7  8  1  0  0  0  0
  7  9  1  0  0  0  0
 23 24  1  0  0  0  0
 23 25  1  0  0  0  0
 23 26  1  0  0  0  0
 21 22  1  0  0  0  0
 21 23  1  0  0  0  0
M  END
$$$$
default_name
  -OEChem-01062215323D

 26 25  0     1  0  0  0  0  0999 V2000
   -3.0232   -3.6924    1.0038 H   0  0  0  0  0  0  0  0  0  0  0  0
   -3.0082   -2.6684    0.6318 C   0  0  0  0  0  0  0  0  0  0  0  0
   -3.6332   -2.0414    1.2658 H   0  0  0  0  0  0  0  0  0  0  0  0
   -3.3762   -2.6444   -0.3912 H   0  0  0  0  0  0  0  0  0  0  0  0
   -1.5882   -2.1554    0.6658 C   0  0  0  0  0  0  0  0  0  0  0  0
   -0.6832   -2.8764    1.0638 O   0  0  0  0  0  0  0  0  0  0  0  0
   -1.3952   -0.9084    0.2428 N   0  0  0  0  0  0  0  0  0  0  0  0
   -2.1972   -0.3644   -0.0422 H   0  0  0  0  0  0  0  0  0  0  0  0
   -0.1122   -0.1994    0.2658 C   0  0  1  0  0  0  0  0  0  0  0  0
    0.6380   -0.8533    0.7178 H   0  0  0  0  0  0  0  0  0  0  0  0
    0.3088    0.1129   -1.1876 C   0  0  0  0  0  0  0  0  0  0  0  0
   -0.5290    0.5715   -1.7116 H   0  0  0  0  0  0  0  0  0  0  0  0
    1.1356    0.8216   -1.1775 H   0  0  0  0  0  0  0  0  0  0  0  0
    0.7135   -1.1126   -1.9909 C   0  0  0  0  0  0  0  0  0  0  0  0
    1.4014   -2.0084   -1.5331 O   0  0  0  0  0  0  0  0  0  0  0  0
    0.3044   -1.1918   -3.2338 N   0  0  0  0  0  0  0  0  0  0  0  0
    0.5724   -2.0207   -3.7345 H   0  0  0  0  0  0  0  0  0  0  0  0
   -0.2782   -0.4774   -3.6278 H   0  0  0  0  0  0  0  0  0  0  0  0
   -0.2284    1.0710    1.1367 C   0  0  0  0  0  0  0  0  0  0  0  0
    0.0113    1.0129    2.3428 O   0  0  0  0  0  0  0  0  0  0  0  0
   -0.6020    2.2054    0.5367 N   0  0  0  0  0  0  0  0  0  0  0  0
   -0.8535    2.1480   -0.4450 H   0  0  0  0  0  0  0  0  0  0  0  0
   -0.7464    3.4922    1.2150 C   0  0  0  0  0  0  0  0  0  0  0  0
    0.1922    3.7560    1.7073 H   0  0  0  0  0  0  0  0  0  0  0  0
   -1.0053    4.2685    0.4937 H   0  0  0  0  0  0  0  0  0  0  0  0
   -1.5313    3.4246    1.9702 H   0  0  0  0  0  0  0  0  0  0  0  0
  5  6  2  0  0  0  0
  5  7  1  0  0  0  0
  2  3  1  0  0  0  0
  2  4  1  0  0  0  0
  2  5  1  0  0  0  0
  1  2  1  0  0  0  0
 19 20  2  0  0  0  0
 19 21  1  0  0  0  0
 16 17  1  0  0  0  0
 16 18  1  0  0  0  0
 14 15  2  0  0  0  0
 14 16  1  0  0  0  0
 11 12  1  0  0  0  0
 11 13  1  0  0  0  0
 11 14  1  0  0  0  0
  9 10  1  0  0  0  0
  9 11  1  0  0  0  0
  9 19  1  0  0  0  0
  7  8  1  0  0  0  0
  7  9  1  0  0  0  0
 23 24  1  0  0  0  0
 23 25  1  0  0  0  0
 23 26  1  0  0  0  0
 21 22  1  0  0  0  0
 21 23  1  0  0  0  0
M  END
$$$$
default_name
  -OEChem-01062215323D

 26 25  0     1  0  0  0  0  0999 V2000
   -3.0232   -3.6924    1.0038 H   0  0  0  0  0  0  0  0  0  0  0  0
   -3.0082   -2.6684    0.6318 C   0  0  0  0  0  0  0  0  0  0  0  0
   -3.6332   -2.0414    1.2658 H   0  0  0  0  0  0  0  0  0  0  0  0
   -3.3762   -2.6444   -0.3912 H   0  0  0  0  0  0  0  0  0  0  0  0
   -1.5882   -2.1554    0.6658 C   0  0  0  0  0  0  0  0  0  0  0  0
   -0.6832   -2.8764    1.0638 O   0  0  0  0  0  0  0  0  0  0  0  0
   -1.3952   -0.9084    0.2428 N   0  0  0  0  0  0  0  0  0  0  0  0
   -2.1972   -0.3644   -0.0422 H   0  0  0  0  0  0  0  0  0  0  0  0
   -0.1122   -0.1994    0.2658 C   0  0  1  0  0  0  0  0  0  0  0  0
    0.6380   -0.8533    0.7178 H   0  0  0  0  0  0  0  0  0  0  0  0
    0.3088    0.1129   -1.1876 C   0  0  0  0  0  0  0  0  0  0  0  0
   -0.5290    0.5715   -1.7116 H   0  0  0  0  0  0  0  0  0  0  0  0
    1.1356    0.8216   -1.1775 H   0  0  0  0  0  0  0  0  0  0  0  0
    0.7135   -1.1126   -1.9909 C   0  0  0  0  0  0  0  0  0  0  0  0
    1.4014   -2.0084   -1.5331 O   0  0  0  0  0  0  0  0  0  0  0  0
    0.3044   -1.1918   -3.2338 N   0  0  0  0  0  0  0  0  0  0  0  0
    0.5724   -2.0207   -3.7345 H   0  0  0  0  0  0  0  0  0  0  0  0
   -0.2782   -0.4774   -3.6278 H   0  0  0  0  0  0  0  0  0  0  0  0
   -0.2284    1.0710    1.1367 C   0  0  0  0  0  0  0  0  0  0  0  0
    0.2668    1.0906    2.2636 O   0  0  0  0  0  0  0  0  0  0  0  0
   -0.8841    2.1180    0.6266 N   0  0  0  0  0  0  0  0  0  0  0  0
   -1.3262    1.9904   -0.2782 H   0  0  0  0  0  0  0  0  0  0  0  0
   -1.0707    3.3937    1.3153 C   0  0  0  0  0  0  0  0  0  0  0  0
   -0.0989    3.8070    1.5940 H   0  0  0  0  0  0  0  0  0  0  0  0
   -1.5882    4.0989    0.6634 H   0  0  0  0  0  0  0  0  0  0  0  0
   -1.6594    3.2407    2.2214 H   0  0  0  0  0  0  0  0  0  0  0  0
  5  6  2  0  0  0  0
  5  7  1  0  0  0  0
  2  3  1  0  0  0  0
  2  4  1  0  0  0  0
  2  5  1  0  0  0  0
  1  2  1  0  0  0  0
 19 20  2  0  0  0  0
 19 21  1  0  0  0  0
 16 17  1  0  0  0  0
 16 18  1  0  0  0  0
 14 15  2  0  0  0  0
 14 16  1  0  0  0  0
 11 12  1  0  0  0  0
 11 13  1  0  0  0  0
 11 14  1  0  0  0  0
  9 10  1  0  0  0  0
  9 11  1  0  0  0  0
  9 19  1  0  0  0  0
  7  8  1  0  0  0  0
  7  9  1  0  0  0  0
 23 24  1  0  0  0  0
 23 25  1  0  0  0  0
 23 26  1  0  0  0  0
 21 22  1  0  0  0  0
 21 23  1  0  0  0  0
M  END
$$$$
default_name
  -OEChem-01062215323D

 26 25  0     1  0  0  0  0  0999 V2000
   -3.0232   -3.6924    1.0038 H   0  0  0  0  0  0  0  0  0  0  0  0
   -3.0082   -2.6684    0.6318 C   0  0  0  0  0  0  0  0  0  0  0  0
   -3.6332   -2.0414    1.2658 H   0  0  0  0  0  0  0  0  0  0  0  0
   -3.3762   -2.6444   -0.3912 H   0  0  0  0  0  0  0  0  0  0  0  0
   -1.5882   -2.1554    0.6658 C   0  0  0  0  0  0  0  0  0  0  0  0
   -0.6832   -2.8764    1.0638 O   0  0  0  0  0  0  0  0  0  0  0  0
   -1.3952   -0.9084    0.2428 N   0  0  0  0  0  0  0  0  0  0  0  0
   -2.1972   -0.3644   -0.0422 H   0  0  0  0  0  0  0  0  0  0  0  0
   -0.1122   -0.1994    0.2658 C   0  0  1  0  0  0  0  0  0  0  0  0
    0.6380   -0.8533    0.7178 H   0  0  0  0  0  0  0  0  0  0  0  0
    0.3088    0.1129   -1.1876 C   0  0  0  0  0  0  0  0  0  0  0  0
   -0.5290    0.5715   -1.7116 H   0  0  0  0  0  0  0  0  0  0  0  0
    1.1356    0.8216   -1.1775 H   0  0  0  0  0  0  0  0  0  0  0  0
    0.7135   -1.1126   -1.9909 C   0  0  0  0  0  0  0  0  0  0  0  0
    1.4014   -2.0084   -1.5331 O   0  0  0  0  0  0  0  0  0  0  0  0
    0.3044   -1.1918   -3.2338 N   0  0  0  0  0  0  0  0  0  0  0  0
    0.5724   -2.0207   -3.7345 H   0  0  0  0  0  0  0  0  0  0  0  0
   -0.2782   -0.4774   -3.6278 H   0  0  0  0  0  0  0  0  0  0  0  0
   -0.2284    1.0710    1.1367 C   0  0  0  0  0  0  0  0  0  0  0  0
    0.4854    1.2013    2.1312 O   0  0  0  0  0  0  0  0  0  0  0  0
   -1.1247    1.9941    0.7751 N   0  0  0  0  0  0  0  0  0  0  0  0
   -1.7242    1.7725   -0.0134 H   0  0  0  0  0  0  0  0  0  0  0  0
   -1.3482    3.2533    1.4832 C   0  0  0  0  0  0  0  0  0  0  0  0
   -0.4116    3.8116    1.5456 H   0  0  0  0  0  0  0  0  0  0  0  0
   -2.0904    3.8532    0.9548 H   0  0  0  0  0  0  0  0  0  0  0  0
   -1.7027    3.0492    2.4949 H   0  0  0  0  0  0  0  0  0  0  0  0
  5  6  2  0  0  0  0
  5  7  1  0  0  0  0
  2  3  1  0  0  0  0
  2  4  1  0  0  0  0
  2  5  1  0  0  0  0
  1  2  1  0  0  0  0
 19 20  2  0  0  0  0
 19 21  1  0  0  0  0
 16 17  1  0  0  0  0
 16 18  1  0  0  0  0
 14 15  2  0  0  0  0
 14 16  1  0  0  0  0
 11 12  1  0  0  0  0
 11 13  1  0  0  0  0
 11 14  1  0  0  0  0
  9 10  1  0  0  0  0
  9 11  1  0  0  0  0
  9 19  1  0  0  0  0
  7  8  1  0  0  0  0
  7  9  1  0  0  0  0
 23 24  1  0  0  0  0
 23 25  1  0  0  0  0
 23 26  1  0  0  0  0
 21 22  1  0  0  0  0
 21 23  1  0  0  0  0
M  END
$$$$
default_name
  -OEChem-01062215323D

 26 25  0     1  0  0  0  0  0999 V2000
   -3.0232   -3.6924    1.0038 H   0  0  0  0  0  0  0  0  0  0  0  0
   -3.0082   -2.6684    0.6318 C   0  0  0  0  0  0  0  0  0  0  0  0
   -3.6332   -2.0414    1.2658 H   0  0  0  0  0  0  0  0  0  0  0  0
   -3.3762   -2.6444   -0.3912 H   0  0  0  0  0  0  0  0  0  0  0  0
   -1.5882   -2.1554    0.6658 C   0  0  0  0  0  0  0  0  0  0  0  0
   -0.6832   -2.8764    1.0638 O   0  0  0  0  0  0  0  0  0  0  0  0
   -1.3952   -0.9084    0.2428 N   0  0  0  0  0  0  0  0  0  0  0  0
   -2.1972   -0.3644   -0.0422 H   0  0  0  0  0  0  0  0  0  0  0  0
   -0.1122   -0.1994    0.2658 C   0  0  1  0  0  0  0  0  0  0  0  0
    0.6380   -0.8533    0.7178 H   0  0  0  0  0  0  0  0  0  0  0  0
    0.3088    0.1129   -1.1876 C   0  0  0  0  0  0  0  0  0  0  0  0
   -0.5290    0.5715   -1.7116 H   0  0  0  0  0  0  0  0  0  0  0  0
    1.1356    0.8216   -1.1775 H   0  0  0  0  0  0  0  0  0  0  0  0
    0.7135   -1.1126   -1.9909 C   0  0  0  0  0  0  0  0  0  0  0  0
    1.4014   -2.0084   -1.5331 O   0  0  0  0  0  0  0  0  0  0  0  0
    0.3044   -1.1918   -3.2338 N   0  0  0  0  0  0  0  0  0  0  0  0
    0.5724   -2.0207   -3.7345 H   0  0  0  0  0  0  0  0  0  0  0  0
   -0.2782   -0.4774   -3.6278 H   0  0  0  0  0  0  0  0  0  0  0  0
   -0.2284    1.0710    1.1367 C   0  0  0  0  0  0  0  0  0  0  0  0
    0.6522    1.3376    1.9546 O   0  0  0  0  0  0  0  0  0  0  0  0
   -1.3074    1.8423    0.9722 N   0  0  0  0  0  0  0  0  0  0  0  0
   -2.0205    1.5090    0.3313 H   0  0  0  0  0  0  0  0  0  0  0  0
   -1.5601    3.0804    1.7071 C   0  0  0  0  0  0  0  0  0  0  0  0
   -0.7247    3.7694    1.5653 H   0  0  0  0  0  0  0  0  0  0  0  0
   -2.4776    3.5483    1.3478 H   0  0  0  0  0  0  0  0  0  0  0  0
   -1.6585    2.8633    2.7721 H   0  0  0  0  0  0  0  0  0  0  0  0
  5  6  2  0  0  0  0
  5  7  1  0  0  0  0
  2  3  1  0  0  0  0
  2  4  1  0  0  0  0
  2  5  1  0  0  0  0
  1  2  1  0  0  0  0
 19 20  2  0  0  0  0
 19 21  1  0  0  0  0
 16 17  1  0  0  0  0
 16 18  1  0  0  0  0
 14 15  2  0  0  0  0
 14 16  1  0  0  0  0
 11 12  1  0  0  0  0
 11 13  1  0  0  0  0
 11 14  1  0  0  0  0
  9 10  1  0  0  0  0
  9 11  1  0  0  0  0
  9 19  1  0  0  0  0
  7  8  1  0  0  0  0
  7  9  1  0  0  0  0
 23 24  1  0  0  0  0
 23 25  1  0  0  0  0
 23 26  1  0  0  0  0
 21 22  1  0  0  0  0
 21 23  1  0  0  0  0
M  END
$$$$
default_name
  -OEChem-01062215323D

 26 25  0     1  0  0  0  0  0999 V2000
   -3.0232   -3.6924    1.0038 H   0  0  0  0  0  0  0  0  0  0  0  0
   -3.0082   -2.6684    0.6318 C   0  0  0  0  0  0  0  0  0  0  0  0
   -3.6332   -2.0414    1.2658 H   0  0  0  0  0  0  0  0  0  0  0  0
   -3.3762   -2.6444   -0.3912 H   0  0  0  0  0  0  0  0  0  0  0  0
   -1.5882   -2.1554    0.6658 C   0  0  0  0  0  0  0  0  0  0  0  0
   -0.6832   -2.8764    1.0638 O   0  0  0  0  0  0  0  0  0  0  0  0
   -1.3952   -0.9084    0.2428 N   0  0  0  0  0  0  0  0  0  0  0  0
   -2.1972   -0.3644   -0.0422 H   0  0  0  0  0  0  0  0  0  0  0  0
   -0.1122   -0.1994    0.2658 C   0  0  1  0  0  0  0  0  0  0  0  0
    0.6380   -0.8533    0.7178 H   0  0  0  0  0  0  0  0  0  0  0  0
    0.3088    0.1129   -1.1876 C   0  0  0  0  0  0  0  0  0  0  0  0
   -0.5290    0.5715   -1.7116 H   0  0  0  0  0  0  0  0  0  0  0  0
    1.1356    0.8216   -1.1775 H   0  0  0  0  0  0  0  0  0  0  0  0
    0.7135   -1.1126   -1.9909 C   0  0  0  0  0  0  0  0  0  0  0  0
    1.4014   -2.0084   -1.5331 O   0  0  0  0  0  0  0  0  0  0  0  0
    0.3044   -1.1918   -3.2338 N   0  0  0  0  0  0  0  0  0  0  0  0
    0.5724   -2.0207   -3.7345 H   0  0  0  0  0  0  0  0  0  0  0  0
   -0.2782   -0.4774   -3.6278 H   0  0  0  0  0  0  0  0  0  0  0  0
   -0.2284    1.0710    1.1367 C   0  0  0  0  0  0  0  0  0  0  0  0
    0.7558    1.4901    1.7459 O   0  0  0  0  0  0  0  0  0  0  0  0
   -1.4198    1.6728    1.2045 N   0  0  0  0  0  0  0  0  0  0  0  0
   -2.1949    1.2181    0.7325 H   0  0  0  0  0  0  0  0  0  0  0  0
   -1.6918    2.8868    1.9719 C   0  0  0  0  0  0  0  0  0  0  0  0
   -1.0167    3.6834    1.6518 H   0  0  0  0  0  0  0  0  0  0  0  0
   -2.7235    3.2050    1.8159 H   0  0  0  0  0  0  0  0  0  0  0  0
   -1.5296    2.6956    3.0340 H   0  0  0  0  0  0  0  0  0  0  0  0
  5  6  2  0  0  0  0
  5  7  1  0  0  0  0
  2  3  1  0  0  0  0
  2  4  1  0  0  0  0
  2  5  1  0  0  0  0
  1  2  1  0  0  0  0
 19 20  2  0  0  0  0
 19 21  1  0  0  0  0
 16 17  1  0  0  0  0
 16 18  1  0  0  0  0
 14 15  2  0  0  0  0
 14 16  1  0  0  0  0
 11 12  1  0  0  0  0
 11 13  1  0  0  0  0
 11 14  1  0  0  0  0
  9 10  1  0  0  0  0
  9 11  1  0  0  0  0
  9 19  1  0  0  0  0
  7  8  1  0  0  0  0
  7  9  1  0  0  0  0
 23 24  1  0  0  0  0
 23 25  1  0  0  0  0
 23 26  1  0  0  0  0
 21 22  1  0  0  0  0
 21 23  1  0  0  0  0
M  END
$$$$
default_name
  -OEChem-01062215323D

 26 25  0     1  0  0  0  0  0999 V2000
   -3.0232   -3.6924    1.0038 H   0  0  0  0  0  0  0  0  0  0  0  0
   -3.0082   -2.6684    0.6318 C   0  0  0  0  0  0  0  0  0  0  0  0
   -3.6332   -2.0414    1.2658 H   0  0  0  0  0  0  0  0  0  0  0  0
   -3.3762   -2.6444   -0.3912 H   0  0  0  0  0  0  0  0  0  0  0  0
   -1.5882   -2.1554    0.6658 C   0  0  0  0  0  0  0  0  0  0  0  0
   -0.6832   -2.8764    1.0638 O   0  0  0  0  0  0  0  0  0  0  0  0
   -1.3952   -0.9084    0.2428 N   0  0  0  0  0  0  0  0  0  0  0  0
   -2.1972   -0.3644   -0.0422 H   0  0  0  0  0  0  0  0  0  0  0  0
   -0.1122   -0.1994    0.2658 C   0  0  1  0  0  0  0  0  0  0  0  0
    0.6380   -0.8533    0.7178 H   0  0  0  0  0  0  0  0  0  0  0  0
    0.3088    0.1129   -1.1876 C   0  0  0  0  0  0  0  0  0  0  0  0
   -0.5290    0.5715   -1.7116 H   0  0  0  0  0  0  0  0  0  0  0  0
    1.1356    0.8216   -1.1775 H   0  0  0  0  0  0  0  0  0  0  0  0
    0.7135   -1.1126   -1.9909 C   0  0  0  0  0  0  0  0  0  0  0  0
    1.4014   -2.0084   -1.5331 O   0  0  0  0  0  0  0  0  0  0  0  0
    0.3044   -1.1918   -3.2338 N   0  0  0  0  0  0  0  0  0  0  0  0
    0.5724   -2.0207   -3.7345 H   0  0  0  0  0  0  0  0  0  0  0  0
   -0.2782   -0.4774   -3.6278 H   0  0  0  0  0  0  0  0  0  0  0  0
   -0.2284    1.0710    1.1367 C   0  0  0  0  0  0  0  0  0  0  0  0
    0.7892    1.6485    1.5193 O   0  0  0  0  0  0  0  0  0  0  0  0
   -1.4542    1.4972    1.4560 N   0  0  0  0  0  0  0  0  0  0  0  0
   -2.2355    0.9194    1.1629 H   0  0  0  0  0  0  0  0  0  0  0  0
   -1.7344    2.6858    2.2594 C   0  0  0  0  0  0  0  0  0  0  0  0
   -1.2678    3.5594    1.7992 H   0  0  0  0  0  0  0  0  0  0  0  0
   -2.8113    2.8466    2.3270 H   0  0  0  0  0  0  0  0  0  0  0  0
   -1.3248    2.5574    3.2628 H   0  0  0  0  0  0  0  0  0  0  0  0
  5  6  2  0  0  0  0
  5  7  1  0  0  0  0
  2  3  1  0  0  0  0
  2  4  1  0  0  0  0
  2  5  1  0  0  0  0
  1  2  1  0  0  0  0
 19 20  2  0  0  0  0
 19 21  1  0  0  0  0
 16 17  1  0  0  0  0
 16 18  1  0  0  0  0
 14 15  2  0  0  0  0
 14 16  1  0  0  0  0
 11 12  1  0  0  0  0
 11 13  1  0  0  0  0
 11 14  1  0  0  0  0
  9 10  1  0  0  0  0
  9 11  1  0  0  0  0
  9 19  1  0  0  0  0
  7  8  1  0  0  0  0
  7  9  1  0  0  0  0
 23 24  1  0  0  0  0
 23 25  1  0  0  0  0
 23 26  1  0  0  0  0
 21 22  1  0  0  0  0
 21 23  1  0  0  0  0
M  END
$$$$
default_name
  -OEChem-01062215323D

 26 25  0     1  0  0  0  0  0999 V2000
   -3.0232   -3.6924    1.0038 H   0  0  0  0  0  0  0  0  0  0  0  0
   -3.0082   -2.6684    0.6318 C   0  0  0  0  0  0  0  0  0  0  0  0
   -3.6332   -2.0414    1.2658 H   0  0  0  0  0  0  0  0  0  0  0  0
   -3.3762   -2.6444   -0.3912 H   0  0  0  0  0  0  0  0  0  0  0  0
   -1.5882   -2.1554    0.6658 C   0  0  0  0  0  0  0  0  0  0  0  0
   -0.6832   -2.8764    1.0638 O   0  0  0  0  0  0  0  0  0  0  0  0
   -1.3952   -0.9084    0.2428 N   0  0  0  0  0  0  0  0  0  0  0  0
   -2.1972   -0.3644   -0.0422 H   0  0  0  0  0  0  0  0  0  0  0  0
   -0.1122   -0.1994    0.2658 C   0  0  1  0  0  0  0  0  0  0  0  0
    0.6380   -0.8533    0.7178 H   0  0  0  0  0  0  0  0  0  0  0  0
    0.3088    0.1129   -1.1876 C   0  0  0  0  0  0  0  0  0  0  0  0
   -0.5290    0.5715   -1.7116 H   0  0  0  0  0  0  0  0  0  0  0  0
    1.1356    0.8216   -1.1775 H   0  0  0  0  0  0  0  0  0  0  0  0
    0.7135   -1.1126   -1.9909 C   0  0  0  0  0  0  0  0  0  0  0  0
    1.4014   -2.0084   -1.5331 O   0  0  0  0  0  0  0  0  0  0  0  0
    0.3044   -1.1918   -3.2338 N   0  0  0  0  0  0  0  0  0  0  0  0
    0.5724   -2.0207   -3.7345 H   0  0  0  0  0  0  0  0  0  0  0  0
   -0.2782   -0.4774   -3.6278 H   0  0  0  0  0  0  0  0  0  0  0  0
   -0.2284    1.0710    1.1367 C   0  0  0  0  0  0  0  0  0  0  0  0
    0.7502    1.8020    1.2902 O   0  0  0  0  0  0  0  0  0  0  0  0
   -1.4082    1.3275    1.7098 N   0  0  0  0  0  0  0  0  0  0  0  0
   -2.1395    0.6333    1.5930 H   0  0  0  0  0  0  0  0  0  0  0  0
   -1.6851    2.4910    2.5502 C   0  0  0  0  0  0  0  0  0  0  0  0
   -1.4608    3.4059    1.9974 H   0  0  0  0  0  0  0  0  0  0  0  0
   -2.7349    2.4975    2.8464 H   0  0  0  0  0  0  0  0  0  0  0  0
   -1.0582    2.4583    3.4429 H   0  0  0  0  0  0  0  0  0  0  0  0
  5  6  2  0  0  0  0
  5  7  1  0  0  0  0
  2  3  1  0  0  0  0
  2  4  1  0  0  0  0
  2  5  1  0  0  0  0
  1  2  1  0  0  0  0
 19 20  2  0  0  0  0
 19 21  1  0  0  0  0
 16 17  1  0  0  0  0
 16 18  1  0  0  0  0
 14 15  2  0  0  0  0
 14 16  1  0  0  0  0
 11 12  1  0  0  0  0
 11 13  1  0  0  0  0
 11 14  1  0  0  0  0
  9 10  1  0  0  0  0
  9 11  1  0  0  0  0
  9 19  1  0  0  0  0
  7  8  1  0  0  0  0
  7  9  1  0  0  0  0
 23 24  1  0  0  0  0
 23 25  1  0  0  0  0
 23 26  1  0  0  0  0
 21 22  1  0  0  0  0
 21 23  1  0  0  0  0
M  END
$$$$
default_name
  -OEChem-01062215323D

 26 25  0     1  0  0  0  0  0999 V2000
   -3.0232   -3.6924    1.0038 H   0  0  0  0  0  0  0  0  0  0  0  0
   -3.0082   -2.6684    0.6318 C   0  0  0  0  0  0  0  0  0  0  0  0
   -3.6332   -2.0414    1.2658 H   0  0  0  0  0  0  0  0  0  0  0  0
   -3.3762   -2.6444   -0.3912 H   0  0  0  0  0  0  0  0  0  0  0  0
   -1.5882   -2.1554    0.6658 C   0  0  0  0  0  0  0  0  0  0  0  0
   -0.6832   -2.8764    1.0638 O   0  0  0  0  0  0  0  0  0  0  0  0
   -1.3952   -0.9084    0.2428 N   0  0  0  0  0  0  0  0  0  0  0  0
   -2.1972   -0.3644   -0.0422 H   0  0  0  0  0  0  0  0  0  0  0  0
   -0.1122   -0.1994    0.2658 C   0  0  1  0  0  0  0  0  0  0  0  0
    0.6380   -0.8533    0.7178 H   0  0  0  0  0  0  0  0  0  0  0  0
    0.3088    0.1129   -1.1876 C   0  0  0  0  0  0  0  0  0  0  0  0
   -0.5290    0.5715   -1.7116 H   0  0  0  0  0  0  0  0  0  0  0  0
    1.1356    0.8216   -1.1775 H   0  0  0  0  0  0  0  0  0  0  0  0
    0.7135   -1.1126   -1.9909 C   0  0  0  0  0  0  0  0  0  0  0  0
    1.4014   -2.0084   -1.5331 O   0  0  0  0  0  0  0  0  0  0  0  0
    0.3044   -1.1918   -3.2338 N   0  0  0  0  0  0  0  0  0  0  0  0
    0.5724   -2.0207   -3.7345 H   0  0  0  0  0  0  0  0  0  0  0  0
   -0.2782   -0.4774   -3.6278 H   0  0  0  0  0  0  0  0  0  0  0  0
   -0.2284    1.0710    1.1367 C   0  0  0  0  0  0  0  0  0  0  0  0
    0.6412    1.9401    1.0742 O   0  0  0  0  0  0  0  0  0  0  0  0
   -1.2851    1.1752    1.9484 N   0  0  0  0  0  0  0  0  0  0  0  0
   -1.9135    0.3794    1.9936 H   0  0  0  0  0  0  0  0  0  0  0  0
   -1.5471    2.3157    2.8243 C   0  0  0  0  0  0  0  0  0  0  0  0
   -1.5827    3.2332    2.2330 H   0  0  0  0  0  0  0  0  0  0  0  0
   -2.4997    2.1816    3.3386 H   0  0  0  0  0  0  0  0  0  0  0  0
   -0.7478    2.4051    3.5620 H   0  0  0  0  0  0  0  0  0  0  0  0
  5  6  2  0  0  0  0
  5  7  1  0  0  0  0
  2  3  1  0  0  0  0
  2  4  1  0  0  0  0
  2  5  1  0  0  0  0
  1  2  1  0  0  0  0
 19 20  2  0  0  0  0
 19 21  1  0  0  0  0
 16 17  1  0  0  0  0
 16 18  1  0  0  0  0
 14 15  2  0  0  0  0
 14 16  1  0  0  0  0
 11 12  1  0  0  0  0
 11 13  1  0  0  0  0
 11 14  1  0  0  0  0
  9 10  1  0  0  0  0
  9 11  1  0  0  0  0
  9 19  1  0  0  0  0
  7  8  1  0  0  0  0
  7  9  1  0  0  0  0
 23 24  1  0  0  0  0
 23 25  1  0  0  0  0
 23 26  1  0  0  0  0
 21 22  1  0  0  0  0
 21 23  1  0  0  0  0
M  END
$$$$
default_name
  -OEChem-01062215323D

 26 25  0     1  0  0  0  0  0999 V2000
   -3.0232   -3.6924    1.0038 H   0  0  0  0  0  0  0  0  0  0  0  0
   -3.0082   -2.6684    0.6318 C   0  0  0  0  0  0  0  0  0  0  0  0
   -3.6332   -2.0414    1.2658 H   0  0  0  0  0  0  0  0  0  0  0  0
   -3.3762   -2.6444   -0.3912 H   0  0  0  0  0  0  0  0  0  0  0  0
   -1.5882   -2.1554    0.6658 C   0  0  0  0  0  0  0  0  0  0  0  0
   -0.6832   -2.8764    1.0638 O   0  0  0  0  0  0  0  0  0  0  0  0
   -1.3952   -0.9084    0.2428 N   0  0  0  0  0  0  0  0  0  0  0  0
   -2.1972   -0.3644   -0.0422 H   0  0  0  0  0  0  0  0  0  0  0  0
   -0.1122   -0.1994    0.2658 C   0  0  1  0  0  0  0  0  0  0  0  0
    0.6380   -0.8533    0.7178 H   0  0  0  0  0  0  0  0  0  0  0  0
    0.3088    0.1129   -1.1876 C   0  0  0  0  0  0  0  0  0  0  0  0
   -0.5290    0.5715   -1.7116 H   0  0  0  0  0  0  0  0  0  0  0  0
    1.1356    0.8216   -1.1775 H   0  0  0  0  0  0  0  0  0  0  0  0
    0.7135   -1.1126   -1.9909 C   0  0  0  0  0  0  0  0  0  0  0  0
    1.4014   -2.0084   -1.5331 O   0  0  0  0  0  0  0  0  0  0  0  0
    0.3044   -1.1918   -3.2338 N   0  0  0  0  0  0  0  0  0  0  0  0
    0.5724   -2.0207   -3.7345 H   0  0  0  0  0  0  0  0  0  0  0  0
   -0.2782   -0.4774   -3.6278 H   0  0  0  0  0  0  0  0  0  0  0  0
   -0.2284    1.0710    1.1367 C   0  0  0  0  0  0  0  0  0  0  0  0
    0.4699    2.0534    0.8861 O   0  0  0  0  0  0  0  0  0  0  0  0
   -1.0931    1.0507    2.1556 N   0  0  0  0  0  0  0  0  0  0  0  0
   -1.5729    0.1749    2.3373 H   0  0  0  0  0  0  0  0  0  0  0  0
   -1.3298    2.1719    3.0631 C   0  0  0  0  0  0  0  0  0  0  0  0
   -1.6251    3.0533    2.4898 H   0  0  0  0  0  0  0  0  0  0  0  0
   -2.1216    1.9204    3.7702 H   0  0  0  0  0  0  0  0  0  0  0  0
   -0.4149    2.4012    3.6121 H   0  0  0  0  0  0  0  0  0  0  0  0
  5  6  2  0  0  0  0
  5  7  1  0  0  0  0
  2  3  1  0  0  0  0
  2  4  1  0  0  0  0
  2  5  1  0  0  0  0
  1  2  1  0  0  0  0
 19 20  2  0  0  0  0
 19 21  1  0  0  0  0
 16 17  1  0  0  0  0
 16 18  1  0  0  0  0
 14 15  2  0  0  0  0
 14 16  1  0  0  0  0
 11 12  1  0  0  0  0
 11 13  1  0  0  0  0
 11 14  1  0  0  0  0
  9 10  1  0  0  0  0
  9 11  1  0  0  0  0
  9 19  1  0  0  0  0
  7  8  1  0  0  0  0
  7  9  1  0  0  0  0
 23 24  1  0  0  0  0
 23 25  1  0  0  0  0
 23 26  1  0  0  0  0
 21 22  1  0  0  0  0
 21 23  1  0  0  0  0
M  END
$$$$
default_name
  -OEChem-01062215323D

 26 25  0     1  0  0  0  0  0999 V2000
   -3.0232   -3.6924    1.0038 H   0  0  0  0  0  0  0  0  0  0  0  0
   -3.0082   -2.6684    0.6318 C   0  0  0  0  0  0  0  0  0  0  0  0
   -3.6332   -2.0414    1.2658 H   0  0  0  0  0  0  0  0  0  0  0  0
   -3.3762   -2.6444   -0.3912 H   0  0  0  0  0  0  0  0  0  0  0  0
   -1.5882   -2.1554    0.6658 C   0  0  0  0  0  0  0  0  0  0  0  0
   -0.6832   -2.8764    1.0638 O   0  0  0  0  0  0  0  0  0  0  0  0
   -1.3952   -0.9084    0.2428 N   0  0  0  0  0  0  0  0  0  0  0  0
   -2.1972   -0.3644   -0.0422 H   0  0  0  0  0  0  0  0  0  0  0  0
   -0.1122   -0.1994    0.2658 C   0  0  1  0  0  0  0  0  0  0  0  0
    0.6380   -0.8533    0.7178 H   0  0  0  0  0  0  0  0  0  0  0  0
    0.3088    0.1129   -1.1876 C   0  0  0  0  0  0  0  0  0  0  0  0
   -0.5290    0.5715   -1.7116 H   0  0  0  0  0  0  0  0  0  0  0  0
    1.1356    0.8216   -1.1775 H   0  0  0  0  0  0  0  0  0  0  0  0
    0.7135   -1.1126   -1.9909 C   0  0  0  0  0  0  0  0  0  0  0  0
    1.4014   -2.0084   -1.5331 O   0  0  0  0  0  0  0  0  0  0  0  0
    0.3044   -1.1918   -3.2338 N   0  0  0  0  0  0  0  0  0  0  0  0
    0.5724   -2.0207   -3.7345 H   0  0  0  0  0  0  0  0  0  0  0  0
   -0.2782   -0.4774   -3.6278 H   0  0  0  0  0  0  0  0  0  0  0  0
   -0.2284    1.0710    1.1367 C   0  0  0  0  0  0  0  0  0  0  0  0
    0.2479    2.1341    0.7387 O   0  0  0  0  0  0  0  0  0  0  0  0
   -0.8454    0.9625    2.3173 N   0  0  0  0  0  0  0  0  0  0  0  0
   -1.1408    0.0337    2.6009 H   0  0  0  0  0  0  0  0  0  0  0  0
   -1.0482    2.0693    3.2504 C   0  0  0  0  0  0  0  0  0  0  0  0
   -1.5852    2.8783    2.7505 H   0  0  0  0  0  0  0  0  0  0  0  0
   -1.6264    1.7316    4.1116 H   0  0  0  0  0  0  0  0  0  0  0  0
   -0.0822    2.4470    3.5897 H   0  0  0  0  0  0  0  0  0  0  0  0
  5  6  2  0  0  0  0
  5  7  1  0  0  0  0
  2  3  1  0  0  0  0
  2  4  1  0  0  0  0
  2  5  1  0  0  0  0
  1  2  1  0  0  0  0
 19 20  2  0  0  0  0
 19 21  1  0  0  0  0
 16 17  1  0  0  0  0
 16 18  1  0  0  0  0
 14 15  2  0  0  0  0
 14 16  1  0  0  0  0
 11 12  1  0  0  0  0
 11 13  1  0  0  0  0
 11 14  1  0  0  0  0
  9 10  1  0  0  0  0
  9 11  1  0  0  0  0
  9 19  1  0  0  0  0
  7  8  1  0  0  0  0
  7  9  1  0  0  0  0
 23 24  1  0  0  0  0
 23 25  1  0  0  0  0
 23 26  1  0  0  0  0
 21 22  1  0  0  0  0
 21 23  1  0  0  0  0
M  END
$$$$
default_name
  -OEChem-01062215323D

 26 25  0     1  0  0  0  0  0999 V2000
   -3.0232   -3.6924    1.0038 H   0  0  0  0  0  0  0  0  0  0  0  0
   -3.0082   -2.6684    0.6318 C   0  0  0  0  0  0  0  0  0  0  0  0
   -3.6332   -2.0414    1.2658 H   0  0  0  0  0  0  0  0  0  0  0  0
   -3.3762   -2.6444   -0.3912 H   0  0  0  0  0  0  0  0  0  0  0  0
   -1.5882   -2.1554    0.6658 C   0  0  0  0  0  0  0  0  0  0  0  0
   -0.6832   -2.8764    1.0638 O   0  0  0  0  0  0  0  0  0  0  0  0
   -1.3952   -0.9084    0.2428 N   0  0  0  0  0  0  0  0  0  0  0  0
   -2.1972   -0.3644   -0.0422 H   0  0  0  0  0  0  0  0  0  0  0  0
   -0.1122   -0.1994    0.2658 C   0  0  1  0  0  0  0  0  0  0  0  0
    0.6380   -0.8533    0.7178 H   0  0  0  0  0  0  0  0  0  0  0  0
    0.3088    0.1129   -1.1876 C   0  0  0  0  0  0  0  0  0  0  0  0
   -0.5290    0.5715   -1.7116 H   0  0  0  0  0  0  0  0  0  0  0  0
    1.1356    0.8216   -1.1775 H   0  0  0  0  0  0  0  0  0  0  0  0
    0.7135   -1.1126   -1.9909 C   0  0  0  0  0  0  0  0  0  0  0  0
    1.4014   -2.0084   -1.5331 O   0  0  0  0  0  0  0  0  0  0  0  0
    0.3044   -1.1918   -3.2338 N   0  0  0  0  0  0  0  0  0  0  0  0
    0.5724   -2.0207   -3.7345 H   0  0  0  0  0  0  0  0  0  0  0  0
   -0.2782   -0.4774   -3.6278 H   0  0  0  0  0  0  0  0  0  0  0  0
   -0.2284    1.0710    1.1367 C   0  0  0  0  0  0  0  0  0  0  0  0
   -0.0098    2.1769    0.6419 O   0  0  0  0  0  0  0  0  0  0  0  0
   -0.5588    0.9166    2.4225 N   0  0  0  0  0  0  0  0  0  0  0  0
   -0.6468   -0.0344    2.7662 H   0  0  0  0  0  0  0  0  0  0  0  0
   -0.7213    2.0149    3.3733 C   0  0  0  0  0  0  0  0  0  0  0  0
   -1.4655    2.7202    2.9971 H   0  0  0  0  0  0  0  0  0  0  0  0
   -1.0478    1.6282    4.3396 H   0  0  0  0  0  0  0  0  0  0  0  0
    0.2278    2.5394    3.4963 H   0  0  0  0  0  0  0  0  0  0  0  0
  5  6  2  0  0  0  0
  5  7  1  0  0  0  0
  2  3  1  0  0  0  0
  2  4  1  0  0  0  0
  2  5  1  0  0  0  0
  1  2  1  0  0  0  0
 19 20  2  0  0  0  0
 19 21  1  0  0  0  0
 16 17  1  0  0  0  0
 16 18  1  0  0  0  0
 14 15  2  0  0  0  0
 14 16  1  0  0  0  0
 11 12  1  0  0  0  0
 11 13  1  0  0  0  0
 11 14  1  0  0  0  0
  9 10  1  0  0  0  0
  9 11  1  0  0  0  0
  9 19  1  0  0  0  0
  7  8  1  0  0  0  0
  7  9  1  0  0  0  0
 23 24  1  0  0  0  0
 23 25  1  0  0  0  0
 23 26  1  0  0  0  0
 21 22  1  0  0  0  0
 21 23  1  0  0  0  0
M  END
$$$$
default_name
  -OEChem-01062215323D

 26 25  0     1  0  0  0  0  0999 V2000
   -3.0232   -3.6924    1.0038 H   0  0  0  0  0  0  0  0  0  0  0  0
   -3.0082   -2.6684    0.6318 C   0  0  0  0  0  0  0  0  0  0  0  0
   -3.6332   -2.0414    1.2658 H   0  0  0  0  0  0  0  0  0  0  0  0
   -3.3762   -2.6444   -0.3912 H   0  0  0  0  0  0  0  0  0  0  0  0
   -1.5882   -2.1554    0.6658 C   0  0  0  0  0  0  0  0  0  0  0  0
   -0.6832   -2.8764    1.0638 O   0  0  0  0  0  0  0  0  0  0  0  0
   -1.3952   -0.9084    0.2428 N   0  0  0  0  0  0  0  0  0  0  0  0
   -2.1972   -0.3644   -0.0422 H   0  0  0  0  0  0  0  0  0  0  0  0
   -0.1122   -0.1994    0.2658 C   0  0  1  0  0  0  0  0  0  0  0  0
    0.6380   -0.8533    0.7178 H   0  0  0  0  0  0  0  0  0  0  0  0
    0.3088    0.1129   -1.1876 C   0  0  0  0  0  0  0  0  0  0  0  0
   -0.5290    0.5715   -1.7116 H   0  0  0  0  0  0  0  0  0  0  0  0
    1.1356    0.8216   -1.1775 H   0  0  0  0  0  0  0  0  0  0  0  0
    0.7135   -1.1126   -1.9909 C   0  0  0  0  0  0  0  0  0  0  0  0
    1.4014   -2.0084   -1.5331 O   0  0  0  0  0  0  0  0  0  0  0  0
    0.3044   -1.1918   -3.2338 N   0  0  0  0  0  0  0  0  0  0  0  0
    0.5724   -2.0207   -3.7345 H   0  0  0  0  0  0  0  0  0  0  0  0
   -0.2782   -0.4774   -3.6278 H   0  0  0  0  0  0  0  0  0  0  0  0
   -0.2284    1.0710    1.1367 C   0  0  0  0  0  0  0  0  0  0  0  0
   -0.2855    2.1787    0.6025 O   0  0  0  0  0  0  0  0  0  0  0  0
   -0.2529    0.9162    2.4640 N   0  0  0  0  0  0  0  0  0  0  0  0
   -0.1244   -0.0249    2.8220 H   0  0  0  0  0  0  0  0  0  0  0  0
   -0.3714    2.0125    3.4235 C   0  0  0  0  0  0  0  0  0  0  0  0
   -1.2744    2.5897    3.2130 H   0  0  0  0  0  0  0  0  0  0  0  0
   -0.4254    1.6172    4.4388 H   0  0  0  0  0  0  0  0  0  0  0  0
    0.4939    2.6720    3.3383 H   0  0  0  0  0  0  0  0  0  0  0  0
  5  6  2  0  0  0  0
  5  7  1  0  0  0  0
  2  3  1  0  0  0  0
  2  4  1  0  0  0  0
  2  5  1  0  0  0  0
  1  2  1  0  0  0  0
 19 20  2  0  0  0  0
 19 21  1  0  0  0  0
 16 17  1  0  0  0  0
 16 18  1  0  0  0  0
 14 15  2  0  0  0  0
 14 16  1  0  0  0  0
 11 12  1  0  0  0  0
 11 13  1  0  0  0  0
 11 14  1  0  0  0  0
  9 10  1  0  0  0  0
  9 11  1  0  0  0  0
  9 19  1  0  0  0  0
  7  8  1  0  0  0  0
  7  9  1  0  0  0  0
 23 24  1  0  0  0  0
 23 25  1  0  0  0  0
 23 26  1  0  0  0  0
 21 22  1  0  0  0  0
 21 23  1  0  0  0  0
M  END
$$$$
default_name
  -OEChem-01062215323D

 26 25  0     1  0  0  0  0  0999 V2000
   -3.0232   -3.6924    1.0038 H   0  0  0  0  0  0  0  0  0  0  0  0
   -3.0082   -2.6684    0.6318 C   0  0  0  0  0  0  0  0  0  0  0  0
   -3.6332   -2.0414    1.2658 H   0  0  0  0  0  0  0  0  0  0  0  0
   -3.3762   -2.6444   -0.3912 H   0  0  0  0  0  0  0  0  0  0  0  0
   -1.5882   -2.1554    0.6658 C   0  0  0  0  0  0  0  0  0  0  0  0
   -0.6832   -2.8764    1.0638 O   0  0  0  0  0  0  0  0  0  0  0  0
   -1.3952   -0.9084    0.2428 N   0  0  0  0  0  0  0  0  0  0  0  0
   -2.1972   -0.3644   -0.0422 H   0  0  0  0  0  0  0  0  0  0  0  0
   -0.1122   -0.1994    0.2658 C   0  0  1  0  0  0  0  0  0  0  0  0
    0.6380   -0.8533    0.7178 H   0  0  0  0  0  0  0  0  0  0  0  0
    0.3088    0.1129   -1.1876 C   0  0  0  0  0  0  0  0  0  0  0  0
   -0.5290    0.5715   -1.7116 H   0  0  0  0  0  0  0  0  0  0  0  0
    1.1356    0.8216   -1.1775 H   0  0  0  0  0  0  0  0  0  0  0  0
    0.7135   -1.1126   -1.9909 C   0  0  0  0  0  0  0  0  0  0  0  0
    1.4014   -2.0084   -1.5331 O   0  0  0  0  0  0  0  0  0  0  0  0
    0.3044   -1.1918   -3.2338 N   0  0  0  0  0  0  0  0  0  0  0  0
    0.5724   -2.0207   -3.7345 H   0  0  0  0  0  0  0  0  0  0  0  0
   -0.2782   -0.4774   -3.6278 H   0  0  0  0  0  0  0  0  0  0  0  0
   -0.2284    1.0710    1.1367 C   0  0  0  0  0  0  0  0  0  0  0  0
   -0.5605    2.1394    0.6231 O   0  0  0  0  0  0  0  0  0  0  0  0
    0.0515    0.9611    2.4389 N   0  0  0  0  0  0  0  0  0  0  0  0
    0.3906    0.0616    2.7646 H   0  0  0  0  0  0  0  0  0  0  0  0
   -0.0225    2.0622    3.3975 C   0  0  0  0  0  0  0  0  0  0  0  0
   -1.0248    2.4957    3.3833 H   0  0  0  0  0  0  0  0  0  0  0  0
    0.1986    1.6993    4.4022 H   0  0  0  0  0  0  0  0  0  0  0  0
    0.6979    2.8359    3.1264 H   0  0  0  0  0  0  0  0  0  0  0  0
  5  6  2  0  0  0  0
  5  7  1  0  0  0  0
  2  3  1  0  0  0  0
  2  4  1  0  0  0  0
  2  5  1  0  0  0  0
  1  2  1  0  0  0  0
 19 20  2  0  0  0  0
 19 21  1  0  0  0  0
 16 17  1  0  0  0  0
 16 18  1  0  0  0  0
 14 15  2  0  0  0  0
 14 16  1  0  0  0  0
 11 12  1  0  0  0  0
 11 13  1  0  0  0  0
 11 14  1  0  0  0  0
  9 10  1  0  0  0  0
  9 11  1  0  0  0  0
  9 19  1  0  0  0  0
  7  8  1  0  0  0  0
  7  9  1  0  0  0  0
 23 24  1  0  0  0  0
 23 25  1  0  0  0  0
 23 26  1  0  0  0  0
 21 22  1  0  0  0  0
 21 23  1  0  0  0  0
M  END
$$$$
default_name
  -OEChem-01062215323D

 26 25  0     1  0  0  0  0  0999 V2000
   -3.0232   -3.6924    1.0038 H   0  0  0  0  0  0  0  0  0  0  0  0
   -3.0082   -2.6684    0.6318 C   0  0  0  0  0  0  0  0  0  0  0  0
   -3.6332   -2.0414    1.2658 H   0  0  0  0  0  0  0  0  0  0  0  0
   -3.3762   -2.6444   -0.3912 H   0  0  0  0  0  0  0  0  0  0  0  0
   -1.5882   -2.1554    0.6658 C   0  0  0  0  0  0  0  0  0  0  0  0
   -0.6832   -2.8764    1.0638 O   0  0  0  0  0  0  0  0  0  0  0  0
   -1.3952   -0.9084    0.2428 N   0  0  0  0  0  0  0  0  0  0  0  0
   -2.1972   -0.3644   -0.0422 H   0  0  0  0  0  0  0  0  0  0  0  0
   -0.1122   -0.1994    0.2658 C   0  0  1  0  0  0  0  0  0  0  0  0
    0.6380   -0.8533    0.7178 H   0  0  0  0  0  0  0  0  0  0  0  0
    0.3088    0.1129   -1.1876 C   0  0  0  0  0  0  0  0  0  0  0  0
   -0.5290    0.5715   -1.7116 H   0  0  0  0  0  0  0  0  0  0  0  0
    1.1356    0.8216   -1.1775 H   0  0  0  0  0  0  0  0  0  0  0  0
    0.7135   -1.1126   -1.9909 C   0  0  0  0  0  0  0  0  0  0  0  0
    1.4014   -2.0084   -1.5331 O   0  0  0  0  0  0  0  0  0  0  0  0
    0.3044   -1.1918   -3.2338 N   0  0  0  0  0  0  0  0  0  0  0  0
    0.5724   -2.0207   -3.7345 H   0  0  0  0  0  0  0  0  0  0  0  0
   -0.2782   -0.4774   -3.6278 H   0  0  0  0  0  0  0  0  0  0  0  0
   -0.2284    1.0710    1.1367 C   0  0  0  0  0  0  0  0  0  0  0  0
   -0.8160    2.0618    0.7023 O   0  0  0  0  0  0  0  0  0  0  0  0
    0.3336    1.0485    2.3491 N   0  0  0  0  0  0  0  0  0  0  0  0
    0.8632    0.2191    2.5978 H   0  0  0  0  0  0  0  0  0  0  0  0
    0.3018    2.1607    3.2972 C   0  0  0  0  0  0  0  0  0  0  0  0
   -0.7337    2.4447    3.4965 H   0  0  0  0  0  0  0  0  0  0  0  0
    0.7815    1.8690    4.2325 H   0  0  0  0  0  0  0  0  0  0  0  0
    0.8259    3.0198    2.8752 H   0  0  0  0  0  0  0  0  0  0  0  0
  5  6  2  0  0  0  0
  5  7  1  0  0  0  0
  2  3  1  0  0  0  0
  2  4  1  0  0  0  0
  2  5  1  0  0  0  0
  1  2  1  0  0  0  0
 19 20  2  0  0  0  0
 19 21  1  0  0  0  0
 16 17  1  0  0  0  0
 16 18  1  0  0  0  0
 14 15  2  0  0  0  0
 14 16  1  0  0  0  0
 11 12  1  0  0  0  0
 11 13  1  0  0  0  0
 11 14  1  0  0  0  0
  9 10  1  0  0  0  0
  9 11  1  0  0  0  0
  9 19  1  0  0  0  0
  7  8  1  0  0  0  0
  7  9  1  0  0  0  0
 23 24  1  0  0  0  0
 23 25  1  0  0  0  0
 23 26  1  0  0  0  0
 21 22  1  0  0  0  0
 21 23  1  0  0  0  0
M  END
$$$$
default_name
  -OEChem-01062215323D

 26 25  0     1  0  0  0  0  0999 V2000
   -3.0232   -3.6924    1.0038 H   0  0  0  0  0  0  0  0  0  0  0  0
   -3.0082   -2.6684    0.6318 C   0  0  0  0  0  0  0  0  0  0  0  0
   -3.6332   -2.0414    1.2658 H   0  0  0  0  0  0  0  0  0  0  0  0
   -3.3762   -2.6444   -0.3912 H   0  0  0  0  0  0  0  0  0  0  0  0
   -1.5882   -2.1554    0.6658 C   0  0  0  0  0  0  0  0  0  0  0  0
   -0.6832   -2.8764    1.0638 O   0  0  0  0  0  0  0  0  0  0  0  0
   -1.3952   -0.9084    0.2428 N   0  0  0  0  0  0  0  0  0  0  0  0
   -2.1972   -0.3644   -0.0422 H   0  0  0  0  0  0  0  0  0  0  0  0
   -0.1122   -0.1994    0.2658 C   0  0  1  0  0  0  0  0  0  0  0  0
    0.6380   -0.8533    0.7178 H   0  0  0  0  0  0  0  0  0  0  0  0
    0.3088    0.1129   -1.1876 C   0  0  0  0  0  0  0  0  0  0  0  0
   -0.5290    0.5715   -1.7116 H   0  0  0  0  0  0  0  0  0  0  0  0
    1.1356    0.8216   -1.1775 H   0  0  0  0  0  0  0  0  0  0  0  0
    0.7135   -1.1126   -1.9909 C   0  0  0  0  0  0  0  0  0  0  0  0
    1.4014   -2.0084   -1.5331 O   0  0  0  0  0  0  0  0  0  0  0  0
    0.3044   -1.1918   -3.2338 N   0  0  0  0  0  0  0  0  0  0  0  0
    0.5724   -2.0207   -3.7345 H   0  0  0  0  0  0  0  0  0  0  0  0
   -0.2782   -0.4774   -3.6278 H   0  0  0  0  0  0  0  0  0  0  0  0
   -0.2284    1.0710    1.1367 C   0  0  0  0  0  0  0  0  0  0  0  0
   -1.0345    1.9510    0.8347 O   0  0  0  0  0  0  0  0  0  0  0  0
    0.5742    1.1724    2.2005 N   0  0  0  0  0  0  0  0  0  0  0  0
    1.2613    0.4370    2.3330 H   0  0  0  0  0  0  0  0  0  0  0  0
    0.5794    2.3011    3.1294 C   0  0  0  0  0  0  0  0  0  0  0  0
   -0.4210    2.4401    3.5450 H   0  0  0  0  0  0  0  0  0  0  0  0
    1.2838    2.1146    3.9412 H   0  0  0  0  0  0  0  0  0  0  0  0
    0.8693    3.2113    2.6017 H   0  0  0  0  0  0  0  0  0  0  0  0
  5  6  2  0  0  0  0
  5  7  1  0  0  0  0
  2  3  1  0  0  0  0
  2  4  1  0  0  0  0
  2  5  1  0  0  0  0
  1  2  1  0  0  0  0
 19 20  2  0  0  0  0
 19 21  1  0  0  0  0
 16 17  1  0  0  0  0
 16 18  1  0  0  0  0
 14 15  2  0  0  0  0
 14 16  1  0  0  0  0
 11 12  1  0  0  0  0
 11 13  1  0  0  0  0
 11 14  1  0  0  0  0
  9 10  1  0  0  0  0
  9 11  1  0  0  0  0
  9 19  1  0  0  0  0
  7  8  1  0  0  0  0
  7  9  1  0  0  0  0
 23 24  1  0  0  0  0
 23 25  1  0  0  0  0
 23 26  1  0  0  0  0
 21 22  1  0  0  0  0
 21 23  1  0  0  0  0
M  END
$$$$
default_name
  -OEChem-01062215323D

 26 25  0     1  0  0  0  0  0999 V2000
   -3.0232   -3.6924    1.0038 H   0  0  0  0  0  0  0  0  0  0  0  0
   -3.0082   -2.6684    0.6318 C   0  0  0  0  0  0  0  0  0  0  0  0
   -3.6332   -2.0414    1.2658 H   0  0  0  0  0  0  0  0  0  0  0  0
   -3.3762   -2.6444   -0.3912 H   0  0  0  0  0  0  0  0  0  0  0  0
   -1.5882   -2.1554    0.6658 C   0  0  0  0  0  0  0  0  0  0  0  0
   -0.6832   -2.8764    1.0638 O   0  0  0  0  0  0  0  0  0  0  0  0
   -1.3952   -0.9084    0.2428 N   0  0  0  0  0  0  0  0  0  0  0  0
   -2.1972   -0.3644   -0.0422 H   0  0  0  0  0  0  0  0  0  0  0  0
   -0.1122   -0.1994    0.2658 C   0  0  1  0  0  0  0  0  0  0  0  0
    0.6380   -0.8533    0.7178 H   0  0  0  0  0  0  0  0  0  0  0  0
    0.3088    0.1129   -1.1876 C   0  0  0  0  0  0  0  0  0  0  0  0
   -0.5290    0.5715   -1.7116 H   0  0  0  0  0  0  0  0  0  0  0  0
    1.1356    0.8216   -1.1775 H   0  0  0  0  0  0  0  0  0  0  0  0
    0.7135   -1.1126   -1.9909 C   0  0  0  0  0  0  0  0  0  0  0  0
    1.4014   -2.0084   -1.5331 O   0  0  0  0  0  0  0  0  0  0  0  0
    0.3044   -1.1918   -3.2338 N   0  0  0  0  0  0  0  0  0  0  0  0
    0.5724   -2.0207   -3.7345 H   0  0  0  0  0  0  0  0  0  0  0  0
   -0.2782   -0.4774   -3.6278 H   0  0  0  0  0  0  0  0  0  0  0  0
   -0.2284    1.0710    1.1367 C   0  0  0  0  0  0  0  0  0  0  0  0
   -1.2013    1.8147    1.0113 O   0  0  0  0  0  0  0  0  0  0  0  0
    0.7570    1.3242    2.0034 N   0  0  0  0  0  0  0  0  0  0  0  0
    1.5576    0.7005    1.9883 H   0  0  0  0  0  0  0  0  0  0  0  0
    0.7912    2.4740    2.9054 C   0  0  0  0  0  0  0  0  0  0  0  0
   -0.1080    2.4823    3.5252 H   0  0  0  0  0  0  0  0  0  0  0  0
    1.6710    2.4195    3.5481 H   0  0  0  0  0  0  0  0  0  0  0  0
    0.8250    3.3972    2.3245 H   0  0  0  0  0  0  0  0  0  0  0  0
  5  6  2  0  0  0  0
  5  7  1  0  0  0  0
  2  3  1  0  0  0  0
  2  4  1  0  0  0  0
  2  5  1  0  0  0  0
  1  2  1  0  0  0  0
 19 20  2  0  0  0  0
 19 21  1  0  0  0  0
 16 17  1  0  0  0  0
 16 18  1  0  0  0  0
 14 15  2  0  0  0  0
 14 16  1  0  0  0  0
 11 12  1  0  0  0  0
 11 13  1  0  0  0  0
 11 14  1  0  0  0  0
  9 10  1  0  0  0  0
  9 11  1  0  0  0  0
  9 19  1  0  0  0  0
  7  8  1  0  0  0  0
  7  9  1  0  0  0  0
 23 24  1  0  0  0  0
 23 25  1  0  0  0  0
 23 26  1  0  0  0  0
 21 22  1  0  0  0  0
 21 23  1  0  0  0  0
M  END
$$$$
default_name
  -OEChem-01062215323D

 26 25  0     1  0  0  0  0  0999 V2000
   -3.0232   -3.6924    1.0038 H   0  0  0  0  0  0  0  0  0  0  0  0
   -3.0082   -2.6684    0.6318 C   0  0  0  0  0  0  0  0  0  0  0  0
   -3.6332   -2.0414    1.2658 H   0  0  0  0  0  0  0  0  0  0  0  0
   -3.3762   -2.6444   -0.3912 H   0  0  0  0  0  0  0  0  0  0  0  0
   -1.5882   -2.1554    0.6658 C   0  0  0  0  0  0  0  0  0  0  0  0
   -0.6832   -2.8764    1.0638 O   0  0  0  0  0  0  0  0  0  0  0  0
   -1.3952   -0.9084    0.2428 N   0  0  0  0  0  0  0  0  0  0  0  0
   -2.1972   -0.3644   -0.0422 H   0  0  0  0  0  0  0  0  0  0  0  0
   -0.1122   -0.1994    0.2658 C   0  0  1  0  0  0  0  0  0  0  0  0
    0.6380   -0.8533    0.7178 H   0  0  0  0  0  0  0  0  0  0  0  0
    0.3088    0.1129   -1.1876 C   0  0  0  0  0  0  0  0  0  0  0  0
   -0.5290    0.5715   -1.7116 H   0  0  0  0  0  0  0  0  0  0  0  0
    1.1356    0.8216   -1.1775 H   0  0  0  0  0  0  0  0  0  0  0  0
    0.7135   -1.1126   -1.9909 C   0  0  0  0  0  0  0  0  0  0  0  0
    1.4014   -2.0084   -1.5331 O   0  0  0  0  0  0  0  0  0  0  0  0
    0.3044   -1.1918   -3.2338 N   0  0  0  0  0  0  0  0  0  0  0  0
    0.5724   -2.0207   -3.7345 H   0  0  0  0  0  0  0  0  0  0  0  0
   -0.2782   -0.4774   -3.6278 H   0  0  0  0  0  0  0  0  0  0  0  0
   -0.2284    1.0710    1.1367 C   0  0  0  0  0  0  0  0  0  0  0  0
   -1.3050    1.6622    1.2200 O   0  0  0  0  0  0  0  0  0  0  0  0
    0.8694    1.4937    1.7712 N   0  0  0  0  0  0  0  0  0  0  0  0
    1.7320    0.9914    1.5871 H   0  0  0  0  0  0  0  0  0  0  0  0
    0.9229    2.6675    2.6407 C   0  0  0  0  0  0  0  0  0  0  0  0
    0.1840    2.5683    3.4387 H   0  0  0  0  0  0  0  0  0  0  0  0
    1.9169    2.7628    3.0800 H   0  0  0  0  0  0  0  0  0  0  0  0
    0.6961    3.5650    2.0626 H   0  0  0  0  0  0  0  0  0  0  0  0
  5  6  2  0  0  0  0
  5  7  1  0  0  0  0
  2  3  1  0  0  0  0
  2  4  1  0  0  0  0
  2  5  1  0  0  0  0
  1  2  1  0  0  0  0
 19 20  2  0  0  0  0
 19 21  1  0  0  0  0
 16 17  1  0  0  0  0
 16 18  1  0  0  0  0
 14 15  2  0  0  0  0
 14 16  1  0  0  0  0
 11 12  1  0  0  0  0
 11 13  1  0  0  0  0
 11 14  1  0  0  0  0
  9 10  1  0  0  0  0
  9 11  1  0  0  0  0
  9 19  1  0  0  0  0
  7  8  1  0  0  0  0
  7  9  1  0  0  0  0
 23 24  1  0  0  0  0
 23 25  1  0  0  0  0
 23 26  1  0  0  0  0
 21 22  1  0  0  0  0
 21 23  1  0  0  0  0
M  END
$$$$
default_name
  -OEChem-01062215323D

 26 25  0     1  0  0  0  0  0999 V2000
   -3.0232   -3.6924    1.0038 H   0  0  0  0  0  0  0  0  0  0  0  0
   -3.0082   -2.6684    0.6318 C   0  0  0  0  0  0  0  0  0  0  0  0
   -3.6332   -2.0414    1.2658 H   0  0  0  0  0  0  0  0  0  0  0  0
   -3.3762   -2.6444   -0.3912 H   0  0  0  0  0  0  0  0  0  0  0  0
   -1.5882   -2.1554    0.6658 C   0  0  0  0  0  0  0  0  0  0  0  0
   -0.6832   -2.8764    1.0638 O   0  0  0  0  0  0  0  0  0  0  0  0
   -1.3952   -0.9084    0.2428 N   0  0  0  0  0  0  0  0  0  0  0  0
   -2.1972   -0.3644   -0.0422 H   0  0  0  0  0  0  0  0  0  0  0  0
   -0.1122   -0.1994    0.2658 C   0  0  1  0  0  0  0  0  0  0  0  0
    0.6380   -0.8533    0.7178 H   0  0  0  0  0  0  0  0  0  0  0  0
    0.3088    0.1129   -1.1876 C   0  0  0  0  0  0  0  0  0  0  0  0
   -0.5290    0.5715   -1.7116 H   0  0  0  0  0  0  0  0  0  0  0  0
    1.1356    0.8216   -1.1775 H   0  0  0  0  0  0  0  0  0  0  0  0
    0.7135   -1.1126   -1.9909 C   0  0  0  0  0  0  0  0  0  0  0  0
    1.4014   -2.0084   -1.5331 O   0  0  0  0  0  0  0  0  0  0  0  0
    0.3044   -1.1918   -3.2338 N   0  0  0  0  0  0  0  0  0  0  0  0
    0.5724   -2.0207   -3.7345 H   0  0  0  0  0  0  0  0  0  0  0  0
   -0.2782   -0.4774   -3.6278 H   0  0  0  0  0  0  0  0  0  0  0  0
   -0.2284    1.0710    1.1367 C   0  0  0  0  0  0  0  0  0  0  0  0
   -1.3384    1.5038    1.4466 O   0  0  0  0  0  0  0  0  0  0  0  0
    0.9037    1.6693    1.5196 N   0  0  0  0  0  0  0  0  0  0  0  0
    1.7726    1.2901    1.1567 H   0  0  0  0  0  0  0  0  0  0  0  0
    0.9656    2.8686    2.3531 C   0  0  0  0  0  0  0  0  0  0  0  0
    0.4351    2.6923    3.2914 H   0  0  0  0  0  0  0  0  0  0  0  0
    2.0046    3.1212    2.5689 H   0  0  0  0  0  0  0  0  0  0  0  0
    0.4914    3.7031    1.8338 H   0  0  0  0  0  0  0  0  0  0  0  0
  5  6  2  0  0  0  0
  5  7  1  0  0  0  0
  2  3  1  0  0  0  0
  2  4  1  0  0  0  0
  2  5  1  0  0  0  0
  1  2  1  0  0  0  0
 19 20  2  0  0  0  0
 19 21  1  0  0  0  0
 16 17  1  0  0  0  0
 16 18  1  0  0  0  0
 14 15  2  0  0  0  0
 14 16  1  0  0  0  0
 11 12  1  0  0  0  0
 11 13  1  0  0  0  0
 11 14  1  0  0  0  0
  9 10  1  0  0  0  0
  9 11  1  0  0  0  0
  9 19  1  0  0  0  0
  7  8  1  0  0  0  0
  7  9  1  0  0  0  0
 23 24  1  0  0  0  0
 23 25  1  0  0  0  0
 23 26  1  0  0  0  0
 21 22  1  0  0  0  0
 21 23  1  0  0  0  0
M  END
$$$$
default_name
  -OEChem-01062215323D

 26 25  0     1  0  0  0  0  0999 V2000
   -3.0232   -3.6924    1.0038 H   0  0  0  0  0  0  0  0  0  0  0  0
   -3.0082   -2.6684    0.6318 C   0  0  0  0  0  0  0  0  0  0  0  0
   -3.6332   -2.0414    1.2658 H   0  0  0  0  0  0  0  0  0  0  0  0
   -3.3762   -2.6444   -0.3912 H   0  0  0  0  0  0  0  0  0  0  0  0
   -1.5882   -2.1554    0.6658 C   0  0  0  0  0  0  0  0  0  0  0  0
   -0.6832   -2.8764    1.0638 O   0  0  0  0  0  0  0  0  0  0  0  0
   -1.3952   -0.9084    0.2428 N   0  0  0  0  0  0  0  0  0  0  0  0
   -2.1972   -0.3644   -0.0422 H   0  0  0  0  0  0  0  0  0  0  0  0
   -0.1122   -0.1994    0.2658 C   0  0  1  0  0  0  0  0  0  0  0  0
    0.6820   -0.9247    0.4606 H   0  0  0  0  0  0  0  0  0  0  0  0
    0.1261    0.4414   -1.1197 C   0  0  0  0  0  0  0  0  0  0  0  0
   -0.7662    0.9910   -1.4175 H   0  0  0  0  0  0  0  0  0  0  0  0
    0.9548    1.1446   -1.0525 H   0  0  0  0  0  0  0  0  0  0  0  0
    0.4140   -0.5629   -2.2241 C   0  0  0  0  0  0  0  0  0  0  0  0
    1.1446   -1.5262   -2.0708 O   0  0  0  0  0  0  0  0  0  0  0  0
   -0.1489   -0.3664   -3.3915 N   0  0  0  0  0  0  0  0  0  0  0  0
    0.0455   -1.0555   -4.0966 H   0  0  0  0  0  0  0  0  0  0  0  0
   -0.7689    0.4077   -3.5376 H   0  0  0  0  0  0  0  0  0  0  0  0
   -0.1049    0.8387    1.4096 C   0  0  0  0  0  0  0  0  0  0  0  0
   -1.0967    0.9689    2.1271 O   0  0  0  0  0  0  0  0  0  0  0  0
    0.9968    1.5775    1.5731 N   0  0  0  0  0  0  0  0  0  0  0  0
    1.7386    1.4586    0.8905 H   0  0  0  0  0  0  0  0  0  0  0  0
    1.1675    2.5907    2.6128 C   0  0  0  0  0  0  0  0  0  0  0  0
    1.0091    2.1404    3.5950 H   0  0  0  0  0  0  0  0  0  0  0  0
    2.1741    3.0086    2.5665 H   0  0  0  0  0  0  0  0  0  0  0  0
    0.4379    3.3900    2.4718 H   0  0  0  0  0  0  0  0  0  0  0  0
  5  6  2  0  0  0  0
  5  7  1  0  0  0  0
  2  3  1  0  0  0  0
  2  4  1  0  0  0  0
  2  5  1  0  0  0  0
  1  2  1  0  0  0  0
 19 20  2  0  0  0  0
 19 21  1  0  0  0  0
 16 17  1  0  0  0  0
 16 18  1  0  0  0  0
 14 15  2  0  0  0  0
 14 16  1  0  0  0  0
 11 12  1  0  0  0  0
 11 13  1  0  0  0  0
 11 14  1  0  0  0  0
  9 10  1  0  0  0  0
  9 11  1  0  0  0  0
  9 19  1  0  0  0  0
  7  8  1  0  0  0  0
  7  9  1  0  0  0  0
 23 24  1  0  0  0  0
 23 25  1  0  0  0  0
 23 26  1  0  0  0  0
 21 22  1  0  0  0  0
 21 23  1  0  0  0  0
M  END
$$$$
default_name
  -OEChem-01062215323D

 26 25  0     1  0  0  0  0  0999 V2000
   -3.0232   -3.6924    1.0038 H   0  0  0  0  0  0  0  0  0  0  0  0
   -3.0082   -2.6684    0.6318 C   0  0  0  0  0  0  0  0  0  0  0  0
   -3.6332   -2.0414    1.2658 H   0  0  0  0  0  0  0  0  0  0  0  0
   -3.3762   -2.6444   -0.3912 H   0  0  0  0  0  0  0  0  0  0  0  0
   -1.5882   -2.1554    0.6658 C   0  0  0  0  0  0  0  0  0  0  0  0
   -0.6832   -2.8764    1.0638 O   0  0  0  0  0  0  0  0  0  0  0  0
   -1.3952   -0.9084    0.2428 N   0  0  0  0  0  0  0  0  0  0  0  0
   -2.1972   -0.3644   -0.0422 H   0  0  0  0  0  0  0  0  0  0  0  0
   -0.1122   -0.1994    0.2658 C   0  0  1  0  0  0  0  0  0  0  0  0
    0.6820   -0.9247    0.4606 H   0  0  0  0  0  0  0  0  0  0  0  0
    0.1261    0.4414   -1.1197 C   0  0  0  0  0  0  0  0  0  0  0  0
   -0.7662    0.9910   -1.4175 H   0  0  0  0  0  0  0  0  0  0  0  0
    0.9548    1.1446   -1.0525 H   0  0  0  0  0  0  0  0  0  0  0  0
    0.4140   -0.5629   -2.2241 C   0  0  0  0  0  0  0  0  0  0  0  0
    1.1446   -1.5262   -2.0708 O   0  0  0  0  0  0  0  0  0  0  0  0
   -0.1489   -0.3664   -3.3915 N   0  0  0  0  0  0  0  0  0  0  0  0
    0.0455   -1.0555   -4.0966 H   0  0  0  0  0  0  0  0  0  0  0  0
   -0.7689    0.4077   -3.5376 H   0  0  0  0  0  0  0  0  0  0  0  0
   -0.1049    0.8387    1.4096 C   0  0  0  0  0  0  0  0  0  0  0  0
   -0.9629    0.7876    2.2909 O   0  0  0  0  0  0  0  0  0  0  0  0
    0.8462    1.7775    1.3925 N   0  0  0  0  0  0  0  0  0  0  0  0
    1.4667    1.7924    0.5893 H   0  0  0  0  0  0  0  0  0  0  0  0
    0.9980    2.8209    2.4049 C   0  0  0  0  0  0  0  0  0  0  0  0
    1.1022    2.3640    3.3914 H   0  0  0  0  0  0  0  0  0  0  0  0
    1.8822    3.4233    2.1920 H   0  0  0  0  0  0  0  0  0  0  0  0
    0.1156    3.4631    2.4075 H   0  0  0  0  0  0  0  0  0  0  0  0
  5  6  2  0  0  0  0
  5  7  1  0  0  0  0
  2  3  1  0  0  0  0
  2  4  1  0  0  0  0
  2  5  1  0  0  0  0
  1  2  1  0  0  0  0
 19 20  2  0  0  0  0
 19 21  1  0  0  0  0
 16 17  1  0  0  0  0
 16 18  1  0  0  0  0
 14 15  2  0  0  0  0
 14 16  1  0  0  0  0
 11 12  1  0  0  0  0
 11 13  1  0  0  0  0
 11 14  1  0  0  0  0
  9 10  1  0  0  0  0
  9 11  1  0  0  0  0
  9 19  1  0  0  0  0
  7  8  1  0  0  0  0
  7  9  1  0  0  0  0
 23 24  1  0  0  0  0
 23 25  1  0  0  0  0
 23 26  1  0  0  0  0
 21 22  1  0  0  0  0
 21 23  1  0  0  0  0
M  END
$$$$
default_name
  -OEChem-01062215323D

 26 25  0     1  0  0  0  0  0999 V2000
   -3.0232   -3.6924    1.0038 H   0  0  0  0  0  0  0  0  0  0  0  0
   -3.0082   -2.6684    0.6318 C   0  0  0  0  0  0  0  0  0  0  0  0
   -3.6332   -2.0414    1.2658 H   0  0  0  0  0  0  0  0  0  0  0  0
   -3.3762   -2.6444   -0.3912 H   0  0  0  0  0  0  0  0  0  0  0  0
   -1.5882   -2.1554    0.6658 C   0  0  0  0  0  0  0  0  0  0  0  0
   -0.6832   -2.8764    1.0638 O   0  0  0  0  0  0  0  0  0  0  0  0
   -1.3952   -0.9084    0.2428 N   0  0  0  0  0  0  0  0  0  0  0  0
   -2.1972   -0.3644   -0.0422 H   0  0  0  0  0  0  0  0  0  0  0  0
   -0.1122   -0.1994    0.2658 C   0  0  1  0  0  0  0  0  0  0  0  0
    0.6820   -0.9247    0.4606 H   0  0  0  0  0  0  0  0  0  0  0  0
    0.1261    0.4414   -1.1197 C   0  0  0  0  0  0  0  0  0  0  0  0
   -0.7662    0.9910   -1.4175 H   0  0  0  0  0  0  0  0  0  0  0  0
    0.9548    1.1446   -1.0525 H   0  0  0  0  0  0  0  0  0  0  0  0
    0.4140   -0.5629   -2.2241 C   0  0  0  0  0  0  0  0  0  0  0  0
    1.1446   -1.5262   -2.0708 O   0  0  0  0  0  0  0  0  0  0  0  0
   -0.1489   -0.3664   -3.3915 N   0  0  0  0  0  0  0  0  0  0  0  0
    0.0455   -1.0555   -4.0966 H   0  0  0  0  0  0  0  0  0  0  0  0
   -0.7689    0.4077   -3.5376 H   0  0  0  0  0  0  0  0  0  0  0  0
   -0.1049    0.8387    1.4096 C   0  0  0  0  0  0  0  0  0  0  0  0
   -0.7705    0.6379    2.4255 O   0  0  0  0  0  0  0  0  0  0  0  0
    0.6310    1.9421    1.2445 N   0  0  0  0  0  0  0  0  0  0  0  0
    1.0877    2.0631    0.3461 H   0  0  0  0  0  0  0  0  0  0  0  0
    0.7540    3.0110    2.2340 C   0  0  0  0  0  0  0  0  0  0  0  0
    1.1138    2.5982    3.1788 H   0  0  0  0  0  0  0  0  0  0  0  0
    1.4556    3.7684    1.8815 H   0  0  0  0  0  0  0  0  0  0  0  0
   -0.2209    3.4720    2.4015 H   0  0  0  0  0  0  0  0  0  0  0  0
  5  6  2  0  0  0  0
  5  7  1  0  0  0  0
  2  3  1  0  0  0  0
  2  4  1  0  0  0  0
  2  5  1  0  0  0  0
  1  2  1  0  0  0  0
 19 20  2  0  0  0  0
 19 21  1  0  0  0  0
 16 17  1  0  0  0  0
 16 18  1  0  0  0  0
 14 15  2  0  0  0  0
 14 16  1  0  0  0  0
 11 12  1  0  0  0  0
 11 13  1  0  0  0  0
 11 14  1  0  0  0  0
  9 10  1  0  0  0  0
  9 11  1  0  0  0  0
  9 19  1  0  0  0  0
  7  8  1  0  0  0  0
  7  9  1  0  0  0  0
 23 24  1  0  0  0  0
 23 25  1  0  0  0  0
 23 26  1  0  0  0  0
 21 22  1  0  0  0  0
 21 23  1  0  0  0  0
M  END
$$$$
default_name
  -OEChem-01062215323D

 26 25  0     1  0  0  0  0  0999 V2000
   -3.0232   -3.6924    1.0038 H   0  0  0  0  0  0  0  0  0  0  0  0
   -3.0082   -2.6684    0.6318 C   0  0  0  0  0  0  0  0  0  0  0  0
   -3.6332   -2.0414    1.2658 H   0  0  0  0  0  0  0  0  0  0  0  0
   -3.3762   -2.6444   -0.3912 H   0  0  0  0  0  0  0  0  0  0  0  0
   -1.5882   -2.1554    0.6658 C   0  0  0  0  0  0  0  0  0  0  0  0
   -0.6832   -2.8764    1.0638 O   0  0  0  0  0  0  0  0  0  0  0  0
   -1.3952   -0.9084    0.2428 N   0  0  0  0  0  0  0  0  0  0  0  0
   -2.1972   -0.3644   -0.0422 H   0  0  0  0  0  0  0  0  0  0  0  0
   -0.1122   -0.1994    0.2658 C   0  0  1  0  0  0  0  0  0  0  0  0
    0.6820   -0.9247    0.4606 H   0  0  0  0  0  0  0  0  0  0  0  0
    0.1261    0.4414   -1.1197 C   0  0  0  0  0  0  0  0  0  0  0  0
   -0.7662    0.9910   -1.4175 H   0  0  0  0  0  0  0  0  0  0  0  0
    0.9548    1.1446   -1.0525 H   0  0  0  0  0  0  0  0  0  0  0  0
    0.4140   -0.5629   -2.2241 C   0  0  0  0  0  0  0  0  0  0  0  0
    1.1446   -1.5262   -2.0708 O   0  0  0  0  0  0  0  0  0  0  0  0
   -0.1489   -0.3664   -3.3915 N   0  0  0  0  0  0  0  0  0  0  0  0
    0.0455   -1.0555   -4.0966 H   0  0  0  0  0  0  0  0  0  0  0  0
   -0.7689    0.4077   -3.5376 H   0  0  0  0  0  0  0  0  0  0  0  0
   -0.1049    0.8387    1.4096 C   0  0  0  0  0  0  0  0  0  0  0  0
   -0.5325    0.5300    2.5219 O   0  0  0  0  0  0  0  0  0  0  0  0
    0.3659    2.0600    1.1392 N   0  0  0  0  0  0  0  0  0  0  0  0
    0.6274    2.2521    0.1775 H   0  0  0  0  0  0  0  0  0  0  0  0
    0.4521    3.1481    2.1115 C   0  0  0  0  0  0  0  0  0  0  0  0
    1.0432    2.8268    2.9718 H   0  0  0  0  0  0  0  0  0  0  0  0
    0.9234    4.0203    1.6563 H   0  0  0  0  0  0  0  0  0  0  0  0
   -0.5487    3.4162    2.4543 H   0  0  0  0  0  0  0  0  0  0  0  0
  5  6  2  0  0  0  0
  5  7  1  0  0  0  0
  2  3  1  0  0  0  0
  2  4  1  0  0  0  0
  2  5  1  0  0  0  0
  1  2  1  0  0  0  0
 19 20  2  0  0  0  0
 19 21  1  0  0  0  0
 16 17  1  0  0  0  0
 16 18  1  0  0  0  0
 14 15  2  0  0  0  0
 14 16  1  0  0  0  0
 11 12  1  0  0  0  0
 11 13  1  0  0  0  0
 11 14  1  0  0  0  0
  9 10  1  0  0  0  0
  9 11  1  0  0  0  0
  9 19  1  0  0  0  0
  7  8  1  0  0  0  0
  7  9  1  0  0  0  0
 23 24  1  0  0  0  0
 23 25  1  0  0  0  0
 23 26  1  0  0  0  0
 21 22  1  0  0  0  0
 21 23  1  0  0  0  0
M  END
$$$$
default_name
  -OEChem-01062215323D

 26 25  0     1  0  0  0  0  0999 V2000
   -3.0232   -3.6924    1.0038 H   0  0  0  0  0  0  0  0  0  0  0  0
   -3.0082   -2.6684    0.6318 C   0  0  0  0  0  0  0  0  0  0  0  0
   -3.6332   -2.0414    1.2658 H   0  0  0  0  0  0  0  0  0  0  0  0
   -3.3762   -2.6444   -0.3912 H   0  0  0  0  0  0  0  0  0  0  0  0
   -1.5882   -2.1554    0.6658 C   0  0  0  0  0  0  0  0  0  0  0  0
   -0.6832   -2.8764    1.0638 O   0  0  0  0  0  0  0  0  0  0  0  0
   -1.3952   -0.9084    0.2428 N   0  0  0  0  0  0  0  0  0  0  0  0
   -2.1972   -0.3644   -0.0422 H   0  0  0  0  0  0  0  0  0  0  0  0
   -0.1122   -0.1994    0.2658 C   0  0  1  0  0  0  0  0  0  0  0  0
    0.6820   -0.9247    0.4606 H   0  0  0  0  0  0  0  0  0  0  0  0
    0.1261    0.4414   -1.1197 C   0  0  0  0  0  0  0  0  0  0  0  0
   -0.7662    0.9910   -1.4175 H   0  0  0  0  0  0  0  0  0  0  0  0
    0.9548    1.1446   -1.0525 H   0  0  0  0  0  0  0  0  0  0  0  0
    0.4140   -0.5629   -2.2241 C   0  0  0  0  0  0  0  0  0  0  0  0
    1.1446   -1.5262   -2.0708 O   0  0  0  0  0  0  0  0  0  0  0  0
   -0.1489   -0.3664   -3.3915 N   0  0  0  0  0  0  0  0  0  0  0  0
    0.0455   -1.0555   -4.0966 H   0  0  0  0  0  0  0  0  0  0  0  0
   -0.7689    0.4077   -3.5376 H   0  0  0  0  0  0  0  0  0  0  0  0
   -0.1049    0.8387    1.4096 C   0  0  0  0  0  0  0  0  0  0  0  0
   -0.2652    0.4712    2.5735 O   0  0  0  0  0  0  0  0  0  0  0  0
    0.0688    2.1232    1.0838 N   0  0  0  0  0  0  0  0  0  0  0  0
    0.1173    2.3468    0.0948 H   0  0  0  0  0  0  0  0  0  0  0  0
    0.1129    3.2228    2.0459 C   0  0  0  0  0  0  0  0  0  0  0  0
    0.8952    3.0344    2.7843 H   0  0  0  0  0  0  0  0  0  0  0  0
    0.3219    4.1619    1.5316 H   0  0  0  0  0  0  0  0  0  0  0  0
   -0.8454    3.2994    2.5622 H   0  0  0  0  0  0  0  0  0  0  0  0
  5  6  2  0  0  0  0
  5  7  1  0  0  0  0
  2  3  1  0  0  0  0
  2  4  1  0  0  0  0
  2  5  1  0  0  0  0
  1  2  1  0  0  0  0
 19 20  2  0  0  0  0
 19 21  1  0  0  0  0
 16 17  1  0  0  0  0
 16 18  1  0  0  0  0
 14 15  2  0  0  0  0
 14 16  1  0  0  0  0
 11 12  1  0  0  0  0
 11 13  1  0  0  0  0
 11 14  1  0  0  0  0
  9 10  1  0  0  0  0
  9 11  1  0  0  0  0
  9 19  1  0  0  0  0
  7  8  1  0  0  0  0
  7  9  1  0  0  0  0
 23 24  1  0  0  0  0
 23 25  1  0  0  0  0
 23 26  1  0  0  0  0
 21 22  1  0  0  0  0
 21 23  1  0  0  0  0
M  END
$$$$
default_name
  -OEChem-01062215323D

 26 25  0     1  0  0  0  0  0999 V2000
   -3.0232   -3.6924    1.0038 H   0  0  0  0  0  0  0  0  0  0  0  0
   -3.0082   -2.6684    0.6318 C   0  0  0  0  0  0  0  0  0  0  0  0
   -3.6332   -2.0414    1.2658 H   0  0  0  0  0  0  0  0  0  0  0  0
   -3.3762   -2.6444   -0.3912 H   0  0  0  0  0  0  0  0  0  0  0  0
   -1.5882   -2.1554    0.6658 C   0  0  0  0  0  0  0  0  0  0  0  0
   -0.6832   -2.8764    1.0638 O   0  0  0  0  0  0  0  0  0  0  0  0
   -1.3952   -0.9084    0.2428 N   0  0  0  0  0  0  0  0  0  0  0  0
   -2.1972   -0.3644   -0.0422 H   0  0  0  0  0  0  0  0  0  0  0  0
   -0.1122   -0.1994    0.2658 C   0  0  1  0  0  0  0  0  0  0  0  0
    0.6820   -0.9247    0.4606 H   0  0  0  0  0  0  0  0  0  0  0  0
    0.1261    0.4414   -1.1197 C   0  0  0  0  0  0  0  0  0  0  0  0
   -0.7662    0.9910   -1.4175 H   0  0  0  0  0  0  0  0  0  0  0  0
    0.9548    1.1446   -1.0525 H   0  0  0  0  0  0  0  0  0  0  0  0
    0.4140   -0.5629   -2.2241 C   0  0  0  0  0  0  0  0  0  0  0  0
    1.1446   -1.5262   -2.0708 O   0  0  0  0  0  0  0  0  0  0  0  0
   -0.1489   -0.3664   -3.3915 N   0  0  0  0  0  0  0  0  0  0  0  0
    0.0455   -1.0555   -4.0966 H   0  0  0  0  0  0  0  0  0  0  0  0
   -0.7689    0.4077   -3.5376 H   0  0  0  0  0  0  0  0  0  0  0  0
   -0.1049    0.8387    1.4096 C   0  0  0  0  0  0  0  0  0  0  0  0
    0.0132    0.4657    2.5768 O   0  0  0  0  0  0  0  0  0  0  0  0
   -0.2398    2.1274    1.0819 N   0  0  0  0  0  0  0  0  0  0  0  0
   -0.4080    2.3405    0.1039 H   0  0  0  0  0  0  0  0  0  0  0  0
   -0.2404    3.2300    2.0415 C   0  0  0  0  0  0  0  0  0  0  0  0
    0.6798    3.2068    2.6292 H   0  0  0  0  0  0  0  0  0  0  0  0
   -0.3080    4.1836    1.5160 H   0  0  0  0  0  0  0  0  0  0  0  0
   -1.0909    3.1295    2.7180 H   0  0  0  0  0  0  0  0  0  0  0  0
  5  6  2  0  0  0  0
  5  7  1  0  0  0  0
  2  3  1  0  0  0  0
  2  4  1  0  0  0  0
  2  5  1  0  0  0  0
  1  2  1  0  0  0  0
 19 20  2  0  0  0  0
 19 21  1  0  0  0  0
 16 17  1  0  0  0  0
 16 18  1  0  0  0  0
 14 15  2  0  0  0  0
 14 16  1  0  0  0  0
 11 12  1  0  0  0  0
 11 13  1  0  0  0  0
 11 14  1  0  0  0  0
  9 10  1  0  0  0  0
  9 11  1  0  0  0  0
  9 19  1  0  0  0  0
  7  8  1  0  0  0  0
  7  9  1  0  0  0  0
 23 24  1  0  0  0  0
 23 25  1  0  0  0  0
 23 26  1  0  0  0  0
 21 22  1  0  0  0  0
 21 23  1  0  0  0  0
M  END
$$$$
default_name
  -OEChem-01062215323D

 26 25  0     1  0  0  0  0  0999 V2000
   -3.0232   -3.6924    1.0038 H   0  0  0  0  0  0  0  0  0  0  0  0
   -3.0082   -2.6684    0.6318 C   0  0  0  0  0  0  0  0  0  0  0  0
   -3.6332   -2.0414    1.2658 H   0  0  0  0  0  0  0  0  0  0  0  0
   -3.3762   -2.6444   -0.3912 H   0  0  0  0  0  0  0  0  0  0  0  0
   -1.5882   -2.1554    0.6658 C   0  0  0  0  0  0  0  0  0  0  0  0
   -0.6832   -2.8764    1.0638 O   0  0  0  0  0  0  0  0  0  0  0  0
   -1.3952   -0.9084    0.2428 N   0  0  0  0  0  0  0  0  0  0  0  0
   -2.1972   -0.3644   -0.0422 H   0  0  0  0  0  0  0  0  0  0  0  0
   -0.1122   -0.1994    0.2658 C   0  0  1  0  0  0  0  0  0  0  0  0
    0.6820   -0.9247    0.4606 H   0  0  0  0  0  0  0  0  0  0  0  0
    0.1261    0.4414   -1.1197 C   0  0  0  0  0  0  0  0  0  0  0  0
   -0.7662    0.9910   -1.4175 H   0  0  0  0  0  0  0  0  0  0  0  0
    0.9548    1.1446   -1.0525 H   0  0  0  0  0  0  0  0  0  0  0  0
    0.4140   -0.5629   -2.2241 C   0  0  0  0  0  0  0  0  0  0  0  0
    1.1446   -1.5262   -2.0708 O   0  0  0  0  0  0  0  0  0  0  0  0
   -0.1489   -0.3664   -3.3915 N   0  0  0  0  0  0  0  0  0  0  0  0
    0.0455   -1.0555   -4.0966 H   0  0  0  0  0  0  0  0  0  0  0  0
   -0.7689    0.4077   -3.5376 H   0  0  0  0  0  0  0  0  0  0  0  0
   -0.1049    0.8387    1.4096 C   0  0  0  0  0  0  0  0  0  0  0  0
    0.2838    0.5136    2.5315 O   0  0  0  0  0  0  0  0  0  0  0  0
   -0.5391    2.0722    1.1339 N   0  0  0  0  0  0  0  0  0  0  0  0
   -0.9126    2.2338    0.2040 H   0  0  0  0  0  0  0  0  0  0  0  0
   -0.5838    3.1693    2.0989 C   0  0  0  0  0  0  0  0  0  0  0  0
    0.4118    3.3322    2.5171 H   0  0  0  0  0  0  0  0  0  0  0  0
   -0.9232    4.0838    1.6105 H   0  0  0  0  0  0  0  0  0  0  0  0
   -1.2683    2.9182    2.9109 H   0  0  0  0  0  0  0  0  0  0  0  0
  5  6  2  0  0  0  0
  5  7  1  0  0  0  0
  2  3  1  0  0  0  0
  2  4  1  0  0  0  0
  2  5  1  0  0  0  0
  1  2  1  0  0  0  0
 19 20  2  0  0  0  0
 19 21  1  0  0  0  0
 16 17  1  0  0  0  0
 16 18  1  0  0  0  0
 14 15  2  0  0  0  0
 14 16  1  0  0  0  0
 11 12  1  0  0  0  0
 11 13  1  0  0  0  0
 11 14  1  0  0  0  0
  9 10  1  0  0  0  0
  9 11  1  0  0  0  0
  9 19  1  0  0  0  0
  7  8  1  0  0  0  0
  7  9  1  0  0  0  0
 23 24  1  0  0  0  0
 23 25  1  0  0  0  0
 23 26  1  0  0  0  0
 21 22  1  0  0  0  0
 21 23  1  0  0  0  0
M  END
$$$$
default_name
  -OEChem-01062215323D

 26 25  0     1  0  0  0  0  0999 V2000
   -3.0232   -3.6924    1.0038 H   0  0  0  0  0  0  0  0  0  0  0  0
   -3.0082   -2.6684    0.6318 C   0  0  0  0  0  0  0  0  0  0  0  0
   -3.6332   -2.0414    1.2658 H   0  0  0  0  0  0  0  0  0  0  0  0
   -3.3762   -2.6444   -0.3912 H   0  0  0  0  0  0  0  0  0  0  0  0
   -1.5882   -2.1554    0.6658 C   0  0  0  0  0  0  0  0  0  0  0  0
   -0.6832   -2.8764    1.0638 O   0  0  0  0  0  0  0  0  0  0  0  0
   -1.3952   -0.9084    0.2428 N   0  0  0  0  0  0  0  0  0  0  0  0
   -2.1972   -0.3644   -0.0422 H   0  0  0  0  0  0  0  0  0  0  0  0
   -0.1122   -0.1994    0.2658 C   0  0  1  0  0  0  0  0  0  0  0  0
    0.6820   -0.9247    0.4606 H   0  0  0  0  0  0  0  0  0  0  0  0
    0.1261    0.4414   -1.1197 C   0  0  0  0  0  0  0  0  0  0  0  0
   -0.7662    0.9910   -1.4175 H   0  0  0  0  0  0  0  0  0  0  0  0
    0.9548    1.1446   -1.0525 H   0  0  0  0  0  0  0  0  0  0  0  0
    0.4140   -0.5629   -2.2241 C   0  0  0  0  0  0  0  0  0  0  0  0
    1.1446   -1.5262   -2.0708 O   0  0  0  0  0  0  0  0  0  0  0  0
   -0.1489   -0.3664   -3.3915 N   0  0  0  0  0  0  0  0  0  0  0  0
    0.0455   -1.0555   -4.0966 H   0  0  0  0  0  0  0  0  0  0  0  0
   -0.7689    0.4077   -3.5376 H   0  0  0  0  0  0  0  0  0  0  0  0
   -0.1049    0.8387    1.4096 C   0  0  0  0  0  0  0  0  0  0  0  0
    0.5281    0.6119    2.4408 O   0  0  0  0  0  0  0  0  0  0  0  0
   -0.8086    1.9616    1.2360 N   0  0  0  0  0  0  0  0  0  0  0  0
   -1.3622    2.0339    0.3883 H   0  0  0  0  0  0  0  0  0  0  0  0
   -0.8940    3.0448    2.2139 C   0  0  0  0  0  0  0  0  0  0  0  0
    0.1093    3.4021    2.4556 H   0  0  0  0  0  0  0  0  0  0  0  0
   -1.4819    3.8694    1.8086 H   0  0  0  0  0  0  0  0  0  0  0  0
   -1.3657    2.6799    3.1278 H   0  0  0  0  0  0  0  0  0  0  0  0
  5  6  2  0  0  0  0
  5  7  1  0  0  0  0
  2  3  1  0  0  0  0
  2  4  1  0  0  0  0
  2  5  1  0  0  0  0
  1  2  1  0  0  0  0
 19 20  2  0  0  0  0
 19 21  1  0  0  0  0
 16 17  1  0  0  0  0
 16 18  1  0  0  0  0
 14 15  2  0  0  0  0
 14 16  1  0  0  0  0
 11 12  1  0  0  0  0
 11 13  1  0  0  0  0
 11 14  1  0  0  0  0
  9 10  1  0  0  0  0
  9 11  1  0  0  0  0
  9 19  1  0  0  0  0
  7  8  1  0  0  0  0
  7  9  1  0  0  0  0
 23 24  1  0  0  0  0
 23 25  1  0  0  0  0
 23 26  1  0  0  0  0
 21 22  1  0  0  0  0
 21 23  1  0  0  0  0
M  END
$$$$
default_name
  -OEChem-01062215323D

 26 25  0     1  0  0  0  0  0999 V2000
   -3.0232   -3.6924    1.0038 H   0  0  0  0  0  0  0  0  0  0  0  0
   -3.0082   -2.6684    0.6318 C   0  0  0  0  0  0  0  0  0  0  0  0
   -3.6332   -2.0414    1.2658 H   0  0  0  0  0  0  0  0  0  0  0  0
   -3.3762   -2.6444   -0.3912 H   0  0  0  0  0  0  0  0  0  0  0  0
   -1.5882   -2.1554    0.6658 C   0  0  0  0  0  0  0  0  0  0  0  0
   -0.6832   -2.8764    1.0638 O   0  0  0  0  0  0  0  0  0  0  0  0
   -1.3952   -0.9084    0.2428 N   0  0  0  0  0  0  0  0  0  0  0  0
   -2.1972   -0.3644   -0.0422 H   0  0  0  0  0  0  0  0  0  0  0  0
   -0.1122   -0.1994    0.2658 C   0  0  1  0  0  0  0  0  0  0  0  0
    0.6820   -0.9247    0.4606 H   0  0  0  0  0  0  0  0  0  0  0  0
    0.1261    0.4414   -1.1197 C   0  0  0  0  0  0  0  0  0  0  0  0
   -0.7662    0.9910   -1.4175 H   0  0  0  0  0  0  0  0  0  0  0  0
    0.9548    1.1446   -1.0525 H   0  0  0  0  0  0  0  0  0  0  0  0
    0.4140   -0.5629   -2.2241 C   0  0  0  0  0  0  0  0  0  0  0  0
    1.1446   -1.5262   -2.0708 O   0  0  0  0  0  0  0  0  0  0  0  0
   -0.1489   -0.3664   -3.3915 N   0  0  0  0  0  0  0  0  0  0  0  0
    0.0455   -1.0555   -4.0966 H   0  0  0  0  0  0  0  0  0  0  0  0
   -0.7689    0.4077   -3.5376 H   0  0  0  0  0  0  0  0  0  0  0  0
   -0.1049    0.8387    1.4096 C   0  0  0  0  0  0  0  0  0  0  0  0
    0.7295    0.7537    2.3107 O   0  0  0  0  0  0  0  0  0  0  0  0
   -1.0299    1.8029    1.3814 N   0  0  0  0  0  0  0  0  0  0  0  0
   -1.7260    1.7544    0.6443 H   0  0  0  0  0  0  0  0  0  0  0  0
   -1.1496    2.8649    2.3788 C   0  0  0  0  0  0  0  0  0  0  0  0
   -0.2069    3.4118    2.4489 H   0  0  0  0  0  0  0  0  0  0  0  0
   -1.9461    3.5550    2.0970 H   0  0  0  0  0  0  0  0  0  0  0  0
   -1.3763    2.4307    3.3540 H   0  0  0  0  0  0  0  0  0  0  0  0
  5  6  2  0  0  0  0
  5  7  1  0  0  0  0
  2  3  1  0  0  0  0
  2  4  1  0  0  0  0
  2  5  1  0  0  0  0
  1  2  1  0  0  0  0
 19 20  2  0  0  0  0
 19 21  1  0  0  0  0
 16 17  1  0  0  0  0
 16 18  1  0  0  0  0
 14 15  2  0  0  0  0
 14 16  1  0  0  0  0
 11 12  1  0  0  0  0
 11 13  1  0  0  0  0
 11 14  1  0  0  0  0
  9 10  1  0  0  0  0
  9 11  1  0  0  0  0
  9 19  1  0  0  0  0
  7  8  1  0  0  0  0
  7  9  1  0  0  0  0
 23 24  1  0  0  0  0
 23 25  1  0  0  0  0
 23 26  1  0  0  0  0
 21 22  1  0  0  0  0
 21 23  1  0  0  0  0
M  END
$$$$
default_name
  -OEChem-01062215323D

 26 25  0     1  0  0  0  0  0999 V2000
   -3.0232   -3.6924    1.0038 H   0  0  0  0  0  0  0  0  0  0  0  0
   -3.0082   -2.6684    0.6318 C   0  0  0  0  0  0  0  0  0  0  0  0
   -3.6332   -2.0414    1.2658 H   0  0  0  0  0  0  0  0  0  0  0  0
   -3.3762   -2.6444   -0.3912 H   0  0  0  0  0  0  0  0  0  0  0  0
   -1.5882   -2.1554    0.6658 C   0  0  0  0  0  0  0  0  0  0  0  0
   -0.6832   -2.8764    1.0638 O   0  0  0  0  0  0  0  0  0  0  0  0
   -1.3952   -0.9084    0.2428 N   0  0  0  0  0  0  0  0  0  0  0  0
   -2.1972   -0.3644   -0.0422 H   0  0  0  0  0  0  0  0  0  0  0  0
   -0.1122   -0.1994    0.2658 C   0  0  1  0  0  0  0  0  0  0  0  0
    0.6820   -0.9247    0.4606 H   0  0  0  0  0  0  0  0  0  0  0  0
    0.1261    0.4414   -1.1197 C   0  0  0  0  0  0  0  0  0  0  0  0
   -0.7662    0.9910   -1.4175 H   0  0  0  0  0  0  0  0  0  0  0  0
    0.9548    1.1446   -1.0525 H   0  0  0  0  0  0  0  0  0  0  0  0
    0.4140   -0.5629   -2.2241 C   0  0  0  0  0  0  0  0  0  0  0  0
    1.1446   -1.5262   -2.0708 O   0  0  0  0  0  0  0  0  0  0  0  0
   -0.1489   -0.3664   -3.3915 N   0  0  0  0  0  0  0  0  0  0  0  0
    0.0455   -1.0555   -4.0966 H   0  0  0  0  0  0  0  0  0  0  0  0
   -0.7689    0.4077   -3.5376 H   0  0  0  0  0  0  0  0  0  0  0  0
   -0.1049    0.8387    1.4096 C   0  0  0  0  0  0  0  0  0  0  0  0
    0.8742    0.9295    2.1503 O   0  0  0  0  0  0  0  0  0  0  0  0
   -1.1880    1.6071    1.5602 N   0  0  0  0  0  0  0  0  0  0  0  0
   -1.9794    1.4144    0.9545 H   0  0  0  0  0  0  0  0  0  0  0  0
   -1.3334    2.6419    2.5823 C   0  0  0  0  0  0  0  0  0  0  0  0
   -0.5154    3.3605    2.4974 H   0  0  0  0  0  0  0  0  0  0  0  0
   -2.2840    3.1620    2.4558 H   0  0  0  0  0  0  0  0  0  0  0  0
   -1.2995    2.1877    3.5740 H   0  0  0  0  0  0  0  0  0  0  0  0
  5  6  2  0  0  0  0
  5  7  1  0  0  0  0
  2  3  1  0  0  0  0
  2  4  1  0  0  0  0
  2  5  1  0  0  0  0
  1  2  1  0  0  0  0
 19 20  2  0  0  0  0
 19 21  1  0  0  0  0
 16 17  1  0  0  0  0
 16 18  1  0  0  0  0
 14 15  2  0  0  0  0
 14 16  1  0  0  0  0
 11 12  1  0  0  0  0
 11 13  1  0  0  0  0
 11 14  1  0  0  0  0
  9 10  1  0  0  0  0
  9 11  1  0  0  0  0
  9 19  1  0  0  0  0
  7  8  1  0  0  0  0
  7  9  1  0  0  0  0
 23 24  1  0  0  0  0
 23 25  1  0  0  0  0
 23 26  1  0  0  0  0
 21 22  1  0  0  0  0
 21 23  1  0  0  0  0
M  END
$$$$
default_name
  -OEChem-01062215323D

 26 25  0     1  0  0  0  0  0999 V2000
   -3.0232   -3.6924    1.0038 H   0  0  0  0  0  0  0  0  0  0  0  0
   -3.0082   -2.6684    0.6318 C   0  0  0  0  0  0  0  0  0  0  0  0
   -3.6332   -2.0414    1.2658 H   0  0  0  0  0  0  0  0  0  0  0  0
   -3.3762   -2.6444   -0.3912 H   0  0  0  0  0  0  0  0  0  0  0  0
   -1.5882   -2.1554    0.6658 C   0  0  0  0  0  0  0  0  0  0  0  0
   -0.6832   -2.8764    1.0638 O   0  0  0  0  0  0  0  0  0  0  0  0
   -1.3952   -0.9084    0.2428 N   0  0  0  0  0  0  0  0  0  0  0  0
   -2.1972   -0.3644   -0.0422 H   0  0  0  0  0  0  0  0  0  0  0  0
   -0.1122   -0.1994    0.2658 C   0  0  1  0  0  0  0  0  0  0  0  0
    0.6820   -0.9247    0.4606 H   0  0  0  0  0  0  0  0  0  0  0  0
    0.1261    0.4414   -1.1197 C   0  0  0  0  0  0  0  0  0  0  0  0
   -0.7662    0.9910   -1.4175 H   0  0  0  0  0  0  0  0  0  0  0  0
    0.9548    1.1446   -1.0525 H   0  0  0  0  0  0  0  0  0  0  0  0
    0.4140   -0.5629   -2.2241 C   0  0  0  0  0  0  0  0  0  0  0  0
    1.1446   -1.5262   -2.0708 O   0  0  0  0  0  0  0  0  0  0  0  0
   -0.1489   -0.3664   -3.3915 N   0  0  0  0  0  0  0  0  0  0  0  0
    0.0455   -1.0555   -4.0966 H   0  0  0  0  0  0  0  0  0  0  0  0
   -0.7689    0.4077   -3.5376 H   0  0  0  0  0  0  0  0  0  0  0  0
   -0.1049    0.8387    1.4096 C   0  0  0  0  0  0  0  0  0  0  0  0
    0.9524    1.1272    1.9704 O   0  0  0  0  0  0  0  0  0  0  0  0
   -1.2721    1.3874    1.7601 N   0  0  0  0  0  0  0  0  0  0  0  0
   -2.1050    1.0370    1.2978 H   0  0  0  0  0  0  0  0  0  0  0  0
   -1.4329    2.3911    2.8106 C   0  0  0  0  0  0  0  0  0  0  0  0
   -0.7951    3.2518    2.5979 H   0  0  0  0  0  0  0  0  0  0  0  0
   -2.4727    2.7172    2.8607 H   0  0  0  0  0  0  0  0  0  0  0  0
   -1.1405    1.9675    3.7729 H   0  0  0  0  0  0  0  0  0  0  0  0
  5  6  2  0  0  0  0
  5  7  1  0  0  0  0
  2  3  1  0  0  0  0
  2  4  1  0  0  0  0
  2  5  1  0  0  0  0
  1  2  1  0  0  0  0
 19 20  2  0  0  0  0
 19 21  1  0  0  0  0
 16 17  1  0  0  0  0
 16 18  1  0  0  0  0
 14 15  2  0  0  0  0
 14 16  1  0  0  0  0
 11 12  1  0  0  0  0
 11 13  1  0  0  0  0
 11 14  1  0  0  0  0
  9 10  1  0  0  0  0
  9 11  1  0  0  0  0
  9 19  1  0  0  0  0
  7  8  1  0  0  0  0
  7  9  1  0  0  0  0
 23 24  1  0  0  0  0
 23 25  1  0  0  0  0
 23 26  1  0  0  0  0
 21 22  1  0  0  0  0
 21 23  1  0  0  0  0
M  END
$$$$
default_name
  -OEChem-01062215323D

 26 25  0     1  0  0  0  0  0999 V2000
   -3.0232   -3.6924    1.0038 H   0  0  0  0  0  0  0  0  0  0  0  0
   -3.0082   -2.6684    0.6318 C   0  0  0  0  0  0  0  0  0  0  0  0
   -3.6332   -2.0414    1.2658 H   0  0  0  0  0  0  0  0  0  0  0  0
   -3.3762   -2.6444   -0.3912 H   0  0  0  0  0  0  0  0  0  0  0  0
   -1.5882   -2.1554    0.6658 C   0  0  0  0  0  0  0  0  0  0  0  0
   -0.6832   -2.8764    1.0638 O   0  0  0  0  0  0  0  0  0  0  0  0
   -1.3952   -0.9084    0.2428 N   0  0  0  0  0  0  0  0  0  0  0  0
   -2.1972   -0.3644   -0.0422 H   0  0  0  0  0  0  0  0  0  0  0  0
   -0.1122   -0.1994    0.2658 C   0  0  1  0  0  0  0  0  0  0  0  0
    0.6820   -0.9247    0.4606 H   0  0  0  0  0  0  0  0  0  0  0  0
    0.1261    0.4414   -1.1197 C   0  0  0  0  0  0  0  0  0  0  0  0
   -0.7662    0.9910   -1.4175 H   0  0  0  0  0  0  0  0  0  0  0  0
    0.9548    1.1446   -1.0525 H   0  0  0  0  0  0  0  0  0  0  0  0
    0.4140   -0.5629   -2.2241 C   0  0  0  0  0  0  0  0  0  0  0  0
    1.1446   -1.5262   -2.0708 O   0  0  0  0  0  0  0  0  0  0  0  0
   -0.1489   -0.3664   -3.3915 N   0  0  0  0  0  0  0  0  0  0  0  0
    0.0455   -1.0555   -4.0966 H   0  0  0  0  0  0  0  0  0  0  0  0
   -0.7689    0.4077   -3.5376 H   0  0  0  0  0  0  0  0  0  0  0  0
   -0.1049    0.8387    1.4096 C   0  0  0  0  0  0  0  0  0  0  0  0
    0.9587    1.3334    1.7832 O   0  0  0  0  0  0  0  0  0  0  0  0
   -1.2764    1.1589    1.9676 N   0  0  0  0  0  0  0  0  0  0  0  0
   -2.0943    0.6480    1.6508 H   0  0  0  0  0  0  0  0  0  0  0  0
   -1.4411    2.1295    3.0481 C   0  0  0  0  0  0  0  0  0  0  0  0
   -1.0270    3.0930    2.7434 H   0  0  0  0  0  0  0  0  0  0  0  0
   -2.4992    2.2508    3.2841 H   0  0  0  0  0  0  0  0  0  0  0  0
   -0.9101    1.7850    3.9370 H   0  0  0  0  0  0  0  0  0  0  0  0
  5  6  2  0  0  0  0
  5  7  1  0  0  0  0
  2  3  1  0  0  0  0
  2  4  1  0  0  0  0
  2  5  1  0  0  0  0
  1  2  1  0  0  0  0
 19 20  2  0  0  0  0
 19 21  1  0  0  0  0
 16 17  1  0  0  0  0
 16 18  1  0  0  0  0
 14 15  2  0  0  0  0
 14 16  1  0  0  0  0
 11 12  1  0  0  0  0
 11 13  1  0  0  0  0
 11 14  1  0  0  0  0
  9 10  1  0  0  0  0
  9 11  1  0  0  0  0
  9 19  1  0  0  0  0
  7  8  1  0  0  0  0
  7  9  1  0  0  0  0
 23 24  1  0  0  0  0
 23 25  1  0  0  0  0
 23 26  1  0  0  0  0
 21 22  1  0  0  0  0
 21 23  1  0  0  0  0
M  END
$$$$
default_name
  -OEChem-01062215323D

 26 25  0     1  0  0  0  0  0999 V2000
   -3.0232   -3.6924    1.0038 H   0  0  0  0  0  0  0  0  0  0  0  0
   -3.0082   -2.6684    0.6318 C   0  0  0  0  0  0  0  0  0  0  0  0
   -3.6332   -2.0414    1.2658 H   0  0  0  0  0  0  0  0  0  0  0  0
   -3.3762   -2.6444   -0.3912 H   0  0  0  0  0  0  0  0  0  0  0  0
   -1.5882   -2.1554    0.6658 C   0  0  0  0  0  0  0  0  0  0  0  0
   -0.6832   -2.8764    1.0638 O   0  0  0  0  0  0  0  0  0  0  0  0
   -1.3952   -0.9084    0.2428 N   0  0  0  0  0  0  0  0  0  0  0  0
   -2.1972   -0.3644   -0.0422 H   0  0  0  0  0  0  0  0  0  0  0  0
   -0.1122   -0.1994    0.2658 C   0  0  1  0  0  0  0  0  0  0  0  0
    0.6820   -0.9247    0.4606 H   0  0  0  0  0  0  0  0  0  0  0  0
    0.1261    0.4414   -1.1197 C   0  0  0  0  0  0  0  0  0  0  0  0
   -0.7662    0.9910   -1.4175 H   0  0  0  0  0  0  0  0  0  0  0  0
    0.9548    1.1446   -1.0525 H   0  0  0  0  0  0  0  0  0  0  0  0
    0.4140   -0.5629   -2.2241 C   0  0  0  0  0  0  0  0  0  0  0  0
    1.1446   -1.5262   -2.0708 O   0  0  0  0  0  0  0  0  0  0  0  0
   -0.1489   -0.3664   -3.3915 N   0  0  0  0  0  0  0  0  0  0  0  0
    0.0455   -1.0555   -4.0966 H   0  0  0  0  0  0  0  0  0  0  0  0
   -0.7689    0.4077   -3.5376 H   0  0  0  0  0  0  0  0  0  0  0  0
   -0.1049    0.8387    1.4096 C   0  0  0  0  0  0  0  0  0  0  0  0
    0.8927    1.5340    1.6016 O   0  0  0  0  0  0  0  0  0  0  0  0
   -1.2007    0.9370    2.1684 N   0  0  0  0  0  0  0  0  0  0  0  0
   -1.9480    0.2738    1.9894 H   0  0  0  0  0  0  0  0  0  0  0  0
   -1.3576    1.8749    3.2786 C   0  0  0  0  0  0  0  0  0  0  0  0
   -1.1952    2.8951    2.9242 H   0  0  0  0  0  0  0  0  0  0  0  0
   -2.3618    1.7948    3.6971 H   0  0  0  0  0  0  0  0  0  0  0  0
   -0.6240    1.6527    4.0553 H   0  0  0  0  0  0  0  0  0  0  0  0
  5  6  2  0  0  0  0
  5  7  1  0  0  0  0
  2  3  1  0  0  0  0
  2  4  1  0  0  0  0
  2  5  1  0  0  0  0
  1  2  1  0  0  0  0
 19 20  2  0  0  0  0
 19 21  1  0  0  0  0
 16 17  1  0  0  0  0
 16 18  1  0  0  0  0
 14 15  2  0  0  0  0
 14 16  1  0  0  0  0
 11 12  1  0  0  0  0
 11 13  1  0  0  0  0
 11 14  1  0  0  0  0
  9 10  1  0  0  0  0
  9 11  1  0  0  0  0
  9 19  1  0  0  0  0
  7  8  1  0  0  0  0
  7  9  1  0  0  0  0
 23 24  1  0  0  0  0
 23 25  1  0  0  0  0
 23 26  1  0  0  0  0
 21 22  1  0  0  0  0
 21 23  1  0  0  0  0
M  END
$$$$
default_name
  -OEChem-01062215323D

 26 25  0     1  0  0  0  0  0999 V2000
   -3.0232   -3.6924    1.0038 H   0  0  0  0  0  0  0  0  0  0  0  0
   -3.0082   -2.6684    0.6318 C   0  0  0  0  0  0  0  0  0  0  0  0
   -3.6332   -2.0414    1.2658 H   0  0  0  0  0  0  0  0  0  0  0  0
   -3.3762   -2.6444   -0.3912 H   0  0  0  0  0  0  0  0  0  0  0  0
   -1.5882   -2.1554    0.6658 C   0  0  0  0  0  0  0  0  0  0  0  0
   -0.6832   -2.8764    1.0638 O   0  0  0  0  0  0  0  0  0  0  0  0
   -1.3952   -0.9084    0.2428 N   0  0  0  0  0  0  0  0  0  0  0  0
   -2.1972   -0.3644   -0.0422 H   0  0  0  0  0  0  0  0  0  0  0  0
   -0.1122   -0.1994    0.2658 C   0  0  1  0  0  0  0  0  0  0  0  0
    0.6820   -0.9247    0.4606 H   0  0  0  0  0  0  0  0  0  0  0  0
    0.1261    0.4414   -1.1197 C   0  0  0  0  0  0  0  0  0  0  0  0
   -0.7662    0.9910   -1.4175 H   0  0  0  0  0  0  0  0  0  0  0  0
    0.9548    1.1446   -1.0525 H   0  0  0  0  0  0  0  0  0  0  0  0
    0.4140   -0.5629   -2.2241 C   0  0  0  0  0  0  0  0  0  0  0  0
    1.1446   -1.5262   -2.0708 O   0  0  0  0  0  0  0  0  0  0  0  0
   -0.1489   -0.3664   -3.3915 N   0  0  0  0  0  0  0  0  0  0  0  0
    0.0455   -1.0555   -4.0966 H   0  0  0  0  0  0  0  0  0  0  0  0
   -0.7689    0.4077   -3.5376 H   0  0  0  0  0  0  0  0  0  0  0  0
   -0.1049    0.8387    1.4096 C   0  0  0  0  0  0  0  0  0  0  0  0
    0.7590    1.7153    1.4379 O   0  0  0  0  0  0  0  0  0  0  0  0
   -1.0501    0.7370    2.3490 N   0  0  0  0  0  0  0  0  0  0  0  0
   -1.6761   -0.0599    2.2906 H   0  0  0  0  0  0  0  0  0  0  0  0
   -1.1881    1.6447    3.4864 C   0  0  0  0  0  0  0  0  0  0  0  0
   -1.2883    2.6714    3.1278 H   0  0  0  0  0  0  0  0  0  0  0  0
   -2.0699    1.3801    4.0716 H   0  0  0  0  0  0  0  0  0  0  0  0
   -0.3017    1.5796    4.1196 H   0  0  0  0  0  0  0  0  0  0  0  0
  5  6  2  0  0  0  0
  5  7  1  0  0  0  0
  2  3  1  0  0  0  0
  2  4  1  0  0  0  0
  2  5  1  0  0  0  0
  1  2  1  0  0  0  0
 19 20  2  0  0  0  0
 19 21  1  0  0  0  0
 16 17  1  0  0  0  0
 16 18  1  0  0  0  0
 14 15  2  0  0  0  0
 14 16  1  0  0  0  0
 11 12  1  0  0  0  0
 11 13  1  0  0  0  0
 11 14  1  0  0  0  0
  9 10  1  0  0  0  0
  9 11  1  0  0  0  0
  9 19  1  0  0  0  0
  7  8  1  0  0  0  0
  7  9  1  0  0  0  0
 23 24  1  0  0  0  0
 23 25  1  0  0  0  0
 23 26  1  0  0  0  0
 21 22  1  0  0  0  0
 21 23  1  0  0  0  0
M  END
$$$$
default_name
  -OEChem-01062215323D

 26 25  0     1  0  0  0  0  0999 V2000
   -3.0232   -3.6924    1.0038 H   0  0  0  0  0  0  0  0  0  0  0  0
   -3.0082   -2.6684    0.6318 C   0  0  0  0  0  0  0  0  0  0  0  0
   -3.6332   -2.0414    1.2658 H   0  0  0  0  0  0  0  0  0  0  0  0
   -3.3762   -2.6444   -0.3912 H   0  0  0  0  0  0  0  0  0  0  0  0
   -1.5882   -2.1554    0.6658 C   0  0  0  0  0  0  0  0  0  0  0  0
   -0.6832   -2.8764    1.0638 O   0  0  0  0  0  0  0  0  0  0  0  0
   -1.3952   -0.9084    0.2428 N   0  0  0  0  0  0  0  0  0  0  0  0
   -2.1972   -0.3644   -0.0422 H   0  0  0  0  0  0  0  0  0  0  0  0
   -0.1122   -0.1994    0.2658 C   0  0  1  0  0  0  0  0  0  0  0  0
    0.6820   -0.9247    0.4606 H   0  0  0  0  0  0  0  0  0  0  0  0
    0.1261    0.4414   -1.1197 C   0  0  0  0  0  0  0  0  0  0  0  0
   -0.7662    0.9910   -1.4175 H   0  0  0  0  0  0  0  0  0  0  0  0
    0.9548    1.1446   -1.0525 H   0  0  0  0  0  0  0  0  0  0  0  0
    0.4140   -0.5629   -2.2241 C   0  0  0  0  0  0  0  0  0  0  0  0
    1.1446   -1.5262   -2.0708 O   0  0  0  0  0  0  0  0  0  0  0  0
   -0.1489   -0.3664   -3.3915 N   0  0  0  0  0  0  0  0  0  0  0  0
    0.0455   -1.0555   -4.0966 H   0  0  0  0  0  0  0  0  0  0  0  0
   -0.7689    0.4077   -3.5376 H   0  0  0  0  0  0  0  0  0  0  0  0
   -0.1049    0.8387    1.4096 C   0  0  0  0  0  0  0  0  0  0  0  0
    0.5665    1.8650    1.3032 O   0  0  0  0  0  0  0  0  0  0  0  0
   -0.8349    0.5724    2.4970 N   0  0  0  0  0  0  0  0  0  0  0  0
   -1.2971   -0.3306    2.5338 H   0  0  0  0  0  0  0  0  0  0  0  0
   -0.9441    1.4546    3.6574 C   0  0  0  0  0  0  0  0  0  0  0  0
   -1.2999    2.4373    3.3403 H   0  0  0  0  0  0  0  0  0  0  0  0
   -1.6433    1.0351    4.3820 H   0  0  0  0  0  0  0  0  0  0  0  0
    0.0348    1.5706    4.1256 H   0  0  0  0  0  0  0  0  0  0  0  0
  5  6  2  0  0  0  0
  5  7  1  0  0  0  0
  2  3  1  0  0  0  0
  2  4  1  0  0  0  0
  2  5  1  0  0  0  0
  1  2  1  0  0  0  0
 19 20  2  0  0  0  0
 19 21  1  0  0  0  0
 16 17  1  0  0  0  0
 16 18  1  0  0  0  0
 14 15  2  0  0  0  0
 14 16  1  0  0  0  0
 11 12  1  0  0  0  0
 11 13  1  0  0  0  0
 11 14  1  0  0  0  0
  9 10  1  0  0  0  0
  9 11  1  0  0  0  0
  9 19  1  0  0  0  0
  7  8  1  0  0  0  0
  7  9  1  0  0  0  0
 23 24  1  0  0  0  0
 23 25  1  0  0  0  0
 23 26  1  0  0  0  0
 21 22  1  0  0  0  0
 21 23  1  0  0  0  0
M  END
$$$$
default_name
  -OEChem-01062215323D

 26 25  0     1  0  0  0  0  0999 V2000
   -3.0232   -3.6924    1.0038 H   0  0  0  0  0  0  0  0  0  0  0  0
   -3.0082   -2.6684    0.6318 C   0  0  0  0  0  0  0  0  0  0  0  0
   -3.6332   -2.0414    1.2658 H   0  0  0  0  0  0  0  0  0  0  0  0
   -3.3762   -2.6444   -0.3912 H   0  0  0  0  0  0  0  0  0  0  0  0
   -1.5882   -2.1554    0.6658 C   0  0  0  0  0  0  0  0  0  0  0  0
   -0.6832   -2.8764    1.0638 O   0  0  0  0  0  0  0  0  0  0  0  0
   -1.3952   -0.9084    0.2428 N   0  0  0  0  0  0  0  0  0  0  0  0
   -2.1972   -0.3644   -0.0422 H   0  0  0  0  0  0  0  0  0  0  0  0
   -0.1122   -0.1994    0.2658 C   0  0  1  0  0  0  0  0  0  0  0  0
    0.6820   -0.9247    0.4606 H   0  0  0  0  0  0  0  0  0  0  0  0
    0.1261    0.4414   -1.1197 C   0  0  0  0  0  0  0  0  0  0  0  0
   -0.7662    0.9910   -1.4175 H   0  0  0  0  0  0  0  0  0  0  0  0
    0.9548    1.1446   -1.0525 H   0  0  0  0  0  0  0  0  0  0  0  0
    0.4140   -0.5629   -2.2241 C   0  0  0  0  0  0  0  0  0  0  0  0
    1.1446   -1.5262   -2.0708 O   0  0  0  0  0  0  0  0  0  0  0  0
   -0.1489   -0.3664   -3.3915 N   0  0  0  0  0  0  0  0  0  0  0  0
    0.0455   -1.0555   -4.0966 H   0  0  0  0  0  0  0  0  0  0  0  0
   -0.7689    0.4077   -3.5376 H   0  0  0  0  0  0  0  0  0  0  0  0
   -0.1049    0.8387    1.4096 C   0  0  0  0  0  0  0  0  0  0  0  0
    0.3286    1.9729    1.2068 O   0  0  0  0  0  0  0  0  0  0  0  0
   -0.5697    0.4545    2.6023 N   0  0  0  0  0  0  0  0  0  0  0  0
   -0.8368   -0.5197    2.7024 H   0  0  0  0  0  0  0  0  0  0  0  0
   -0.6422    1.3175    3.7799 C   0  0  0  0  0  0  0  0  0  0  0  0
   -1.2294    2.2086    3.5474 H   0  0  0  0  0  0  0  0  0  0  0  0
   -1.1111    0.7832    4.6073 H   0  0  0  0  0  0  0  0  0  0  0  0
    0.3626    1.6265    4.0728 H   0  0  0  0  0  0  0  0  0  0  0  0
  5  6  2  0  0  0  0
  5  7  1  0  0  0  0
  2  3  1  0  0  0  0
  2  4  1  0  0  0  0
  2  5  1  0  0  0  0
  1  2  1  0  0  0  0
 19 20  2  0  0  0  0
 19 21  1  0  0  0  0
 16 17  1  0  0  0  0
 16 18  1  0  0  0  0
 14 15  2  0  0  0  0
 14 16  1  0  0  0  0
 11 12  1  0  0  0  0
 11 13  1  0  0  0  0
 11 14  1  0  0  0  0
  9 10  1  0  0  0  0
  9 11  1  0  0  0  0
  9 19  1  0  0  0  0
  7  8  1  0  0  0  0
  7  9  1  0  0  0  0
 23 24  1  0  0  0  0
 23 25  1  0  0  0  0
 23 26  1  0  0  0  0
 21 22  1  0  0  0  0
 21 23  1  0  0  0  0
M  END
$$$$
default_name
  -OEChem-01062215323D

 26 25  0     1  0  0  0  0  0999 V2000
   -3.0232   -3.6924    1.0038 H   0  0  0  0  0  0  0  0  0  0  0  0
   -3.0082   -2.6684    0.6318 C   0  0  0  0  0  0  0  0  0  0  0  0
   -3.6332   -2.0414    1.2658 H   0  0  0  0  0  0  0  0  0  0  0  0
   -3.3762   -2.6444   -0.3912 H   0  0  0  0  0  0  0  0  0  0  0  0
   -1.5882   -2.1554    0.6658 C   0  0  0  0  0  0  0  0  0  0  0  0
   -0.6832   -2.8764    1.0638 O   0  0  0  0  0  0  0  0  0  0  0  0
   -1.3952   -0.9084    0.2428 N   0  0  0  0  0  0  0  0  0  0  0  0
   -2.1972   -0.3644   -0.0422 H   0  0  0  0  0  0  0  0  0  0  0  0
   -0.1122   -0.1994    0.2658 C   0  0  1  0  0  0  0  0  0  0  0  0
    0.6820   -0.9247    0.4606 H   0  0  0  0  0  0  0  0  0  0  0  0
    0.1261    0.4414   -1.1197 C   0  0  0  0  0  0  0  0  0  0  0  0
   -0.7662    0.9910   -1.4175 H   0  0  0  0  0  0  0  0  0  0  0  0
    0.9548    1.1446   -1.0525 H   0  0  0  0  0  0  0  0  0  0  0  0
    0.4140   -0.5629   -2.2241 C   0  0  0  0  0  0  0  0  0  0  0  0
    1.1446   -1.5262   -2.0708 O   0  0  0  0  0  0  0  0  0  0  0  0
   -0.1489   -0.3664   -3.3915 N   0  0  0  0  0  0  0  0  0  0  0  0
    0.0455   -1.0555   -4.0966 H   0  0  0  0  0  0  0  0  0  0  0  0
   -0.7689    0.4077   -3.5376 H   0  0  0  0  0  0  0  0  0  0  0  0
   -0.1049    0.8387    1.4096 C   0  0  0  0  0  0  0  0  0  0  0  0
    0.0612    2.0316    1.1552 O   0  0  0  0  0  0  0  0  0  0  0  0
   -0.2727    0.3913    2.6578 N   0  0  0  0  0  0  0  0  0  0  0  0
   -0.3267   -0.6143    2.7851 H   0  0  0  0  0  0  0  0  0  0  0  0
   -0.3031    1.2428    3.8455 C   0  0  0  0  0  0  0  0  0  0  0  0
   -1.0813    2.0010    3.7349 H   0  0  0  0  0  0  0  0  0  0  0  0
   -0.5096    0.6415    4.7320 H   0  0  0  0  0  0  0  0  0  0  0  0
    0.6594    1.7433    3.9649 H   0  0  0  0  0  0  0  0  0  0  0  0
  5  6  2  0  0  0  0
  5  7  1  0  0  0  0
  2  3  1  0  0  0  0
  2  4  1  0  0  0  0
  2  5  1  0  0  0  0
  1  2  1  0  0  0  0
 19 20  2  0  0  0  0
 19 21  1  0  0  0  0
 16 17  1  0  0  0  0
 16 18  1  0  0  0  0
 14 15  2  0  0  0  0
 14 16  1  0  0  0  0
 11 12  1  0  0  0  0
 11 13  1  0  0  0  0
 11 14  1  0  0  0  0
  9 10  1  0  0  0  0
  9 11  1  0  0  0  0
  9 19  1  0  0  0  0
  7  8  1  0  0  0  0
  7  9  1  0  0  0  0
 23 24  1  0  0  0  0
 23 25  1  0  0  0  0
 23 26  1  0  0  0  0
 21 22  1  0  0  0  0
 21 23  1  0  0  0  0
M  END
$$$$
default_name
  -OEChem-01062215323D

 26 25  0     1  0  0  0  0  0999 V2000
   -3.0232   -3.6924    1.0038 H   0  0  0  0  0  0  0  0  0  0  0  0
   -3.0082   -2.6684    0.6318 C   0  0  0  0  0  0  0  0  0  0  0  0
   -3.6332   -2.0414    1.2658 H   0  0  0  0  0  0  0  0  0  0  0  0
   -3.3762   -2.6444   -0.3912 H   0  0  0  0  0  0  0  0  0  0  0  0
   -1.5882   -2.1554    0.6658 C   0  0  0  0  0  0  0  0  0  0  0  0
   -0.6832   -2.8764    1.0638 O   0  0  0  0  0  0  0  0  0  0  0  0
   -1.3952   -0.9084    0.2428 N   0  0  0  0  0  0  0  0  0  0  0  0
   -2.1972   -0.3644   -0.0422 H   0  0  0  0  0  0  0  0  0  0  0  0
   -0.1122   -0.1994    0.2658 C   0  0  1  0  0  0  0  0  0  0  0  0
    0.6820   -0.9247    0.4606 H   0  0  0  0  0  0  0  0  0  0  0  0
    0.1261    0.4414   -1.1197 C   0  0  0  0  0  0  0  0  0  0  0  0
   -0.7662    0.9910   -1.4175 H   0  0  0  0  0  0  0  0  0  0  0  0
    0.9548    1.1446   -1.0525 H   0  0  0  0  0  0  0  0  0  0  0  0
    0.4140   -0.5629   -2.2241 C   0  0  0  0  0  0  0  0  0  0  0  0
    1.1446   -1.5262   -2.0708 O   0  0  0  0  0  0  0  0  0  0  0  0
   -0.1489   -0.3664   -3.3915 N   0  0  0  0  0  0  0  0  0  0  0  0
    0.0455   -1.0555   -4.0966 H   0  0  0  0  0  0  0  0  0  0  0  0
   -0.7689    0.4077   -3.5376 H   0  0  0  0  0  0  0  0  0  0  0  0
   -0.1049    0.8387    1.4096 C   0  0  0  0  0  0  0  0  0  0  0  0
   -0.2172    2.0372    1.1519 O   0  0  0  0  0  0  0  0  0  0  0  0
    0.0360    0.3871    2.6596 N   0  0  0  0  0  0  0  0  0  0  0  0
    0.1986   -0.6080    2.7760 H   0  0  0  0  0  0  0  0  0  0  0  0
    0.0503    1.2356    3.8498 C   0  0  0  0  0  0  0  0  0  0  0  0
   -0.8660    1.8286    3.8899 H   0  0  0  0  0  0  0  0  0  0  0  0
    0.1202    0.6199    4.7476 H   0  0  0  0  0  0  0  0  0  0  0  0
    0.9048    1.9131    3.8092 H   0  0  0  0  0  0  0  0  0  0  0  0
  5  6  2  0  0  0  0
  5  7  1  0  0  0  0
  2  3  1  0  0  0  0
  2  4  1  0  0  0  0
  2  5  1  0  0  0  0
  1  2  1  0  0  0  0
 19 20  2  0  0  0  0
 19 21  1  0  0  0  0
 16 17  1  0  0  0  0
 16 18  1  0  0  0  0
 14 15  2  0  0  0  0
 14 16  1  0  0  0  0
 11 12  1  0  0  0  0
 11 13  1  0  0  0  0
 11 14  1  0  0  0  0
  9 10  1  0  0  0  0
  9 11  1  0  0  0  0
  9 19  1  0  0  0  0
  7  8  1  0  0  0  0
  7  9  1  0  0  0  0
 23 24  1  0  0  0  0
 23 25  1  0  0  0  0
 23 26  1  0  0  0  0
 21 22  1  0  0  0  0
 21 23  1  0  0  0  0
M  END
$$$$
default_name
  -OEChem-01062215323D

 26 25  0     1  0  0  0  0  0999 V2000
   -3.0232   -3.6924    1.0038 H   0  0  0  0  0  0  0  0  0  0  0  0
   -3.0082   -2.6684    0.6318 C   0  0  0  0  0  0  0  0  0  0  0  0
   -3.6332   -2.0414    1.2658 H   0  0  0  0  0  0  0  0  0  0  0  0
   -3.3762   -2.6444   -0.3912 H   0  0  0  0  0  0  0  0  0  0  0  0
   -1.5882   -2.1554    0.6658 C   0  0  0  0  0  0  0  0  0  0  0  0
   -0.6832   -2.8764    1.0638 O   0  0  0  0  0  0  0  0  0  0  0  0
   -1.3952   -0.9084    0.2428 N   0  0  0  0  0  0  0  0  0  0  0  0
   -2.1972   -0.3644   -0.0422 H   0  0  0  0  0  0  0  0  0  0  0  0
   -0.1122   -0.1994    0.2658 C   0  0  1  0  0  0  0  0  0  0  0  0
    0.6820   -0.9247    0.4606 H   0  0  0  0  0  0  0  0  0  0  0  0
    0.1261    0.4414   -1.1197 C   0  0  0  0  0  0  0  0  0  0  0  0
   -0.7662    0.9910   -1.4175 H   0  0  0  0  0  0  0  0  0  0  0  0
    0.9548    1.1446   -1.0525 H   0  0  0  0  0  0  0  0  0  0  0  0
    0.4140   -0.5629   -2.2241 C   0  0  0  0  0  0  0  0  0  0  0  0
    1.1446   -1.5262   -2.0708 O   0  0  0  0  0  0  0  0  0  0  0  0
   -0.1489   -0.3664   -3.3915 N   0  0  0  0  0  0  0  0  0  0  0  0
    0.0455   -1.0555   -4.0966 H   0  0  0  0  0  0  0  0  0  0  0  0
   -0.7689    0.4077   -3.5376 H   0  0  0  0  0  0  0  0  0  0  0  0
   -0.1049    0.8387    1.4096 C   0  0  0  0  0  0  0  0  0  0  0  0
   -0.4878    1.9892    1.1972 O   0  0  0  0  0  0  0  0  0  0  0  0
    0.3352    0.4422    2.6076 N   0  0  0  0  0  0  0  0  0  0  0  0
    0.7032   -0.5013    2.6759 H   0  0  0  0  0  0  0  0  0  0  0  0
    0.3937    1.2963    3.7925 C   0  0  0  0  0  0  0  0  0  0  0  0
   -0.5979    1.7032    4.0021 H   0  0  0  0  0  0  0  0  0  0  0  0
    0.7355    0.7196    4.6531 H   0  0  0  0  0  0  0  0  0  0  0  0
    1.0823    2.1244    3.6163 H   0  0  0  0  0  0  0  0  0  0  0  0
  5  6  2  0  0  0  0
  5  7  1  0  0  0  0
  2  3  1  0  0  0  0
  2  4  1  0  0  0  0
  2  5  1  0  0  0  0
  1  2  1  0  0  0  0
 19 20  2  0  0  0  0
 19 21  1  0  0  0  0
 16 17  1  0  0  0  0
 16 18  1  0  0  0  0
 14 15  2  0  0  0  0
 14 16  1  0  0  0  0
 11 12  1  0  0  0  0
 11 13  1  0  0  0  0
 11 14  1  0  0  0  0
  9 10  1  0  0  0  0
  9 11  1  0  0  0  0
  9 19  1  0  0  0  0
  7  8  1  0  0  0  0
  7  9  1  0  0  0  0
 23 24  1  0  0  0  0
 23 25  1  0  0  0  0
 23 26  1  0  0  0  0
 21 22  1  0  0  0  0
 21 23  1  0  0  0  0
M  END
$$$$
default_name
  -OEChem-01062215323D

 26 25  0     1  0  0  0  0  0999 V2000
   -3.0232   -3.6924    1.0038 H   0  0  0  0  0  0  0  0  0  0  0  0
   -3.0082   -2.6684    0.6318 C   0  0  0  0  0  0  0  0  0  0  0  0
   -3.6332   -2.0414    1.2658 H   0  0  0  0  0  0  0  0  0  0  0  0
   -3.3762   -2.6444   -0.3912 H   0  0  0  0  0  0  0  0  0  0  0  0
   -1.5882   -2.1554    0.6658 C   0  0  0  0  0  0  0  0  0  0  0  0
   -0.6832   -2.8764    1.0638 O   0  0  0  0  0  0  0  0  0  0  0  0
   -1.3952   -0.9084    0.2428 N   0  0  0  0  0  0  0  0  0  0  0  0
   -2.1972   -0.3644   -0.0422 H   0  0  0  0  0  0  0  0  0  0  0  0
   -0.1122   -0.1994    0.2658 C   0  0  1  0  0  0  0  0  0  0  0  0
    0.6820   -0.9247    0.4606 H   0  0  0  0  0  0  0  0  0  0  0  0
    0.1261    0.4414   -1.1197 C   0  0  0  0  0  0  0  0  0  0  0  0
   -0.7662    0.9910   -1.4175 H   0  0  0  0  0  0  0  0  0  0  0  0
    0.9548    1.1446   -1.0525 H   0  0  0  0  0  0  0  0  0  0  0  0
    0.4140   -0.5629   -2.2241 C   0  0  0  0  0  0  0  0  0  0  0  0
    1.1446   -1.5262   -2.0708 O   0  0  0  0  0  0  0  0  0  0  0  0
   -0.1489   -0.3664   -3.3915 N   0  0  0  0  0  0  0  0  0  0  0  0
    0.0455   -1.0555   -4.0966 H   0  0  0  0  0  0  0  0  0  0  0  0
   -0.7689    0.4077   -3.5376 H   0  0  0  0  0  0  0  0  0  0  0  0
   -0.1049    0.8387    1.4096 C   0  0  0  0  0  0  0  0  0  0  0  0
   -0.7321    1.8910    1.2880 O   0  0  0  0  0  0  0  0  0  0  0  0
    0.6047    0.5529    2.5055 N   0  0  0  0  0  0  0  0  0  0  0  0
    1.1528   -0.3014    2.4916 H   0  0  0  0  0  0  0  0  0  0  0  0
    0.7038    1.4209    3.6775 C   0  0  0  0  0  0  0  0  0  0  0  0
   -0.2955    1.6333    4.0636 H   0  0  0  0  0  0  0  0  0  0  0  0
    1.2942    0.9340    4.4550 H   0  0  0  0  0  0  0  0  0  0  0  0
    1.1796    2.3628    3.3993 H   0  0  0  0  0  0  0  0  0  0  0  0
  5  6  2  0  0  0  0
  5  7  1  0  0  0  0
  2  3  1  0  0  0  0
  2  4  1  0  0  0  0
  2  5  1  0  0  0  0
  1  2  1  0  0  0  0
 19 20  2  0  0  0  0
 19 21  1  0  0  0  0
 16 17  1  0  0  0  0
 16 18  1  0  0  0  0
 14 15  2  0  0  0  0
 14 16  1  0  0  0  0
 11 12  1  0  0  0  0
 11 13  1  0  0  0  0
 11 14  1  0  0  0  0
  9 10  1  0  0  0  0
  9 11  1  0  0  0  0
  9 19  1  0  0  0  0
  7  8  1  0  0  0  0
  7  9  1  0  0  0  0
 23 24  1  0  0  0  0
 23 25  1  0  0  0  0
 23 26  1  0  0  0  0
 21 22  1  0  0  0  0
 21 23  1  0  0  0  0
M  END
$$$$
default_name
  -OEChem-01062215323D

 26 25  0     1  0  0  0  0  0999 V2000
   -3.0232   -3.6924    1.0038 H   0  0  0  0  0  0  0  0  0  0  0  0
   -3.0082   -2.6684    0.6318 C   0  0  0  0  0  0  0  0  0  0  0  0
   -3.6332   -2.0414    1.2658 H   0  0  0  0  0  0  0  0  0  0  0  0
   -3.3762   -2.6444   -0.3912 H   0  0  0  0  0  0  0  0  0  0  0  0
   -1.5882   -2.1554    0.6658 C   0  0  0  0  0  0  0  0  0  0  0  0
   -0.6832   -2.8764    1.0638 O   0  0  0  0  0  0  0  0  0  0  0  0
   -1.3952   -0.9084    0.2428 N   0  0  0  0  0  0  0  0  0  0  0  0
   -2.1972   -0.3644   -0.0422 H   0  0  0  0  0  0  0  0  0  0  0  0
   -0.1122   -0.1994    0.2658 C   0  0  1  0  0  0  0  0  0  0  0  0
    0.6820   -0.9247    0.4606 H   0  0  0  0  0  0  0  0  0  0  0  0
    0.1261    0.4414   -1.1197 C   0  0  0  0  0  0  0  0  0  0  0  0
   -0.7662    0.9910   -1.4175 H   0  0  0  0  0  0  0  0  0  0  0  0
    0.9548    1.1446   -1.0525 H   0  0  0  0  0  0  0  0  0  0  0  0
    0.4140   -0.5629   -2.2241 C   0  0  0  0  0  0  0  0  0  0  0  0
    1.1446   -1.5262   -2.0708 O   0  0  0  0  0  0  0  0  0  0  0  0
   -0.1489   -0.3664   -3.3915 N   0  0  0  0  0  0  0  0  0  0  0  0
    0.0455   -1.0555   -4.0966 H   0  0  0  0  0  0  0  0  0  0  0  0
   -0.7689    0.4077   -3.5376 H   0  0  0  0  0  0  0  0  0  0  0  0
   -0.1049    0.8387    1.4096 C   0  0  0  0  0  0  0  0  0  0  0  0
   -0.9334    1.7491    1.4180 O   0  0  0  0  0  0  0  0  0  0  0  0
    0.8260    0.7115    2.3601 N   0  0  0  0  0  0  0  0  0  0  0  0
    1.5166   -0.0219    2.2356 H   0  0  0  0  0  0  0  0  0  0  0  0
    0.9595    1.6007    3.5126 C   0  0  0  0  0  0  0  0  0  0  0  0
    0.0208    1.6236    4.0703 H   0  0  0  0  0  0  0  0  0  0  0  0
    1.7584    1.2485    4.1666 H   0  0  0  0  0  0  0  0  0  0  0  0
    1.1903    2.6119    3.1731 H   0  0  0  0  0  0  0  0  0  0  0  0
  5  6  2  0  0  0  0
  5  7  1  0  0  0  0
  2  3  1  0  0  0  0
  2  4  1  0  0  0  0
  2  5  1  0  0  0  0
  1  2  1  0  0  0  0
 19 20  2  0  0  0  0
 19 21  1  0  0  0  0
 16 17  1  0  0  0  0
 16 18  1  0  0  0  0
 14 15  2  0  0  0  0
 14 16  1  0  0  0  0
 11 12  1  0  0  0  0
 11 13  1  0  0  0  0
 11 14  1  0  0  0  0
  9 10  1  0  0  0  0
  9 11  1  0  0  0  0
  9 19  1  0  0  0  0
  7  8  1  0  0  0  0
  7  9  1  0  0  0  0
 23 24  1  0  0  0  0
 23 25  1  0  0  0  0
 23 26  1  0  0  0  0
 21 22  1  0  0  0  0
 21 23  1  0  0  0  0
M  END
$$$$
default_name
  -OEChem-01062215323D

 26 25  0     1  0  0  0  0  0999 V2000
   -3.0232   -3.6924    1.0038 H   0  0  0  0  0  0  0  0  0  0  0  0
   -3.0082   -2.6684    0.6318 C   0  0  0  0  0  0  0  0  0  0  0  0
   -3.6332   -2.0414    1.2658 H   0  0  0  0  0  0  0  0  0  0  0  0
   -3.3762   -2.6444   -0.3912 H   0  0  0  0  0  0  0  0  0  0  0  0
   -1.5882   -2.1554    0.6658 C   0  0  0  0  0  0  0  0  0  0  0  0
   -0.6832   -2.8764    1.0638 O   0  0  0  0  0  0  0  0  0  0  0  0
   -1.3952   -0.9084    0.2428 N   0  0  0  0  0  0  0  0  0  0  0  0
   -2.1972   -0.3644   -0.0422 H   0  0  0  0  0  0  0  0  0  0  0  0
   -0.1122   -0.1994    0.2658 C   0  0  1  0  0  0  0  0  0  0  0  0
    0.6820   -0.9247    0.4606 H   0  0  0  0  0  0  0  0  0  0  0  0
    0.1261    0.4414   -1.1197 C   0  0  0  0  0  0  0  0  0  0  0  0
   -0.7662    0.9910   -1.4175 H   0  0  0  0  0  0  0  0  0  0  0  0
    0.9548    1.1446   -1.0525 H   0  0  0  0  0  0  0  0  0  0  0  0
    0.4140   -0.5629   -2.2241 C   0  0  0  0  0  0  0  0  0  0  0  0
    1.1446   -1.5262   -2.0708 O   0  0  0  0  0  0  0  0  0  0  0  0
   -0.1489   -0.3664   -3.3915 N   0  0  0  0  0  0  0  0  0  0  0  0
    0.0455   -1.0555   -4.0966 H   0  0  0  0  0  0  0  0  0  0  0  0
   -0.7689    0.4077   -3.5376 H   0  0  0  0  0  0  0  0  0  0  0  0
   -0.1049    0.8387    1.4096 C   0  0  0  0  0  0  0  0  0  0  0  0
   -1.0781    1.5733    1.5784 O   0  0  0  0  0  0  0  0  0  0  0  0
    0.9841    0.9074    2.1813 N   0  0  0  0  0  0  0  0  0  0  0  0
    1.7700    0.3181    1.9254 H   0  0  0  0  0  0  0  0  0  0  0  0
    1.1433    1.8237    3.3091 C   0  0  0  0  0  0  0  0  0  0  0  0
    0.3293    1.6749    4.0218 H   0  0  0  0  0  0  0  0  0  0  0  0
    2.0963    1.6415    3.8078 H   0  0  0  0  0  0  0  0  0  0  0  0
    1.1135    2.8549    2.9531 H   0  0  0  0  0  0  0  0  0  0  0  0
  5  6  2  0  0  0  0
  5  7  1  0  0  0  0
  2  3  1  0  0  0  0
  2  4  1  0  0  0  0
  2  5  1  0  0  0  0
  1  2  1  0  0  0  0
 19 20  2  0  0  0  0
 19 21  1  0  0  0  0
 16 17  1  0  0  0  0
 16 18  1  0  0  0  0
 14 15  2  0  0  0  0
 14 16  1  0  0  0  0
 11 12  1  0  0  0  0
 11 13  1  0  0  0  0
 11 14  1  0  0  0  0
  9 10  1  0  0  0  0
  9 11  1  0  0  0  0
  9 19  1  0  0  0  0
  7  8  1  0  0  0  0
  7  9  1  0  0  0  0
 23 24  1  0  0  0  0
 23 25  1  0  0  0  0
 23 26  1  0  0  0  0
 21 22  1  0  0  0  0
 21 23  1  0  0  0  0
M  END
$$$$
default_name
  -OEChem-01062215323D

 26 25  0     1  0  0  0  0  0999 V2000
   -3.0232   -3.6924    1.0038 H   0  0  0  0  0  0  0  0  0  0  0  0
   -3.0082   -2.6684    0.6318 C   0  0  0  0  0  0  0  0  0  0  0  0
   -3.6332   -2.0414    1.2658 H   0  0  0  0  0  0  0  0  0  0  0  0
   -3.3762   -2.6444   -0.3912 H   0  0  0  0  0  0  0  0  0  0  0  0
   -1.5882   -2.1554    0.6658 C   0  0  0  0  0  0  0  0  0  0  0  0
   -0.6832   -2.8764    1.0638 O   0  0  0  0  0  0  0  0  0  0  0  0
   -1.3952   -0.9084    0.2428 N   0  0  0  0  0  0  0  0  0  0  0  0
   -2.1972   -0.3644   -0.0422 H   0  0  0  0  0  0  0  0  0  0  0  0
   -0.1122   -0.1994    0.2658 C   0  0  1  0  0  0  0  0  0  0  0  0
    0.6820   -0.9247    0.4606 H   0  0  0  0  0  0  0  0  0  0  0  0
    0.1261    0.4414   -1.1197 C   0  0  0  0  0  0  0  0  0  0  0  0
   -0.7662    0.9910   -1.4175 H   0  0  0  0  0  0  0  0  0  0  0  0
    0.9548    1.1446   -1.0525 H   0  0  0  0  0  0  0  0  0  0  0  0
    0.4140   -0.5629   -2.2241 C   0  0  0  0  0  0  0  0  0  0  0  0
    1.1446   -1.5262   -2.0708 O   0  0  0  0  0  0  0  0  0  0  0  0
   -0.1489   -0.3664   -3.3915 N   0  0  0  0  0  0  0  0  0  0  0  0
    0.0455   -1.0555   -4.0966 H   0  0  0  0  0  0  0  0  0  0  0  0
   -0.7689    0.4077   -3.5376 H   0  0  0  0  0  0  0  0  0  0  0  0
   -0.1049    0.8387    1.4096 C   0  0  0  0  0  0  0  0  0  0  0  0
   -1.1563    1.3756    1.7584 O   0  0  0  0  0  0  0  0  0  0  0  0
    1.0682    1.1271    1.9814 N   0  0  0  0  0  0  0  0  0  0  0  0
    1.8956    0.6955    1.5821 H   0  0  0  0  0  0  0  0  0  0  0  0
    1.2428    2.0745    3.0808 C   0  0  0  0  0  0  0  0  0  0  0  0
    0.6090    1.7837    3.9213 H   0  0  0  0  0  0  0  0  0  0  0  0
    2.2849    2.0863    3.4029 H   0  0  0  0  0  0  0  0  0  0  0  0
    0.9544    3.0751    2.7542 H   0  0  0  0  0  0  0  0  0  0  0  0
  5  6  2  0  0  0  0
  5  7  1  0  0  0  0
  2  3  1  0  0  0  0
  2  4  1  0  0  0  0
  2  5  1  0  0  0  0
  1  2  1  0  0  0  0
 19 20  2  0  0  0  0
 19 21  1  0  0  0  0
 16 17  1  0  0  0  0
 16 18  1  0  0  0  0
 14 15  2  0  0  0  0
 14 16  1  0  0  0  0
 11 12  1  0  0  0  0
 11 13  1  0  0  0  0
 11 14  1  0  0  0  0
  9 10  1  0  0  0  0
  9 11  1  0  0  0  0
  9 19  1  0  0  0  0
  7  8  1  0  0  0  0
  7  9  1  0  0  0  0
 23 24  1  0  0  0  0
 23 25  1  0  0  0  0
 23 26  1  0  0  0  0
 21 22  1  0  0  0  0
 21 23  1  0  0  0  0
M  END
$$$$
default_name
  -OEChem-01062215323D

 26 25  0     1  0  0  0  0  0999 V2000
   -3.0232   -3.6924    1.0038 H   0  0  0  0  0  0  0  0  0  0  0  0
   -3.0082   -2.6684    0.6318 C   0  0  0  0  0  0  0  0  0  0  0  0
   -3.6332   -2.0414    1.2658 H   0  0  0  0  0  0  0  0  0  0  0  0
   -3.3762   -2.6444   -0.3912 H   0  0  0  0  0  0  0  0  0  0  0  0
   -1.5882   -2.1554    0.6658 C   0  0  0  0  0  0  0  0  0  0  0  0
   -0.6832   -2.8764    1.0638 O   0  0  0  0  0  0  0  0  0  0  0  0
   -1.3952   -0.9084    0.2428 N   0  0  0  0  0  0  0  0  0  0  0  0
   -2.1972   -0.3644   -0.0422 H   0  0  0  0  0  0  0  0  0  0  0  0
   -0.1122   -0.1994    0.2658 C   0  0  1  0  0  0  0  0  0  0  0  0
    0.6820   -0.9247    0.4606 H   0  0  0  0  0  0  0  0  0  0  0  0
    0.1261    0.4414   -1.1197 C   0  0  0  0  0  0  0  0  0  0  0  0
   -0.7662    0.9910   -1.4175 H   0  0  0  0  0  0  0  0  0  0  0  0
    0.9548    1.1446   -1.0525 H   0  0  0  0  0  0  0  0  0  0  0  0
    0.4140   -0.5629   -2.2241 C   0  0  0  0  0  0  0  0  0  0  0  0
    1.1446   -1.5262   -2.0708 O   0  0  0  0  0  0  0  0  0  0  0  0
   -0.1489   -0.3664   -3.3915 N   0  0  0  0  0  0  0  0  0  0  0  0
    0.0455   -1.0555   -4.0966 H   0  0  0  0  0  0  0  0  0  0  0  0
   -0.7689    0.4077   -3.5376 H   0  0  0  0  0  0  0  0  0  0  0  0
   -0.1049    0.8387    1.4096 C   0  0  0  0  0  0  0  0  0  0  0  0
   -1.1626    1.1695    1.9455 O   0  0  0  0  0  0  0  0  0  0  0  0
    1.0725    1.3556    1.7740 N   0  0  0  0  0  0  0  0  0  0  0  0
    1.8849    1.0845    1.2291 H   0  0  0  0  0  0  0  0  0  0  0  0
    1.2510    2.3362    2.8433 C   0  0  0  0  0  0  0  0  0  0  0  0
    0.8408    1.9424    3.7758 H   0  0  0  0  0  0  0  0  0  0  0  0
    2.3115    2.5526    2.9795 H   0  0  0  0  0  0  0  0  0  0  0  0
    0.7240    3.2576    2.5901 H   0  0  0  0  0  0  0  0  0  0  0  0
  5  6  2  0  0  0  0
  5  7  1  0  0  0  0
  2  3  1  0  0  0  0
  2  4  1  0  0  0  0
  2  5  1  0  0  0  0
  1  2  1  0  0  0  0
 19 20  2  0  0  0  0
 19 21  1  0  0  0  0
 16 17  1  0  0  0  0
 16 18  1  0  0  0  0
 14 15  2  0  0  0  0
 14 16  1  0  0  0  0
 11 12  1  0  0  0  0
 11 13  1  0  0  0  0
 11 14  1  0  0  0  0
  9 10  1  0  0  0  0
  9 11  1  0  0  0  0
  9 19  1  0  0  0  0
  7  8  1  0  0  0  0
  7  9  1  0  0  0  0
 23 24  1  0  0  0  0
 23 25  1  0  0  0  0
 23 26  1  0  0  0  0
 21 22  1  0  0  0  0
 21 23  1  0  0  0  0
M  END
$$$$
default_name
  -OEChem-01062215323D

 26 25  0     1  0  0  0  0  0999 V2000
   -3.0232   -3.6924    1.0038 H   0  0  0  0  0  0  0  0  0  0  0  0
   -3.0082   -2.6684    0.6318 C   0  0  0  0  0  0  0  0  0  0  0  0
   -3.6332   -2.0414    1.2658 H   0  0  0  0  0  0  0  0  0  0  0  0
   -3.3762   -2.6444   -0.3912 H   0  0  0  0  0  0  0  0  0  0  0  0
   -1.5882   -2.1554    0.6658 C   0  0  0  0  0  0  0  0  0  0  0  0
   -0.6832   -2.8764    1.0638 O   0  0  0  0  0  0  0  0  0  0  0  0
   -1.3952   -0.9084    0.2428 N   0  0  0  0  0  0  0  0  0  0  0  0
   -2.1972   -0.3644   -0.0422 H   0  0  0  0  0  0  0  0  0  0  0  0
   -0.1122   -0.1994    0.2658 C   0  0  1  0  0  0  0  0  0  0  0  0
    0.6926   -0.9351    0.1905 H   0  0  0  0  0  0  0  0  0  0  0  0
   -0.0433    0.7425   -0.9569 C   0  0  0  0  0  0  0  0  0  0  0  0
   -0.9601    1.3287   -1.0086 H   0  0  0  0  0  0  0  0  0  0  0  0
    0.7946    1.4274   -0.8359 H   0  0  0  0  0  0  0  0  0  0  0  0
    0.0932    0.0197   -2.2873 C   0  0  0  0  0  0  0  0  0  0  0  0
    0.8273   -0.9396   -2.4488 O   0  0  0  0  0  0  0  0  0  0  0  0
   -0.6098    0.4647   -3.3002 N   0  0  0  0  0  0  0  0  0  0  0  0
   -0.5127   -0.0432   -4.1618 H   0  0  0  0  0  0  0  0  0  0  0  0
   -1.2352    1.2402   -3.1884 H   0  0  0  0  0  0  0  0  0  0  0  0
    0.0495    0.5529    1.6051 C   0  0  0  0  0  0  0  0  0  0  0  0
   -0.8428    0.4991    2.4514 O   0  0  0  0  0  0  0  0  0  0  0  0
    1.1706    1.2558    1.7932 N   0  0  0  0  0  0  0  0  0  0  0  0
    1.8195    1.3082    1.0144 H   0  0  0  0  0  0  0  0  0  0  0  0
    1.4811    2.0106    3.0059 C   0  0  0  0  0  0  0  0  0  0  0  0
    1.4426    1.3468    3.8724 H   0  0  0  0  0  0  0  0  0  0  0  0
    2.4781    2.4466    2.9305 H   0  0  0  0  0  0  0  0  0  0  0  0
    0.7479    2.8073    3.1420 H   0  0  0  0  0  0  0  0  0  0  0  0
  5  6  2  0  0  0  0
  5  7  1  0  0  0  0
  2  3  1  0  0  0  0
  2  4  1  0  0  0  0
  2  5  1  0  0  0  0
  1  2  1  0  0  0  0
 19 20  2  0  0  0  0
 19 21  1  0  0  0  0
 16 17  1  0  0  0  0
 16 18  1  0  0  0  0
 14 15  2  0  0  0  0
 14 16  1  0  0  0  0
 11 12  1  0  0  0  0
 11 13  1  0  0  0  0
 11 14  1  0  0  0  0
  9 10  1  0  0  0  0
  9 11  1  0  0  0  0
  9 19  1  0  0  0  0
  7  8  1  0  0  0  0
  7  9  1  0  0  0  0
 23 24  1  0  0  0  0
 23 25  1  0  0  0  0
 23 26  1  0  0  0  0
 21 22  1  0  0  0  0
 21 23  1  0  0  0  0
M  END
$$$$
default_name
  -OEChem-01062215323D

 26 25  0     1  0  0  0  0  0999 V2000
   -3.0232   -3.6924    1.0038 H   0  0  0  0  0  0  0  0  0  0  0  0
   -3.0082   -2.6684    0.6318 C   0  0  0  0  0  0  0  0  0  0  0  0
   -3.6332   -2.0414    1.2658 H   0  0  0  0  0  0  0  0  0  0  0  0
   -3.3762   -2.6444   -0.3912 H   0  0  0  0  0  0  0  0  0  0  0  0
   -1.5882   -2.1554    0.6658 C   0  0  0  0  0  0  0  0  0  0  0  0
   -0.6832   -2.8764    1.0638 O   0  0  0  0  0  0  0  0  0  0  0  0
   -1.3952   -0.9084    0.2428 N   0  0  0  0  0  0  0  0  0  0  0  0
   -2.1972   -0.3644   -0.0422 H   0  0  0  0  0  0  0  0  0  0  0  0
   -0.1122   -0.1994    0.2658 C   0  0  1  0  0  0  0  0  0  0  0  0
    0.6926   -0.9351    0.1905 H   0  0  0  0  0  0  0  0  0  0  0  0
   -0.0433    0.7425   -0.9569 C   0  0  0  0  0  0  0  0  0  0  0  0
   -0.9601    1.3287   -1.0086 H   0  0  0  0  0  0  0  0  0  0  0  0
    0.7946    1.4274   -0.8359 H   0  0  0  0  0  0  0  0  0  0  0  0
    0.0932    0.0197   -2.2873 C   0  0  0  0  0  0  0  0  0  0  0  0
    0.8273   -0.9396   -2.4488 O   0  0  0  0  0  0  0  0  0  0  0  0
   -0.6098    0.4647   -3.3002 N   0  0  0  0  0  0  0  0  0  0  0  0
   -0.5127   -0.0432   -4.1618 H   0  0  0  0  0  0  0  0  0  0  0  0
   -1.2352    1.2402   -3.1884 H   0  0  0  0  0  0  0  0  0  0  0  0
    0.0495    0.5529    1.6051 C   0  0  0  0  0  0  0  0  0  0  0  0
   -0.6915    0.2879    2.5518 O   0  0  0  0  0  0  0  0  0  0  0  0
    1.0006    1.4887    1.6829 N   0  0  0  0  0  0  0  0  0  0  0  0
    1.5154    1.6964    0.8331 H   0  0  0  0  0  0  0  0  0  0  0  0
    1.2892    2.2786    2.8785 C   0  0  0  0  0  0  0  0  0  0  0  0
    1.5117    1.6124    3.7148 H   0  0  0  0  0  0  0  0  0  0  0  0
    2.1458    2.9298    2.6992 H   0  0  0  0  0  0  0  0  0  0  0  0
    0.4208    2.8871    3.1366 H   0  0  0  0  0  0  0  0  0  0  0  0
  5  6  2  0  0  0  0
  5  7  1  0  0  0  0
  2  3  1  0  0  0  0
  2  4  1  0  0  0  0
  2  5  1  0  0  0  0
  1  2  1  0  0  0  0
 19 20  2  0  0  0  0
 19 21  1  0  0  0  0
 16 17  1  0  0  0  0
 16 18  1  0  0  0  0
 14 15  2  0  0  0  0
 14 16  1  0  0  0  0
 11 12  1  0  0  0  0
 11 13  1  0  0  0  0
 11 14  1  0  0  0  0
  9 10  1  0  0  0  0
  9 11  1  0  0  0  0
  9 19  1  0  0  0  0
  7  8  1  0  0  0  0
  7  9  1  0  0  0  0
 23 24  1  0  0  0  0
 23 25  1  0  0  0  0
 23 26  1  0  0  0  0
 21 22  1  0  0  0  0
 21 23  1  0  0  0  0
M  END
$$$$
default_name
  -OEChem-01062215323D

 26 25  0     1  0  0  0  0  0999 V2000
   -3.0232   -3.6924    1.0038 H   0  0  0  0  0  0  0  0  0  0  0  0
   -3.0082   -2.6684    0.6318 C   0  0  0  0  0  0  0  0  0  0  0  0
   -3.6332   -2.0414    1.2658 H   0  0  0  0  0  0  0  0  0  0  0  0
   -3.3762   -2.6444   -0.3912 H   0  0  0  0  0  0  0  0  0  0  0  0
   -1.5882   -2.1554    0.6658 C   0  0  0  0  0  0  0  0  0  0  0  0
   -0.6832   -2.8764    1.0638 O   0  0  0  0  0  0  0  0  0  0  0  0
   -1.3952   -0.9084    0.2428 N   0  0  0  0  0  0  0  0  0  0  0  0
   -2.1972   -0.3644   -0.0422 H   0  0  0  0  0  0  0  0  0  0  0  0
   -0.1122   -0.1994    0.2658 C   0  0  1  0  0  0  0  0  0  0  0  0
    0.6926   -0.9351    0.1905 H   0  0  0  0  0  0  0  0  0  0  0  0
   -0.0433    0.7425   -0.9569 C   0  0  0  0  0  0  0  0  0  0  0  0
   -0.9601    1.3287   -1.0086 H   0  0  0  0  0  0  0  0  0  0  0  0
    0.7946    1.4274   -0.8359 H   0  0  0  0  0  0  0  0  0  0  0  0
    0.0932    0.0197   -2.2873 C   0  0  0  0  0  0  0  0  0  0  0  0
    0.8273   -0.9396   -2.4488 O   0  0  0  0  0  0  0  0  0  0  0  0
   -0.6098    0.4647   -3.3002 N   0  0  0  0  0  0  0  0  0  0  0  0
   -0.5127   -0.0432   -4.1618 H   0  0  0  0  0  0  0  0  0  0  0  0
   -1.2352    1.2402   -3.1884 H   0  0  0  0  0  0  0  0  0  0  0  0
    0.0495    0.5529    1.6051 C   0  0  0  0  0  0  0  0  0  0  0  0
   -0.4852    0.1152    2.6239 O   0  0  0  0  0  0  0  0  0  0  0  0
    0.7702    1.6785    1.6041 N   0  0  0  0  0  0  0  0  0  0  0  0
    1.1117    2.0080    0.7068 H   0  0  0  0  0  0  0  0  0  0  0  0
    1.0276    2.4980    2.7869 C   0  0  0  0  0  0  0  0  0  0  0  0
    1.4990    1.8887    3.5611 H   0  0  0  0  0  0  0  0  0  0  0  0
    1.6872    3.3282    2.5307 H   0  0  0  0  0  0  0  0  0  0  0  0
    0.0863    2.8910    3.1749 H   0  0  0  0  0  0  0  0  0  0  0  0
  5  6  2  0  0  0  0
  5  7  1  0  0  0  0
  2  3  1  0  0  0  0
  2  4  1  0  0  0  0
  2  5  1  0  0  0  0
  1  2  1  0  0  0  0
 19 20  2  0  0  0  0
 19 21  1  0  0  0  0
 16 17  1  0  0  0  0
 16 18  1  0  0  0  0
 14 15  2  0  0  0  0
 14 16  1  0  0  0  0
 11 12  1  0  0  0  0
 11 13  1  0  0  0  0
 11 14  1  0  0  0  0
  9 10  1  0  0  0  0
  9 11  1  0  0  0  0
  9 19  1  0  0  0  0
  7  8  1  0  0  0  0
  7  9  1  0  0  0  0
 23 24  1  0  0  0  0
 23 25  1  0  0  0  0
 23 26  1  0  0  0  0
 21 22  1  0  0  0  0
 21 23  1  0  0  0  0
M  END
$$$$
default_name
  -OEChem-01062215323D

 26 25  0     1  0  0  0  0  0999 V2000
   -3.0232   -3.6924    1.0038 H   0  0  0  0  0  0  0  0  0  0  0  0
   -3.0082   -2.6684    0.6318 C   0  0  0  0  0  0  0  0  0  0  0  0
   -3.6332   -2.0414    1.2658 H   0  0  0  0  0  0  0  0  0  0  0  0
   -3.3762   -2.6444   -0.3912 H   0  0  0  0  0  0  0  0  0  0  0  0
   -1.5882   -2.1554    0.6658 C   0  0  0  0  0  0  0  0  0  0  0  0
   -0.6832   -2.8764    1.0638 O   0  0  0  0  0  0  0  0  0  0  0  0
   -1.3952   -0.9084    0.2428 N   0  0  0  0  0  0  0  0  0  0  0  0
   -2.1972   -0.3644   -0.0422 H   0  0  0  0  0  0  0  0  0  0  0  0
   -0.1122   -0.1994    0.2658 C   0  0  1  0  0  0  0  0  0  0  0  0
    0.6926   -0.9351    0.1905 H   0  0  0  0  0  0  0  0  0  0  0  0
   -0.0433    0.7425   -0.9569 C   0  0  0  0  0  0  0  0  0  0  0  0
   -0.9601    1.3287   -1.0086 H   0  0  0  0  0  0  0  0  0  0  0  0
    0.7946    1.4274   -0.8359 H   0  0  0  0  0  0  0  0  0  0  0  0
    0.0932    0.0197   -2.2873 C   0  0  0  0  0  0  0  0  0  0  0  0
    0.8273   -0.9396   -2.4488 O   0  0  0  0  0  0  0  0  0  0  0  0
   -0.6098    0.4647   -3.3002 N   0  0  0  0  0  0  0  0  0  0  0  0
   -0.5127   -0.0432   -4.1618 H   0  0  0  0  0  0  0  0  0  0  0  0
   -1.2352    1.2402   -3.1884 H   0  0  0  0  0  0  0  0  0  0  0  0
    0.0495    0.5529    1.6051 C   0  0  0  0  0  0  0  0  0  0  0  0
   -0.2382   -0.0073    2.6629 O   0  0  0  0  0  0  0  0  0  0  0  0
    0.4952    1.8122    1.5622 N   0  0  0  0  0  0  0  0  0  0  0  0
    0.6358    2.2218    0.6441 H   0  0  0  0  0  0  0  0  0  0  0  0
    0.7142    2.6536    2.7373 C   0  0  0  0  0  0  0  0  0  0  0  0
    1.4054    2.1570    3.4217 H   0  0  0  0  0  0  0  0  0  0  0  0
    1.1335    3.6147    2.4367 H   0  0  0  0  0  0  0  0  0  0  0  0
   -0.2328    2.8186    3.2541 H   0  0  0  0  0  0  0  0  0  0  0  0
  5  6  2  0  0  0  0
  5  7  1  0  0  0  0
  2  3  1  0  0  0  0
  2  4  1  0  0  0  0
  2  5  1  0  0  0  0
  1  2  1  0  0  0  0
 19 20  2  0  0  0  0
 19 21  1  0  0  0  0
 16 17  1  0  0  0  0
 16 18  1  0  0  0  0
 14 15  2  0  0  0  0
 14 16  1  0  0  0  0
 11 12  1  0  0  0  0
 11 13  1  0  0  0  0
 11 14  1  0  0  0  0
  9 10  1  0  0  0  0
  9 11  1  0  0  0  0
  9 19  1  0  0  0  0
  7  8  1  0  0  0  0
  7  9  1  0  0  0  0
 23 24  1  0  0  0  0
 23 25  1  0  0  0  0
 23 26  1  0  0  0  0
 21 22  1  0  0  0  0
 21 23  1  0  0  0  0
M  END
$$$$
default_name
  -OEChem-01062215323D

 26 25  0     1  0  0  0  0  0999 V2000
   -3.0232   -3.6924    1.0038 H   0  0  0  0  0  0  0  0  0  0  0  0
   -3.0082   -2.6684    0.6318 C   0  0  0  0  0  0  0  0  0  0  0  0
   -3.6332   -2.0414    1.2658 H   0  0  0  0  0  0  0  0  0  0  0  0
   -3.3762   -2.6444   -0.3912 H   0  0  0  0  0  0  0  0  0  0  0  0
   -1.5882   -2.1554    0.6658 C   0  0  0  0  0  0  0  0  0  0  0  0
   -0.6832   -2.8764    1.0638 O   0  0  0  0  0  0  0  0  0  0  0  0
   -1.3952   -0.9084    0.2428 N   0  0  0  0  0  0  0  0  0  0  0  0
   -2.1972   -0.3644   -0.0422 H   0  0  0  0  0  0  0  0  0  0  0  0
   -0.1122   -0.1994    0.2658 C   0  0  1  0  0  0  0  0  0  0  0  0
    0.6926   -0.9351    0.1905 H   0  0  0  0  0  0  0  0  0  0  0  0
   -0.0433    0.7425   -0.9569 C   0  0  0  0  0  0  0  0  0  0  0  0
   -0.9601    1.3287   -1.0086 H   0  0  0  0  0  0  0  0  0  0  0  0
    0.7946    1.4274   -0.8359 H   0  0  0  0  0  0  0  0  0  0  0  0
    0.0932    0.0197   -2.2873 C   0  0  0  0  0  0  0  0  0  0  0  0
    0.8273   -0.9396   -2.4488 O   0  0  0  0  0  0  0  0  0  0  0  0
   -0.6098    0.4647   -3.3002 N   0  0  0  0  0  0  0  0  0  0  0  0
   -0.5127   -0.0432   -4.1618 H   0  0  0  0  0  0  0  0  0  0  0  0
   -1.2352    1.2402   -3.1884 H   0  0  0  0  0  0  0  0  0  0  0  0
    0.0495    0.5529    1.6051 C   0  0  0  0  0  0  0  0  0  0  0  0
    0.0329   -0.0712    2.6660 O   0  0  0  0  0  0  0  0  0  0  0  0
    0.1942    1.8808    1.5600 N   0  0  0  0  0  0  0  0  0  0  0  0
    0.1204    2.3232    0.6494 H   0  0  0  0  0  0  0  0  0  0  0  0
    0.3702    2.7349    2.7332 C   0  0  0  0  0  0  0  0  0  0  0  0
    1.2371    2.3988    3.3062 H   0  0  0  0  0  0  0  0  0  0  0  0
    0.5226    3.7697    2.4234 H   0  0  0  0  0  0  0  0  0  0  0  0
   -0.5148    2.6749    3.3688 H   0  0  0  0  0  0  0  0  0  0  0  0
  5  6  2  0  0  0  0
  5  7  1  0  0  0  0
  2  3  1  0  0  0  0
  2  4  1  0  0  0  0
  2  5  1  0  0  0  0
  1  2  1  0  0  0  0
 19 20  2  0  0  0  0
 19 21  1  0  0  0  0
 16 17  1  0  0  0  0
 16 18  1  0  0  0  0
 14 15  2  0  0  0  0
 14 16  1  0  0  0  0
 11 12  1  0  0  0  0
 11 13  1  0  0  0  0
 11 14  1  0  0  0  0
  9 10  1  0  0  0  0
  9 11  1  0  0  0  0
  9 19  1  0  0  0  0
  7  8  1  0  0  0  0
  7  9  1  0  0  0  0
 23 24  1  0  0  0  0
 23 25  1  0  0  0  0
 23 26  1  0  0  0  0
 21 22  1  0  0  0  0
 21 23  1  0  0  0  0
M  END
$$$$
default_name
  -OEChem-01062215323D

 26 25  0     1  0  0  0  0  0999 V2000
   -3.0232   -3.6924    1.0038 H   0  0  0  0  0  0  0  0  0  0  0  0
   -3.0082   -2.6684    0.6318 C   0  0  0  0  0  0  0  0  0  0  0  0
   -3.6332   -2.0414    1.2658 H   0  0  0  0  0  0  0  0  0  0  0  0
   -3.3762   -2.6444   -0.3912 H   0  0  0  0  0  0  0  0  0  0  0  0
   -1.5882   -2.1554    0.6658 C   0  0  0  0  0  0  0  0  0  0  0  0
   -0.6832   -2.8764    1.0638 O   0  0  0  0  0  0  0  0  0  0  0  0
   -1.3952   -0.9084    0.2428 N   0  0  0  0  0  0  0  0  0  0  0  0
   -2.1972   -0.3644   -0.0422 H   0  0  0  0  0  0  0  0  0  0  0  0
   -0.1122   -0.1994    0.2658 C   0  0  1  0  0  0  0  0  0  0  0  0
    0.6926   -0.9351    0.1905 H   0  0  0  0  0  0  0  0  0  0  0  0
   -0.0433    0.7425   -0.9569 C   0  0  0  0  0  0  0  0  0  0  0  0
   -0.9601    1.3287   -1.0086 H   0  0  0  0  0  0  0  0  0  0  0  0
    0.7946    1.4274   -0.8359 H   0  0  0  0  0  0  0  0  0  0  0  0
    0.0932    0.0197   -2.2873 C   0  0  0  0  0  0  0  0  0  0  0  0
    0.8273   -0.9396   -2.4488 O   0  0  0  0  0  0  0  0  0  0  0  0
   -0.6098    0.4647   -3.3002 N   0  0  0  0  0  0  0  0  0  0  0  0
   -0.5127   -0.0432   -4.1618 H   0  0  0  0  0  0  0  0  0  0  0  0
   -1.2352    1.2402   -3.1884 H   0  0  0  0  0  0  0  0  0  0  0  0
    0.0495    0.5529    1.6051 C   0  0  0  0  0  0  0  0  0  0  0  0
    0.3095   -0.0722    2.6332 O   0  0  0  0  0  0  0  0  0  0  0  0
   -0.1122    1.8796    1.5977 N   0  0  0  0  0  0  0  0  0  0  0  0
   -0.3997    2.3054    0.7222 H   0  0  0  0  0  0  0  0  0  0  0  0
    0.0193    2.7364    2.7747 C   0  0  0  0  0  0  0  0  0  0  0  0
    1.0058    2.5978    3.2224 H   0  0  0  0  0  0  0  0  0  0  0  0
   -0.1039    3.7827    2.4917 H   0  0  0  0  0  0  0  0  0  0  0  0
   -0.7405    2.4697    3.5113 H   0  0  0  0  0  0  0  0  0  0  0  0
  5  6  2  0  0  0  0
  5  7  1  0  0  0  0
  2  3  1  0  0  0  0
  2  4  1  0  0  0  0
  2  5  1  0  0  0  0
  1  2  1  0  0  0  0
 19 20  2  0  0  0  0
 19 21  1  0  0  0  0
 16 17  1  0  0  0  0
 16 18  1  0  0  0  0
 14 15  2  0  0  0  0
 14 16  1  0  0  0  0
 11 12  1  0  0  0  0
 11 13  1  0  0  0  0
 11 14  1  0  0  0  0
  9 10  1  0  0  0  0
  9 11  1  0  0  0  0
  9 19  1  0  0  0  0
  7  8  1  0  0  0  0
  7  9  1  0  0  0  0
 23 24  1  0  0  0  0
 23 25  1  0  0  0  0
 23 26  1  0  0  0  0
 21 22  1  0  0  0  0
 21 23  1  0  0  0  0
M  END
$$$$
default_name
  -OEChem-01062215323D

 26 25  0     1  0  0  0  0  0999 V2000
   -3.0232   -3.6924    1.0038 H   0  0  0  0  0  0  0  0  0  0  0  0
   -3.0082   -2.6684    0.6318 C   0  0  0  0  0  0  0  0  0  0  0  0
   -3.6332   -2.0414    1.2658 H   0  0  0  0  0  0  0  0  0  0  0  0
   -3.3762   -2.6444   -0.3912 H   0  0  0  0  0  0  0  0  0  0  0  0
   -1.5882   -2.1554    0.6658 C   0  0  0  0  0  0  0  0  0  0  0  0
   -0.6832   -2.8764    1.0638 O   0  0  0  0  0  0  0  0  0  0  0  0
   -1.3952   -0.9084    0.2428 N   0  0  0  0  0  0  0  0  0  0  0  0
   -2.1972   -0.3644   -0.0422 H   0  0  0  0  0  0  0  0  0  0  0  0
   -0.1122   -0.1994    0.2658 C   0  0  1  0  0  0  0  0  0  0  0  0
    0.6926   -0.9351    0.1905 H   0  0  0  0  0  0  0  0  0  0  0  0
   -0.0433    0.7425   -0.9569 C   0  0  0  0  0  0  0  0  0  0  0  0
   -0.9601    1.3287   -1.0086 H   0  0  0  0  0  0  0  0  0  0  0  0
    0.7946    1.4274   -0.8359 H   0  0  0  0  0  0  0  0  0  0  0  0
    0.0932    0.0197   -2.2873 C   0  0  0  0  0  0  0  0  0  0  0  0
    0.8273   -0.9396   -2.4488 O   0  0  0  0  0  0  0  0  0  0  0  0
   -0.6098    0.4647   -3.3002 N   0  0  0  0  0  0  0  0  0  0  0  0
   -0.5127   -0.0432   -4.1618 H   0  0  0  0  0  0  0  0  0  0  0  0
   -1.2352    1.2402   -3.1884 H   0  0  0  0  0  0  0  0  0  0  0  0
    0.0495    0.5529    1.6051 C   0  0  0  0  0  0  0  0  0  0  0  0
    0.5727   -0.0103    2.5666 O   0  0  0  0  0  0  0  0  0  0  0  0
   -0.4031    1.8087    1.6726 N   0  0  0  0  0  0  0  0  0  0  0  0
   -0.8888    2.1695    0.8576 H   0  0  0  0  0  0  0  0  0  0  0  0
   -0.3149    2.6579    2.8591 C   0  0  0  0  0  0  0  0  0  0  0  0
    0.7271    2.7404    3.1759 H   0  0  0  0  0  0  0  0  0  0  0  0
   -0.7034    3.6528    2.6371 H   0  0  0  0  0  0  0  0  0  0  0  0
   -0.8945    2.2170    3.6719 H   0  0  0  0  0  0  0  0  0  0  0  0
  5  6  2  0  0  0  0
  5  7  1  0  0  0  0
  2  3  1  0  0  0  0
  2  4  1  0  0  0  0
  2  5  1  0  0  0  0
  1  2  1  0  0  0  0
 19 20  2  0  0  0  0
 19 21  1  0  0  0  0
 16 17  1  0  0  0  0
 16 18  1  0  0  0  0
 14 15  2  0  0  0  0
 14 16  1  0  0  0  0
 11 12  1  0  0  0  0
 11 13  1  0  0  0  0
 11 14  1  0  0  0  0
  9 10  1  0  0  0  0
  9 11  1  0  0  0  0
  9 19  1  0  0  0  0
  7  8  1  0  0  0  0
  7  9  1  0  0  0  0
 23 24  1  0  0  0  0
 23 25  1  0  0  0  0
 23 26  1  0  0  0  0
 21 22  1  0  0  0  0
 21 23  1  0  0  0  0
M  END
$$$$
default_name
  -OEChem-01062215323D

 26 25  0     1  0  0  0  0  0999 V2000
   -3.0232   -3.6924    1.0038 H   0  0  0  0  0  0  0  0  0  0  0  0
   -3.0082   -2.6684    0.6318 C   0  0  0  0  0  0  0  0  0  0  0  0
   -3.6332   -2.0414    1.2658 H   0  0  0  0  0  0  0  0  0  0  0  0
   -3.3762   -2.6444   -0.3912 H   0  0  0  0  0  0  0  0  0  0  0  0
   -1.5882   -2.1554    0.6658 C   0  0  0  0  0  0  0  0  0  0  0  0
   -0.6832   -2.8764    1.0638 O   0  0  0  0  0  0  0  0  0  0  0  0
   -1.3952   -0.9084    0.2428 N   0  0  0  0  0  0  0  0  0  0  0  0
   -2.1972   -0.3644   -0.0422 H   0  0  0  0  0  0  0  0  0  0  0  0
   -0.1122   -0.1994    0.2658 C   0  0  1  0  0  0  0  0  0  0  0  0
    0.6926   -0.9351    0.1905 H   0  0  0  0  0  0  0  0  0  0  0  0
   -0.0433    0.7425   -0.9569 C   0  0  0  0  0  0  0  0  0  0  0  0
   -0.9601    1.3287   -1.0086 H   0  0  0  0  0  0  0  0  0  0  0  0
    0.7946    1.4274   -0.8359 H   0  0  0  0  0  0  0  0  0  0  0  0
    0.0932    0.0197   -2.2873 C   0  0  0  0  0  0  0  0  0  0  0  0
    0.8273   -0.9396   -2.4488 O   0  0  0  0  0  0  0  0  0  0  0  0
   -0.6098    0.4647   -3.3002 N   0  0  0  0  0  0  0  0  0  0  0  0
   -0.5127   -0.0432   -4.1618 H   0  0  0  0  0  0  0  0  0  0  0  0
   -1.2352    1.2402   -3.1884 H   0  0  0  0  0  0  0  0  0  0  0  0
    0.0495    0.5529    1.6051 C   0  0  0  0  0  0  0  0  0  0  0  0
    0.8047    0.1105    2.4708 O   0  0  0  0  0  0  0  0  0  0  0  0
   -0.6587    1.6728    1.7798 N   0  0  0  0  0  0  0  0  0  0  0  0
   -1.3137    1.9248    1.0464 H   0  0  0  0  0  0  0  0  0  0  0  0
   -0.6094    2.5049    2.9807 C   0  0  0  0  0  0  0  0  0  0  0  0
    0.4200    2.8168    3.1701 H   0  0  0  0  0  0  0  0  0  0  0  0
   -1.2350    3.3888    2.8495 H   0  0  0  0  0  0  0  0  0  0  0  0
   -0.9663    1.9340    3.8395 H   0  0  0  0  0  0  0  0  0  0  0  0
  5  6  2  0  0  0  0
  5  7  1  0  0  0  0
  2  3  1  0  0  0  0
  2  4  1  0  0  0  0
  2  5  1  0  0  0  0
  1  2  1  0  0  0  0
 19 20  2  0  0  0  0
 19 21  1  0  0  0  0
 16 17  1  0  0  0  0
 16 18  1  0  0  0  0
 14 15  2  0  0  0  0
 14 16  1  0  0  0  0
 11 12  1  0  0  0  0
 11 13  1  0  0  0  0
 11 14  1  0  0  0  0
  9 10  1  0  0  0  0
  9 11  1  0  0  0  0
  9 19  1  0  0  0  0
  7  8  1  0  0  0  0
  7  9  1  0  0  0  0
 23 24  1  0  0  0  0
 23 25  1  0  0  0  0
 23 26  1  0  0  0  0
 21 22  1  0  0  0  0
 21 23  1  0  0  0  0
M  END
$$$$
default_name
  -OEChem-01062215323D

 26 25  0     1  0  0  0  0  0999 V2000
   -3.0232   -3.6924    1.0038 H   0  0  0  0  0  0  0  0  0  0  0  0
   -3.0082   -2.6684    0.6318 C   0  0  0  0  0  0  0  0  0  0  0  0
   -3.6332   -2.0414    1.2658 H   0  0  0  0  0  0  0  0  0  0  0  0
   -3.3762   -2.6444   -0.3912 H   0  0  0  0  0  0  0  0  0  0  0  0
   -1.5882   -2.1554    0.6658 C   0  0  0  0  0  0  0  0  0  0  0  0
   -0.6832   -2.8764    1.0638 O   0  0  0  0  0  0  0  0  0  0  0  0
   -1.3952   -0.9084    0.2428 N   0  0  0  0  0  0  0  0  0  0  0  0
   -2.1972   -0.3644   -0.0422 H   0  0  0  0  0  0  0  0  0  0  0  0
   -0.1122   -0.1994    0.2658 C   0  0  1  0  0  0  0  0  0  0  0  0
    0.6926   -0.9351    0.1905 H   0  0  0  0  0  0  0  0  0  0  0  0
   -0.0433    0.7425   -0.9569 C   0  0  0  0  0  0  0  0  0  0  0  0
   -0.9601    1.3287   -1.0086 H   0  0  0  0  0  0  0  0  0  0  0  0
    0.7946    1.4274   -0.8359 H   0  0  0  0  0  0  0  0  0  0  0  0
    0.0932    0.0197   -2.2873 C   0  0  0  0  0  0  0  0  0  0  0  0
    0.8273   -0.9396   -2.4488 O   0  0  0  0  0  0  0  0  0  0  0  0
   -0.6098    0.4647   -3.3002 N   0  0  0  0  0  0  0  0  0  0  0  0
   -0.5127   -0.0432   -4.1618 H   0  0  0  0  0  0  0  0  0  0  0  0
   -1.2352    1.2402   -3.1884 H   0  0  0  0  0  0  0  0  0  0  0  0
    0.0495    0.5529    1.6051 C   0  0  0  0  0  0  0  0  0  0  0  0
    0.9896    0.2818    2.3522 O   0  0  0  0  0  0  0  0  0  0  0  0
   -0.8617    1.4813    1.9119 N   0  0  0  0  0  0  0  0  0  0  0  0
   -1.6454    1.5879    1.2757 H   0  0  0  0  0  0  0  0  0  0  0  0
   -0.8441    2.2877    3.1310 C   0  0  0  0  0  0  0  0  0  0  0  0
    0.1055    2.8219    3.2052 H   0  0  0  0  0  0  0  0  0  0  0  0
   -1.6625    3.0088    3.1146 H   0  0  0  0  0  0  0  0  0  0  0  0
   -0.9510    1.6400    4.0028 H   0  0  0  0  0  0  0  0  0  0  0  0
  5  6  2  0  0  0  0
  5  7  1  0  0  0  0
  2  3  1  0  0  0  0
  2  4  1  0  0  0  0
  2  5  1  0  0  0  0
  1  2  1  0  0  0  0
 19 20  2  0  0  0  0
 19 21  1  0  0  0  0
 16 17  1  0  0  0  0
 16 18  1  0  0  0  0
 14 15  2  0  0  0  0
 14 16  1  0  0  0  0
 11 12  1  0  0  0  0
 11 13  1  0  0  0  0
 11 14  1  0  0  0  0
  9 10  1  0  0  0  0
  9 11  1  0  0  0  0
  9 19  1  0  0  0  0
  7  8  1  0  0  0  0
  7  9  1  0  0  0  0
 23 24  1  0  0  0  0
 23 25  1  0  0  0  0
 23 26  1  0  0  0  0
 21 22  1  0  0  0  0
 21 23  1  0  0  0  0
M  END
$$$$
default_name
  -OEChem-01062215323D

 26 25  0     1  0  0  0  0  0999 V2000
   -3.0232   -3.6924    1.0038 H   0  0  0  0  0  0  0  0  0  0  0  0
   -3.0082   -2.6684    0.6318 C   0  0  0  0  0  0  0  0  0  0  0  0
   -3.6332   -2.0414    1.2658 H   0  0  0  0  0  0  0  0  0  0  0  0
   -3.3762   -2.6444   -0.3912 H   0  0  0  0  0  0  0  0  0  0  0  0
   -1.5882   -2.1554    0.6658 C   0  0  0  0  0  0  0  0  0  0  0  0
   -0.6832   -2.8764    1.0638 O   0  0  0  0  0  0  0  0  0  0  0  0
   -1.3952   -0.9084    0.2428 N   0  0  0  0  0  0  0  0  0  0  0  0
   -2.1972   -0.3644   -0.0422 H   0  0  0  0  0  0  0  0  0  0  0  0
   -0.1122   -0.1994    0.2658 C   0  0  1  0  0  0  0  0  0  0  0  0
    0.6926   -0.9351    0.1905 H   0  0  0  0  0  0  0  0  0  0  0  0
   -0.0433    0.7425   -0.9569 C   0  0  0  0  0  0  0  0  0  0  0  0
   -0.9601    1.3287   -1.0086 H   0  0  0  0  0  0  0  0  0  0  0  0
    0.7946    1.4274   -0.8359 H   0  0  0  0  0  0  0  0  0  0  0  0
    0.0932    0.0197   -2.2873 C   0  0  0  0  0  0  0  0  0  0  0  0
    0.8273   -0.9396   -2.4488 O   0  0  0  0  0  0  0  0  0  0  0  0
   -0.6098    0.4647   -3.3002 N   0  0  0  0  0  0  0  0  0  0  0  0
   -0.5127   -0.0432   -4.1618 H   0  0  0  0  0  0  0  0  0  0  0  0
   -1.2352    1.2402   -3.1884 H   0  0  0  0  0  0  0  0  0  0  0  0
    0.0495    0.5529    1.6051 C   0  0  0  0  0  0  0  0  0  0  0  0
    1.1148    0.4919    2.2191 O   0  0  0  0  0  0  0  0  0  0  0  0
   -0.9981    1.2472    2.0599 N   0  0  0  0  0  0  0  0  0  0  0  0
   -1.8612    1.1819    1.5298 H   0  0  0  0  0  0  0  0  0  0  0  0
   -1.0032    2.0211    3.3000 C   0  0  0  0  0  0  0  0  0  0  0  0
   -0.1949    2.7552    3.2789 H   0  0  0  0  0  0  0  0  0  0  0  0
   -1.9567    2.5386    3.4143 H   0  0  0  0  0  0  0  0  0  0  0  0
   -0.8497    1.3550    4.1507 H   0  0  0  0  0  0  0  0  0  0  0  0
  5  6  2  0  0  0  0
  5  7  1  0  0  0  0
  2  3  1  0  0  0  0
  2  4  1  0  0  0  0
  2  5  1  0  0  0  0
  1  2  1  0  0  0  0
 19 20  2  0  0  0  0
 19 21  1  0  0  0  0
 16 17  1  0  0  0  0
 16 18  1  0  0  0  0
 14 15  2  0  0  0  0
 14 16  1  0  0  0  0
 11 12  1  0  0  0  0
 11 13  1  0  0  0  0
 11 14  1  0  0  0  0
  9 10  1  0  0  0  0
  9 11  1  0  0  0  0
  9 19  1  0  0  0  0
  7  8  1  0  0  0  0
  7  9  1  0  0  0  0
 23 24  1  0  0  0  0
 23 25  1  0  0  0  0
 23 26  1  0  0  0  0
 21 22  1  0  0  0  0
 21 23  1  0  0  0  0
M  END
$$$$
default_name
  -OEChem-01062215323D

 26 25  0     1  0  0  0  0  0999 V2000
   -3.0232   -3.6924    1.0038 H   0  0  0  0  0  0  0  0  0  0  0  0
   -3.0082   -2.6684    0.6318 C   0  0  0  0  0  0  0  0  0  0  0  0
   -3.6332   -2.0414    1.2658 H   0  0  0  0  0  0  0  0  0  0  0  0
   -3.3762   -2.6444   -0.3912 H   0  0  0  0  0  0  0  0  0  0  0  0
   -1.5882   -2.1554    0.6658 C   0  0  0  0  0  0  0  0  0  0  0  0
   -0.6832   -2.8764    1.0638 O   0  0  0  0  0  0  0  0  0  0  0  0
   -1.3952   -0.9084    0.2428 N   0  0  0  0  0  0  0  0  0  0  0  0
   -2.1972   -0.3644   -0.0422 H   0  0  0  0  0  0  0  0  0  0  0  0
   -0.1122   -0.1994    0.2658 C   0  0  1  0  0  0  0  0  0  0  0  0
    0.6926   -0.9351    0.1905 H   0  0  0  0  0  0  0  0  0  0  0  0
   -0.0433    0.7425   -0.9569 C   0  0  0  0  0  0  0  0  0  0  0  0
   -0.9601    1.3287   -1.0086 H   0  0  0  0  0  0  0  0  0  0  0  0
    0.7946    1.4274   -0.8359 H   0  0  0  0  0  0  0  0  0  0  0  0
    0.0932    0.0197   -2.2873 C   0  0  0  0  0  0  0  0  0  0  0  0
    0.8273   -0.9396   -2.4488 O   0  0  0  0  0  0  0  0  0  0  0  0
   -0.6098    0.4647   -3.3002 N   0  0  0  0  0  0  0  0  0  0  0  0
   -0.5127   -0.0432   -4.1618 H   0  0  0  0  0  0  0  0  0  0  0  0
   -1.2352    1.2402   -3.1884 H   0  0  0  0  0  0  0  0  0  0  0  0
    0.0495    0.5529    1.6051 C   0  0  0  0  0  0  0  0  0  0  0  0
    1.1718    0.7266    2.0804 O   0  0  0  0  0  0  0  0  0  0  0  0
   -1.0586    0.9865    2.2136 N   0  0  0  0  0  0  0  0  0  0  0  0
   -1.9466    0.7344    1.7915 H   0  0  0  0  0  0  0  0  0  0  0  0
   -1.0758    1.7233    3.4760 C   0  0  0  0  0  0  0  0  0  0  0  0
   -0.4609    2.6214    3.3862 H   0  0  0  0  0  0  0  0  0  0  0  0
   -2.0976    2.0103    3.7280 H   0  0  0  0  0  0  0  0  0  0  0  0
   -0.6692    1.0985    4.2730 H   0  0  0  0  0  0  0  0  0  0  0  0
  5  6  2  0  0  0  0
  5  7  1  0  0  0  0
  2  3  1  0  0  0  0
  2  4  1  0  0  0  0
  2  5  1  0  0  0  0
  1  2  1  0  0  0  0
 19 20  2  0  0  0  0
 19 21  1  0  0  0  0
 16 17  1  0  0  0  0
 16 18  1  0  0  0  0
 14 15  2  0  0  0  0
 14 16  1  0  0  0  0
 11 12  1  0  0  0  0
 11 13  1  0  0  0  0
 11 14  1  0  0  0  0
  9 10  1  0  0  0  0
  9 11  1  0  0  0  0
  9 19  1  0  0  0  0
  7  8  1  0  0  0  0
  7  9  1  0  0  0  0
 23 24  1  0  0  0  0
 23 25  1  0  0  0  0
 23 26  1  0  0  0  0
 21 22  1  0  0  0  0
 21 23  1  0  0  0  0
M  END
$$$$
default_name
  -OEChem-01062215323D

 26 25  0     1  0  0  0  0  0999 V2000
   -3.0232   -3.6924    1.0038 H   0  0  0  0  0  0  0  0  0  0  0  0
   -3.0082   -2.6684    0.6318 C   0  0  0  0  0  0  0  0  0  0  0  0
   -3.6332   -2.0414    1.2658 H   0  0  0  0  0  0  0  0  0  0  0  0
   -3.3762   -2.6444   -0.3912 H   0  0  0  0  0  0  0  0  0  0  0  0
   -1.5882   -2.1554    0.6658 C   0  0  0  0  0  0  0  0  0  0  0  0
   -0.6832   -2.8764    1.0638 O   0  0  0  0  0  0  0  0  0  0  0  0
   -1.3952   -0.9084    0.2428 N   0  0  0  0  0  0  0  0  0  0  0  0
   -2.1972   -0.3644   -0.0422 H   0  0  0  0  0  0  0  0  0  0  0  0
   -0.1122   -0.1994    0.2658 C   0  0  1  0  0  0  0  0  0  0  0  0
    0.6926   -0.9351    0.1905 H   0  0  0  0  0  0  0  0  0  0  0  0
   -0.0433    0.7425   -0.9569 C   0  0  0  0  0  0  0  0  0  0  0  0
   -0.9601    1.3287   -1.0086 H   0  0  0  0  0  0  0  0  0  0  0  0
    0.7946    1.4274   -0.8359 H   0  0  0  0  0  0  0  0  0  0  0  0
    0.0932    0.0197   -2.2873 C   0  0  0  0  0  0  0  0  0  0  0  0
    0.8273   -0.9396   -2.4488 O   0  0  0  0  0  0  0  0  0  0  0  0
   -0.6098    0.4647   -3.3002 N   0  0  0  0  0  0  0  0  0  0  0  0
   -0.5127   -0.0432   -4.1618 H   0  0  0  0  0  0  0  0  0  0  0  0
   -1.2352    1.2402   -3.1884 H   0  0  0  0  0  0  0  0  0  0  0  0
    0.0495    0.5529    1.6051 C   0  0  0  0  0  0  0  0  0  0  0  0
    1.1566    0.9699    1.9455 O   0  0  0  0  0  0  0  0  0  0  0  0
   -1.0392    0.7169    2.3628 N   0  0  0  0  0  0  0  0  0  0  0  0
   -1.8957    0.2759    2.0429 H   0  0  0  0  0  0  0  0  0  0  0  0
   -1.0568    1.4146    3.6471 C   0  0  0  0  0  0  0  0  0  0  0  0
   -0.6743    2.4296    3.5197 H   0  0  0  0  0  0  0  0  0  0  0  0
   -2.0756    1.4599    4.0346 H   0  0  0  0  0  0  0  0  0  0  0  0
   -0.4219    0.8879    4.3615 H   0  0  0  0  0  0  0  0  0  0  0  0
  5  6  2  0  0  0  0
  5  7  1  0  0  0  0
  2  3  1  0  0  0  0
  2  4  1  0  0  0  0
  2  5  1  0  0  0  0
  1  2  1  0  0  0  0
 19 20  2  0  0  0  0
 19 21  1  0  0  0  0
 16 17  1  0  0  0  0
 16 18  1  0  0  0  0
 14 15  2  0  0  0  0
 14 16  1  0  0  0  0
 11 12  1  0  0  0  0
 11 13  1  0  0  0  0
 11 14  1  0  0  0  0
  9 10  1  0  0  0  0
  9 11  1  0  0  0  0
  9 19  1  0  0  0  0
  7  8  1  0  0  0  0
  7  9  1  0  0  0  0
 23 24  1  0  0  0  0
 23 25  1  0  0  0  0
 23 26  1  0  0  0  0
 21 22  1  0  0  0  0
 21 23  1  0  0  0  0
M  END
$$$$
default_name
  -OEChem-01062215323D

 26 25  0     1  0  0  0  0  0999 V2000
   -3.0232   -3.6924    1.0038 H   0  0  0  0  0  0  0  0  0  0  0  0
   -3.0082   -2.6684    0.6318 C   0  0  0  0  0  0  0  0  0  0  0  0
   -3.6332   -2.0414    1.2658 H   0  0  0  0  0  0  0  0  0  0  0  0
   -3.3762   -2.6444   -0.3912 H   0  0  0  0  0  0  0  0  0  0  0  0
   -1.5882   -2.1554    0.6658 C   0  0  0  0  0  0  0  0  0  0  0  0
   -0.6832   -2.8764    1.0638 O   0  0  0  0  0  0  0  0  0  0  0  0
   -1.3952   -0.9084    0.2428 N   0  0  0  0  0  0  0  0  0  0  0  0
   -2.1972   -0.3644   -0.0422 H   0  0  0  0  0  0  0  0  0  0  0  0
   -0.1122   -0.1994    0.2658 C   0  0  1  0  0  0  0  0  0  0  0  0
    0.6926   -0.9351    0.1905 H   0  0  0  0  0  0  0  0  0  0  0  0
   -0.0433    0.7425   -0.9569 C   0  0  0  0  0  0  0  0  0  0  0  0
   -0.9601    1.3287   -1.0086 H   0  0  0  0  0  0  0  0  0  0  0  0
    0.7946    1.4274   -0.8359 H   0  0  0  0  0  0  0  0  0  0  0  0
    0.0932    0.0197   -2.2873 C   0  0  0  0  0  0  0  0  0  0  0  0
    0.8273   -0.9396   -2.4488 O   0  0  0  0  0  0  0  0  0  0  0  0
   -0.6098    0.4647   -3.3002 N   0  0  0  0  0  0  0  0  0  0  0  0
   -0.5127   -0.0432   -4.1618 H   0  0  0  0  0  0  0  0  0  0  0  0
   -1.2352    1.2402   -3.1884 H   0  0  0  0  0  0  0  0  0  0  0  0
    0.0495    0.5529    1.6051 C   0  0  0  0  0  0  0  0  0  0  0  0
    1.0705    1.2051    1.8238 O   0  0  0  0  0  0  0  0  0  0  0  0
   -0.9412    0.4568    2.4970 N   0  0  0  0  0  0  0  0  0  0  0  0
   -1.7119   -0.1624    2.2669 H   0  0  0  0  0  0  0  0  0  0  0  0
   -0.9477    1.1161    3.8016 C   0  0  0  0  0  0  0  0  0  0  0  0
   -0.8205    2.1928    3.6703 H   0  0  0  0  0  0  0  0  0  0  0  0
   -1.8921    0.9249    4.3130 H   0  0  0  0  0  0  0  0  0  0  0  0
   -0.1246    0.7375    4.4100 H   0  0  0  0  0  0  0  0  0  0  0  0
  5  6  2  0  0  0  0
  5  7  1  0  0  0  0
  2  3  1  0  0  0  0
  2  4  1  0  0  0  0
  2  5  1  0  0  0  0
  1  2  1  0  0  0  0
 19 20  2  0  0  0  0
 19 21  1  0  0  0  0
 16 17  1  0  0  0  0
 16 18  1  0  0  0  0
 14 15  2  0  0  0  0
 14 16  1  0  0  0  0
 11 12  1  0  0  0  0
 11 13  1  0  0  0  0
 11 14  1  0  0  0  0
  9 10  1  0  0  0  0
  9 11  1  0  0  0  0
  9 19  1  0  0  0  0
  7  8  1  0  0  0  0
  7  9  1  0  0  0  0
 23 24  1  0  0  0  0
 23 25  1  0  0  0  0
 23 26  1  0  0  0  0
 21 22  1  0  0  0  0
 21 23  1  0  0  0  0
M  END
$$$$
default_name
  -OEChem-01062215323D

 26 25  0     1  0  0  0  0  0999 V2000
   -3.0232   -3.6924    1.0038 H   0  0  0  0  0  0  0  0  0  0  0  0
   -3.0082   -2.6684    0.6318 C   0  0  0  0  0  0  0  0  0  0  0  0
   -3.6332   -2.0414    1.2658 H   0  0  0  0  0  0  0  0  0  0  0  0
   -3.3762   -2.6444   -0.3912 H   0  0  0  0  0  0  0  0  0  0  0  0
   -1.5882   -2.1554    0.6658 C   0  0  0  0  0  0  0  0  0  0  0  0
   -0.6832   -2.8764    1.0638 O   0  0  0  0  0  0  0  0  0  0  0  0
   -1.3952   -0.9084    0.2428 N   0  0  0  0  0  0  0  0  0  0  0  0
   -2.1972   -0.3644   -0.0422 H   0  0  0  0  0  0  0  0  0  0  0  0
   -0.1122   -0.1994    0.2658 C   0  0  1  0  0  0  0  0  0  0  0  0
    0.6926   -0.9351    0.1905 H   0  0  0  0  0  0  0  0  0  0  0  0
   -0.0433    0.7425   -0.9569 C   0  0  0  0  0  0  0  0  0  0  0  0
   -0.9601    1.3287   -1.0086 H   0  0  0  0  0  0  0  0  0  0  0  0
    0.7946    1.4274   -0.8359 H   0  0  0  0  0  0  0  0  0  0  0  0
    0.0932    0.0197   -2.2873 C   0  0  0  0  0  0  0  0  0  0  0  0
    0.8273   -0.9396   -2.4488 O   0  0  0  0  0  0  0  0  0  0  0  0
   -0.6098    0.4647   -3.3002 N   0  0  0  0  0  0  0  0  0  0  0  0
   -0.5127   -0.0432   -4.1618 H   0  0  0  0  0  0  0  0  0  0  0  0
   -1.2352    1.2402   -3.1884 H   0  0  0  0  0  0  0  0  0  0  0  0
    0.0495    0.5529    1.6051 C   0  0  0  0  0  0  0  0  0  0  0  0
    0.9191    1.4162    1.7235 O   0  0  0  0  0  0  0  0  0  0  0  0
   -0.7712    0.2239    2.6073 N   0  0  0  0  0  0  0  0  0  0  0  0
   -1.4078   -0.5506    2.4482 H   0  0  0  0  0  0  0  0  0  0  0  0
   -0.7558    0.8480    3.9291 C   0  0  0  0  0  0  0  0  0  0  0  0
   -0.8896    1.9272    3.8279 H   0  0  0  0  0  0  0  0  0  0  0  0
   -1.5598    0.4417    4.5443 H   0  0  0  0  0  0  0  0  0  0  0  0
    0.2025    0.6577    4.4154 H   0  0  0  0  0  0  0  0  0  0  0  0
  5  6  2  0  0  0  0
  5  7  1  0  0  0  0
  2  3  1  0  0  0  0
  2  4  1  0  0  0  0
  2  5  1  0  0  0  0
  1  2  1  0  0  0  0
 19 20  2  0  0  0  0
 19 21  1  0  0  0  0
 16 17  1  0  0  0  0
 16 18  1  0  0  0  0
 14 15  2  0  0  0  0
 14 16  1  0  0  0  0
 11 12  1  0  0  0  0
 11 13  1  0  0  0  0
 11 14  1  0  0  0  0
  9 10  1  0  0  0  0
  9 11  1  0  0  0  0
  9 19  1  0  0  0  0
  7  8  1  0  0  0  0
  7  9  1  0  0  0  0
 23 24  1  0  0  0  0
 23 25  1  0  0  0  0
 23 26  1  0  0  0  0
 21 22  1  0  0  0  0
 21 23  1  0  0  0  0
M  END
$$$$
default_name
  -OEChem-01062215323D

 26 25  0     1  0  0  0  0  0999 V2000
   -3.0232   -3.6924    1.0038 H   0  0  0  0  0  0  0  0  0  0  0  0
   -3.0082   -2.6684    0.6318 C   0  0  0  0  0  0  0  0  0  0  0  0
   -3.6332   -2.0414    1.2658 H   0  0  0  0  0  0  0  0  0  0  0  0
   -3.3762   -2.6444   -0.3912 H   0  0  0  0  0  0  0  0  0  0  0  0
   -1.5882   -2.1554    0.6658 C   0  0  0  0  0  0  0  0  0  0  0  0
   -0.6832   -2.8764    1.0638 O   0  0  0  0  0  0  0  0  0  0  0  0
   -1.3952   -0.9084    0.2428 N   0  0  0  0  0  0  0  0  0  0  0  0
   -2.1972   -0.3644   -0.0422 H   0  0  0  0  0  0  0  0  0  0  0  0
   -0.1122   -0.1994    0.2658 C   0  0  1  0  0  0  0  0  0  0  0  0
    0.6926   -0.9351    0.1905 H   0  0  0  0  0  0  0  0  0  0  0  0
   -0.0433    0.7425   -0.9569 C   0  0  0  0  0  0  0  0  0  0  0  0
   -0.9601    1.3287   -1.0086 H   0  0  0  0  0  0  0  0  0  0  0  0
    0.7946    1.4274   -0.8359 H   0  0  0  0  0  0  0  0  0  0  0  0
    0.0932    0.0197   -2.2873 C   0  0  0  0  0  0  0  0  0  0  0  0
    0.8273   -0.9396   -2.4488 O   0  0  0  0  0  0  0  0  0  0  0  0
   -0.6098    0.4647   -3.3002 N   0  0  0  0  0  0  0  0  0  0  0  0
   -0.5127   -0.0432   -4.1618 H   0  0  0  0  0  0  0  0  0  0  0  0
   -1.2352    1.2402   -3.1884 H   0  0  0  0  0  0  0  0  0  0  0  0
    0.0495    0.5529    1.6051 C   0  0  0  0  0  0  0  0  0  0  0  0
    0.7129    1.5889    1.6514 O   0  0  0  0  0  0  0  0  0  0  0  0
   -0.5408    0.0341    2.6861 N   0  0  0  0  0  0  0  0  0  0  0  0
   -1.0040   -0.8622    2.5745 H   0  0  0  0  0  0  0  0  0  0  0  0
   -0.4942    0.6287    4.0207 C   0  0  0  0  0  0  0  0  0  0  0  0
   -0.8769    1.6509    3.9816 H   0  0  0  0  0  0  0  0  0  0  0  0
   -1.1012    0.0433    4.7127 H   0  0  0  0  0  0  0  0  0  0  0  0
    0.5369    0.6539    4.3771 H   0  0  0  0  0  0  0  0  0  0  0  0
  5  6  2  0  0  0  0
  5  7  1  0  0  0  0
  2  3  1  0  0  0  0
  2  4  1  0  0  0  0
  2  5  1  0  0  0  0
  1  2  1  0  0  0  0
 19 20  2  0  0  0  0
 19 21  1  0  0  0  0
 16 17  1  0  0  0  0
 16 18  1  0  0  0  0
 14 15  2  0  0  0  0
 14 16  1  0  0  0  0
 11 12  1  0  0  0  0
 11 13  1  0  0  0  0
 11 14  1  0  0  0  0
  9 10  1  0  0  0  0
  9 11  1  0  0  0  0
  9 19  1  0  0  0  0
  7  8  1  0  0  0  0
  7  9  1  0  0  0  0
 23 24  1  0  0  0  0
 23 25  1  0  0  0  0
 23 26  1  0  0  0  0
 21 22  1  0  0  0  0
 21 23  1  0  0  0  0
M  END
$$$$
default_name
  -OEChem-01062215323D

 26 25  0     1  0  0  0  0  0999 V2000
   -3.0232   -3.6924    1.0038 H   0  0  0  0  0  0  0  0  0  0  0  0
   -3.0082   -2.6684    0.6318 C   0  0  0  0  0  0  0  0  0  0  0  0
   -3.6332   -2.0414    1.2658 H   0  0  0  0  0  0  0  0  0  0  0  0
   -3.3762   -2.6444   -0.3912 H   0  0  0  0  0  0  0  0  0  0  0  0
   -1.5882   -2.1554    0.6658 C   0  0  0  0  0  0  0  0  0  0  0  0
   -0.6832   -2.8764    1.0638 O   0  0  0  0  0  0  0  0  0  0  0  0
   -1.3952   -0.9084    0.2428 N   0  0  0  0  0  0  0  0  0  0  0  0
   -2.1972   -0.3644   -0.0422 H   0  0  0  0  0  0  0  0  0  0  0  0
   -0.1122   -0.1994    0.2658 C   0  0  1  0  0  0  0  0  0  0  0  0
    0.6926   -0.9351    0.1905 H   0  0  0  0  0  0  0  0  0  0  0  0
   -0.0433    0.7425   -0.9569 C   0  0  0  0  0  0  0  0  0  0  0  0
   -0.9601    1.3287   -1.0086 H   0  0  0  0  0  0  0  0  0  0  0  0
    0.7946    1.4274   -0.8359 H   0  0  0  0  0  0  0  0  0  0  0  0
    0.0932    0.0197   -2.2873 C   0  0  0  0  0  0  0  0  0  0  0  0
    0.8273   -0.9396   -2.4488 O   0  0  0  0  0  0  0  0  0  0  0  0
   -0.6098    0.4647   -3.3002 N   0  0  0  0  0  0  0  0  0  0  0  0
   -0.5127   -0.0432   -4.1618 H   0  0  0  0  0  0  0  0  0  0  0  0
   -1.2352    1.2402   -3.1884 H   0  0  0  0  0  0  0  0  0  0  0  0
    0.0495    0.5529    1.6051 C   0  0  0  0  0  0  0  0  0  0  0  0
    0.4658    1.7114    1.6124 O   0  0  0  0  0  0  0  0  0  0  0  0
   -0.2658   -0.0996    2.7280 N   0  0  0  0  0  0  0  0  0  0  0  0
   -0.5282   -1.0760    2.6372 H   0  0  0  0  0  0  0  0  0  0  0  0
   -0.1808    0.4731    4.0702 C   0  0  0  0  0  0  0  0  0  0  0  0
   -0.7832    1.3826    4.1210 H   0  0  0  0  0  0  0  0  0  0  0  0
   -0.5475   -0.2432    4.8068 H   0  0  0  0  0  0  0  0  0  0  0  0
    0.8560    0.7263    4.2979 H   0  0  0  0  0  0  0  0  0  0  0  0
  5  6  2  0  0  0  0
  5  7  1  0  0  0  0
  2  3  1  0  0  0  0
  2  4  1  0  0  0  0
  2  5  1  0  0  0  0
  1  2  1  0  0  0  0
 19 20  2  0  0  0  0
 19 21  1  0  0  0  0
 16 17  1  0  0  0  0
 16 18  1  0  0  0  0
 14 15  2  0  0  0  0
 14 16  1  0  0  0  0
 11 12  1  0  0  0  0
 11 13  1  0  0  0  0
 11 14  1  0  0  0  0
  9 10  1  0  0  0  0
  9 11  1  0  0  0  0
  9 19  1  0  0  0  0
  7  8  1  0  0  0  0
  7  9  1  0  0  0  0
 23 24  1  0  0  0  0
 23 25  1  0  0  0  0
 23 26  1  0  0  0  0
 21 22  1  0  0  0  0
 21 23  1  0  0  0  0
M  END
$$$$
default_name
  -OEChem-01062215323D

 26 25  0     1  0  0  0  0  0999 V2000
   -3.0232   -3.6924    1.0038 H   0  0  0  0  0  0  0  0  0  0  0  0
   -3.0082   -2.6684    0.6318 C   0  0  0  0  0  0  0  0  0  0  0  0
   -3.6332   -2.0414    1.2658 H   0  0  0  0  0  0  0  0  0  0  0  0
   -3.3762   -2.6444   -0.3912 H   0  0  0  0  0  0  0  0  0  0  0  0
   -1.5882   -2.1554    0.6658 C   0  0  0  0  0  0  0  0  0  0  0  0
   -0.6832   -2.8764    1.0638 O   0  0  0  0  0  0  0  0  0  0  0  0
   -1.3952   -0.9084    0.2428 N   0  0  0  0  0  0  0  0  0  0  0  0
   -2.1972   -0.3644   -0.0422 H   0  0  0  0  0  0  0  0  0  0  0  0
   -0.1122   -0.1994    0.2658 C   0  0  1  0  0  0  0  0  0  0  0  0
    0.6926   -0.9351    0.1905 H   0  0  0  0  0  0  0  0  0  0  0  0
   -0.0433    0.7425   -0.9569 C   0  0  0  0  0  0  0  0  0  0  0  0
   -0.9601    1.3287   -1.0086 H   0  0  0  0  0  0  0  0  0  0  0  0
    0.7946    1.4274   -0.8359 H   0  0  0  0  0  0  0  0  0  0  0  0
    0.0932    0.0197   -2.2873 C   0  0  0  0  0  0  0  0  0  0  0  0
    0.8273   -0.9396   -2.4488 O   0  0  0  0  0  0  0  0  0  0  0  0
   -0.6098    0.4647   -3.3002 N   0  0  0  0  0  0  0  0  0  0  0  0
   -0.5127   -0.0432   -4.1618 H   0  0  0  0  0  0  0  0  0  0  0  0
   -1.2352    1.2402   -3.1884 H   0  0  0  0  0  0  0  0  0  0  0  0
    0.0495    0.5529    1.6051 C   0  0  0  0  0  0  0  0  0  0  0  0
    0.1947    1.7754    1.6092 O   0  0  0  0  0  0  0  0  0  0  0  0
    0.0352   -0.1683    2.7302 N   0  0  0  0  0  0  0  0  0  0  0  0
   -0.0127   -1.1774    2.6319 H   0  0  0  0  0  0  0  0  0  0  0  0
    0.1631    0.3918    4.0744 C   0  0  0  0  0  0  0  0  0  0  0  0
   -0.6150    1.1408    4.2365 H   0  0  0  0  0  0  0  0  0  0  0  0
    0.0634   -0.3982    4.8201 H   0  0  0  0  0  0  0  0  0  0  0  0
    1.1381    0.8699    4.1832 H   0  0  0  0  0  0  0  0  0  0  0  0
  5  6  2  0  0  0  0
  5  7  1  0  0  0  0
  2  3  1  0  0  0  0
  2  4  1  0  0  0  0
  2  5  1  0  0  0  0
  1  2  1  0  0  0  0
 19 20  2  0  0  0  0
 19 21  1  0  0  0  0
 16 17  1  0  0  0  0
 16 18  1  0  0  0  0
 14 15  2  0  0  0  0
 14 16  1  0  0  0  0
 11 12  1  0  0  0  0
 11 13  1  0  0  0  0
 11 14  1  0  0  0  0
  9 10  1  0  0  0  0
  9 11  1  0  0  0  0
  9 19  1  0  0  0  0
  7  8  1  0  0  0  0
  7  9  1  0  0  0  0
 23 24  1  0  0  0  0
 23 25  1  0  0  0  0
 23 26  1  0  0  0  0
 21 22  1  0  0  0  0
 21 23  1  0  0  0  0
M  END
$$$$
default_name
  -OEChem-01062215323D

 26 25  0     1  0  0  0  0  0999 V2000
   -3.0232   -3.6924    1.0038 H   0  0  0  0  0  0  0  0  0  0  0  0
   -3.0082   -2.6684    0.6318 C   0  0  0  0  0  0  0  0  0  0  0  0
   -3.6332   -2.0414    1.2658 H   0  0  0  0  0  0  0  0  0  0  0  0
   -3.3762   -2.6444   -0.3912 H   0  0  0  0  0  0  0  0  0  0  0  0
   -1.5882   -2.1554    0.6658 C   0  0  0  0  0  0  0  0  0  0  0  0
   -0.6832   -2.8764    1.0638 O   0  0  0  0  0  0  0  0  0  0  0  0
   -1.3952   -0.9084    0.2428 N   0  0  0  0  0  0  0  0  0  0  0  0
   -2.1972   -0.3644   -0.0422 H   0  0  0  0  0  0  0  0  0  0  0  0
   -0.1122   -0.1994    0.2658 C   0  0  1  0  0  0  0  0  0  0  0  0
    0.6926   -0.9351    0.1905 H   0  0  0  0  0  0  0  0  0  0  0  0
   -0.0433    0.7425   -0.9569 C   0  0  0  0  0  0  0  0  0  0  0  0
   -0.9601    1.3287   -1.0086 H   0  0  0  0  0  0  0  0  0  0  0  0
    0.7946    1.4274   -0.8359 H   0  0  0  0  0  0  0  0  0  0  0  0
    0.0932    0.0197   -2.2873 C   0  0  0  0  0  0  0  0  0  0  0  0
    0.8273   -0.9396   -2.4488 O   0  0  0  0  0  0  0  0  0  0  0  0
   -0.6098    0.4647   -3.3002 N   0  0  0  0  0  0  0  0  0  0  0  0
   -0.5127   -0.0432   -4.1618 H   0  0  0  0  0  0  0  0  0  0  0  0
   -1.2352    1.2402   -3.1884 H   0  0  0  0  0  0  0  0  0  0  0  0
    0.0495    0.5529    1.6051 C   0  0  0  0  0  0  0  0  0  0  0  0
   -0.0819    1.7764    1.6420 O   0  0  0  0  0  0  0  0  0  0  0  0
    0.3416   -0.1670    2.6926 N   0  0  0  0  0  0  0  0  0  0  0  0
    0.5073   -1.1595    2.5591 H   0  0  0  0  0  0  0  0  0  0  0  0
    0.5141    0.3903    4.0329 C   0  0  0  0  0  0  0  0  0  0  0  0
   -0.3836    0.9418    4.3204 H   0  0  0  0  0  0  0  0  0  0  0  0
    0.6899   -0.4112    4.7517 H   0  0  0  0  0  0  0  0  0  0  0  0
    1.3638    1.0751    4.0407 H   0  0  0  0  0  0  0  0  0  0  0  0
  5  6  2  0  0  0  0
  5  7  1  0  0  0  0
  2  3  1  0  0  0  0
  2  4  1  0  0  0  0
  2  5  1  0  0  0  0
  1  2  1  0  0  0  0
 19 20  2  0  0  0  0
 19 21  1  0  0  0  0
 16 17  1  0  0  0  0
 16 18  1  0  0  0  0
 14 15  2  0  0  0  0
 14 16  1  0  0  0  0
 11 12  1  0  0  0  0
 11 13  1  0  0  0  0
 11 14  1  0  0  0  0
  9 10  1  0  0  0  0
  9 11  1  0  0  0  0
  9 19  1  0  0  0  0
  7  8  1  0  0  0  0
  7  9  1  0  0  0  0
 23 24  1  0  0  0  0
 23 25  1  0  0  0  0
 23 26  1  0  0  0  0
 21 22  1  0  0  0  0
 21 23  1  0  0  0  0
M  END
$$$$
default_name
  -OEChem-01062215323D

 26 25  0     1  0  0  0  0  0999 V2000
   -3.0232   -3.6924    1.0038 H   0  0  0  0  0  0  0  0  0  0  0  0
   -3.0082   -2.6684    0.6318 C   0  0  0  0  0  0  0  0  0  0  0  0
   -3.6332   -2.0414    1.2658 H   0  0  0  0  0  0  0  0  0  0  0  0
   -3.3762   -2.6444   -0.3912 H   0  0  0  0  0  0  0  0  0  0  0  0
   -1.5882   -2.1554    0.6658 C   0  0  0  0  0  0  0  0  0  0  0  0
   -0.6832   -2.8764    1.0638 O   0  0  0  0  0  0  0  0  0  0  0  0
   -1.3952   -0.9084    0.2428 N   0  0  0  0  0  0  0  0  0  0  0  0
   -2.1972   -0.3644   -0.0422 H   0  0  0  0  0  0  0  0  0  0  0  0
   -0.1122   -0.1994    0.2658 C   0  0  1  0  0  0  0  0  0  0  0  0
    0.6926   -0.9351    0.1905 H   0  0  0  0  0  0  0  0  0  0  0  0
   -0.0433    0.7425   -0.9569 C   0  0  0  0  0  0  0  0  0  0  0  0
   -0.9601    1.3287   -1.0086 H   0  0  0  0  0  0  0  0  0  0  0  0
    0.7946    1.4274   -0.8359 H   0  0  0  0  0  0  0  0  0  0  0  0
    0.0932    0.0197   -2.2873 C   0  0  0  0  0  0  0  0  0  0  0  0
    0.8273   -0.9396   -2.4488 O   0  0  0  0  0  0  0  0  0  0  0  0
   -0.6098    0.4647   -3.3002 N   0  0  0  0  0  0  0  0  0  0  0  0
   -0.5127   -0.0432   -4.1618 H   0  0  0  0  0  0  0  0  0  0  0  0
   -1.2352    1.2402   -3.1884 H   0  0  0  0  0  0  0  0  0  0  0  0
    0.0495    0.5529    1.6051 C   0  0  0  0  0  0  0  0  0  0  0  0
   -0.3451    1.7144    1.7086 O   0  0  0  0  0  0  0  0  0  0  0  0
    0.6325   -0.0961    2.6176 N   0  0  0  0  0  0  0  0  0  0  0  0
    0.9964   -1.0236    2.4237 H   0  0  0  0  0  0  0  0  0  0  0  0
    0.8483    0.4687    3.9484 C   0  0  0  0  0  0  0  0  0  0  0  0
   -0.1049    0.7992    4.3668 H   0  0  0  0  0  0  0  0  0  0  0  0
    1.2894   -0.2813    4.6064 H   0  0  0  0  0  0  0  0  0  0  0  0
    1.5178    1.3278    3.8801 H   0  0  0  0  0  0  0  0  0  0  0  0
  5  6  2  0  0  0  0
  5  7  1  0  0  0  0
  2  3  1  0  0  0  0
  2  4  1  0  0  0  0
  2  5  1  0  0  0  0
  1  2  1  0  0  0  0
 19 20  2  0  0  0  0
 19 21  1  0  0  0  0
 16 17  1  0  0  0  0
 16 18  1  0  0  0  0
 14 15  2  0  0  0  0
 14 16  1  0  0  0  0
 11 12  1  0  0  0  0
 11 13  1  0  0  0  0
 11 14  1  0  0  0  0
  9 10  1  0  0  0  0
  9 11  1  0  0  0  0
  9 19  1  0  0  0  0
  7  8  1  0  0  0  0
  7  9  1  0  0  0  0
 23 24  1  0  0  0  0
 23 25  1  0  0  0  0
 23 26  1  0  0  0  0
 21 22  1  0  0  0  0
 21 23  1  0  0  0  0
M  END
$$$$
default_name
  -OEChem-01062215323D

 26 25  0     1  0  0  0  0  0999 V2000
   -3.0232   -3.6924    1.0038 H   0  0  0  0  0  0  0  0  0  0  0  0
   -3.0082   -2.6684    0.6318 C   0  0  0  0  0  0  0  0  0  0  0  0
   -3.6332   -2.0414    1.2658 H   0  0  0  0  0  0  0  0  0  0  0  0
   -3.3762   -2.6444   -0.3912 H   0  0  0  0  0  0  0  0  0  0  0  0
   -1.5882   -2.1554    0.6658 C   0  0  0  0  0  0  0  0  0  0  0  0
   -0.6832   -2.8764    1.0638 O   0  0  0  0  0  0  0  0  0  0  0  0
   -1.3952   -0.9084    0.2428 N   0  0  0  0  0  0  0  0  0  0  0  0
   -2.1972   -0.3644   -0.0422 H   0  0  0  0  0  0  0  0  0  0  0  0
   -0.1122   -0.1994    0.2658 C   0  0  1  0  0  0  0  0  0  0  0  0
    0.6926   -0.9351    0.1905 H   0  0  0  0  0  0  0  0  0  0  0  0
   -0.0433    0.7425   -0.9569 C   0  0  0  0  0  0  0  0  0  0  0  0
   -0.9601    1.3287   -1.0086 H   0  0  0  0  0  0  0  0  0  0  0  0
    0.7946    1.4274   -0.8359 H   0  0  0  0  0  0  0  0  0  0  0  0
    0.0932    0.0197   -2.2873 C   0  0  0  0  0  0  0  0  0  0  0  0
    0.8273   -0.9396   -2.4488 O   0  0  0  0  0  0  0  0  0  0  0  0
   -0.6098    0.4647   -3.3002 N   0  0  0  0  0  0  0  0  0  0  0  0
   -0.5127   -0.0432   -4.1618 H   0  0  0  0  0  0  0  0  0  0  0  0
   -1.2352    1.2402   -3.1884 H   0  0  0  0  0  0  0  0  0  0  0  0
    0.0495    0.5529    1.6051 C   0  0  0  0  0  0  0  0  0  0  0  0
   -0.5771    1.5937    1.8045 O   0  0  0  0  0  0  0  0  0  0  0  0
    0.8882    0.0398    2.5104 N   0  0  0  0  0  0  0  0  0  0  0  0
    1.4213   -0.7789    2.2349 H   0  0  0  0  0  0  0  0  0  0  0  0
    1.1427    0.6218    3.8269 C   0  0  0  0  0  0  0  0  0  0  0  0
    0.2021    0.7228    4.3726 H   0  0  0  0  0  0  0  0  0  0  0  0
    1.8210   -0.0173    4.3939 H   0  0  0  0  0  0  0  0  0  0  0  0
    1.5896    1.6108    3.7125 H   0  0  0  0  0  0  0  0  0  0  0  0
  5  6  2  0  0  0  0
  5  7  1  0  0  0  0
  2  3  1  0  0  0  0
  2  4  1  0  0  0  0
  2  5  1  0  0  0  0
  1  2  1  0  0  0  0
 19 20  2  0  0  0  0
 19 21  1  0  0  0  0
 16 17  1  0  0  0  0
 16 18  1  0  0  0  0
 14 15  2  0  0  0  0
 14 16  1  0  0  0  0
 11 12  1  0  0  0  0
 11 13  1  0  0  0  0
 11 14  1  0  0  0  0
  9 10  1  0  0  0  0
  9 11  1  0  0  0  0
  9 19  1  0  0  0  0
  7  8  1  0  0  0  0
  7  9  1  0  0  0  0
 23 24  1  0  0  0  0
 23 25  1  0  0  0  0
 23 26  1  0  0  0  0
 21 22  1  0  0  0  0
 21 23  1  0  0  0  0
M  END
$$$$
default_name
  -OEChem-01062215323D

 26 25  0     1  0  0  0  0  0999 V2000
   -3.0232   -3.6924    1.0038 H   0  0  0  0  0  0  0  0  0  0  0  0
   -3.0082   -2.6684    0.6318 C   0  0  0  0  0  0  0  0  0  0  0  0
   -3.6332   -2.0414    1.2658 H   0  0  0  0  0  0  0  0  0  0  0  0
   -3.3762   -2.6444   -0.3912 H   0  0  0  0  0  0  0  0  0  0  0  0
   -1.5882   -2.1554    0.6658 C   0  0  0  0  0  0  0  0  0  0  0  0
   -0.6832   -2.8764    1.0638 O   0  0  0  0  0  0  0  0  0  0  0  0
   -1.3952   -0.9084    0.2428 N   0  0  0  0  0  0  0  0  0  0  0  0
   -2.1972   -0.3644   -0.0422 H   0  0  0  0  0  0  0  0  0  0  0  0
   -0.1122   -0.1994    0.2658 C   0  0  1  0  0  0  0  0  0  0  0  0
    0.6926   -0.9351    0.1905 H   0  0  0  0  0  0  0  0  0  0  0  0
   -0.0433    0.7425   -0.9569 C   0  0  0  0  0  0  0  0  0  0  0  0
   -0.9601    1.3287   -1.0086 H   0  0  0  0  0  0  0  0  0  0  0  0
    0.7946    1.4274   -0.8359 H   0  0  0  0  0  0  0  0  0  0  0  0
    0.0932    0.0197   -2.2873 C   0  0  0  0  0  0  0  0  0  0  0  0
    0.8273   -0.9396   -2.4488 O   0  0  0  0  0  0  0  0  0  0  0  0
   -0.6098    0.4647   -3.3002 N   0  0  0  0  0  0  0  0  0  0  0  0
   -0.5127   -0.0432   -4.1618 H   0  0  0  0  0  0  0  0  0  0  0  0
   -1.2352    1.2402   -3.1884 H   0  0  0  0  0  0  0  0  0  0  0  0
    0.0495    0.5529    1.6051 C   0  0  0  0  0  0  0  0  0  0  0  0
   -0.7619    1.4224    1.9230 O   0  0  0  0  0  0  0  0  0  0  0  0
    1.0911    0.2313    2.3783 N   0  0  0  0  0  0  0  0  0  0  0  0
    1.7530   -0.4421    2.0057 H   0  0  0  0  0  0  0  0  0  0  0  0
    1.3775    0.8390    3.6765 C   0  0  0  0  0  0  0  0  0  0  0  0
    0.5166    0.7178    4.3375 H   0  0  0  0  0  0  0  0  0  0  0  0
    2.2485    0.3627    4.1288 H   0  0  0  0  0  0  0  0  0  0  0  0
    1.5743    1.9048    3.5492 H   0  0  0  0  0  0  0  0  0  0  0  0
  5  6  2  0  0  0  0
  5  7  1  0  0  0  0
  2  3  1  0  0  0  0
  2  4  1  0  0  0  0
  2  5  1  0  0  0  0
  1  2  1  0  0  0  0
 19 20  2  0  0  0  0
 19 21  1  0  0  0  0
 16 17  1  0  0  0  0
 16 18  1  0  0  0  0
 14 15  2  0  0  0  0
 14 16  1  0  0  0  0
 11 12  1  0  0  0  0
 11 13  1  0  0  0  0
 11 14  1  0  0  0  0
  9 10  1  0  0  0  0
  9 11  1  0  0  0  0
  9 19  1  0  0  0  0
  7  8  1  0  0  0  0
  7  9  1  0  0  0  0
 23 24  1  0  0  0  0
 23 25  1  0  0  0  0
 23 26  1  0  0  0  0
 21 22  1  0  0  0  0
 21 23  1  0  0  0  0
M  END
$$$$
default_name
  -OEChem-01062215323D

 26 25  0     1  0  0  0  0  0999 V2000
   -3.0232   -3.6924    1.0038 H   0  0  0  0  0  0  0  0  0  0  0  0
   -3.0082   -2.6684    0.6318 C   0  0  0  0  0  0  0  0  0  0  0  0
   -3.6332   -2.0414    1.2658 H   0  0  0  0  0  0  0  0  0  0  0  0
   -3.3762   -2.6444   -0.3912 H   0  0  0  0  0  0  0  0  0  0  0  0
   -1.5882   -2.1554    0.6658 C   0  0  0  0  0  0  0  0  0  0  0  0
   -0.6832   -2.8764    1.0638 O   0  0  0  0  0  0  0  0  0  0  0  0
   -1.3952   -0.9084    0.2428 N   0  0  0  0  0  0  0  0  0  0  0  0
   -2.1972   -0.3644   -0.0422 H   0  0  0  0  0  0  0  0  0  0  0  0
   -0.1122   -0.1994    0.2658 C   0  0  1  0  0  0  0  0  0  0  0  0
    0.6926   -0.9351    0.1905 H   0  0  0  0  0  0  0  0  0  0  0  0
   -0.0433    0.7425   -0.9569 C   0  0  0  0  0  0  0  0  0  0  0  0
   -0.9601    1.3287   -1.0086 H   0  0  0  0  0  0  0  0  0  0  0  0
    0.7946    1.4274   -0.8359 H   0  0  0  0  0  0  0  0  0  0  0  0
    0.0932    0.0197   -2.2873 C   0  0  0  0  0  0  0  0  0  0  0  0
    0.8273   -0.9396   -2.4488 O   0  0  0  0  0  0  0  0  0  0  0  0
   -0.6098    0.4647   -3.3002 N   0  0  0  0  0  0  0  0  0  0  0  0
   -0.5127   -0.0432   -4.1618 H   0  0  0  0  0  0  0  0  0  0  0  0
   -1.2352    1.2402   -3.1884 H   0  0  0  0  0  0  0  0  0  0  0  0
    0.0495    0.5529    1.6051 C   0  0  0  0  0  0  0  0  0  0  0  0
   -0.8871    1.2122    2.0562 O   0  0  0  0  0  0  0  0  0  0  0  0
    1.2275    0.4654    2.2303 N   0  0  0  0  0  0  0  0  0  0  0  0
    1.9689   -0.0361    1.7515 H   0  0  0  0  0  0  0  0  0  0  0  0
    1.5366    1.1056    3.5076 C   0  0  0  0  0  0  0  0  0  0  0  0
    0.8171    0.7844    4.2638 H   0  0  0  0  0  0  0  0  0  0  0  0
    2.5427    0.8329    3.8292 H   0  0  0  0  0  0  0  0  0  0  0  0
    1.4729    2.1898    3.4013 H   0  0  0  0  0  0  0  0  0  0  0  0
  5  6  2  0  0  0  0
  5  7  1  0  0  0  0
  2  3  1  0  0  0  0
  2  4  1  0  0  0  0
  2  5  1  0  0  0  0
  1  2  1  0  0  0  0
 19 20  2  0  0  0  0
 19 21  1  0  0  0  0
 16 17  1  0  0  0  0
 16 18  1  0  0  0  0
 14 15  2  0  0  0  0
 14 16  1  0  0  0  0
 11 12  1  0  0  0  0
 11 13  1  0  0  0  0
 11 14  1  0  0  0  0
  9 10  1  0  0  0  0
  9 11  1  0  0  0  0
  9 19  1  0  0  0  0
  7  8  1  0  0  0  0
  7  9  1  0  0  0  0
 23 24  1  0  0  0  0
 23 25  1  0  0  0  0
 23 26  1  0  0  0  0
 21 22  1  0  0  0  0
 21 23  1  0  0  0  0
M  END
$$$$
default_name
  -OEChem-01062215323D

 26 25  0     1  0  0  0  0  0999 V2000
   -3.0232   -3.6924    1.0038 H   0  0  0  0  0  0  0  0  0  0  0  0
   -3.0082   -2.6684    0.6318 C   0  0  0  0  0  0  0  0  0  0  0  0
   -3.6332   -2.0414    1.2658 H   0  0  0  0  0  0  0  0  0  0  0  0
   -3.3762   -2.6444   -0.3912 H   0  0  0  0  0  0  0  0  0  0  0  0
   -1.5882   -2.1554    0.6658 C   0  0  0  0  0  0  0  0  0  0  0  0
   -0.6832   -2.8764    1.0638 O   0  0  0  0  0  0  0  0  0  0  0  0
   -1.3952   -0.9084    0.2428 N   0  0  0  0  0  0  0  0  0  0  0  0
   -2.1972   -0.3644   -0.0422 H   0  0  0  0  0  0  0  0  0  0  0  0
   -0.1122   -0.1994    0.2658 C   0  0  1  0  0  0  0  0  0  0  0  0
    0.6926   -0.9351    0.1905 H   0  0  0  0  0  0  0  0  0  0  0  0
   -0.0433    0.7425   -0.9569 C   0  0  0  0  0  0  0  0  0  0  0  0
   -0.9601    1.3287   -1.0086 H   0  0  0  0  0  0  0  0  0  0  0  0
    0.7946    1.4274   -0.8359 H   0  0  0  0  0  0  0  0  0  0  0  0
    0.0932    0.0197   -2.2873 C   0  0  0  0  0  0  0  0  0  0  0  0
    0.8273   -0.9396   -2.4488 O   0  0  0  0  0  0  0  0  0  0  0  0
   -0.6098    0.4647   -3.3002 N   0  0  0  0  0  0  0  0  0  0  0  0
   -0.5127   -0.0432   -4.1618 H   0  0  0  0  0  0  0  0  0  0  0  0
   -1.2352    1.2402   -3.1884 H   0  0  0  0  0  0  0  0  0  0  0  0
    0.0495    0.5529    1.6051 C   0  0  0  0  0  0  0  0  0  0  0  0
   -0.9441    0.9776    2.1949 O   0  0  0  0  0  0  0  0  0  0  0  0
    1.2881    0.7261    2.0766 N   0  0  0  0  0  0  0  0  0  0  0  0
    2.0543    0.4114    1.4898 H   0  0  0  0  0  0  0  0  0  0  0  0
    1.6092    1.4033    3.3316 C   0  0  0  0  0  0  0  0  0  0  0  0
    1.0830    0.9182    4.1565 H   0  0  0  0  0  0  0  0  0  0  0  0
    2.6836    1.3612    3.5154 H   0  0  0  0  0  0  0  0  0  0  0  0
    1.2925    2.4464    3.2790 H   0  0  0  0  0  0  0  0  0  0  0  0
  5  6  2  0  0  0  0
  5  7  1  0  0  0  0
  2  3  1  0  0  0  0
  2  4  1  0  0  0  0
  2  5  1  0  0  0  0
  1  2  1  0  0  0  0
 19 20  2  0  0  0  0
 19 21  1  0  0  0  0
 16 17  1  0  0  0  0
 16 18  1  0  0  0  0
 14 15  2  0  0  0  0
 14 16  1  0  0  0  0
 11 12  1  0  0  0  0
 11 13  1  0  0  0  0
 11 14  1  0  0  0  0
  9 10  1  0  0  0  0
  9 11  1  0  0  0  0
  9 19  1  0  0  0  0
  7  8  1  0  0  0  0
  7  9  1  0  0  0  0
 23 24  1  0  0  0  0
 23 25  1  0  0  0  0
 23 26  1  0  0  0  0
 21 22  1  0  0  0  0
 21 23  1  0  0  0  0
M  END
$$$$
default_name
  -OEChem-01062215323D

 26 25  0     1  0  0  0  0  0999 V2000
   -3.0232   -3.6924    1.0038 H   0  0  0  0  0  0  0  0  0  0  0  0
   -3.0082   -2.6684    0.6318 C   0  0  0  0  0  0  0  0  0  0  0  0
   -3.6332   -2.0414    1.2658 H   0  0  0  0  0  0  0  0  0  0  0  0
   -3.3762   -2.6444   -0.3912 H   0  0  0  0  0  0  0  0  0  0  0  0
   -1.5882   -2.1554    0.6658 C   0  0  0  0  0  0  0  0  0  0  0  0
   -0.6832   -2.8764    1.0638 O   0  0  0  0  0  0  0  0  0  0  0  0
   -1.3952   -0.9084    0.2428 N   0  0  0  0  0  0  0  0  0  0  0  0
   -2.1972   -0.3644   -0.0422 H   0  0  0  0  0  0  0  0  0  0  0  0
   -0.1122   -0.1994    0.2658 C   0  0  1  0  0  0  0  0  0  0  0  0
    0.6926   -0.9351    0.1905 H   0  0  0  0  0  0  0  0  0  0  0  0
   -0.0433    0.7425   -0.9569 C   0  0  0  0  0  0  0  0  0  0  0  0
   -0.9601    1.3287   -1.0086 H   0  0  0  0  0  0  0  0  0  0  0  0
    0.7946    1.4274   -0.8359 H   0  0  0  0  0  0  0  0  0  0  0  0
    0.0932    0.0197   -2.2873 C   0  0  0  0  0  0  0  0  0  0  0  0
    0.8273   -0.9396   -2.4488 O   0  0  0  0  0  0  0  0  0  0  0  0
   -0.6098    0.4647   -3.3002 N   0  0  0  0  0  0  0  0  0  0  0  0
   -0.5127   -0.0432   -4.1618 H   0  0  0  0  0  0  0  0  0  0  0  0
   -1.2352    1.2402   -3.1884 H   0  0  0  0  0  0  0  0  0  0  0  0
    0.0495    0.5529    1.6051 C   0  0  0  0  0  0  0  0  0  0  0  0
   -0.9290    0.7343    2.3297 O   0  0  0  0  0  0  0  0  0  0  0  0
    1.2687    0.9957    1.9275 N   0  0  0  0  0  0  0  0  0  0  0  0
    2.0033    0.8700    1.2384 H   0  0  0  0  0  0  0  0  0  0  0  0
    1.5902    1.7120    3.1605 C   0  0  0  0  0  0  0  0  0  0  0  0
    1.2964    1.1100    4.0230 H   0  0  0  0  0  0  0  0  0  0  0  0
    2.6616    1.9116    3.2089 H   0  0  0  0  0  0  0  0  0  0  0  0
    1.0452    2.6570    3.1905 H   0  0  0  0  0  0  0  0  0  0  0  0
  5  6  2  0  0  0  0
  5  7  1  0  0  0  0
  2  3  1  0  0  0  0
  2  4  1  0  0  0  0
  2  5  1  0  0  0  0
  1  2  1  0  0  0  0
 19 20  2  0  0  0  0
 19 21  1  0  0  0  0
 16 17  1  0  0  0  0
 16 18  1  0  0  0  0
 14 15  2  0  0  0  0
 14 16  1  0  0  0  0
 11 12  1  0  0  0  0
 11 13  1  0  0  0  0
 11 14  1  0  0  0  0
  9 10  1  0  0  0  0
  9 11  1  0  0  0  0
  9 19  1  0  0  0  0
  7  8  1  0  0  0  0
  7  9  1  0  0  0  0
 23 24  1  0  0  0  0
 23 25  1  0  0  0  0
 23 26  1  0  0  0  0
 21 22  1  0  0  0  0
 21 23  1  0  0  0  0
M  END
$$$$
default_name
  -OEChem-01062215323D

 26 25  0     1  0  0  0  0  0999 V2000
   -3.0232   -3.6924    1.0038 H   0  0  0  0  0  0  0  0  0  0  0  0
   -3.0082   -2.6684    0.6318 C   0  0  0  0  0  0  0  0  0  0  0  0
   -3.6332   -2.0414    1.2658 H   0  0  0  0  0  0  0  0  0  0  0  0
   -3.3762   -2.6444   -0.3912 H   0  0  0  0  0  0  0  0  0  0  0  0
   -1.5882   -2.1554    0.6658 C   0  0  0  0  0  0  0  0  0  0  0  0
   -0.6832   -2.8764    1.0638 O   0  0  0  0  0  0  0  0  0  0  0  0
   -1.3952   -0.9084    0.2428 N   0  0  0  0  0  0  0  0  0  0  0  0
   -2.1972   -0.3644   -0.0422 H   0  0  0  0  0  0  0  0  0  0  0  0
   -0.1122   -0.1994    0.2658 C   0  0  1  0  0  0  0  0  0  0  0  0
    0.6691   -0.8840   -0.0742 H   0  0  0  0  0  0  0  0  0  0  0  0
   -0.1877    0.9959   -0.7103 C   0  0  0  0  0  0  0  0  0  0  0  0
   -1.0976    1.5615   -0.5130 H   0  0  0  0  0  0  0  0  0  0  0  0
    0.6658    1.6510   -0.5425 H   0  0  0  0  0  0  0  0  0  0  0  0
   -0.2270    0.5954   -2.1763 C   0  0  0  0  0  0  0  0  0  0  0  0
    0.4710   -0.2888   -2.6413 O   0  0  0  0  0  0  0  0  0  0  0  0
   -1.0470    1.2450   -2.9661 N   0  0  0  0  0  0  0  0  0  0  0  0
   -1.0642    0.9470   -3.9256 H   0  0  0  0  0  0  0  0  0  0  0  0
   -1.6454    1.9634   -2.6043 H   0  0  0  0  0  0  0  0  0  0  0  0
    0.2243    0.2333    1.7099 C   0  0  0  0  0  0  0  0  0  0  0  0
   -0.5552   -0.0271    2.6265 O   0  0  0  0  0  0  0  0  0  0  0  0
    1.3673    0.8960    1.9112 N   0  0  0  0  0  0  0  0  0  0  0  0
    1.9138    1.1352    1.0899 H   0  0  0  0  0  0  0  0  0  0  0  0
    1.8355    1.3624    3.2150 C   0  0  0  0  0  0  0  0  0  0  0  0
    1.8994    0.5192    3.9062 H   0  0  0  0  0  0  0  0  0  0  0  0
    2.8197    1.8226    3.1167 H   0  0  0  0  0  0  0  0  0  0  0  0
    1.1335    2.0940    3.6186 H   0  0  0  0  0  0  0  0  0  0  0  0
  5  6  2  0  0  0  0
  5  7  1  0  0  0  0
  2  3  1  0  0  0  0
  2  4  1  0  0  0  0
  2  5  1  0  0  0  0
  1  2  1  0  0  0  0
 19 20  2  0  0  0  0
 19 21  1  0  0  0  0
 16 17  1  0  0  0  0
 16 18  1  0  0  0  0
 14 15  2  0  0  0  0
 14 16  1  0  0  0  0
 11 12  1  0  0  0  0
 11 13  1  0  0  0  0
 11 14  1  0  0  0  0
  9 10  1  0  0  0  0
  9 11  1  0  0  0  0
  9 19  1  0  0  0  0
  7  8  1  0  0  0  0
  7  9  1  0  0  0  0
 23 24  1  0  0  0  0
 23 25  1  0  0  0  0
 23 26  1  0  0  0  0
 21 22  1  0  0  0  0
 21 23  1  0  0  0  0
M  END
$$$$
default_name
  -OEChem-01062215323D

 26 25  0     1  0  0  0  0  0999 V2000
   -3.0232   -3.6924    1.0038 H   0  0  0  0  0  0  0  0  0  0  0  0
   -3.0082   -2.6684    0.6318 C   0  0  0  0  0  0  0  0  0  0  0  0
   -3.6332   -2.0414    1.2658 H   0  0  0  0  0  0  0  0  0  0  0  0
   -3.3762   -2.6444   -0.3912 H   0  0  0  0  0  0  0  0  0  0  0  0
   -1.5882   -2.1554    0.6658 C   0  0  0  0  0  0  0  0  0  0  0  0
   -0.6832   -2.8764    1.0638 O   0  0  0  0  0  0  0  0  0  0  0  0
   -1.3952   -0.9084    0.2428 N   0  0  0  0  0  0  0  0  0  0  0  0
   -2.1972   -0.3644   -0.0422 H   0  0  0  0  0  0  0  0  0  0  0  0
   -0.1122   -0.1994    0.2658 C   0  0  1  0  0  0  0  0  0  0  0  0
    0.6691   -0.8840   -0.0742 H   0  0  0  0  0  0  0  0  0  0  0  0
   -0.1877    0.9959   -0.7103 C   0  0  0  0  0  0  0  0  0  0  0  0
   -1.0976    1.5615   -0.5130 H   0  0  0  0  0  0  0  0  0  0  0  0
    0.6658    1.6510   -0.5425 H   0  0  0  0  0  0  0  0  0  0  0  0
   -0.2270    0.5954   -2.1763 C   0  0  0  0  0  0  0  0  0  0  0  0
    0.4710   -0.2888   -2.6413 O   0  0  0  0  0  0  0  0  0  0  0  0
   -1.0470    1.2450   -2.9661 N   0  0  0  0  0  0  0  0  0  0  0  0
   -1.0642    0.9470   -3.9256 H   0  0  0  0  0  0  0  0  0  0  0  0
   -1.6454    1.9634   -2.6043 H   0  0  0  0  0  0  0  0  0  0  0  0
    0.2243    0.2333    1.7099 C   0  0  0  0  0  0  0  0  0  0  0  0
   -0.3946   -0.2527    2.6566 O   0  0  0  0  0  0  0  0  0  0  0  0
    1.1873    1.1446    1.8786 N   0  0  0  0  0  0  0  0  0  0  0  0
    1.5933    1.5486    1.0407 H   0  0  0  0  0  0  0  0  0  0  0  0
    1.6319    1.6487    3.1767 C   0  0  0  0  0  0  0  0  0  0  0  0
    1.9509    0.8148    3.8056 H   0  0  0  0  0  0  0  0  0  0  0  0
    2.4659    2.3393    3.0443 H   0  0  0  0  0  0  0  0  0  0  0  0
    0.8092    2.1669    3.6723 H   0  0  0  0  0  0  0  0  0  0  0  0
  5  6  2  0  0  0  0
  5  7  1  0  0  0  0
  2  3  1  0  0  0  0
  2  4  1  0  0  0  0
  2  5  1  0  0  0  0
  1  2  1  0  0  0  0
 19 20  2  0  0  0  0
 19 21  1  0  0  0  0
 16 17  1  0  0  0  0
 16 18  1  0  0  0  0
 14 15  2  0  0  0  0
 14 16  1  0  0  0  0
 11 12  1  0  0  0  0
 11 13  1  0  0  0  0
 11 14  1  0  0  0  0
  9 10  1  0  0  0  0
  9 11  1  0  0  0  0
  9 19  1  0  0  0  0
  7  8  1  0  0  0  0
  7  9  1  0  0  0  0
 23 24  1  0  0  0  0
 23 25  1  0  0  0  0
 23 26  1  0  0  0  0
 21 22  1  0  0  0  0
 21 23  1  0  0  0  0
M  END
$$$$
default_name
  -OEChem-01062215323D

 26 25  0     1  0  0  0  0  0999 V2000
   -3.0232   -3.6924    1.0038 H   0  0  0  0  0  0  0  0  0  0  0  0
   -3.0082   -2.6684    0.6318 C   0  0  0  0  0  0  0  0  0  0  0  0
   -3.6332   -2.0414    1.2658 H   0  0  0  0  0  0  0  0  0  0  0  0
   -3.3762   -2.6444   -0.3912 H   0  0  0  0  0  0  0  0  0  0  0  0
   -1.5882   -2.1554    0.6658 C   0  0  0  0  0  0  0  0  0  0  0  0
   -0.6832   -2.8764    1.0638 O   0  0  0  0  0  0  0  0  0  0  0  0
   -1.3952   -0.9084    0.2428 N   0  0  0  0  0  0  0  0  0  0  0  0
   -2.1972   -0.3644   -0.0422 H   0  0  0  0  0  0  0  0  0  0  0  0
   -0.1122   -0.1994    0.2658 C   0  0  1  0  0  0  0  0  0  0  0  0
    0.6691   -0.8840   -0.0742 H   0  0  0  0  0  0  0  0  0  0  0  0
   -0.1877    0.9959   -0.7103 C   0  0  0  0  0  0  0  0  0  0  0  0
   -1.0976    1.5615   -0.5130 H   0  0  0  0  0  0  0  0  0  0  0  0
    0.6658    1.6510   -0.5425 H   0  0  0  0  0  0  0  0  0  0  0  0
   -0.2270    0.5954   -2.1763 C   0  0  0  0  0  0  0  0  0  0  0  0
    0.4710   -0.2888   -2.6413 O   0  0  0  0  0  0  0  0  0  0  0  0
   -1.0470    1.2450   -2.9661 N   0  0  0  0  0  0  0  0  0  0  0  0
   -1.0642    0.9470   -3.9256 H   0  0  0  0  0  0  0  0  0  0  0  0
   -1.6454    1.9634   -2.6043 H   0  0  0  0  0  0  0  0  0  0  0  0
    0.2243    0.2333    1.7099 C   0  0  0  0  0  0  0  0  0  0  0  0
   -0.1827   -0.4334    2.6614 O   0  0  0  0  0  0  0  0  0  0  0  0
    0.9508    1.3430    1.8743 N   0  0  0  0  0  0  0  0  0  0  0  0
    1.1802    1.8732    1.0397 H   0  0  0  0  0  0  0  0  0  0  0  0
    1.3632    1.8782    3.1705 C   0  0  0  0  0  0  0  0  0  0  0  0
    1.9218    1.1185    3.7214 H   0  0  0  0  0  0  0  0  0  0  0  0
    1.9939    2.7570    3.0291 H   0  0  0  0  0  0  0  0  0  0  0  0
    0.4823    2.1558    3.7518 H   0  0  0  0  0  0  0  0  0  0  0  0
  5  6  2  0  0  0  0
  5  7  1  0  0  0  0
  2  3  1  0  0  0  0
  2  4  1  0  0  0  0
  2  5  1  0  0  0  0
  1  2  1  0  0  0  0
 19 20  2  0  0  0  0
 19 21  1  0  0  0  0
 16 17  1  0  0  0  0
 16 18  1  0  0  0  0
 14 15  2  0  0  0  0
 14 16  1  0  0  0  0
 11 12  1  0  0  0  0
 11 13  1  0  0  0  0
 11 14  1  0  0  0  0
  9 10  1  0  0  0  0
  9 11  1  0  0  0  0
  9 19  1  0  0  0  0
  7  8  1  0  0  0  0
  7  9  1  0  0  0  0
 23 24  1  0  0  0  0
 23 25  1  0  0  0  0
 23 26  1  0  0  0  0
 21 22  1  0  0  0  0
 21 23  1  0  0  0  0
M  END
$$$$
default_name
  -OEChem-01062215323D

 26 25  0     1  0  0  0  0  0999 V2000
   -3.0232   -3.6924    1.0038 H   0  0  0  0  0  0  0  0  0  0  0  0
   -3.0082   -2.6684    0.6318 C   0  0  0  0  0  0  0  0  0  0  0  0
   -3.6332   -2.0414    1.2658 H   0  0  0  0  0  0  0  0  0  0  0  0
   -3.3762   -2.6444   -0.3912 H   0  0  0  0  0  0  0  0  0  0  0  0
   -1.5882   -2.1554    0.6658 C   0  0  0  0  0  0  0  0  0  0  0  0
   -0.6832   -2.8764    1.0638 O   0  0  0  0  0  0  0  0  0  0  0  0
   -1.3952   -0.9084    0.2428 N   0  0  0  0  0  0  0  0  0  0  0  0
   -2.1972   -0.3644   -0.0422 H   0  0  0  0  0  0  0  0  0  0  0  0
   -0.1122   -0.1994    0.2658 C   0  0  1  0  0  0  0  0  0  0  0  0
    0.6691   -0.8840   -0.0742 H   0  0  0  0  0  0  0  0  0  0  0  0
   -0.1877    0.9959   -0.7103 C   0  0  0  0  0  0  0  0  0  0  0  0
   -1.0976    1.5615   -0.5130 H   0  0  0  0  0  0  0  0  0  0  0  0
    0.6658    1.6510   -0.5425 H   0  0  0  0  0  0  0  0  0  0  0  0
   -0.2270    0.5954   -2.1763 C   0  0  0  0  0  0  0  0  0  0  0  0
    0.4710   -0.2888   -2.6413 O   0  0  0  0  0  0  0  0  0  0  0  0
   -1.0470    1.2450   -2.9661 N   0  0  0  0  0  0  0  0  0  0  0  0
   -1.0642    0.9470   -3.9256 H   0  0  0  0  0  0  0  0  0  0  0  0
   -1.6454    1.9634   -2.6043 H   0  0  0  0  0  0  0  0  0  0  0  0
    0.2243    0.2333    1.7099 C   0  0  0  0  0  0  0  0  0  0  0  0
    0.0660   -0.5569    2.6405 O   0  0  0  0  0  0  0  0  0  0  0  0
    0.6741    1.4776    1.8984 N   0  0  0  0  0  0  0  0  0  0  0  0
    0.7025    2.0868    1.0870 H   0  0  0  0  0  0  0  0  0  0  0  0
    1.0476    2.0352    3.1970 C   0  0  0  0  0  0  0  0  0  0  0  0
    1.8142    1.4095    3.6593 H   0  0  0  0  0  0  0  0  0  0  0  0
    1.4359    3.0470    3.0723 H   0  0  0  0  0  0  0  0  0  0  0  0
    0.1749    2.0615    3.8517 H   0  0  0  0  0  0  0  0  0  0  0  0
  5  6  2  0  0  0  0
  5  7  1  0  0  0  0
  2  3  1  0  0  0  0
  2  4  1  0  0  0  0
  2  5  1  0  0  0  0
  1  2  1  0  0  0  0
 19 20  2  0  0  0  0
 19 21  1  0  0  0  0
 16 17  1  0  0  0  0
 16 18  1  0  0  0  0
 14 15  2  0  0  0  0
 14 16  1  0  0  0  0
 11 12  1  0  0  0  0
 11 13  1  0  0  0  0
 11 14  1  0  0  0  0
  9 10  1  0  0  0  0
  9 11  1  0  0  0  0
  9 19  1  0  0  0  0
  7  8  1  0  0  0  0
  7  9  1  0  0  0  0
 23 24  1  0  0  0  0
 23 25  1  0  0  0  0
 23 26  1  0  0  0  0
 21 22  1  0  0  0  0
 21 23  1  0  0  0  0
M  END
$$$$
default_name
  -OEChem-01062215323D

 26 25  0     1  0  0  0  0  0999 V2000
   -3.0232   -3.6924    1.0038 H   0  0  0  0  0  0  0  0  0  0  0  0
   -3.0082   -2.6684    0.6318 C   0  0  0  0  0  0  0  0  0  0  0  0
   -3.6332   -2.0414    1.2658 H   0  0  0  0  0  0  0  0  0  0  0  0
   -3.3762   -2.6444   -0.3912 H   0  0  0  0  0  0  0  0  0  0  0  0
   -1.5882   -2.1554    0.6658 C   0  0  0  0  0  0  0  0  0  0  0  0
   -0.6832   -2.8764    1.0638 O   0  0  0  0  0  0  0  0  0  0  0  0
   -1.3952   -0.9084    0.2428 N   0  0  0  0  0  0  0  0  0  0  0  0
   -2.1972   -0.3644   -0.0422 H   0  0  0  0  0  0  0  0  0  0  0  0
   -0.1122   -0.1994    0.2658 C   0  0  1  0  0  0  0  0  0  0  0  0
    0.6691   -0.8840   -0.0742 H   0  0  0  0  0  0  0  0  0  0  0  0
   -0.1877    0.9959   -0.7103 C   0  0  0  0  0  0  0  0  0  0  0  0
   -1.0976    1.5615   -0.5130 H   0  0  0  0  0  0  0  0  0  0  0  0
    0.6658    1.6510   -0.5425 H   0  0  0  0  0  0  0  0  0  0  0  0
   -0.2270    0.5954   -2.1763 C   0  0  0  0  0  0  0  0  0  0  0  0
    0.4710   -0.2888   -2.6413 O   0  0  0  0  0  0  0  0  0  0  0  0
   -1.0470    1.2450   -2.9661 N   0  0  0  0  0  0  0  0  0  0  0  0
   -1.0642    0.9470   -3.9256 H   0  0  0  0  0  0  0  0  0  0  0  0
   -1.6454    1.9634   -2.6043 H   0  0  0  0  0  0  0  0  0  0  0  0
    0.2243    0.2333    1.7099 C   0  0  0  0  0  0  0  0  0  0  0  0
    0.3346   -0.6149    2.5952 O   0  0  0  0  0  0  0  0  0  0  0  0
    0.3759    1.5394    1.9494 N   0  0  0  0  0  0  0  0  0  0  0  0
    0.1928    2.1749    1.1794 H   0  0  0  0  0  0  0  0  0  0  0  0
    0.7068    2.1090    3.2543 C   0  0  0  0  0  0  0  0  0  0  0  0
    1.6352    1.6681    3.6235 H   0  0  0  0  0  0  0  0  0  0  0  0
    0.8298    3.1897    3.1707 H   0  0  0  0  0  0  0  0  0  0  0  0
   -0.0920    1.8904    3.9651 H   0  0  0  0  0  0  0  0  0  0  0  0
  5  6  2  0  0  0  0
  5  7  1  0  0  0  0
  2  3  1  0  0  0  0
  2  4  1  0  0  0  0
  2  5  1  0  0  0  0
  1  2  1  0  0  0  0
 19 20  2  0  0  0  0
 19 21  1  0  0  0  0
 16 17  1  0  0  0  0
 16 18  1  0  0  0  0
 14 15  2  0  0  0  0
 14 16  1  0  0  0  0
 11 12  1  0  0  0  0
 11 13  1  0  0  0  0
 11 14  1  0  0  0  0
  9 10  1  0  0  0  0
  9 11  1  0  0  0  0
  9 19  1  0  0  0  0
  7  8  1  0  0  0  0
  7  9  1  0  0  0  0
 23 24  1  0  0  0  0
 23 25  1  0  0  0  0
 23 26  1  0  0  0  0
 21 22  1  0  0  0  0
 21 23  1  0  0  0  0
M  END
$$$$
default_name
  -OEChem-01062215323D

 26 25  0     1  0  0  0  0  0999 V2000
   -3.0232   -3.6924    1.0038 H   0  0  0  0  0  0  0  0  0  0  0  0
   -3.0082   -2.6684    0.6318 C   0  0  0  0  0  0  0  0  0  0  0  0
   -3.6332   -2.0414    1.2658 H   0  0  0  0  0  0  0  0  0  0  0  0
   -3.3762   -2.6444   -0.3912 H   0  0  0  0  0  0  0  0  0  0  0  0
   -1.5882   -2.1554    0.6658 C   0  0  0  0  0  0  0  0  0  0  0  0
   -0.6832   -2.8764    1.0638 O   0  0  0  0  0  0  0  0  0  0  0  0
   -1.3952   -0.9084    0.2428 N   0  0  0  0  0  0  0  0  0  0  0  0
   -2.1972   -0.3644   -0.0422 H   0  0  0  0  0  0  0  0  0  0  0  0
   -0.1122   -0.1994    0.2658 C   0  0  1  0  0  0  0  0  0  0  0  0
    0.6691   -0.8840   -0.0742 H   0  0  0  0  0  0  0  0  0  0  0  0
   -0.1877    0.9959   -0.7103 C   0  0  0  0  0  0  0  0  0  0  0  0
   -1.0976    1.5615   -0.5130 H   0  0  0  0  0  0  0  0  0  0  0  0
    0.6658    1.6510   -0.5425 H   0  0  0  0  0  0  0  0  0  0  0  0
   -0.2270    0.5954   -2.1763 C   0  0  0  0  0  0  0  0  0  0  0  0
    0.4710   -0.2888   -2.6413 O   0  0  0  0  0  0  0  0  0  0  0  0
   -1.0470    1.2450   -2.9661 N   0  0  0  0  0  0  0  0  0  0  0  0
   -1.0642    0.9470   -3.9256 H   0  0  0  0  0  0  0  0  0  0  0  0
   -1.6454    1.9634   -2.6043 H   0  0  0  0  0  0  0  0  0  0  0  0
    0.2243    0.2333    1.7099 C   0  0  0  0  0  0  0  0  0  0  0  0
    0.6049   -0.6034    2.5288 O   0  0  0  0  0  0  0  0  0  0  0  0
    0.0767    1.5240    2.0237 N   0  0  0  0  0  0  0  0  0  0  0  0
   -0.3141    2.1314    1.3105 H   0  0  0  0  0  0  0  0  0  0  0  0
    0.3638    2.0946    3.3386 C   0  0  0  0  0  0  0  0  0  0  0  0
    1.3973    1.8766    3.6165 H   0  0  0  0  0  0  0  0  0  0  0  0
    0.2169    3.1753    3.3178 H   0  0  0  0  0  0  0  0  0  0  0  0
   -0.3001    1.6542    4.0844 H   0  0  0  0  0  0  0  0  0  0  0  0
  5  6  2  0  0  0  0
  5  7  1  0  0  0  0
  2  3  1  0  0  0  0
  2  4  1  0  0  0  0
  2  5  1  0  0  0  0
  1  2  1  0  0  0  0
 19 20  2  0  0  0  0
 19 21  1  0  0  0  0
 16 17  1  0  0  0  0
 16 18  1  0  0  0  0
 14 15  2  0  0  0  0
 14 16  1  0  0  0  0
 11 12  1  0  0  0  0
 11 13  1  0  0  0  0
 11 14  1  0  0  0  0
  9 10  1  0  0  0  0
  9 11  1  0  0  0  0
  9 19  1  0  0  0  0
  7  8  1  0  0  0  0
  7  9  1  0  0  0  0
 23 24  1  0  0  0  0
 23 25  1  0  0  0  0
 23 26  1  0  0  0  0
 21 22  1  0  0  0  0
 21 23  1  0  0  0  0
M  END
$$$$
default_name
  -OEChem-01062215323D

 26 25  0     1  0  0  0  0  0999 V2000
   -3.0232   -3.6924    1.0038 H   0  0  0  0  0  0  0  0  0  0  0  0
   -3.0082   -2.6684    0.6318 C   0  0  0  0  0  0  0  0  0  0  0  0
   -3.6332   -2.0414    1.2658 H   0  0  0  0  0  0  0  0  0  0  0  0
   -3.3762   -2.6444   -0.3912 H   0  0  0  0  0  0  0  0  0  0  0  0
   -1.5882   -2.1554    0.6658 C   0  0  0  0  0  0  0  0  0  0  0  0
   -0.6832   -2.8764    1.0638 O   0  0  0  0  0  0  0  0  0  0  0  0
   -1.3952   -0.9084    0.2428 N   0  0  0  0  0  0  0  0  0  0  0  0
   -2.1972   -0.3644   -0.0422 H   0  0  0  0  0  0  0  0  0  0  0  0
   -0.1122   -0.1994    0.2658 C   0  0  1  0  0  0  0  0  0  0  0  0
    0.6691   -0.8840   -0.0742 H   0  0  0  0  0  0  0  0  0  0  0  0
   -0.1877    0.9959   -0.7103 C   0  0  0  0  0  0  0  0  0  0  0  0
   -1.0976    1.5615   -0.5130 H   0  0  0  0  0  0  0  0  0  0  0  0
    0.6658    1.6510   -0.5425 H   0  0  0  0  0  0  0  0  0  0  0  0
   -0.2270    0.5954   -2.1763 C   0  0  0  0  0  0  0  0  0  0  0  0
    0.4710   -0.2888   -2.6413 O   0  0  0  0  0  0  0  0  0  0  0  0
   -1.0470    1.2450   -2.9661 N   0  0  0  0  0  0  0  0  0  0  0  0
   -1.0642    0.9470   -3.9256 H   0  0  0  0  0  0  0  0  0  0  0  0
   -1.6454    1.9634   -2.6043 H   0  0  0  0  0  0  0  0  0  0  0  0
    0.2243    0.2333    1.7099 C   0  0  0  0  0  0  0  0  0  0  0  0
    0.8583   -0.5231    2.4457 O   0  0  0  0  0  0  0  0  0  0  0  0
   -0.2032    1.4326    2.1163 N   0  0  0  0  0  0  0  0  0  0  0  0
   -0.7837    1.9594    1.4715 H   0  0  0  0  0  0  0  0  0  0  0  0
    0.0422    1.9929    3.4440 C   0  0  0  0  0  0  0  0  0  0  0  0
    1.1164    2.0207    3.6388 H   0  0  0  0  0  0  0  0  0  0  0  0
   -0.3609    3.0048    3.5035 H   0  0  0  0  0  0  0  0  0  0  0  0
   -0.4353    1.3689    4.2014 H   0  0  0  0  0  0  0  0  0  0  0  0
  5  6  2  0  0  0  0
  5  7  1  0  0  0  0
  2  3  1  0  0  0  0
  2  4  1  0  0  0  0
  2  5  1  0  0  0  0
  1  2  1  0  0  0  0
 19 20  2  0  0  0  0
 19 21  1  0  0  0  0
 16 17  1  0  0  0  0
 16 18  1  0  0  0  0
 14 15  2  0  0  0  0
 14 16  1  0  0  0  0
 11 12  1  0  0  0  0
 11 13  1  0  0  0  0
 11 14  1  0  0  0  0
  9 10  1  0  0  0  0
  9 11  1  0  0  0  0
  9 19  1  0  0  0  0
  7  8  1  0  0  0  0
  7  9  1  0  0  0  0
 23 24  1  0  0  0  0
 23 25  1  0  0  0  0
 23 26  1  0  0  0  0
 21 22  1  0  0  0  0
 21 23  1  0  0  0  0
M  END
$$$$
default_name
  -OEChem-01062215323D

 26 25  0     1  0  0  0  0  0999 V2000
   -3.0232   -3.6924    1.0038 H   0  0  0  0  0  0  0  0  0  0  0  0
   -3.0082   -2.6684    0.6318 C   0  0  0  0  0  0  0  0  0  0  0  0
   -3.6332   -2.0414    1.2658 H   0  0  0  0  0  0  0  0  0  0  0  0
   -3.3762   -2.6444   -0.3912 H   0  0  0  0  0  0  0  0  0  0  0  0
   -1.5882   -2.1554    0.6658 C   0  0  0  0  0  0  0  0  0  0  0  0
   -0.6832   -2.8764    1.0638 O   0  0  0  0  0  0  0  0  0  0  0  0
   -1.3952   -0.9084    0.2428 N   0  0  0  0  0  0  0  0  0  0  0  0
   -2.1972   -0.3644   -0.0422 H   0  0  0  0  0  0  0  0  0  0  0  0
   -0.1122   -0.1994    0.2658 C   0  0  1  0  0  0  0  0  0  0  0  0
    0.6691   -0.8840   -0.0742 H   0  0  0  0  0  0  0  0  0  0  0  0
   -0.1877    0.9959   -0.7103 C   0  0  0  0  0  0  0  0  0  0  0  0
   -1.0976    1.5615   -0.5130 H   0  0  0  0  0  0  0  0  0  0  0  0
    0.6658    1.6510   -0.5425 H   0  0  0  0  0  0  0  0  0  0  0  0
   -0.2270    0.5954   -2.1763 C   0  0  0  0  0  0  0  0  0  0  0  0
    0.4710   -0.2888   -2.6413 O   0  0  0  0  0  0  0  0  0  0  0  0
   -1.0470    1.2450   -2.9661 N   0  0  0  0  0  0  0  0  0  0  0  0
   -1.0642    0.9470   -3.9256 H   0  0  0  0  0  0  0  0  0  0  0  0
   -1.6454    1.9634   -2.6043 H   0  0  0  0  0  0  0  0  0  0  0  0
    0.2243    0.2333    1.7099 C   0  0  0  0  0  0  0  0  0  0  0  0
    1.0776   -0.3795    2.3516 O   0  0  0  0  0  0  0  0  0  0  0  0
   -0.4448    1.2713    2.2209 N   0  0  0  0  0  0  0  0  0  0  0  0
   -1.1840    1.6705    1.6513 H   0  0  0  0  0  0  0  0  0  0  0  0
   -0.2363    1.8109    3.5634 C   0  0  0  0  0  0  0  0  0  0  0  0
    0.8119    2.0908    3.6887 H   0  0  0  0  0  0  0  0  0  0  0  0
   -0.8643    2.6899    3.7152 H   0  0  0  0  0  0  0  0  0  0  0  0
   -0.4884    1.0540    4.3081 H   0  0  0  0  0  0  0  0  0  0  0  0
  5  6  2  0  0  0  0
  5  7  1  0  0  0  0
  2  3  1  0  0  0  0
  2  4  1  0  0  0  0
  2  5  1  0  0  0  0
  1  2  1  0  0  0  0
 19 20  2  0  0  0  0
 19 21  1  0  0  0  0
 16 17  1  0  0  0  0
 16 18  1  0  0  0  0
 14 15  2  0  0  0  0
 14 16  1  0  0  0  0
 11 12  1  0  0  0  0
 11 13  1  0  0  0  0
 11 14  1  0  0  0  0
  9 10  1  0  0  0  0
  9 11  1  0  0  0  0
  9 19  1  0  0  0  0
  7  8  1  0  0  0  0
  7  9  1  0  0  0  0
 23 24  1  0  0  0  0
 23 25  1  0  0  0  0
 23 26  1  0  0  0  0
 21 22  1  0  0  0  0
 21 23  1  0  0  0  0
M  END
$$$$
default_name
  -OEChem-01062215323D

 26 25  0     1  0  0  0  0  0999 V2000
   -3.0232   -3.6924    1.0038 H   0  0  0  0  0  0  0  0  0  0  0  0
   -3.0082   -2.6684    0.6318 C   0  0  0  0  0  0  0  0  0  0  0  0
   -3.6332   -2.0414    1.2658 H   0  0  0  0  0  0  0  0  0  0  0  0
   -3.3762   -2.6444   -0.3912 H   0  0  0  0  0  0  0  0  0  0  0  0
   -1.5882   -2.1554    0.6658 C   0  0  0  0  0  0  0  0  0  0  0  0
   -0.6832   -2.8764    1.0638 O   0  0  0  0  0  0  0  0  0  0  0  0
   -1.3952   -0.9084    0.2428 N   0  0  0  0  0  0  0  0  0  0  0  0
   -2.1972   -0.3644   -0.0422 H   0  0  0  0  0  0  0  0  0  0  0  0
   -0.1122   -0.1994    0.2658 C   0  0  1  0  0  0  0  0  0  0  0  0
    0.6691   -0.8840   -0.0742 H   0  0  0  0  0  0  0  0  0  0  0  0
   -0.1877    0.9959   -0.7103 C   0  0  0  0  0  0  0  0  0  0  0  0
   -1.0976    1.5615   -0.5130 H   0  0  0  0  0  0  0  0  0  0  0  0
    0.6658    1.6510   -0.5425 H   0  0  0  0  0  0  0  0  0  0  0  0
   -0.2270    0.5954   -2.1763 C   0  0  0  0  0  0  0  0  0  0  0  0
    0.4710   -0.2888   -2.6413 O   0  0  0  0  0  0  0  0  0  0  0  0
   -1.0470    1.2450   -2.9661 N   0  0  0  0  0  0  0  0  0  0  0  0
   -1.0642    0.9470   -3.9256 H   0  0  0  0  0  0  0  0  0  0  0  0
   -1.6454    1.9634   -2.6043 H   0  0  0  0  0  0  0  0  0  0  0  0
    0.2243    0.2333    1.7099 C   0  0  0  0  0  0  0  0  0  0  0  0
    1.2479   -0.1825    2.2529 O   0  0  0  0  0  0  0  0  0  0  0  0
   -0.6315    1.0512    2.3304 N   0  0  0  0  0  0  0  0  0  0  0  0
   -1.4877    1.2845    1.8377 H   0  0  0  0  0  0  0  0  0  0  0  0
   -0.4526    1.5610    3.6887 C   0  0  0  0  0  0  0  0  0  0  0  0
    0.5044    2.0820    3.7630 H   0  0  0  0  0  0  0  0  0  0  0  0
   -1.2590    2.2519    3.9384 H   0  0  0  0  0  0  0  0  0  0  0  0
   -0.4558    0.7310    4.3972 H   0  0  0  0  0  0  0  0  0  0  0  0
  5  6  2  0  0  0  0
  5  7  1  0  0  0  0
  2  3  1  0  0  0  0
  2  4  1  0  0  0  0
  2  5  1  0  0  0  0
  1  2  1  0  0  0  0
 19 20  2  0  0  0  0
 19 21  1  0  0  0  0
 16 17  1  0  0  0  0
 16 18  1  0  0  0  0
 14 15  2  0  0  0  0
 14 16  1  0  0  0  0
 11 12  1  0  0  0  0
 11 13  1  0  0  0  0
 11 14  1  0  0  0  0
  9 10  1  0  0  0  0
  9 11  1  0  0  0  0
  9 19  1  0  0  0  0
  7  8  1  0  0  0  0
  7  9  1  0  0  0  0
 23 24  1  0  0  0  0
 23 25  1  0  0  0  0
 23 26  1  0  0  0  0
 21 22  1  0  0  0  0
 21 23  1  0  0  0  0
M  END
$$$$
default_name
  -OEChem-01062215323D

 26 25  0     1  0  0  0  0  0999 V2000
   -3.0232   -3.6924    1.0038 H   0  0  0  0  0  0  0  0  0  0  0  0
   -3.0082   -2.6684    0.6318 C   0  0  0  0  0  0  0  0  0  0  0  0
   -3.6332   -2.0414    1.2658 H   0  0  0  0  0  0  0  0  0  0  0  0
   -3.3762   -2.6444   -0.3912 H   0  0  0  0  0  0  0  0  0  0  0  0
   -1.5882   -2.1554    0.6658 C   0  0  0  0  0  0  0  0  0  0  0  0
   -0.6832   -2.8764    1.0638 O   0  0  0  0  0  0  0  0  0  0  0  0
   -1.3952   -0.9084    0.2428 N   0  0  0  0  0  0  0  0  0  0  0  0
   -2.1972   -0.3644   -0.0422 H   0  0  0  0  0  0  0  0  0  0  0  0
   -0.1122   -0.1994    0.2658 C   0  0  1  0  0  0  0  0  0  0  0  0
    0.6691   -0.8840   -0.0742 H   0  0  0  0  0  0  0  0  0  0  0  0
   -0.1877    0.9959   -0.7103 C   0  0  0  0  0  0  0  0  0  0  0  0
   -1.0976    1.5615   -0.5130 H   0  0  0  0  0  0  0  0  0  0  0  0
    0.6658    1.6510   -0.5425 H   0  0  0  0  0  0  0  0  0  0  0  0
   -0.2270    0.5954   -2.1763 C   0  0  0  0  0  0  0  0  0  0  0  0
    0.4710   -0.2888   -2.6413 O   0  0  0  0  0  0  0  0  0  0  0  0
   -1.0470    1.2450   -2.9661 N   0  0  0  0  0  0  0  0  0  0  0  0
   -1.0642    0.9470   -3.9256 H   0  0  0  0  0  0  0  0  0  0  0  0
   -1.6454    1.9634   -2.6043 H   0  0  0  0  0  0  0  0  0  0  0  0
    0.2243    0.2333    1.7099 C   0  0  0  0  0  0  0  0  0  0  0  0
    1.3575    0.0546    2.1563 O   0  0  0  0  0  0  0  0  0  0  0  0
   -0.7506    0.7872    2.4373 N   0  0  0  0  0  0  0  0  0  0  0  0
   -1.6742    0.8276    2.0181 H   0  0  0  0  0  0  0  0  0  0  0  0
   -0.5919    1.2602    3.8112 C   0  0  0  0  0  0  0  0  0  0  0  0
    0.2149    1.9949    3.8566 H   0  0  0  0  0  0  0  0  0  0  0  0
   -1.5181    1.7207    4.1579 H   0  0  0  0  0  0  0  0  0  0  0  0
   -0.3396    0.4219    4.4628 H   0  0  0  0  0  0  0  0  0  0  0  0
  5  6  2  0  0  0  0
  5  7  1  0  0  0  0
  2  3  1  0  0  0  0
  2  4  1  0  0  0  0
  2  5  1  0  0  0  0
  1  2  1  0  0  0  0
 19 20  2  0  0  0  0
 19 21  1  0  0  0  0
 16 17  1  0  0  0  0
 16 18  1  0  0  0  0
 14 15  2  0  0  0  0
 14 16  1  0  0  0  0
 11 12  1  0  0  0  0
 11 13  1  0  0  0  0
 11 14  1  0  0  0  0
  9 10  1  0  0  0  0
  9 11  1  0  0  0  0
  9 19  1  0  0  0  0
  7  8  1  0  0  0  0
  7  9  1  0  0  0  0
 23 24  1  0  0  0  0
 23 25  1  0  0  0  0
 23 26  1  0  0  0  0
 21 22  1  0  0  0  0
 21 23  1  0  0  0  0
M  END
$$$$
default_name
  -OEChem-01062215323D

 26 25  0     1  0  0  0  0  0999 V2000
   -3.0232   -3.6924    1.0038 H   0  0  0  0  0  0  0  0  0  0  0  0
   -3.0082   -2.6684    0.6318 C   0  0  0  0  0  0  0  0  0  0  0  0
   -3.6332   -2.0414    1.2658 H   0  0  0  0  0  0  0  0  0  0  0  0
   -3.3762   -2.6444   -0.3912 H   0  0  0  0  0  0  0  0  0  0  0  0
   -1.5882   -2.1554    0.6658 C   0  0  0  0  0  0  0  0  0  0  0  0
   -0.6832   -2.8764    1.0638 O   0  0  0  0  0  0  0  0  0  0  0  0
   -1.3952   -0.9084    0.2428 N   0  0  0  0  0  0  0  0  0  0  0  0
   -2.1972   -0.3644   -0.0422 H   0  0  0  0  0  0  0  0  0  0  0  0
   -0.1122   -0.1994    0.2658 C   0  0  1  0  0  0  0  0  0  0  0  0
    0.6691   -0.8840   -0.0742 H   0  0  0  0  0  0  0  0  0  0  0  0
   -0.1877    0.9959   -0.7103 C   0  0  0  0  0  0  0  0  0  0  0  0
   -1.0976    1.5615   -0.5130 H   0  0  0  0  0  0  0  0  0  0  0  0
    0.6658    1.6510   -0.5425 H   0  0  0  0  0  0  0  0  0  0  0  0
   -0.2270    0.5954   -2.1763 C   0  0  0  0  0  0  0  0  0  0  0  0
    0.4710   -0.2888   -2.6413 O   0  0  0  0  0  0  0  0  0  0  0  0
   -1.0470    1.2450   -2.9661 N   0  0  0  0  0  0  0  0  0  0  0  0
   -1.0642    0.9470   -3.9256 H   0  0  0  0  0  0  0  0  0  0  0  0
   -1.6454    1.9634   -2.6043 H   0  0  0  0  0  0  0  0  0  0  0  0
    0.2243    0.2333    1.7099 C   0  0  0  0  0  0  0  0  0  0  0  0
    1.3991    0.3156    2.0684 O   0  0  0  0  0  0  0  0  0  0  0  0
   -0.7941    0.4973    2.5342 N   0  0  0  0  0  0  0  0  0  0  0  0
   -1.7306    0.3309    2.1800 H   0  0  0  0  0  0  0  0  0  0  0  0
   -0.6449    0.9290    3.9228 C   0  0  0  0  0  0  0  0  0  0  0  0
   -0.0369    1.8354    3.9630 H   0  0  0  0  0  0  0  0  0  0  0  0
   -1.6239    1.1326    4.3588 H   0  0  0  0  0  0  0  0  0  0  0  0
   -0.1479    0.1477    4.5003 H   0  0  0  0  0  0  0  0  0  0  0  0
  5  6  2  0  0  0  0
  5  7  1  0  0  0  0
  2  3  1  0  0  0  0
  2  4  1  0  0  0  0
  2  5  1  0  0  0  0
  1  2  1  0  0  0  0
 19 20  2  0  0  0  0
 19 21  1  0  0  0  0
 16 17  1  0  0  0  0
 16 18  1  0  0  0  0
 14 15  2  0  0  0  0
 14 16  1  0  0  0  0
 11 12  1  0  0  0  0
 11 13  1  0  0  0  0
 11 14  1  0  0  0  0
  9 10  1  0  0  0  0
  9 11  1  0  0  0  0
  9 19  1  0  0  0  0
  7  8  1  0  0  0  0
  7  9  1  0  0  0  0
 23 24  1  0  0  0  0
 23 25  1  0  0  0  0
 23 26  1  0  0  0  0
 21 22  1  0  0  0  0
 21 23  1  0  0  0  0
M  END
$$$$
default_name
  -OEChem-01062215323D

 26 25  0     1  0  0  0  0  0999 V2000
   -3.0232   -3.6924    1.0038 H   0  0  0  0  0  0  0  0  0  0  0  0
   -3.0082   -2.6684    0.6318 C   0  0  0  0  0  0  0  0  0  0  0  0
   -3.6332   -2.0414    1.2658 H   0  0  0  0  0  0  0  0  0  0  0  0
   -3.3762   -2.6444   -0.3912 H   0  0  0  0  0  0  0  0  0  0  0  0
   -1.5882   -2.1554    0.6658 C   0  0  0  0  0  0  0  0  0  0  0  0
   -0.6832   -2.8764    1.0638 O   0  0  0  0  0  0  0  0  0  0  0  0
   -1.3952   -0.9084    0.2428 N   0  0  0  0  0  0  0  0  0  0  0  0
   -2.1972   -0.3644   -0.0422 H   0  0  0  0  0  0  0  0  0  0  0  0
   -0.1122   -0.1994    0.2658 C   0  0  1  0  0  0  0  0  0  0  0  0
    0.6691   -0.8840   -0.0742 H   0  0  0  0  0  0  0  0  0  0  0  0
   -0.1877    0.9959   -0.7103 C   0  0  0  0  0  0  0  0  0  0  0  0
   -1.0976    1.5615   -0.5130 H   0  0  0  0  0  0  0  0  0  0  0  0
    0.6658    1.6510   -0.5425 H   0  0  0  0  0  0  0  0  0  0  0  0
   -0.2270    0.5954   -2.1763 C   0  0  0  0  0  0  0  0  0  0  0  0
    0.4710   -0.2888   -2.6413 O   0  0  0  0  0  0  0  0  0  0  0  0
   -1.0470    1.2450   -2.9661 N   0  0  0  0  0  0  0  0  0  0  0  0
   -1.0642    0.9470   -3.9256 H   0  0  0  0  0  0  0  0  0  0  0  0
   -1.6454    1.9634   -2.6043 H   0  0  0  0  0  0  0  0  0  0  0  0
    0.2243    0.2333    1.7099 C   0  0  0  0  0  0  0  0  0  0  0  0
    1.3697    0.5827    1.9952 O   0  0  0  0  0  0  0  0  0  0  0  0
   -0.7589    0.2014    2.6147 N   0  0  0  0  0  0  0  0  0  0  0  0
   -1.6533   -0.1715    2.3125 H   0  0  0  0  0  0  0  0  0  0  0  0
   -0.6078    0.5901    4.0157 C   0  0  0  0  0  0  0  0  0  0  0  0
   -0.2337    1.6144    4.0751 H   0  0  0  0  0  0  0  0  0  0  0  0
   -1.5692    0.5276    4.5273 H   0  0  0  0  0  0  0  0  0  0  0  0
    0.1064   -0.0729    4.5071 H   0  0  0  0  0  0  0  0  0  0  0  0
  5  6  2  0  0  0  0
  5  7  1  0  0  0  0
  2  3  1  0  0  0  0
  2  4  1  0  0  0  0
  2  5  1  0  0  0  0
  1  2  1  0  0  0  0
 19 20  2  0  0  0  0
 19 21  1  0  0  0  0
 16 17  1  0  0  0  0
 16 18  1  0  0  0  0
 14 15  2  0  0  0  0
 14 16  1  0  0  0  0
 11 12  1  0  0  0  0
 11 13  1  0  0  0  0
 11 14  1  0  0  0  0
  9 10  1  0  0  0  0
  9 11  1  0  0  0  0
  9 19  1  0  0  0  0
  7  8  1  0  0  0  0
  7  9  1  0  0  0  0
 23 24  1  0  0  0  0
 23 25  1  0  0  0  0
 23 26  1  0  0  0  0
 21 22  1  0  0  0  0
 21 23  1  0  0  0  0
M  END
$$$$
default_name
  -OEChem-01062215323D

 26 25  0     1  0  0  0  0  0999 V2000
   -3.0232   -3.6924    1.0038 H   0  0  0  0  0  0  0  0  0  0  0  0
   -3.0082   -2.6684    0.6318 C   0  0  0  0  0  0  0  0  0  0  0  0
   -3.6332   -2.0414    1.2658 H   0  0  0  0  0  0  0  0  0  0  0  0
   -3.3762   -2.6444   -0.3912 H   0  0  0  0  0  0  0  0  0  0  0  0
   -1.5882   -2.1554    0.6658 C   0  0  0  0  0  0  0  0  0  0  0  0
   -0.6832   -2.8764    1.0638 O   0  0  0  0  0  0  0  0  0  0  0  0
   -1.3952   -0.9084    0.2428 N   0  0  0  0  0  0  0  0  0  0  0  0
   -2.1972   -0.3644   -0.0422 H   0  0  0  0  0  0  0  0  0  0  0  0
   -0.1122   -0.1994    0.2658 C   0  0  1  0  0  0  0  0  0  0  0  0
    0.6691   -0.8840   -0.0742 H   0  0  0  0  0  0  0  0  0  0  0  0
   -0.1877    0.9959   -0.7103 C   0  0  0  0  0  0  0  0  0  0  0  0
   -1.0976    1.5615   -0.5130 H   0  0  0  0  0  0  0  0  0  0  0  0
    0.6658    1.6510   -0.5425 H   0  0  0  0  0  0  0  0  0  0  0  0
   -0.2270    0.5954   -2.1763 C   0  0  0  0  0  0  0  0  0  0  0  0
    0.4710   -0.2888   -2.6413 O   0  0  0  0  0  0  0  0  0  0  0  0
   -1.0470    1.2450   -2.9661 N   0  0  0  0  0  0  0  0  0  0  0  0
   -1.0642    0.9470   -3.9256 H   0  0  0  0  0  0  0  0  0  0  0  0
   -1.6454    1.9634   -2.6043 H   0  0  0  0  0  0  0  0  0  0  0  0
    0.2243    0.2333    1.7099 C   0  0  0  0  0  0  0  0  0  0  0  0
    1.2713    0.8378    1.9417 O   0  0  0  0  0  0  0  0  0  0  0  0
   -0.6474   -0.0805    2.6732 N   0  0  0  0  0  0  0  0  0  0  0  0
   -1.4473   -0.6457    2.4066 H   0  0  0  0  0  0  0  0  0  0  0  0
   -0.4832    0.2664    4.0837 C   0  0  0  0  0  0  0  0  0  0  0  0
   -0.3623    1.3470    4.1852 H   0  0  0  0  0  0  0  0  0  0  0  0
   -1.3578   -0.0530    4.6520 H   0  0  0  0  0  0  0  0  0  0  0  0
    0.4059   -0.2248    4.4828 H   0  0  0  0  0  0  0  0  0  0  0  0
  5  6  2  0  0  0  0
  5  7  1  0  0  0  0
  2  3  1  0  0  0  0
  2  4  1  0  0  0  0
  2  5  1  0  0  0  0
  1  2  1  0  0  0  0
 19 20  2  0  0  0  0
 19 21  1  0  0  0  0
 16 17  1  0  0  0  0
 16 18  1  0  0  0  0
 14 15  2  0  0  0  0
 14 16  1  0  0  0  0
 11 12  1  0  0  0  0
 11 13  1  0  0  0  0
 11 14  1  0  0  0  0
  9 10  1  0  0  0  0
  9 11  1  0  0  0  0
  9 19  1  0  0  0  0
  7  8  1  0  0  0  0
  7  9  1  0  0  0  0
 23 24  1  0  0  0  0
 23 25  1  0  0  0  0
 23 26  1  0  0  0  0
 21 22  1  0  0  0  0
 21 23  1  0  0  0  0
M  END
$$$$
default_name
  -OEChem-01062215323D

 26 25  0     1  0  0  0  0  0999 V2000
   -3.0232   -3.6924    1.0038 H   0  0  0  0  0  0  0  0  0  0  0  0
   -3.0082   -2.6684    0.6318 C   0  0  0  0  0  0  0  0  0  0  0  0
   -3.6332   -2.0414    1.2658 H   0  0  0  0  0  0  0  0  0  0  0  0
   -3.3762   -2.6444   -0.3912 H   0  0  0  0  0  0  0  0  0  0  0  0
   -1.5882   -2.1554    0.6658 C   0  0  0  0  0  0  0  0  0  0  0  0
   -0.6832   -2.8764    1.0638 O   0  0  0  0  0  0  0  0  0  0  0  0
   -1.3952   -0.9084    0.2428 N   0  0  0  0  0  0  0  0  0  0  0  0
   -2.1972   -0.3644   -0.0422 H   0  0  0  0  0  0  0  0  0  0  0  0
   -0.1122   -0.1994    0.2658 C   0  0  1  0  0  0  0  0  0  0  0  0
    0.6691   -0.8840   -0.0742 H   0  0  0  0  0  0  0  0  0  0  0  0
   -0.1877    0.9959   -0.7103 C   0  0  0  0  0  0  0  0  0  0  0  0
   -1.0976    1.5615   -0.5130 H   0  0  0  0  0  0  0  0  0  0  0  0
    0.6658    1.6510   -0.5425 H   0  0  0  0  0  0  0  0  0  0  0  0
   -0.2270    0.5954   -2.1763 C   0  0  0  0  0  0  0  0  0  0  0  0
    0.4710   -0.2888   -2.6413 O   0  0  0  0  0  0  0  0  0  0  0  0
   -1.0470    1.2450   -2.9661 N   0  0  0  0  0  0  0  0  0  0  0  0
   -1.0642    0.9470   -3.9256 H   0  0  0  0  0  0  0  0  0  0  0  0
   -1.6454    1.9634   -2.6043 H   0  0  0  0  0  0  0  0  0  0  0  0
    0.2243    0.2333    1.7099 C   0  0  0  0  0  0  0  0  0  0  0  0
    1.1107    1.0633    1.9116 O   0  0  0  0  0  0  0  0  0  0  0  0
   -0.4674   -0.3291    2.7057 N   0  0  0  0  0  0  0  0  0  0  0  0
   -1.1269   -1.0591    2.4558 H   0  0  0  0  0  0  0  0  0  0  0  0
   -0.2796   -0.0200    4.1220 C   0  0  0  0  0  0  0  0  0  0  0  0
   -0.4138    1.0514    4.2857 H   0  0  0  0  0  0  0  0  0  0  0  0
   -1.0041   -0.5698    4.7244 H   0  0  0  0  0  0  0  0  0  0  0  0
    0.7302   -0.2977    4.4291 H   0  0  0  0  0  0  0  0  0  0  0  0
  5  6  2  0  0  0  0
  5  7  1  0  0  0  0
  2  3  1  0  0  0  0
  2  4  1  0  0  0  0
  2  5  1  0  0  0  0
  1  2  1  0  0  0  0
 19 20  2  0  0  0  0
 19 21  1  0  0  0  0
 16 17  1  0  0  0  0
 16 18  1  0  0  0  0
 14 15  2  0  0  0  0
 14 16  1  0  0  0  0
 11 12  1  0  0  0  0
 11 13  1  0  0  0  0
 11 14  1  0  0  0  0
  9 10  1  0  0  0  0
  9 11  1  0  0  0  0
  9 19  1  0  0  0  0
  7  8  1  0  0  0  0
  7  9  1  0  0  0  0
 23 24  1  0  0  0  0
 23 25  1  0  0  0  0
 23 26  1  0  0  0  0
 21 22  1  0  0  0  0
 21 23  1  0  0  0  0
M  END
$$$$
default_name
  -OEChem-01062215323D

 26 25  0     1  0  0  0  0  0999 V2000
   -3.0232   -3.6924    1.0038 H   0  0  0  0  0  0  0  0  0  0  0  0
   -3.0082   -2.6684    0.6318 C   0  0  0  0  0  0  0  0  0  0  0  0
   -3.6332   -2.0414    1.2658 H   0  0  0  0  0  0  0  0  0  0  0  0
   -3.3762   -2.6444   -0.3912 H   0  0  0  0  0  0  0  0  0  0  0  0
   -1.5882   -2.1554    0.6658 C   0  0  0  0  0  0  0  0  0  0  0  0
   -0.6832   -2.8764    1.0638 O   0  0  0  0  0  0  0  0  0  0  0  0
   -1.3952   -0.9084    0.2428 N   0  0  0  0  0  0  0  0  0  0  0  0
   -2.1972   -0.3644   -0.0422 H   0  0  0  0  0  0  0  0  0  0  0  0
   -0.1122   -0.1994    0.2658 C   0  0  1  0  0  0  0  0  0  0  0  0
    0.6691   -0.8840   -0.0742 H   0  0  0  0  0  0  0  0  0  0  0  0
   -0.1877    0.9959   -0.7103 C   0  0  0  0  0  0  0  0  0  0  0  0
   -1.0976    1.5615   -0.5130 H   0  0  0  0  0  0  0  0  0  0  0  0
    0.6658    1.6510   -0.5425 H   0  0  0  0  0  0  0  0  0  0  0  0
   -0.2270    0.5954   -2.1763 C   0  0  0  0  0  0  0  0  0  0  0  0
    0.4710   -0.2888   -2.6413 O   0  0  0  0  0  0  0  0  0  0  0  0
   -1.0470    1.2450   -2.9661 N   0  0  0  0  0  0  0  0  0  0  0  0
   -1.0642    0.9470   -3.9256 H   0  0  0  0  0  0  0  0  0  0  0  0
   -1.6454    1.9634   -2.6043 H   0  0  0  0  0  0  0  0  0  0  0  0
    0.2243    0.2333    1.7099 C   0  0  0  0  0  0  0  0  0  0  0  0
    0.8989    1.2440    1.9068 O   0  0  0  0  0  0  0  0  0  0  0  0
   -0.2309   -0.5275    2.7101 N   0  0  0  0  0  0  0  0  0  0  0  0
   -0.7137   -1.3837    2.4568 H   0  0  0  0  0  0  0  0  0  0  0  0
   -0.0108   -0.2495    4.1282 C   0  0  0  0  0  0  0  0  0  0  0  0
   -0.3848    0.7478    4.3699 H   0  0  0  0  0  0  0  0  0  0  0  0
   -0.5321   -0.9874    4.7396 H   0  0  0  0  0  0  0  0  0  0  0  0
    1.0571   -0.2866    4.3496 H   0  0  0  0  0  0  0  0  0  0  0  0
  5  6  2  0  0  0  0
  5  7  1  0  0  0  0
  2  3  1  0  0  0  0
  2  4  1  0  0  0  0
  2  5  1  0  0  0  0
  1  2  1  0  0  0  0
 19 20  2  0  0  0  0
 19 21  1  0  0  0  0
 16 17  1  0  0  0  0
 16 18  1  0  0  0  0
 14 15  2  0  0  0  0
 14 16  1  0  0  0  0
 11 12  1  0  0  0  0
 11 13  1  0  0  0  0
 11 14  1  0  0  0  0
  9 10  1  0  0  0  0
  9 11  1  0  0  0  0
  9 19  1  0  0  0  0
  7  8  1  0  0  0  0
  7  9  1  0  0  0  0
 23 24  1  0  0  0  0
 23 25  1  0  0  0  0
 23 26  1  0  0  0  0
 21 22  1  0  0  0  0
 21 23  1  0  0  0  0
M  END
$$$$
default_name
  -OEChem-01062215323D

 26 25  0     1  0  0  0  0  0999 V2000
   -3.0232   -3.6924    1.0038 H   0  0  0  0  0  0  0  0  0  0  0  0
   -3.0082   -2.6684    0.6318 C   0  0  0  0  0  0  0  0  0  0  0  0
   -3.6332   -2.0414    1.2658 H   0  0  0  0  0  0  0  0  0  0  0  0
   -3.3762   -2.6444   -0.3912 H   0  0  0  0  0  0  0  0  0  0  0  0
   -1.5882   -2.1554    0.6658 C   0  0  0  0  0  0  0  0  0  0  0  0
   -0.6832   -2.8764    1.0638 O   0  0  0  0  0  0  0  0  0  0  0  0
   -1.3952   -0.9084    0.2428 N   0  0  0  0  0  0  0  0  0  0  0  0
   -2.1972   -0.3644   -0.0422 H   0  0  0  0  0  0  0  0  0  0  0  0
   -0.1122   -0.1994    0.2658 C   0  0  1  0  0  0  0  0  0  0  0  0
    0.6691   -0.8840   -0.0742 H   0  0  0  0  0  0  0  0  0  0  0  0
   -0.1877    0.9959   -0.7103 C   0  0  0  0  0  0  0  0  0  0  0  0
   -1.0976    1.5615   -0.5130 H   0  0  0  0  0  0  0  0  0  0  0  0
    0.6658    1.6510   -0.5425 H   0  0  0  0  0  0  0  0  0  0  0  0
   -0.2270    0.5954   -2.1763 C   0  0  0  0  0  0  0  0  0  0  0  0
    0.4710   -0.2888   -2.6413 O   0  0  0  0  0  0  0  0  0  0  0  0
   -1.0470    1.2450   -2.9661 N   0  0  0  0  0  0  0  0  0  0  0  0
   -1.0642    0.9470   -3.9256 H   0  0  0  0  0  0  0  0  0  0  0  0
   -1.6454    1.9634   -2.6043 H   0  0  0  0  0  0  0  0  0  0  0  0
    0.2243    0.2333    1.7099 C   0  0  0  0  0  0  0  0  0  0  0  0
    0.6501    1.3676    1.9277 O   0  0  0  0  0  0  0  0  0  0  0  0
    0.0458   -0.6622    2.6859 N   0  0  0  0  0  0  0  0  0  0  0  0
   -0.2361   -1.5973    2.4095 H   0  0  0  0  0  0  0  0  0  0  0  0
    0.3047   -0.4065    4.1017 C   0  0  0  0  0  0  0  0  0  0  0  0
   -0.2771    0.4567    4.4321 H   0  0  0  0  0  0  0  0  0  0  0  0
    0.0260   -1.2775    4.6964 H   0  0  0  0  0  0  0  0  0  0  0  0
    1.3645   -0.1923    4.2497 H   0  0  0  0  0  0  0  0  0  0  0  0
  5  6  2  0  0  0  0
  5  7  1  0  0  0  0
  2  3  1  0  0  0  0
  2  4  1  0  0  0  0
  2  5  1  0  0  0  0
  1  2  1  0  0  0  0
 19 20  2  0  0  0  0
 19 21  1  0  0  0  0
 16 17  1  0  0  0  0
 16 18  1  0  0  0  0
 14 15  2  0  0  0  0
 14 16  1  0  0  0  0
 11 12  1  0  0  0  0
 11 13  1  0  0  0  0
 11 14  1  0  0  0  0
  9 10  1  0  0  0  0
  9 11  1  0  0  0  0
  9 19  1  0  0  0  0
  7  8  1  0  0  0  0
  7  9  1  0  0  0  0
 23 24  1  0  0  0  0
 23 25  1  0  0  0  0
 23 26  1  0  0  0  0
 21 22  1  0  0  0  0
 21 23  1  0  0  0  0
M  END
$$$$
default_name
  -OEChem-01062215323D

 26 25  0     1  0  0  0  0  0999 V2000
   -3.0232   -3.6924    1.0038 H   0  0  0  0  0  0  0  0  0  0  0  0
   -3.0082   -2.6684    0.6318 C   0  0  0  0  0  0  0  0  0  0  0  0
   -3.6332   -2.0414    1.2658 H   0  0  0  0  0  0  0  0  0  0  0  0
   -3.3762   -2.6444   -0.3912 H   0  0  0  0  0  0  0  0  0  0  0  0
   -1.5882   -2.1554    0.6658 C   0  0  0  0  0  0  0  0  0  0  0  0
   -0.6832   -2.8764    1.0638 O   0  0  0  0  0  0  0  0  0  0  0  0
   -1.3952   -0.9084    0.2428 N   0  0  0  0  0  0  0  0  0  0  0  0
   -2.1972   -0.3644   -0.0422 H   0  0  0  0  0  0  0  0  0  0  0  0
   -0.1122   -0.1994    0.2658 C   0  0  1  0  0  0  0  0  0  0  0  0
    0.6691   -0.8840   -0.0742 H   0  0  0  0  0  0  0  0  0  0  0  0
   -0.1877    0.9959   -0.7103 C   0  0  0  0  0  0  0  0  0  0  0  0
   -1.0976    1.5615   -0.5130 H   0  0  0  0  0  0  0  0  0  0  0  0
    0.6658    1.6510   -0.5425 H   0  0  0  0  0  0  0  0  0  0  0  0
   -0.2270    0.5954   -2.1763 C   0  0  0  0  0  0  0  0  0  0  0  0
    0.4710   -0.2888   -2.6413 O   0  0  0  0  0  0  0  0  0  0  0  0
   -1.0470    1.2450   -2.9661 N   0  0  0  0  0  0  0  0  0  0  0  0
   -1.0642    0.9470   -3.9256 H   0  0  0  0  0  0  0  0  0  0  0  0
   -1.6454    1.9634   -2.6043 H   0  0  0  0  0  0  0  0  0  0  0  0
    0.2243    0.2333    1.7099 C   0  0  0  0  0  0  0  0  0  0  0  0
    0.3815    1.4256    1.9730 O   0  0  0  0  0  0  0  0  0  0  0  0
    0.3440   -0.7239    2.6350 N   0  0  0  0  0  0  0  0  0  0  0  0
    0.2736   -1.6853    2.3171 H   0  0  0  0  0  0  0  0  0  0  0  0
    0.6456   -0.4803    4.0444 C   0  0  0  0  0  0  0  0  0  0  0  0
   -0.0982    0.1982    4.4678 H   0  0  0  0  0  0  0  0  0  0  0  0
    0.6321   -1.4201    4.5980 H   0  0  0  0  0  0  0  0  0  0  0  0
    1.6313   -0.0212    4.1363 H   0  0  0  0  0  0  0  0  0  0  0  0
  5  6  2  0  0  0  0
  5  7  1  0  0  0  0
  2  3  1  0  0  0  0
  2  4  1  0  0  0  0
  2  5  1  0  0  0  0
  1  2  1  0  0  0  0
 19 20  2  0  0  0  0
 19 21  1  0  0  0  0
 16 17  1  0  0  0  0
 16 18  1  0  0  0  0
 14 15  2  0  0  0  0
 14 16  1  0  0  0  0
 11 12  1  0  0  0  0
 11 13  1  0  0  0  0
 11 14  1  0  0  0  0
  9 10  1  0  0  0  0
  9 11  1  0  0  0  0
  9 19  1  0  0  0  0
  7  8  1  0  0  0  0
  7  9  1  0  0  0  0
 23 24  1  0  0  0  0
 23 25  1  0  0  0  0
 23 26  1  0  0  0  0
 21 22  1  0  0  0  0
 21 23  1  0  0  0  0
M  END
$$$$
default_name
  -OEChem-01062215323D

 26 25  0     1  0  0  0  0  0999 V2000
   -3.0232   -3.6924    1.0038 H   0  0  0  0  0  0  0  0  0  0  0  0
   -3.0082   -2.6684    0.6318 C   0  0  0  0  0  0  0  0  0  0  0  0
   -3.6332   -2.0414    1.2658 H   0  0  0  0  0  0  0  0  0  0  0  0
   -3.3762   -2.6444   -0.3912 H   0  0  0  0  0  0  0  0  0  0  0  0
   -1.5882   -2.1554    0.6658 C   0  0  0  0  0  0  0  0  0  0  0  0
   -0.6832   -2.8764    1.0638 O   0  0  0  0  0  0  0  0  0  0  0  0
   -1.3952   -0.9084    0.2428 N   0  0  0  0  0  0  0  0  0  0  0  0
   -2.1972   -0.3644   -0.0422 H   0  0  0  0  0  0  0  0  0  0  0  0
   -0.1122   -0.1994    0.2658 C   0  0  1  0  0  0  0  0  0  0  0  0
    0.6691   -0.8840   -0.0742 H   0  0  0  0  0  0  0  0  0  0  0  0
   -0.1877    0.9959   -0.7103 C   0  0  0  0  0  0  0  0  0  0  0  0
   -1.0976    1.5615   -0.5130 H   0  0  0  0  0  0  0  0  0  0  0  0
    0.6658    1.6510   -0.5425 H   0  0  0  0  0  0  0  0  0  0  0  0
   -0.2270    0.5954   -2.1763 C   0  0  0  0  0  0  0  0  0  0  0  0
    0.4710   -0.2888   -2.6413 O   0  0  0  0  0  0  0  0  0  0  0  0
   -1.0470    1.2450   -2.9661 N   0  0  0  0  0  0  0  0  0  0  0  0
   -1.0642    0.9470   -3.9256 H   0  0  0  0  0  0  0  0  0  0  0  0
   -1.6454    1.9634   -2.6043 H   0  0  0  0  0  0  0  0  0  0  0  0
    0.2243    0.2333    1.7099 C   0  0  0  0  0  0  0  0  0  0  0  0
    0.1113    1.4140    2.0394 O   0  0  0  0  0  0  0  0  0  0  0  0
    0.6432   -0.7085    2.5606 N   0  0  0  0  0  0  0  0  0  0  0  0
    0.7805   -1.6419    2.1860 H   0  0  0  0  0  0  0  0  0  0  0  0
    0.9885   -0.4658    3.9601 C   0  0  0  0  0  0  0  0  0  0  0  0
    0.1398   -0.0103    4.4749 H   0  0  0  0  0  0  0  0  0  0  0  0
    1.2449   -1.4057    4.4508 H   0  0  0  0  0  0  0  0  0  0  0  0
    1.8395    0.2151    4.0170 H   0  0  0  0  0  0  0  0  0  0  0  0
  5  6  2  0  0  0  0
  5  7  1  0  0  0  0
  2  3  1  0  0  0  0
  2  4  1  0  0  0  0
  2  5  1  0  0  0  0
  1  2  1  0  0  0  0
 19 20  2  0  0  0  0
 19 21  1  0  0  0  0
 16 17  1  0  0  0  0
 16 18  1  0  0  0  0
 14 15  2  0  0  0  0
 14 16  1  0  0  0  0
 11 12  1  0  0  0  0
 11 13  1  0  0  0  0
 11 14  1  0  0  0  0
  9 10  1  0  0  0  0
  9 11  1  0  0  0  0
  9 19  1  0  0  0  0
  7  8  1  0  0  0  0
  7  9  1  0  0  0  0
 23 24  1  0  0  0  0
 23 25  1  0  0  0  0
 23 26  1  0  0  0  0
 21 22  1  0  0  0  0
 21 23  1  0  0  0  0
M  END
$$$$
default_name
  -OEChem-01062215323D

 26 25  0     1  0  0  0  0  0999 V2000
   -3.0232   -3.6924    1.0038 H   0  0  0  0  0  0  0  0  0  0  0  0
   -3.0082   -2.6684    0.6318 C   0  0  0  0  0  0  0  0  0  0  0  0
   -3.6332   -2.0414    1.2658 H   0  0  0  0  0  0  0  0  0  0  0  0
   -3.3762   -2.6444   -0.3912 H   0  0  0  0  0  0  0  0  0  0  0  0
   -1.5882   -2.1554    0.6658 C   0  0  0  0  0  0  0  0  0  0  0  0
   -0.6832   -2.8764    1.0638 O   0  0  0  0  0  0  0  0  0  0  0  0
   -1.3952   -0.9084    0.2428 N   0  0  0  0  0  0  0  0  0  0  0  0
   -2.1972   -0.3644   -0.0422 H   0  0  0  0  0  0  0  0  0  0  0  0
   -0.1122   -0.1994    0.2658 C   0  0  1  0  0  0  0  0  0  0  0  0
    0.6691   -0.8840   -0.0742 H   0  0  0  0  0  0  0  0  0  0  0  0
   -0.1877    0.9959   -0.7103 C   0  0  0  0  0  0  0  0  0  0  0  0
   -1.0976    1.5615   -0.5130 H   0  0  0  0  0  0  0  0  0  0  0  0
    0.6658    1.6510   -0.5425 H   0  0  0  0  0  0  0  0  0  0  0  0
   -0.2270    0.5954   -2.1763 C   0  0  0  0  0  0  0  0  0  0  0  0
    0.4710   -0.2888   -2.6413 O   0  0  0  0  0  0  0  0  0  0  0  0
   -1.0470    1.2450   -2.9661 N   0  0  0  0  0  0  0  0  0  0  0  0
   -1.0642    0.9470   -3.9256 H   0  0  0  0  0  0  0  0  0  0  0  0
   -1.6454    1.9634   -2.6043 H   0  0  0  0  0  0  0  0  0  0  0  0
    0.2243    0.2333    1.7099 C   0  0  0  0  0  0  0  0  0  0  0  0
   -0.1421    1.3337    2.1225 O   0  0  0  0  0  0  0  0  0  0  0  0
    0.9231   -0.6171    2.4680 N   0  0  0  0  0  0  0  0  0  0  0  0
    1.2501   -1.4698    2.0250 H   0  0  0  0  0  0  0  0  0  0  0  0
    1.3102   -0.3641    3.8547 C   0  0  0  0  0  0  0  0  0  0  0  0
    0.4206   -0.1545    4.4526 H   0  0  0  0  0  0  0  0  0  0  0  0
    1.8227   -1.2353    4.2651 H   0  0  0  0  0  0  0  0  0  0  0  0
    1.9747    0.5004    3.9001 H   0  0  0  0  0  0  0  0  0  0  0  0
  5  6  2  0  0  0  0
  5  7  1  0  0  0  0
  2  3  1  0  0  0  0
  2  4  1  0  0  0  0
  2  5  1  0  0  0  0
  1  2  1  0  0  0  0
 19 20  2  0  0  0  0
 19 21  1  0  0  0  0
 16 17  1  0  0  0  0
 16 18  1  0  0  0  0
 14 15  2  0  0  0  0
 14 16  1  0  0  0  0
 11 12  1  0  0  0  0
 11 13  1  0  0  0  0
 11 14  1  0  0  0  0
  9 10  1  0  0  0  0
  9 11  1  0  0  0  0
  9 19  1  0  0  0  0
  7  8  1  0  0  0  0
  7  9  1  0  0  0  0
 23 24  1  0  0  0  0
 23 25  1  0  0  0  0
 23 26  1  0  0  0  0
 21 22  1  0  0  0  0
 21 23  1  0  0  0  0
M  END
$$$$
default_name
  -OEChem-01062215323D

 26 25  0     1  0  0  0  0  0999 V2000
   -3.0232   -3.6924    1.0038 H   0  0  0  0  0  0  0  0  0  0  0  0
   -3.0082   -2.6684    0.6318 C   0  0  0  0  0  0  0  0  0  0  0  0
   -3.6332   -2.0414    1.2658 H   0  0  0  0  0  0  0  0  0  0  0  0
   -3.3762   -2.6444   -0.3912 H   0  0  0  0  0  0  0  0  0  0  0  0
   -1.5882   -2.1554    0.6658 C   0  0  0  0  0  0  0  0  0  0  0  0
   -0.6832   -2.8764    1.0638 O   0  0  0  0  0  0  0  0  0  0  0  0
   -1.3952   -0.9084    0.2428 N   0  0  0  0  0  0  0  0  0  0  0  0
   -2.1972   -0.3644   -0.0422 H   0  0  0  0  0  0  0  0  0  0  0  0
   -0.1122   -0.1994    0.2658 C   0  0  1  0  0  0  0  0  0  0  0  0
    0.6691   -0.8840   -0.0742 H   0  0  0  0  0  0  0  0  0  0  0  0
   -0.1877    0.9959   -0.7103 C   0  0  0  0  0  0  0  0  0  0  0  0
   -1.0976    1.5615   -0.5130 H   0  0  0  0  0  0  0  0  0  0  0  0
    0.6658    1.6510   -0.5425 H   0  0  0  0  0  0  0  0  0  0  0  0
   -0.2270    0.5954   -2.1763 C   0  0  0  0  0  0  0  0  0  0  0  0
    0.4710   -0.2888   -2.6413 O   0  0  0  0  0  0  0  0  0  0  0  0
   -1.0470    1.2450   -2.9661 N   0  0  0  0  0  0  0  0  0  0  0  0
   -1.0642    0.9470   -3.9256 H   0  0  0  0  0  0  0  0  0  0  0  0
   -1.6454    1.9634   -2.6043 H   0  0  0  0  0  0  0  0  0  0  0  0
    0.2243    0.2333    1.7099 C   0  0  0  0  0  0  0  0  0  0  0  0
   -0.3615    1.1902    2.2166 O   0  0  0  0  0  0  0  0  0  0  0  0
    1.1647   -0.4558    2.3634 N   0  0  0  0  0  0  0  0  0  0  0  0
    1.6504   -1.1809    1.8452 H   0  0  0  0  0  0  0  0  0  0  0  0
    1.5886   -0.1821    3.7353 C   0  0  0  0  0  0  0  0  0  0  0  0
    0.7251   -0.2246    4.4027 H   0  0  0  0  0  0  0  0  0  0  0  0
    2.3261   -0.9203    4.0535 H   0  0  0  0  0  0  0  0  0  0  0  0
    2.0278    0.8152    3.7933 H   0  0  0  0  0  0  0  0  0  0  0  0
  5  6  2  0  0  0  0
  5  7  1  0  0  0  0
  2  3  1  0  0  0  0
  2  4  1  0  0  0  0
  2  5  1  0  0  0  0
  1  2  1  0  0  0  0
 19 20  2  0  0  0  0
 19 21  1  0  0  0  0
 16 17  1  0  0  0  0
 16 18  1  0  0  0  0
 14 15  2  0  0  0  0
 14 16  1  0  0  0  0
 11 12  1  0  0  0  0
 11 13  1  0  0  0  0
 11 14  1  0  0  0  0
  9 10  1  0  0  0  0
  9 11  1  0  0  0  0
  9 19  1  0  0  0  0
  7  8  1  0  0  0  0
  7  9  1  0  0  0  0
 23 24  1  0  0  0  0
 23 25  1  0  0  0  0
 23 26  1  0  0  0  0
 21 22  1  0  0  0  0
 21 23  1  0  0  0  0
M  END
$$$$
default_name
  -OEChem-01062215323D

 26 25  0     1  0  0  0  0  0999 V2000
   -3.0232   -3.6924    1.0038 H   0  0  0  0  0  0  0  0  0  0  0  0
   -3.0082   -2.6684    0.6318 C   0  0  0  0  0  0  0  0  0  0  0  0
   -3.6332   -2.0414    1.2658 H   0  0  0  0  0  0  0  0  0  0  0  0
   -3.3762   -2.6444   -0.3912 H   0  0  0  0  0  0  0  0  0  0  0  0
   -1.5882   -2.1554    0.6658 C   0  0  0  0  0  0  0  0  0  0  0  0
   -0.6832   -2.8764    1.0638 O   0  0  0  0  0  0  0  0  0  0  0  0
   -1.3952   -0.9084    0.2428 N   0  0  0  0  0  0  0  0  0  0  0  0
   -2.1972   -0.3644   -0.0422 H   0  0  0  0  0  0  0  0  0  0  0  0
   -0.1122   -0.1994    0.2658 C   0  0  1  0  0  0  0  0  0  0  0  0
    0.6691   -0.8840   -0.0742 H   0  0  0  0  0  0  0  0  0  0  0  0
   -0.1877    0.9959   -0.7103 C   0  0  0  0  0  0  0  0  0  0  0  0
   -1.0976    1.5615   -0.5130 H   0  0  0  0  0  0  0  0  0  0  0  0
    0.6658    1.6510   -0.5425 H   0  0  0  0  0  0  0  0  0  0  0  0
   -0.2270    0.5954   -2.1763 C   0  0  0  0  0  0  0  0  0  0  0  0
    0.4710   -0.2888   -2.6413 O   0  0  0  0  0  0  0  0  0  0  0  0
   -1.0470    1.2450   -2.9661 N   0  0  0  0  0  0  0  0  0  0  0  0
   -1.0642    0.9470   -3.9256 H   0  0  0  0  0  0  0  0  0  0  0  0
   -1.6454    1.9634   -2.6043 H   0  0  0  0  0  0  0  0  0  0  0  0
    0.2243    0.2333    1.7099 C   0  0  0  0  0  0  0  0  0  0  0  0
   -0.5318    0.9931    2.3153 O   0  0  0  0  0  0  0  0  0  0  0  0
    1.3514   -0.2357    2.2540 N   0  0  0  0  0  0  0  0  0  0  0  0
    1.9542   -0.7949    1.6588 H   0  0  0  0  0  0  0  0  0  0  0  0
    1.8049    0.0678    3.6101 C   0  0  0  0  0  0  0  0  0  0  0  0
    1.0326   -0.2158    4.3284 H   0  0  0  0  0  0  0  0  0  0  0  0
    2.7208   -0.4823    3.8303 H   0  0  0  0  0  0  0  0  0  0  0  0
    1.9951    1.1382    3.7042 H   0  0  0  0  0  0  0  0  0  0  0  0
  5  6  2  0  0  0  0
  5  7  1  0  0  0  0
  2  3  1  0  0  0  0
  2  4  1  0  0  0  0
  2  5  1  0  0  0  0
  1  2  1  0  0  0  0
 19 20  2  0  0  0  0
 19 21  1  0  0  0  0
 16 17  1  0  0  0  0
 16 18  1  0  0  0  0
 14 15  2  0  0  0  0
 14 16  1  0  0  0  0
 11 12  1  0  0  0  0
 11 13  1  0  0  0  0
 11 14  1  0  0  0  0
  9 10  1  0  0  0  0
  9 11  1  0  0  0  0
  9 19  1  0  0  0  0
  7  8  1  0  0  0  0
  7  9  1  0  0  0  0
 23 24  1  0  0  0  0
 23 25  1  0  0  0  0
 23 26  1  0  0  0  0
 21 22  1  0  0  0  0
 21 23  1  0  0  0  0
M  END
$$$$
default_name
  -OEChem-01062215323D

 26 25  0     1  0  0  0  0  0999 V2000
   -3.0232   -3.6924    1.0038 H   0  0  0  0  0  0  0  0  0  0  0  0
   -3.0082   -2.6684    0.6318 C   0  0  0  0  0  0  0  0  0  0  0  0
   -3.6332   -2.0414    1.2658 H   0  0  0  0  0  0  0  0  0  0  0  0
   -3.3762   -2.6444   -0.3912 H   0  0  0  0  0  0  0  0  0  0  0  0
   -1.5882   -2.1554    0.6658 C   0  0  0  0  0  0  0  0  0  0  0  0
   -0.6832   -2.8764    1.0638 O   0  0  0  0  0  0  0  0  0  0  0  0
   -1.3952   -0.9084    0.2428 N   0  0  0  0  0  0  0  0  0  0  0  0
   -2.1972   -0.3644   -0.0422 H   0  0  0  0  0  0  0  0  0  0  0  0
   -0.1122   -0.1994    0.2658 C   0  0  1  0  0  0  0  0  0  0  0  0
    0.6691   -0.8840   -0.0742 H   0  0  0  0  0  0  0  0  0  0  0  0
   -0.1877    0.9959   -0.7103 C   0  0  0  0  0  0  0  0  0  0  0  0
   -1.0976    1.5615   -0.5130 H   0  0  0  0  0  0  0  0  0  0  0  0
    0.6658    1.6510   -0.5425 H   0  0  0  0  0  0  0  0  0  0  0  0
   -0.2270    0.5954   -2.1763 C   0  0  0  0  0  0  0  0  0  0  0  0
    0.4710   -0.2888   -2.6413 O   0  0  0  0  0  0  0  0  0  0  0  0
   -1.0470    1.2450   -2.9661 N   0  0  0  0  0  0  0  0  0  0  0  0
   -1.0642    0.9470   -3.9256 H   0  0  0  0  0  0  0  0  0  0  0  0
   -1.6454    1.9634   -2.6043 H   0  0  0  0  0  0  0  0  0  0  0  0
    0.2243    0.2333    1.7099 C   0  0  0  0  0  0  0  0  0  0  0  0
   -0.6414    0.7560    2.4119 O   0  0  0  0  0  0  0  0  0  0  0  0
    1.4705    0.0283    2.1471 N   0  0  0  0  0  0  0  0  0  0  0  0
    2.1406   -0.3380    1.4784 H   0  0  0  0  0  0  0  0  0  0  0  0
    1.9443    0.3685    3.4875 C   0  0  0  0  0  0  0  0  0  0  0  0
    1.3221   -0.1286    4.2348 H   0  0  0  0  0  0  0  0  0  0  0  0
    2.9799    0.0488    3.6108 H   0  0  0  0  0  0  0  0  0  0  0  0
    1.8790    1.4474    3.6386 H   0  0  0  0  0  0  0  0  0  0  0  0
  5  6  2  0  0  0  0
  5  7  1  0  0  0  0
  2  3  1  0  0  0  0
  2  4  1  0  0  0  0
  2  5  1  0  0  0  0
  1  2  1  0  0  0  0
 19 20  2  0  0  0  0
 19 21  1  0  0  0  0
 16 17  1  0  0  0  0
 16 18  1  0  0  0  0
 14 15  2  0  0  0  0
 14 16  1  0  0  0  0
 11 12  1  0  0  0  0
 11 13  1  0  0  0  0
 11 14  1  0  0  0  0
  9 10  1  0  0  0  0
  9 11  1  0  0  0  0
  9 19  1  0  0  0  0
  7  8  1  0  0  0  0
  7  9  1  0  0  0  0
 23 24  1  0  0  0  0
 23 25  1  0  0  0  0
 23 26  1  0  0  0  0
 21 22  1  0  0  0  0
 21 23  1  0  0  0  0
M  END
$$$$
default_name
  -OEChem-01062215323D

 26 25  0     1  0  0  0  0  0999 V2000
   -3.0232   -3.6924    1.0038 H   0  0  0  0  0  0  0  0  0  0  0  0
   -3.0082   -2.6684    0.6318 C   0  0  0  0  0  0  0  0  0  0  0  0
   -3.6332   -2.0414    1.2658 H   0  0  0  0  0  0  0  0  0  0  0  0
   -3.3762   -2.6444   -0.3912 H   0  0  0  0  0  0  0  0  0  0  0  0
   -1.5882   -2.1554    0.6658 C   0  0  0  0  0  0  0  0  0  0  0  0
   -0.6832   -2.8764    1.0638 O   0  0  0  0  0  0  0  0  0  0  0  0
   -1.3952   -0.9084    0.2428 N   0  0  0  0  0  0  0  0  0  0  0  0
   -2.1972   -0.3644   -0.0422 H   0  0  0  0  0  0  0  0  0  0  0  0
   -0.1122   -0.1994    0.2658 C   0  0  1  0  0  0  0  0  0  0  0  0
    0.6691   -0.8840   -0.0742 H   0  0  0  0  0  0  0  0  0  0  0  0
   -0.1877    0.9959   -0.7103 C   0  0  0  0  0  0  0  0  0  0  0  0
   -1.0976    1.5615   -0.5130 H   0  0  0  0  0  0  0  0  0  0  0  0
    0.6658    1.6510   -0.5425 H   0  0  0  0  0  0  0  0  0  0  0  0
   -0.2270    0.5954   -2.1763 C   0  0  0  0  0  0  0  0  0  0  0  0
    0.4710   -0.2888   -2.6413 O   0  0  0  0  0  0  0  0  0  0  0  0
   -1.0470    1.2450   -2.9661 N   0  0  0  0  0  0  0  0  0  0  0  0
   -1.0642    0.9470   -3.9256 H   0  0  0  0  0  0  0  0  0  0  0  0
   -1.6454    1.9634   -2.6043 H   0  0  0  0  0  0  0  0  0  0  0  0
    0.2243    0.2333    1.7099 C   0  0  0  0  0  0  0  0  0  0  0  0
   -0.6829    0.4950    2.4998 O   0  0  0  0  0  0  0  0  0  0  0  0
    1.5140    0.3181    2.0501 N   0  0  0  0  0  0  0  0  0  0  0  0
    2.1971    0.1586    1.3165 H   0  0  0  0  0  0  0  0  0  0  0  0
    1.9972    0.6997    3.3759 C   0  0  0  0  0  0  0  0  0  0  0  0
    1.5739    0.0308    4.1284 H   0  0  0  0  0  0  0  0  0  0  0  0
    3.0857    0.6369    3.4099 H   0  0  0  0  0  0  0  0  0  0  0  0
    1.6872    1.7215    3.6011 H   0  0  0  0  0  0  0  0  0  0  0  0
  5  6  2  0  0  0  0
  5  7  1  0  0  0  0
  2  3  1  0  0  0  0
  2  4  1  0  0  0  0
  2  5  1  0  0  0  0
  1  2  1  0  0  0  0
 19 20  2  0  0  0  0
 19 21  1  0  0  0  0
 16 17  1  0  0  0  0
 16 18  1  0  0  0  0
 14 15  2  0  0  0  0
 14 16  1  0  0  0  0
 11 12  1  0  0  0  0
 11 13  1  0  0  0  0
 11 14  1  0  0  0  0
  9 10  1  0  0  0  0
  9 11  1  0  0  0  0
  9 19  1  0  0  0  0
  7  8  1  0  0  0  0
  7  9  1  0  0  0  0
 23 24  1  0  0  0  0
 23 25  1  0  0  0  0
 23 26  1  0  0  0  0
 21 22  1  0  0  0  0
 21 23  1  0  0  0  0
M  END
$$$$
default_name
  -OEChem-01062215323D

 26 25  0     1  0  0  0  0  0999 V2000
   -3.0232   -3.6924    1.0038 H   0  0  0  0  0  0  0  0  0  0  0  0
   -3.0082   -2.6684    0.6318 C   0  0  0  0  0  0  0  0  0  0  0  0
   -3.6332   -2.0414    1.2658 H   0  0  0  0  0  0  0  0  0  0  0  0
   -3.3762   -2.6444   -0.3912 H   0  0  0  0  0  0  0  0  0  0  0  0
   -1.5882   -2.1554    0.6658 C   0  0  0  0  0  0  0  0  0  0  0  0
   -0.6832   -2.8764    1.0638 O   0  0  0  0  0  0  0  0  0  0  0  0
   -1.3952   -0.9084    0.2428 N   0  0  0  0  0  0  0  0  0  0  0  0
   -2.1972   -0.3644   -0.0422 H   0  0  0  0  0  0  0  0  0  0  0  0
   -0.1122   -0.1994    0.2658 C   0  0  1  0  0  0  0  0  0  0  0  0
    0.6691   -0.8840   -0.0742 H   0  0  0  0  0  0  0  0  0  0  0  0
   -0.1877    0.9959   -0.7103 C   0  0  0  0  0  0  0  0  0  0  0  0
   -1.0976    1.5615   -0.5130 H   0  0  0  0  0  0  0  0  0  0  0  0
    0.6658    1.6510   -0.5425 H   0  0  0  0  0  0  0  0  0  0  0  0
   -0.2270    0.5954   -2.1763 C   0  0  0  0  0  0  0  0  0  0  0  0
    0.4710   -0.2888   -2.6413 O   0  0  0  0  0  0  0  0  0  0  0  0
   -1.0470    1.2450   -2.9661 N   0  0  0  0  0  0  0  0  0  0  0  0
   -1.0642    0.9470   -3.9256 H   0  0  0  0  0  0  0  0  0  0  0  0
   -1.6454    1.9634   -2.6043 H   0  0  0  0  0  0  0  0  0  0  0  0
    0.2243    0.2333    1.7099 C   0  0  0  0  0  0  0  0  0  0  0  0
   -0.6535    0.2279    2.5730 O   0  0  0  0  0  0  0  0  0  0  0  0
    1.4788    0.6141    1.9697 N   0  0  0  0  0  0  0  0  0  0  0  0
    2.1197    0.6611    1.1840 H   0  0  0  0  0  0  0  0  0  0  0  0
    1.9601    1.0387    3.2830 C   0  0  0  0  0  0  0  0  0  0  0  0
    1.7708    0.2518    4.0163 H   0  0  0  0  0  0  0  0  0  0  0  0
    3.0311    1.2419    3.2414 H   0  0  0  0  0  0  0  0  0  0  0  0
    1.4330    1.9421    3.5943 H   0  0  0  0  0  0  0  0  0  0  0  0
  5  6  2  0  0  0  0
  5  7  1  0  0  0  0
  2  3  1  0  0  0  0
  2  4  1  0  0  0  0
  2  5  1  0  0  0  0
  1  2  1  0  0  0  0
 19 20  2  0  0  0  0
 19 21  1  0  0  0  0
 16 17  1  0  0  0  0
 16 18  1  0  0  0  0
 14 15  2  0  0  0  0
 14 16  1  0  0  0  0
 11 12  1  0  0  0  0
 11 13  1  0  0  0  0
 11 14  1  0  0  0  0
  9 10  1  0  0  0  0
  9 11  1  0  0  0  0
  9 19  1  0  0  0  0
  7  8  1  0  0  0  0
  7  9  1  0  0  0  0
 23 24  1  0  0  0  0
 23 25  1  0  0  0  0
 23 26  1  0  0  0  0
 21 22  1  0  0  0  0
 21 23  1  0  0  0  0
M  END
$$$$
default_name
  -OEChem-01062215323D

 26 25  0     1  0  0  0  0  0999 V2000
   -3.0232   -3.6924    1.0038 H   0  0  0  0  0  0  0  0  0  0  0  0
   -3.0082   -2.6684    0.6318 C   0  0  0  0  0  0  0  0  0  0  0  0
   -3.6332   -2.0414    1.2658 H   0  0  0  0  0  0  0  0  0  0  0  0
   -3.3762   -2.6444   -0.3912 H   0  0  0  0  0  0  0  0  0  0  0  0
   -1.5882   -2.1554    0.6658 C   0  0  0  0  0  0  0  0  0  0  0  0
   -0.6832   -2.8764    1.0638 O   0  0  0  0  0  0  0  0  0  0  0  0
   -1.3952   -0.9084    0.2428 N   0  0  0  0  0  0  0  0  0  0  0  0
   -2.1972   -0.3644   -0.0422 H   0  0  0  0  0  0  0  0  0  0  0  0
   -0.1122   -0.1994    0.2658 C   0  0  1  0  0  0  0  0  0  0  0  0
    0.6131   -0.7748   -0.3153 H   0  0  0  0  0  0  0  0  0  0  0  0
   -0.2973    1.1841   -0.3966 C   0  0  0  0  0  0  0  0  0  0  0  0
   -1.1694    1.6735    0.0357 H   0  0  0  0  0  0  0  0  0  0  0  0
    0.5773    1.7999   -0.1924 H   0  0  0  0  0  0  0  0  0  0  0  0
   -0.5246    1.1250   -1.8985 C   0  0  0  0  0  0  0  0  0  0  0  0
    0.1002    0.3820   -2.6353 O   0  0  0  0  0  0  0  0  0  0  0  0
   -1.4306    1.9212   -2.4119 N   0  0  0  0  0  0  0  0  0  0  0  0
   -1.5713    1.8478   -3.4041 H   0  0  0  0  0  0  0  0  0  0  0  0
   -1.9713    2.5279   -1.8249 H   0  0  0  0  0  0  0  0  0  0  0  0
    0.4075   -0.0985    1.7169 C   0  0  0  0  0  0  0  0  0  0  0  0
   -0.2533   -0.5739    2.6403 O   0  0  0  0  0  0  0  0  0  0  0  0
    1.5736    0.5225    1.9190 N   0  0  0  0  0  0  0  0  0  0  0  0
    2.0150    0.9514    1.1118 H   0  0  0  0  0  0  0  0  0  0  0  0
    2.2067    0.6904    3.2258 C   0  0  0  0  0  0  0  0  0  0  0  0
    2.3481   -0.2860    3.6943 H   0  0  0  0  0  0  0  0  0  0  0  0
    3.1754    1.1790    3.1125 H   0  0  0  0  0  0  0  0  0  0  0  0
    1.5685    1.2986    3.8691 H   0  0  0  0  0  0  0  0  0  0  0  0
  5  6  2  0  0  0  0
  5  7  1  0  0  0  0
  2  3  1  0  0  0  0
  2  4  1  0  0  0  0
  2  5  1  0  0  0  0
  1  2  1  0  0  0  0
 19 20  2  0  0  0  0
 19 21  1  0  0  0  0
 16 17  1  0  0  0  0
 16 18  1  0  0  0  0
 14 15  2  0  0  0  0
 14 16  1  0  0  0  0
 11 12  1  0  0  0  0
 11 13  1  0  0  0  0
 11 14  1  0  0  0  0
  9 10  1  0  0  0  0
  9 11  1  0  0  0  0
  9 19  1  0  0  0  0
  7  8  1  0  0  0  0
  7  9  1  0  0  0  0
 23 24  1  0  0  0  0
 23 25  1  0  0  0  0
 23 26  1  0  0  0  0
 21 22  1  0  0  0  0
 21 23  1  0  0  0  0
M  END
$$$$
default_name
  -OEChem-01062215323D

 26 25  0     1  0  0  0  0  0999 V2000
   -3.0232   -3.6924    1.0038 H   0  0  0  0  0  0  0  0  0  0  0  0
   -3.0082   -2.6684    0.6318 C   0  0  0  0  0  0  0  0  0  0  0  0
   -3.6332   -2.0414    1.2658 H   0  0  0  0  0  0  0  0  0  0  0  0
   -3.3762   -2.6444   -0.3912 H   0  0  0  0  0  0  0  0  0  0  0  0
   -1.5882   -2.1554    0.6658 C   0  0  0  0  0  0  0  0  0  0  0  0
   -0.6832   -2.8764    1.0638 O   0  0  0  0  0  0  0  0  0  0  0  0
   -1.3952   -0.9084    0.2428 N   0  0  0  0  0  0  0  0  0  0  0  0
   -2.1972   -0.3644   -0.0422 H   0  0  0  0  0  0  0  0  0  0  0  0
   -0.1122   -0.1994    0.2658 C   0  0  1  0  0  0  0  0  0  0  0  0
    0.6131   -0.7748   -0.3153 H   0  0  0  0  0  0  0  0  0  0  0  0
   -0.2973    1.1841   -0.3966 C   0  0  0  0  0  0  0  0  0  0  0  0
   -1.1694    1.6735    0.0357 H   0  0  0  0  0  0  0  0  0  0  0  0
    0.5773    1.7999   -0.1924 H   0  0  0  0  0  0  0  0  0  0  0  0
   -0.5246    1.1250   -1.8985 C   0  0  0  0  0  0  0  0  0  0  0  0
    0.1002    0.3820   -2.6353 O   0  0  0  0  0  0  0  0  0  0  0  0
   -1.4306    1.9212   -2.4119 N   0  0  0  0  0  0  0  0  0  0  0  0
   -1.5713    1.8478   -3.4041 H   0  0  0  0  0  0  0  0  0  0  0  0
   -1.9713    2.5279   -1.8249 H   0  0  0  0  0  0  0  0  0  0  0  0
    0.4075   -0.0985    1.7169 C   0  0  0  0  0  0  0  0  0  0  0  0
   -0.0925   -0.7974    2.5983 O   0  0  0  0  0  0  0  0  0  0  0  0
    1.3934    0.7686    1.9664 N   0  0  0  0  0  0  0  0  0  0  0  0
    1.6952    1.3592    1.1980 H   0  0  0  0  0  0  0  0  0  0  0  0
    2.0029    0.9742    3.2791 C   0  0  0  0  0  0  0  0  0  0  0  0
    2.3897    0.0256    3.6578 H   0  0  0  0  0  0  0  0  0  0  0  0
    2.8207    1.6921    3.2038 H   0  0  0  0  0  0  0  0  0  0  0  0
    1.2544    1.3515    3.9779 H   0  0  0  0  0  0  0  0  0  0  0  0
  5  6  2  0  0  0  0
  5  7  1  0  0  0  0
  2  3  1  0  0  0  0
  2  4  1  0  0  0  0
  2  5  1  0  0  0  0
  1  2  1  0  0  0  0
 19 20  2  0  0  0  0
 19 21  1  0  0  0  0
 16 17  1  0  0  0  0
 16 18  1  0  0  0  0
 14 15  2  0  0  0  0
 14 16  1  0  0  0  0
 11 12  1  0  0  0  0
 11 13  1  0  0  0  0
 11 14  1  0  0  0  0
  9 10  1  0  0  0  0
  9 11  1  0  0  0  0
  9 19  1  0  0  0  0
  7  8  1  0  0  0  0
  7  9  1  0  0  0  0
 23 24  1  0  0  0  0
 23 25  1  0  0  0  0
 23 26  1  0  0  0  0
 21 22  1  0  0  0  0
 21 23  1  0  0  0  0
M  END
$$$$
default_name
  -OEChem-01062215323D

 26 25  0     1  0  0  0  0  0999 V2000
   -3.0232   -3.6924    1.0038 H   0  0  0  0  0  0  0  0  0  0  0  0
   -3.0082   -2.6684    0.6318 C   0  0  0  0  0  0  0  0  0  0  0  0
   -3.6332   -2.0414    1.2658 H   0  0  0  0  0  0  0  0  0  0  0  0
   -3.3762   -2.6444   -0.3912 H   0  0  0  0  0  0  0  0  0  0  0  0
   -1.5882   -2.1554    0.6658 C   0  0  0  0  0  0  0  0  0  0  0  0
   -0.6832   -2.8764    1.0638 O   0  0  0  0  0  0  0  0  0  0  0  0
   -1.3952   -0.9084    0.2428 N   0  0  0  0  0  0  0  0  0  0  0  0
   -2.1972   -0.3644   -0.0422 H   0  0  0  0  0  0  0  0  0  0  0  0
   -0.1122   -0.1994    0.2658 C   0  0  1  0  0  0  0  0  0  0  0  0
    0.6131   -0.7748   -0.3153 H   0  0  0  0  0  0  0  0  0  0  0  0
   -0.2973    1.1841   -0.3966 C   0  0  0  0  0  0  0  0  0  0  0  0
   -1.1694    1.6735    0.0357 H   0  0  0  0  0  0  0  0  0  0  0  0
    0.5773    1.7999   -0.1924 H   0  0  0  0  0  0  0  0  0  0  0  0
   -0.5246    1.1250   -1.8985 C   0  0  0  0  0  0  0  0  0  0  0  0
    0.1002    0.3820   -2.6353 O   0  0  0  0  0  0  0  0  0  0  0  0
   -1.4306    1.9212   -2.4119 N   0  0  0  0  0  0  0  0  0  0  0  0
   -1.5713    1.8478   -3.4041 H   0  0  0  0  0  0  0  0  0  0  0  0
   -1.9713    2.5279   -1.8249 H   0  0  0  0  0  0  0  0  0  0  0  0
    0.4075   -0.0985    1.7169 C   0  0  0  0  0  0  0  0  0  0  0  0
    0.1164   -0.9706    2.5355 O   0  0  0  0  0  0  0  0  0  0  0  0
    1.1604    0.9585    2.0367 N   0  0  0  0  0  0  0  0  0  0  0  0
    1.2886    1.6679    1.3222 H   0  0  0  0  0  0  0  0  0  0  0  0
    1.7379    1.1941    3.3587 C   0  0  0  0  0  0  0  0  0  0  0  0
    2.3534    0.3398    3.6489 H   0  0  0  0  0  0  0  0  0  0  0  0
    2.3549    2.0935    3.3427 H   0  0  0  0  0  0  0  0  0  0  0  0
    0.9399    1.3166    4.0930 H   0  0  0  0  0  0  0  0  0  0  0  0
  5  6  2  0  0  0  0
  5  7  1  0  0  0  0
  2  3  1  0  0  0  0
  2  4  1  0  0  0  0
  2  5  1  0  0  0  0
  1  2  1  0  0  0  0
 19 20  2  0  0  0  0
 19 21  1  0  0  0  0
 16 17  1  0  0  0  0
 16 18  1  0  0  0  0
 14 15  2  0  0  0  0
 14 16  1  0  0  0  0
 11 12  1  0  0  0  0
 11 13  1  0  0  0  0
 11 14  1  0  0  0  0
  9 10  1  0  0  0  0
  9 11  1  0  0  0  0
  9 19  1  0  0  0  0
  7  8  1  0  0  0  0
  7  9  1  0  0  0  0
 23 24  1  0  0  0  0
 23 25  1  0  0  0  0
 23 26  1  0  0  0  0
 21 22  1  0  0  0  0
 21 23  1  0  0  0  0
M  END
$$$$
default_name
  -OEChem-01062215323D

 26 25  0     1  0  0  0  0  0999 V2000
   -3.0232   -3.6924    1.0038 H   0  0  0  0  0  0  0  0  0  0  0  0
   -3.0082   -2.6684    0.6318 C   0  0  0  0  0  0  0  0  0  0  0  0
   -3.6332   -2.0414    1.2658 H   0  0  0  0  0  0  0  0  0  0  0  0
   -3.3762   -2.6444   -0.3912 H   0  0  0  0  0  0  0  0  0  0  0  0
   -1.5882   -2.1554    0.6658 C   0  0  0  0  0  0  0  0  0  0  0  0
   -0.6832   -2.8764    1.0638 O   0  0  0  0  0  0  0  0  0  0  0  0
   -1.3952   -0.9084    0.2428 N   0  0  0  0  0  0  0  0  0  0  0  0
   -2.1972   -0.3644   -0.0422 H   0  0  0  0  0  0  0  0  0  0  0  0
   -0.1122   -0.1994    0.2658 C   0  0  1  0  0  0  0  0  0  0  0  0
    0.6131   -0.7748   -0.3153 H   0  0  0  0  0  0  0  0  0  0  0  0
   -0.2973    1.1841   -0.3966 C   0  0  0  0  0  0  0  0  0  0  0  0
   -1.1694    1.6735    0.0357 H   0  0  0  0  0  0  0  0  0  0  0  0
    0.5773    1.7999   -0.1924 H   0  0  0  0  0  0  0  0  0  0  0  0
   -0.5246    1.1250   -1.8985 C   0  0  0  0  0  0  0  0  0  0  0  0
    0.1002    0.3820   -2.6353 O   0  0  0  0  0  0  0  0  0  0  0  0
   -1.4306    1.9212   -2.4119 N   0  0  0  0  0  0  0  0  0  0  0  0
   -1.5713    1.8478   -3.4041 H   0  0  0  0  0  0  0  0  0  0  0  0
   -1.9713    2.5279   -1.8249 H   0  0  0  0  0  0  0  0  0  0  0  0
    0.4075   -0.0985    1.7169 C   0  0  0  0  0  0  0  0  0  0  0  0
    0.3592   -1.0816    2.4563 O   0  0  0  0  0  0  0  0  0  0  0  0
    0.8903    1.0790    2.1251 N   0  0  0  0  0  0  0  0  0  0  0  0
    0.8229    1.8564    1.4759 H   0  0  0  0  0  0  0  0  0  0  0  0
    1.4298    1.3351    3.4593 C   0  0  0  0  0  0  0  0  0  0  0  0
    2.2418    0.6353    3.6683 H   0  0  0  0  0  0  0  0  0  0  0  0
    1.8097    2.3559    3.5198 H   0  0  0  0  0  0  0  0  0  0  0  0
    0.6465    1.1965    4.2064 H   0  0  0  0  0  0  0  0  0  0  0  0
  5  6  2  0  0  0  0
  5  7  1  0  0  0  0
  2  3  1  0  0  0  0
  2  4  1  0  0  0  0
  2  5  1  0  0  0  0
  1  2  1  0  0  0  0
 19 20  2  0  0  0  0
 19 21  1  0  0  0  0
 16 17  1  0  0  0  0
 16 18  1  0  0  0  0
 14 15  2  0  0  0  0
 14 16  1  0  0  0  0
 11 12  1  0  0  0  0
 11 13  1  0  0  0  0
 11 14  1  0  0  0  0
  9 10  1  0  0  0  0
  9 11  1  0  0  0  0
  9 19  1  0  0  0  0
  7  8  1  0  0  0  0
  7  9  1  0  0  0  0
 23 24  1  0  0  0  0
 23 25  1  0  0  0  0
 23 26  1  0  0  0  0
 21 22  1  0  0  0  0
 21 23  1  0  0  0  0
M  END
$$$$
default_name
  -OEChem-01062215323D

 26 25  0     1  0  0  0  0  0999 V2000
   -3.0232   -3.6924    1.0038 H   0  0  0  0  0  0  0  0  0  0  0  0
   -3.0082   -2.6684    0.6318 C   0  0  0  0  0  0  0  0  0  0  0  0
   -3.6332   -2.0414    1.2658 H   0  0  0  0  0  0  0  0  0  0  0  0
   -3.3762   -2.6444   -0.3912 H   0  0  0  0  0  0  0  0  0  0  0  0
   -1.5882   -2.1554    0.6658 C   0  0  0  0  0  0  0  0  0  0  0  0
   -0.6832   -2.8764    1.0638 O   0  0  0  0  0  0  0  0  0  0  0  0
   -1.3952   -0.9084    0.2428 N   0  0  0  0  0  0  0  0  0  0  0  0
   -2.1972   -0.3644   -0.0422 H   0  0  0  0  0  0  0  0  0  0  0  0
   -0.1122   -0.1994    0.2658 C   0  0  1  0  0  0  0  0  0  0  0  0
    0.6131   -0.7748   -0.3153 H   0  0  0  0  0  0  0  0  0  0  0  0
   -0.2973    1.1841   -0.3966 C   0  0  0  0  0  0  0  0  0  0  0  0
   -1.1694    1.6735    0.0357 H   0  0  0  0  0  0  0  0  0  0  0  0
    0.5773    1.7999   -0.1924 H   0  0  0  0  0  0  0  0  0  0  0  0
   -0.5246    1.1250   -1.8985 C   0  0  0  0  0  0  0  0  0  0  0  0
    0.1002    0.3820   -2.6353 O   0  0  0  0  0  0  0  0  0  0  0  0
   -1.4306    1.9212   -2.4119 N   0  0  0  0  0  0  0  0  0  0  0  0
   -1.5713    1.8478   -3.4041 H   0  0  0  0  0  0  0  0  0  0  0  0
   -1.9713    2.5279   -1.8249 H   0  0  0  0  0  0  0  0  0  0  0  0
    0.4075   -0.0985    1.7169 C   0  0  0  0  0  0  0  0  0  0  0  0
    0.6194   -1.1228    2.3659 O   0  0  0  0  0  0  0  0  0  0  0  0
    0.6016    1.1221    2.2255 N   0  0  0  0  0  0  0  0  0  0  0  0
    0.3298    1.9119    1.6486 H   0  0  0  0  0  0  0  0  0  0  0  0
    1.0996    1.3877    3.5739 C   0  0  0  0  0  0  0  0  0  0  0  0
    2.0625    0.8920    3.7147 H   0  0  0  0  0  0  0  0  0  0  0  0
    1.2223    2.4614    3.7228 H   0  0  0  0  0  0  0  0  0  0  0  0
    0.3943    0.9993    4.3104 H   0  0  0  0  0  0  0  0  0  0  0  0
  5  6  2  0  0  0  0
  5  7  1  0  0  0  0
  2  3  1  0  0  0  0
  2  4  1  0  0  0  0
  2  5  1  0  0  0  0
  1  2  1  0  0  0  0
 19 20  2  0  0  0  0
 19 21  1  0  0  0  0
 16 17  1  0  0  0  0
 16 18  1  0  0  0  0
 14 15  2  0  0  0  0
 14 16  1  0  0  0  0
 11 12  1  0  0  0  0
 11 13  1  0  0  0  0
 11 14  1  0  0  0  0
  9 10  1  0  0  0  0
  9 11  1  0  0  0  0
  9 19  1  0  0  0  0
  7  8  1  0  0  0  0
  7  9  1  0  0  0  0
 23 24  1  0  0  0  0
 23 25  1  0  0  0  0
 23 26  1  0  0  0  0
 21 22  1  0  0  0  0
 21 23  1  0  0  0  0
M  END
$$$$
default_name
  -OEChem-01062215323D

 26 25  0     1  0  0  0  0  0999 V2000
   -3.0232   -3.6924    1.0038 H   0  0  0  0  0  0  0  0  0  0  0  0
   -3.0082   -2.6684    0.6318 C   0  0  0  0  0  0  0  0  0  0  0  0
   -3.6332   -2.0414    1.2658 H   0  0  0  0  0  0  0  0  0  0  0  0
   -3.3762   -2.6444   -0.3912 H   0  0  0  0  0  0  0  0  0  0  0  0
   -1.5882   -2.1554    0.6658 C   0  0  0  0  0  0  0  0  0  0  0  0
   -0.6832   -2.8764    1.0638 O   0  0  0  0  0  0  0  0  0  0  0  0
   -1.3952   -0.9084    0.2428 N   0  0  0  0  0  0  0  0  0  0  0  0
   -2.1972   -0.3644   -0.0422 H   0  0  0  0  0  0  0  0  0  0  0  0
   -0.1122   -0.1994    0.2658 C   0  0  1  0  0  0  0  0  0  0  0  0
    0.6131   -0.7748   -0.3153 H   0  0  0  0  0  0  0  0  0  0  0  0
   -0.2973    1.1841   -0.3966 C   0  0  0  0  0  0  0  0  0  0  0  0
   -1.1694    1.6735    0.0357 H   0  0  0  0  0  0  0  0  0  0  0  0
    0.5773    1.7999   -0.1924 H   0  0  0  0  0  0  0  0  0  0  0  0
   -0.5246    1.1250   -1.8985 C   0  0  0  0  0  0  0  0  0  0  0  0
    0.1002    0.3820   -2.6353 O   0  0  0  0  0  0  0  0  0  0  0  0
   -1.4306    1.9212   -2.4119 N   0  0  0  0  0  0  0  0  0  0  0  0
   -1.5713    1.8478   -3.4041 H   0  0  0  0  0  0  0  0  0  0  0  0
   -1.9713    2.5279   -1.8249 H   0  0  0  0  0  0  0  0  0  0  0  0
    0.4075   -0.0985    1.7169 C   0  0  0  0  0  0  0  0  0  0  0  0
    0.8793   -1.0916    2.2707 O   0  0  0  0  0  0  0  0  0  0  0  0
    0.3139    1.0848    2.3311 N   0  0  0  0  0  0  0  0  0  0  0  0
   -0.1571    1.8305    1.8286 H   0  0  0  0  0  0  0  0  0  0  0  0
    0.7698    1.3483    3.6947 C   0  0  0  0  0  0  0  0  0  0  0  0
    1.8277    1.0922    3.7849 H   0  0  0  0  0  0  0  0  0  0  0  0
    0.6327    2.4028    3.9381 H   0  0  0  0  0  0  0  0  0  0  0  0
    0.2004    0.7384    4.3980 H   0  0  0  0  0  0  0  0  0  0  0  0
  5  6  2  0  0  0  0
  5  7  1  0  0  0  0
  2  3  1  0  0  0  0
  2  4  1  0  0  0  0
  2  5  1  0  0  0  0
  1  2  1  0  0  0  0
 19 20  2  0  0  0  0
 19 21  1  0  0  0  0
 16 17  1  0  0  0  0
 16 18  1  0  0  0  0
 14 15  2  0  0  0  0
 14 16  1  0  0  0  0
 11 12  1  0  0  0  0
 11 13  1  0  0  0  0
 11 14  1  0  0  0  0
  9 10  1  0  0  0  0
  9 11  1  0  0  0  0
  9 19  1  0  0  0  0
  7  8  1  0  0  0  0
  7  9  1  0  0  0  0
 23 24  1  0  0  0  0
 23 25  1  0  0  0  0
 23 26  1  0  0  0  0
 21 22  1  0  0  0  0
 21 23  1  0  0  0  0
M  END
$$$$
default_name
  -OEChem-01062215323D

 26 25  0     1  0  0  0  0  0999 V2000
   -3.0232   -3.6924    1.0038 H   0  0  0  0  0  0  0  0  0  0  0  0
   -3.0082   -2.6684    0.6318 C   0  0  0  0  0  0  0  0  0  0  0  0
   -3.6332   -2.0414    1.2658 H   0  0  0  0  0  0  0  0  0  0  0  0
   -3.3762   -2.6444   -0.3912 H   0  0  0  0  0  0  0  0  0  0  0  0
   -1.5882   -2.1554    0.6658 C   0  0  0  0  0  0  0  0  0  0  0  0
   -0.6832   -2.8764    1.0638 O   0  0  0  0  0  0  0  0  0  0  0  0
   -1.3952   -0.9084    0.2428 N   0  0  0  0  0  0  0  0  0  0  0  0
   -2.1972   -0.3644   -0.0422 H   0  0  0  0  0  0  0  0  0  0  0  0
   -0.1122   -0.1994    0.2658 C   0  0  1  0  0  0  0  0  0  0  0  0
    0.6131   -0.7748   -0.3153 H   0  0  0  0  0  0  0  0  0  0  0  0
   -0.2973    1.1841   -0.3966 C   0  0  0  0  0  0  0  0  0  0  0  0
   -1.1694    1.6735    0.0357 H   0  0  0  0  0  0  0  0  0  0  0  0
    0.5773    1.7999   -0.1924 H   0  0  0  0  0  0  0  0  0  0  0  0
   -0.5246    1.1250   -1.8985 C   0  0  0  0  0  0  0  0  0  0  0  0
    0.1002    0.3820   -2.6353 O   0  0  0  0  0  0  0  0  0  0  0  0
   -1.4306    1.9212   -2.4119 N   0  0  0  0  0  0  0  0  0  0  0  0
   -1.5713    1.8478   -3.4041 H   0  0  0  0  0  0  0  0  0  0  0  0
   -1.9713    2.5279   -1.8249 H   0  0  0  0  0  0  0  0  0  0  0  0
    0.4075   -0.0985    1.7169 C   0  0  0  0  0  0  0  0  0  0  0  0
    1.1211   -0.9899    2.1770 O   0  0  0  0  0  0  0  0  0  0  0  0
    0.0469    0.9696    2.4347 N   0  0  0  0  0  0  0  0  0  0  0  0
   -0.6045    1.6178    2.0037 H   0  0  0  0  0  0  0  0  0  0  0  0
    0.4629    1.2195    3.8136 C   0  0  0  0  0  0  0  0  0  0  0  0
    1.5534    1.2224    3.8741 H   0  0  0  0  0  0  0  0  0  0  0  0
    0.0811    2.1841    4.1508 H   0  0  0  0  0  0  0  0  0  0  0  0
    0.0780    0.4316    4.4632 H   0  0  0  0  0  0  0  0  0  0  0  0
  5  6  2  0  0  0  0
  5  7  1  0  0  0  0
  2  3  1  0  0  0  0
  2  4  1  0  0  0  0
  2  5  1  0  0  0  0
  1  2  1  0  0  0  0
 19 20  2  0  0  0  0
 19 21  1  0  0  0  0
 16 17  1  0  0  0  0
 16 18  1  0  0  0  0
 14 15  2  0  0  0  0
 14 16  1  0  0  0  0
 11 12  1  0  0  0  0
 11 13  1  0  0  0  0
 11 14  1  0  0  0  0
  9 10  1  0  0  0  0
  9 11  1  0  0  0  0
  9 19  1  0  0  0  0
  7  8  1  0  0  0  0
  7  9  1  0  0  0  0
 23 24  1  0  0  0  0
 23 25  1  0  0  0  0
 23 26  1  0  0  0  0
 21 22  1  0  0  0  0
 21 23  1  0  0  0  0
M  END
$$$$
default_name
  -OEChem-01062215323D

 26 25  0     1  0  0  0  0  0999 V2000
   -3.0232   -3.6924    1.0038 H   0  0  0  0  0  0  0  0  0  0  0  0
   -3.0082   -2.6684    0.6318 C   0  0  0  0  0  0  0  0  0  0  0  0
   -3.6332   -2.0414    1.2658 H   0  0  0  0  0  0  0  0  0  0  0  0
   -3.3762   -2.6444   -0.3912 H   0  0  0  0  0  0  0  0  0  0  0  0
   -1.5882   -2.1554    0.6658 C   0  0  0  0  0  0  0  0  0  0  0  0
   -0.6832   -2.8764    1.0638 O   0  0  0  0  0  0  0  0  0  0  0  0
   -1.3952   -0.9084    0.2428 N   0  0  0  0  0  0  0  0  0  0  0  0
   -2.1972   -0.3644   -0.0422 H   0  0  0  0  0  0  0  0  0  0  0  0
   -0.1122   -0.1994    0.2658 C   0  0  1  0  0  0  0  0  0  0  0  0
    0.6131   -0.7748   -0.3153 H   0  0  0  0  0  0  0  0  0  0  0  0
   -0.2973    1.1841   -0.3966 C   0  0  0  0  0  0  0  0  0  0  0  0
   -1.1694    1.6735    0.0357 H   0  0  0  0  0  0  0  0  0  0  0  0
    0.5773    1.7999   -0.1924 H   0  0  0  0  0  0  0  0  0  0  0  0
   -0.5246    1.1250   -1.8985 C   0  0  0  0  0  0  0  0  0  0  0  0
    0.1002    0.3820   -2.6353 O   0  0  0  0  0  0  0  0  0  0  0  0
   -1.4306    1.9212   -2.4119 N   0  0  0  0  0  0  0  0  0  0  0  0
   -1.5713    1.8478   -3.4041 H   0  0  0  0  0  0  0  0  0  0  0  0
   -1.9713    2.5279   -1.8249 H   0  0  0  0  0  0  0  0  0  0  0  0
    0.4075   -0.0985    1.7169 C   0  0  0  0  0  0  0  0  0  0  0  0
    1.3283   -0.8247    2.0913 O   0  0  0  0  0  0  0  0  0  0  0  0
   -0.1812    0.7844    2.5293 N   0  0  0  0  0  0  0  0  0  0  0  0
   -0.9820    1.2884    2.1618 H   0  0  0  0  0  0  0  0  0  0  0  0
    0.1998    1.0101    3.9224 C   0  0  0  0  0  0  0  0  0  0  0  0
    1.2583    1.2737    3.9762 H   0  0  0  0  0  0  0  0  0  0  0  0
   -0.3950    1.8201    4.3466 H   0  0  0  0  0  0  0  0  0  0  0  0
    0.0354    0.0998    4.5015 H   0  0  0  0  0  0  0  0  0  0  0  0
  5  6  2  0  0  0  0
  5  7  1  0  0  0  0
  2  3  1  0  0  0  0
  2  4  1  0  0  0  0
  2  5  1  0  0  0  0
  1  2  1  0  0  0  0
 19 20  2  0  0  0  0
 19 21  1  0  0  0  0
 16 17  1  0  0  0  0
 16 18  1  0  0  0  0
 14 15  2  0  0  0  0
 14 16  1  0  0  0  0
 11 12  1  0  0  0  0
 11 13  1  0  0  0  0
 11 14  1  0  0  0  0
  9 10  1  0  0  0  0
  9 11  1  0  0  0  0
  9 19  1  0  0  0  0
  7  8  1  0  0  0  0
  7  9  1  0  0  0  0
 23 24  1  0  0  0  0
 23 25  1  0  0  0  0
 23 26  1  0  0  0  0
 21 22  1  0  0  0  0
 21 23  1  0  0  0  0
M  END
$$$$
default_name
  -OEChem-01062215323D

 26 25  0     1  0  0  0  0  0999 V2000
   -3.0232   -3.6924    1.0038 H   0  0  0  0  0  0  0  0  0  0  0  0
   -3.0082   -2.6684    0.6318 C   0  0  0  0  0  0  0  0  0  0  0  0
   -3.6332   -2.0414    1.2658 H   0  0  0  0  0  0  0  0  0  0  0  0
   -3.3762   -2.6444   -0.3912 H   0  0  0  0  0  0  0  0  0  0  0  0
   -1.5882   -2.1554    0.6658 C   0  0  0  0  0  0  0  0  0  0  0  0
   -0.6832   -2.8764    1.0638 O   0  0  0  0  0  0  0  0  0  0  0  0
   -1.3952   -0.9084    0.2428 N   0  0  0  0  0  0  0  0  0  0  0  0
   -2.1972   -0.3644   -0.0422 H   0  0  0  0  0  0  0  0  0  0  0  0
   -0.1122   -0.1994    0.2658 C   0  0  1  0  0  0  0  0  0  0  0  0
    0.6131   -0.7748   -0.3153 H   0  0  0  0  0  0  0  0  0  0  0  0
   -0.2973    1.1841   -0.3966 C   0  0  0  0  0  0  0  0  0  0  0  0
   -1.1694    1.6735    0.0357 H   0  0  0  0  0  0  0  0  0  0  0  0
    0.5773    1.7999   -0.1924 H   0  0  0  0  0  0  0  0  0  0  0  0
   -0.5246    1.1250   -1.8985 C   0  0  0  0  0  0  0  0  0  0  0  0
    0.1002    0.3820   -2.6353 O   0  0  0  0  0  0  0  0  0  0  0  0
   -1.4306    1.9212   -2.4119 N   0  0  0  0  0  0  0  0  0  0  0  0
   -1.5713    1.8478   -3.4041 H   0  0  0  0  0  0  0  0  0  0  0  0
   -1.9713    2.5279   -1.8249 H   0  0  0  0  0  0  0  0  0  0  0  0
    0.4075   -0.0985    1.7169 C   0  0  0  0  0  0  0  0  0  0  0  0
    1.4869   -0.6073    2.0194 O   0  0  0  0  0  0  0  0  0  0  0  0
   -0.3550    0.5418    2.6084 N   0  0  0  0  0  0  0  0  0  0  0  0
   -1.2639    0.8647    2.2922 H   0  0  0  0  0  0  0  0  0  0  0  0
   -0.0016    0.7343    4.0137 C   0  0  0  0  0  0  0  0  0  0  0  0
    0.9625    1.2426    4.0843 H   0  0  0  0  0  0  0  0  0  0  0  0
   -0.7630    1.3358    4.5121 H   0  0  0  0  0  0  0  0  0  0  0  0
    0.0757   -0.2343    4.5103 H   0  0  0  0  0  0  0  0  0  0  0  0
  5  6  2  0  0  0  0
  5  7  1  0  0  0  0
  2  3  1  0  0  0  0
  2  4  1  0  0  0  0
  2  5  1  0  0  0  0
  1  2  1  0  0  0  0
 19 20  2  0  0  0  0
 19 21  1  0  0  0  0
 16 17  1  0  0  0  0
 16 18  1  0  0  0  0
 14 15  2  0  0  0  0
 14 16  1  0  0  0  0
 11 12  1  0  0  0  0
 11 13  1  0  0  0  0
 11 14  1  0  0  0  0
  9 10  1  0  0  0  0
  9 11  1  0  0  0  0
  9 19  1  0  0  0  0
  7  8  1  0  0  0  0
  7  9  1  0  0  0  0
 23 24  1  0  0  0  0
 23 25  1  0  0  0  0
 23 26  1  0  0  0  0
 21 22  1  0  0  0  0
 21 23  1  0  0  0  0
M  END
$$$$
default_name
  -OEChem-01062215323D

 26 25  0     1  0  0  0  0  0999 V2000
   -3.0232   -3.6924    1.0038 H   0  0  0  0  0  0  0  0  0  0  0  0
   -3.0082   -2.6684    0.6318 C   0  0  0  0  0  0  0  0  0  0  0  0
   -3.6332   -2.0414    1.2658 H   0  0  0  0  0  0  0  0  0  0  0  0
   -3.3762   -2.6444   -0.3912 H   0  0  0  0  0  0  0  0  0  0  0  0
   -1.5882   -2.1554    0.6658 C   0  0  0  0  0  0  0  0  0  0  0  0
   -0.6832   -2.8764    1.0638 O   0  0  0  0  0  0  0  0  0  0  0  0
   -1.3952   -0.9084    0.2428 N   0  0  0  0  0  0  0  0  0  0  0  0
   -2.1972   -0.3644   -0.0422 H   0  0  0  0  0  0  0  0  0  0  0  0
   -0.1122   -0.1994    0.2658 C   0  0  1  0  0  0  0  0  0  0  0  0
    0.6131   -0.7748   -0.3153 H   0  0  0  0  0  0  0  0  0  0  0  0
   -0.2973    1.1841   -0.3966 C   0  0  0  0  0  0  0  0  0  0  0  0
   -1.1694    1.6735    0.0357 H   0  0  0  0  0  0  0  0  0  0  0  0
    0.5773    1.7999   -0.1924 H   0  0  0  0  0  0  0  0  0  0  0  0
   -0.5246    1.1250   -1.8985 C   0  0  0  0  0  0  0  0  0  0  0  0
    0.1002    0.3820   -2.6353 O   0  0  0  0  0  0  0  0  0  0  0  0
   -1.4306    1.9212   -2.4119 N   0  0  0  0  0  0  0  0  0  0  0  0
   -1.5713    1.8478   -3.4041 H   0  0  0  0  0  0  0  0  0  0  0  0
   -1.9713    2.5279   -1.8249 H   0  0  0  0  0  0  0  0  0  0  0  0
    0.4075   -0.0985    1.7169 C   0  0  0  0  0  0  0  0  0  0  0  0
    1.5860   -0.3526    1.9662 O   0  0  0  0  0  0  0  0  0  0  0  0
   -0.4625    0.2583    2.6666 N   0  0  0  0  0  0  0  0  0  0  0  0
   -1.4309    0.3754    2.3860 H   0  0  0  0  0  0  0  0  0  0  0  0
   -0.1275    0.4111    4.0813 C   0  0  0  0  0  0  0  0  0  0  0  0
    0.6862    1.1312    4.1910 H   0  0  0  0  0  0  0  0  0  0  0  0
   -0.9980    0.7641    4.6360 H   0  0  0  0  0  0  0  0  0  0  0  0
    0.1959   -0.5481    4.4891 H   0  0  0  0  0  0  0  0  0  0  0  0
  5  6  2  0  0  0  0
  5  7  1  0  0  0  0
  2  3  1  0  0  0  0
  2  4  1  0  0  0  0
  2  5  1  0  0  0  0
  1  2  1  0  0  0  0
 19 20  2  0  0  0  0
 19 21  1  0  0  0  0
 16 17  1  0  0  0  0
 16 18  1  0  0  0  0
 14 15  2  0  0  0  0
 14 16  1  0  0  0  0
 11 12  1  0  0  0  0
 11 13  1  0  0  0  0
 11 14  1  0  0  0  0
  9 10  1  0  0  0  0
  9 11  1  0  0  0  0
  9 19  1  0  0  0  0
  7  8  1  0  0  0  0
  7  9  1  0  0  0  0
 23 24  1  0  0  0  0
 23 25  1  0  0  0  0
 23 26  1  0  0  0  0
 21 22  1  0  0  0  0
 21 23  1  0  0  0  0
M  END
$$$$
default_name
  -OEChem-01062215323D

 26 25  0     1  0  0  0  0  0999 V2000
   -3.0232   -3.6924    1.0038 H   0  0  0  0  0  0  0  0  0  0  0  0
   -3.0082   -2.6684    0.6318 C   0  0  0  0  0  0  0  0  0  0  0  0
   -3.6332   -2.0414    1.2658 H   0  0  0  0  0  0  0  0  0  0  0  0
   -3.3762   -2.6444   -0.3912 H   0  0  0  0  0  0  0  0  0  0  0  0
   -1.5882   -2.1554    0.6658 C   0  0  0  0  0  0  0  0  0  0  0  0
   -0.6832   -2.8764    1.0638 O   0  0  0  0  0  0  0  0  0  0  0  0
   -1.3952   -0.9084    0.2428 N   0  0  0  0  0  0  0  0  0  0  0  0
   -2.1972   -0.3644   -0.0422 H   0  0  0  0  0  0  0  0  0  0  0  0
   -0.1122   -0.1994    0.2658 C   0  0  1  0  0  0  0  0  0  0  0  0
    0.6131   -0.7748   -0.3153 H   0  0  0  0  0  0  0  0  0  0  0  0
   -0.2973    1.1841   -0.3966 C   0  0  0  0  0  0  0  0  0  0  0  0
   -1.1694    1.6735    0.0357 H   0  0  0  0  0  0  0  0  0  0  0  0
    0.5773    1.7999   -0.1924 H   0  0  0  0  0  0  0  0  0  0  0  0
   -0.5246    1.1250   -1.8985 C   0  0  0  0  0  0  0  0  0  0  0  0
    0.1002    0.3820   -2.6353 O   0  0  0  0  0  0  0  0  0  0  0  0
   -1.4306    1.9212   -2.4119 N   0  0  0  0  0  0  0  0  0  0  0  0
   -1.5713    1.8478   -3.4041 H   0  0  0  0  0  0  0  0  0  0  0  0
   -1.9713    2.5279   -1.8249 H   0  0  0  0  0  0  0  0  0  0  0  0
    0.4075   -0.0985    1.7169 C   0  0  0  0  0  0  0  0  0  0  0  0
    1.6188   -0.0777    1.9353 O   0  0  0  0  0  0  0  0  0  0  0  0
   -0.4964   -0.0467    2.7000 N   0  0  0  0  0  0  0  0  0  0  0  0
   -1.4717   -0.1459    2.4369 H   0  0  0  0  0  0  0  0  0  0  0  0
   -0.1695    0.0624    4.1205 C   0  0  0  0  0  0  0  0  0  0  0  0
    0.4481    0.9472    4.2891 H   0  0  0  0  0  0  0  0  0  0  0  0
   -1.0838    0.1439    4.7099 H   0  0  0  0  0  0  0  0  0  0  0  0
    0.3880   -0.8200    4.4392 H   0  0  0  0  0  0  0  0  0  0  0  0
  5  6  2  0  0  0  0
  5  7  1  0  0  0  0
  2  3  1  0  0  0  0
  2  4  1  0  0  0  0
  2  5  1  0  0  0  0
  1  2  1  0  0  0  0
 19 20  2  0  0  0  0
 19 21  1  0  0  0  0
 16 17  1  0  0  0  0
 16 18  1  0  0  0  0
 14 15  2  0  0  0  0
 14 16  1  0  0  0  0
 11 12  1  0  0  0  0
 11 13  1  0  0  0  0
 11 14  1  0  0  0  0
  9 10  1  0  0  0  0
  9 11  1  0  0  0  0
  9 19  1  0  0  0  0
  7  8  1  0  0  0  0
  7  9  1  0  0  0  0
 23 24  1  0  0  0  0
 23 25  1  0  0  0  0
 23 26  1  0  0  0  0
 21 22  1  0  0  0  0
 21 23  1  0  0  0  0
M  END
$$$$
default_name
  -OEChem-01062215323D

 26 25  0     1  0  0  0  0  0999 V2000
   -3.0232   -3.6924    1.0038 H   0  0  0  0  0  0  0  0  0  0  0  0
   -3.0082   -2.6684    0.6318 C   0  0  0  0  0  0  0  0  0  0  0  0
   -3.6332   -2.0414    1.2658 H   0  0  0  0  0  0  0  0  0  0  0  0
   -3.3762   -2.6444   -0.3912 H   0  0  0  0  0  0  0  0  0  0  0  0
   -1.5882   -2.1554    0.6658 C   0  0  0  0  0  0  0  0  0  0  0  0
   -0.6832   -2.8764    1.0638 O   0  0  0  0  0  0  0  0  0  0  0  0
   -1.3952   -0.9084    0.2428 N   0  0  0  0  0  0  0  0  0  0  0  0
   -2.1972   -0.3644   -0.0422 H   0  0  0  0  0  0  0  0  0  0  0  0
   -0.1122   -0.1994    0.2658 C   0  0  1  0  0  0  0  0  0  0  0  0
    0.6131   -0.7748   -0.3153 H   0  0  0  0  0  0  0  0  0  0  0  0
   -0.2973    1.1841   -0.3966 C   0  0  0  0  0  0  0  0  0  0  0  0
   -1.1694    1.6735    0.0357 H   0  0  0  0  0  0  0  0  0  0  0  0
    0.5773    1.7999   -0.1924 H   0  0  0  0  0  0  0  0  0  0  0  0
   -0.5246    1.1250   -1.8985 C   0  0  0  0  0  0  0  0  0  0  0  0
    0.1002    0.3820   -2.6353 O   0  0  0  0  0  0  0  0  0  0  0  0
   -1.4306    1.9212   -2.4119 N   0  0  0  0  0  0  0  0  0  0  0  0
   -1.5713    1.8478   -3.4041 H   0  0  0  0  0  0  0  0  0  0  0  0
   -1.9713    2.5279   -1.8249 H   0  0  0  0  0  0  0  0  0  0  0  0
    0.4075   -0.0985    1.7169 C   0  0  0  0  0  0  0  0  0  0  0  0
    1.5832    0.1984    1.9289 O   0  0  0  0  0  0  0  0  0  0  0  0
   -0.4545   -0.3524    2.7062 N   0  0  0  0  0  0  0  0  0  0  0  0
   -1.3835   -0.6638    2.4413 H   0  0  0  0  0  0  0  0  0  0  0  0
   -0.1245   -0.2881    4.1288 C   0  0  0  0  0  0  0  0  0  0  0  0
    0.2646    0.7030    4.3718 H   0  0  0  0  0  0  0  0  0  0  0  0
   -1.0147   -0.4824    4.7287 H   0  0  0  0  0  0  0  0  0  0  0  0
    0.6388   -1.0317    4.3640 H   0  0  0  0  0  0  0  0  0  0  0  0
  5  6  2  0  0  0  0
  5  7  1  0  0  0  0
  2  3  1  0  0  0  0
  2  4  1  0  0  0  0
  2  5  1  0  0  0  0
  1  2  1  0  0  0  0
 19 20  2  0  0  0  0
 19 21  1  0  0  0  0
 16 17  1  0  0  0  0
 16 18  1  0  0  0  0
 14 15  2  0  0  0  0
 14 16  1  0  0  0  0
 11 12  1  0  0  0  0
 11 13  1  0  0  0  0
 11 14  1  0  0  0  0
  9 10  1  0  0  0  0
  9 11  1  0  0  0  0
  9 19  1  0  0  0  0
  7  8  1  0  0  0  0
  7  9  1  0  0  0  0
 23 24  1  0  0  0  0
 23 25  1  0  0  0  0
 23 26  1  0  0  0  0
 21 22  1  0  0  0  0
 21 23  1  0  0  0  0
M  END
$$$$
default_name
  -OEChem-01062215323D

 26 25  0     1  0  0  0  0  0999 V2000
   -3.0232   -3.6924    1.0038 H   0  0  0  0  0  0  0  0  0  0  0  0
   -3.0082   -2.6684    0.6318 C   0  0  0  0  0  0  0  0  0  0  0  0
   -3.6332   -2.0414    1.2658 H   0  0  0  0  0  0  0  0  0  0  0  0
   -3.3762   -2.6444   -0.3912 H   0  0  0  0  0  0  0  0  0  0  0  0
   -1.5882   -2.1554    0.6658 C   0  0  0  0  0  0  0  0  0  0  0  0
   -0.6832   -2.8764    1.0638 O   0  0  0  0  0  0  0  0  0  0  0  0
   -1.3952   -0.9084    0.2428 N   0  0  0  0  0  0  0  0  0  0  0  0
   -2.1972   -0.3644   -0.0422 H   0  0  0  0  0  0  0  0  0  0  0  0
   -0.1122   -0.1994    0.2658 C   0  0  1  0  0  0  0  0  0  0  0  0
    0.6131   -0.7748   -0.3153 H   0  0  0  0  0  0  0  0  0  0  0  0
   -0.2973    1.1841   -0.3966 C   0  0  0  0  0  0  0  0  0  0  0  0
   -1.1694    1.6735    0.0357 H   0  0  0  0  0  0  0  0  0  0  0  0
    0.5773    1.7999   -0.1924 H   0  0  0  0  0  0  0  0  0  0  0  0
   -0.5246    1.1250   -1.8985 C   0  0  0  0  0  0  0  0  0  0  0  0
    0.1002    0.3820   -2.6353 O   0  0  0  0  0  0  0  0  0  0  0  0
   -1.4306    1.9212   -2.4119 N   0  0  0  0  0  0  0  0  0  0  0  0
   -1.5713    1.8478   -3.4041 H   0  0  0  0  0  0  0  0  0  0  0  0
   -1.9713    2.5279   -1.8249 H   0  0  0  0  0  0  0  0  0  0  0  0
    0.4075   -0.0985    1.7169 C   0  0  0  0  0  0  0  0  0  0  0  0
    1.4816    0.4571    1.9473 O   0  0  0  0  0  0  0  0  0  0  0  0
   -0.3395   -0.6381    2.6849 N   0  0  0  0  0  0  0  0  0  0  0  0
   -1.1724   -1.1430    2.3990 H   0  0  0  0  0  0  0  0  0  0  0  0
    0.0043   -0.6164    4.1055 C   0  0  0  0  0  0  0  0  0  0  0  0
    0.1481    0.4153    4.4335 H   0  0  0  0  0  0  0  0  0  0  0  0
   -0.7953   -1.0722    4.6911 H   0  0  0  0  0  0  0  0  0  0  0  0
    0.9313   -1.1686    4.2688 H   0  0  0  0  0  0  0  0  0  0  0  0
  5  6  2  0  0  0  0
  5  7  1  0  0  0  0
  2  3  1  0  0  0  0
  2  4  1  0  0  0  0
  2  5  1  0  0  0  0
  1  2  1  0  0  0  0
 19 20  2  0  0  0  0
 19 21  1  0  0  0  0
 16 17  1  0  0  0  0
 16 18  1  0  0  0  0
 14 15  2  0  0  0  0
 14 16  1  0  0  0  0
 11 12  1  0  0  0  0
 11 13  1  0  0  0  0
 11 14  1  0  0  0  0
  9 10  1  0  0  0  0
  9 11  1  0  0  0  0
  9 19  1  0  0  0  0
  7  8  1  0  0  0  0
  7  9  1  0  0  0  0
 23 24  1  0  0  0  0
 23 25  1  0  0  0  0
 23 26  1  0  0  0  0
 21 22  1  0  0  0  0
 21 23  1  0  0  0  0
M  END
$$$$
default_name
  -OEChem-01062215323D

 26 25  0     1  0  0  0  0  0999 V2000
   -3.0232   -3.6924    1.0038 H   0  0  0  0  0  0  0  0  0  0  0  0
   -3.0082   -2.6684    0.6318 C   0  0  0  0  0  0  0  0  0  0  0  0
   -3.6332   -2.0414    1.2658 H   0  0  0  0  0  0  0  0  0  0  0  0
   -3.3762   -2.6444   -0.3912 H   0  0  0  0  0  0  0  0  0  0  0  0
   -1.5882   -2.1554    0.6658 C   0  0  0  0  0  0  0  0  0  0  0  0
   -0.6832   -2.8764    1.0638 O   0  0  0  0  0  0  0  0  0  0  0  0
   -1.3952   -0.9084    0.2428 N   0  0  0  0  0  0  0  0  0  0  0  0
   -2.1972   -0.3644   -0.0422 H   0  0  0  0  0  0  0  0  0  0  0  0
   -0.1122   -0.1994    0.2658 C   0  0  1  0  0  0  0  0  0  0  0  0
    0.6131   -0.7748   -0.3153 H   0  0  0  0  0  0  0  0  0  0  0  0
   -0.2973    1.1841   -0.3966 C   0  0  0  0  0  0  0  0  0  0  0  0
   -1.1694    1.6735    0.0357 H   0  0  0  0  0  0  0  0  0  0  0  0
    0.5773    1.7999   -0.1924 H   0  0  0  0  0  0  0  0  0  0  0  0
   -0.5246    1.1250   -1.8985 C   0  0  0  0  0  0  0  0  0  0  0  0
    0.1002    0.3820   -2.6353 O   0  0  0  0  0  0  0  0  0  0  0  0
   -1.4306    1.9212   -2.4119 N   0  0  0  0  0  0  0  0  0  0  0  0
   -1.5713    1.8478   -3.4041 H   0  0  0  0  0  0  0  0  0  0  0  0
   -1.9713    2.5279   -1.8249 H   0  0  0  0  0  0  0  0  0  0  0  0
    0.4075   -0.0985    1.7169 C   0  0  0  0  0  0  0  0  0  0  0  0
    1.3208    0.6806    1.9893 O   0  0  0  0  0  0  0  0  0  0  0  0
   -0.1593   -0.8843    2.6375 N   0  0  0  0  0  0  0  0  0  0  0  0
   -0.8526   -1.5509    2.3128 H   0  0  0  0  0  0  0  0  0  0  0  0
    0.2081   -0.9002    4.0522 C   0  0  0  0  0  0  0  0  0  0  0  0
    0.1066    0.1037    4.4700 H   0  0  0  0  0  0  0  0  0  0  0  0
   -0.4406   -1.5853    4.5997 H   0  0  0  0  0  0  0  0  0  0  0  0
    1.2455   -1.2214    4.1600 H   0  0  0  0  0  0  0  0  0  0  0  0
  5  6  2  0  0  0  0
  5  7  1  0  0  0  0
  2  3  1  0  0  0  0
  2  4  1  0  0  0  0
  2  5  1  0  0  0  0
  1  2  1  0  0  0  0
 19 20  2  0  0  0  0
 19 21  1  0  0  0  0
 16 17  1  0  0  0  0
 16 18  1  0  0  0  0
 14 15  2  0  0  0  0
 14 16  1  0  0  0  0
 11 12  1  0  0  0  0
 11 13  1  0  0  0  0
 11 14  1  0  0  0  0
  9 10  1  0  0  0  0
  9 11  1  0  0  0  0
  9 19  1  0  0  0  0
  7  8  1  0  0  0  0
  7  9  1  0  0  0  0
 23 24  1  0  0  0  0
 23 25  1  0  0  0  0
 23 26  1  0  0  0  0
 21 22  1  0  0  0  0
 21 23  1  0  0  0  0
M  END
$$$$
default_name
  -OEChem-01062215323D

 26 25  0     1  0  0  0  0  0999 V2000
   -3.0232   -3.6924    1.0038 H   0  0  0  0  0  0  0  0  0  0  0  0
   -3.0082   -2.6684    0.6318 C   0  0  0  0  0  0  0  0  0  0  0  0
   -3.6332   -2.0414    1.2658 H   0  0  0  0  0  0  0  0  0  0  0  0
   -3.3762   -2.6444   -0.3912 H   0  0  0  0  0  0  0  0  0  0  0  0
   -1.5882   -2.1554    0.6658 C   0  0  0  0  0  0  0  0  0  0  0  0
   -0.6832   -2.8764    1.0638 O   0  0  0  0  0  0  0  0  0  0  0  0
   -1.3952   -0.9084    0.2428 N   0  0  0  0  0  0  0  0  0  0  0  0
   -2.1972   -0.3644   -0.0422 H   0  0  0  0  0  0  0  0  0  0  0  0
   -0.1122   -0.1994    0.2658 C   0  0  1  0  0  0  0  0  0  0  0  0
    0.6131   -0.7748   -0.3153 H   0  0  0  0  0  0  0  0  0  0  0  0
   -0.2973    1.1841   -0.3966 C   0  0  0  0  0  0  0  0  0  0  0  0
   -1.1694    1.6735    0.0357 H   0  0  0  0  0  0  0  0  0  0  0  0
    0.5773    1.7999   -0.1924 H   0  0  0  0  0  0  0  0  0  0  0  0
   -0.5246    1.1250   -1.8985 C   0  0  0  0  0  0  0  0  0  0  0  0
    0.1002    0.3820   -2.6353 O   0  0  0  0  0  0  0  0  0  0  0  0
   -1.4306    1.9212   -2.4119 N   0  0  0  0  0  0  0  0  0  0  0  0
   -1.5713    1.8478   -3.4041 H   0  0  0  0  0  0  0  0  0  0  0  0
   -1.9713    2.5279   -1.8249 H   0  0  0  0  0  0  0  0  0  0  0  0
    0.4075   -0.0985    1.7169 C   0  0  0  0  0  0  0  0  0  0  0  0
    1.1119    0.8538    2.0521 O   0  0  0  0  0  0  0  0  0  0  0  0
    0.0737   -1.0741    2.5672 N   0  0  0  0  0  0  0  0  0  0  0  0
   -0.4459   -1.8596    2.1886 H   0  0  0  0  0  0  0  0  0  0  0  0
    0.4731   -1.1201    3.9726 C   0  0  0  0  0  0  0  0  0  0  0  0
    0.1428   -0.2105    4.4789 H   0  0  0  0  0  0  0  0  0  0  0  0
    0.0252   -1.9868    4.4608 H   0  0  0  0  0  0  0  0  0  0  0  0
    1.5600   -1.1866    4.0449 H   0  0  0  0  0  0  0  0  0  0  0  0
  5  6  2  0  0  0  0
  5  7  1  0  0  0  0
  2  3  1  0  0  0  0
  2  4  1  0  0  0  0
  2  5  1  0  0  0  0
  1  2  1  0  0  0  0
 19 20  2  0  0  0  0
 19 21  1  0  0  0  0
 16 17  1  0  0  0  0
 16 18  1  0  0  0  0
 14 15  2  0  0  0  0
 14 16  1  0  0  0  0
 11 12  1  0  0  0  0
 11 13  1  0  0  0  0
 11 14  1  0  0  0  0
  9 10  1  0  0  0  0
  9 11  1  0  0  0  0
  9 19  1  0  0  0  0
  7  8  1  0  0  0  0
  7  9  1  0  0  0  0
 23 24  1  0  0  0  0
 23 25  1  0  0  0  0
 23 26  1  0  0  0  0
 21 22  1  0  0  0  0
 21 23  1  0  0  0  0
M  END
$$$$
default_name
  -OEChem-01062215323D

 26 25  0     1  0  0  0  0  0999 V2000
   -3.0232   -3.6924    1.0038 H   0  0  0  0  0  0  0  0  0  0  0  0
   -3.0082   -2.6684    0.6318 C   0  0  0  0  0  0  0  0  0  0  0  0
   -3.6332   -2.0414    1.2658 H   0  0  0  0  0  0  0  0  0  0  0  0
   -3.3762   -2.6444   -0.3912 H   0  0  0  0  0  0  0  0  0  0  0  0
   -1.5882   -2.1554    0.6658 C   0  0  0  0  0  0  0  0  0  0  0  0
   -0.6832   -2.8764    1.0638 O   0  0  0  0  0  0  0  0  0  0  0  0
   -1.3952   -0.9084    0.2428 N   0  0  0  0  0  0  0  0  0  0  0  0
   -2.1972   -0.3644   -0.0422 H   0  0  0  0  0  0  0  0  0  0  0  0
   -0.1122   -0.1994    0.2658 C   0  0  1  0  0  0  0  0  0  0  0  0
    0.6131   -0.7748   -0.3153 H   0  0  0  0  0  0  0  0  0  0  0  0
   -0.2973    1.1841   -0.3966 C   0  0  0  0  0  0  0  0  0  0  0  0
   -1.1694    1.6735    0.0357 H   0  0  0  0  0  0  0  0  0  0  0  0
    0.5773    1.7999   -0.1924 H   0  0  0  0  0  0  0  0  0  0  0  0
   -0.5246    1.1250   -1.8985 C   0  0  0  0  0  0  0  0  0  0  0  0
    0.1002    0.3820   -2.6353 O   0  0  0  0  0  0  0  0  0  0  0  0
   -1.4306    1.9212   -2.4119 N   0  0  0  0  0  0  0  0  0  0  0  0
   -1.5713    1.8478   -3.4041 H   0  0  0  0  0  0  0  0  0  0  0  0
   -1.9713    2.5279   -1.8249 H   0  0  0  0  0  0  0  0  0  0  0  0
    0.4075   -0.0985    1.7169 C   0  0  0  0  0  0  0  0  0  0  0  0
    0.8691    0.9648    2.1314 O   0  0  0  0  0  0  0  0  0  0  0  0
    0.3438   -1.1947    2.4788 N   0  0  0  0  0  0  0  0  0  0  0  0
    0.0198   -2.0481    2.0349 H   0  0  0  0  0  0  0  0  0  0  0  0
    0.7812   -1.2612    3.8721 C   0  0  0  0  0  0  0  0  0  0  0  0
    0.2544   -0.5060    4.4595 H   0  0  0  0  0  0  0  0  0  0  0  0
    0.5704   -2.2492    4.2838 H   0  0  0  0  0  0  0  0  0  0  0  0
    1.8533   -1.0665    3.9315 H   0  0  0  0  0  0  0  0  0  0  0  0
  5  6  2  0  0  0  0
  5  7  1  0  0  0  0
  2  3  1  0  0  0  0
  2  4  1  0  0  0  0
  2  5  1  0  0  0  0
  1  2  1  0  0  0  0
 19 20  2  0  0  0  0
 19 21  1  0  0  0  0
 16 17  1  0  0  0  0
 16 18  1  0  0  0  0
 14 15  2  0  0  0  0
 14 16  1  0  0  0  0
 11 12  1  0  0  0  0
 11 13  1  0  0  0  0
 11 14  1  0  0  0  0
  9 10  1  0  0  0  0
  9 11  1  0  0  0  0
  9 19  1  0  0  0  0
  7  8  1  0  0  0  0
  7  9  1  0  0  0  0
 23 24  1  0  0  0  0
 23 25  1  0  0  0  0
 23 26  1  0  0  0  0
 21 22  1  0  0  0  0
 21 23  1  0  0  0  0
M  END
$$$$
default_name
  -OEChem-01062215323D

 26 25  0     1  0  0  0  0  0999 V2000
   -3.0232   -3.6924    1.0038 H   0  0  0  0  0  0  0  0  0  0  0  0
   -3.0082   -2.6684    0.6318 C   0  0  0  0  0  0  0  0  0  0  0  0
   -3.6332   -2.0414    1.2658 H   0  0  0  0  0  0  0  0  0  0  0  0
   -3.3762   -2.6444   -0.3912 H   0  0  0  0  0  0  0  0  0  0  0  0
   -1.5882   -2.1554    0.6658 C   0  0  0  0  0  0  0  0  0  0  0  0
   -0.6832   -2.8764    1.0638 O   0  0  0  0  0  0  0  0  0  0  0  0
   -1.3952   -0.9084    0.2428 N   0  0  0  0  0  0  0  0  0  0  0  0
   -2.1972   -0.3644   -0.0422 H   0  0  0  0  0  0  0  0  0  0  0  0
   -0.1122   -0.1994    0.2658 C   0  0  1  0  0  0  0  0  0  0  0  0
    0.6131   -0.7748   -0.3153 H   0  0  0  0  0  0  0  0  0  0  0  0
   -0.2973    1.1841   -0.3966 C   0  0  0  0  0  0  0  0  0  0  0  0
   -1.1694    1.6735    0.0357 H   0  0  0  0  0  0  0  0  0  0  0  0
    0.5773    1.7999   -0.1924 H   0  0  0  0  0  0  0  0  0  0  0  0
   -0.5246    1.1250   -1.8985 C   0  0  0  0  0  0  0  0  0  0  0  0
    0.1002    0.3820   -2.6353 O   0  0  0  0  0  0  0  0  0  0  0  0
   -1.4306    1.9212   -2.4119 N   0  0  0  0  0  0  0  0  0  0  0  0
   -1.5713    1.8478   -3.4041 H   0  0  0  0  0  0  0  0  0  0  0  0
   -1.9713    2.5279   -1.8249 H   0  0  0  0  0  0  0  0  0  0  0  0
    0.4075   -0.0985    1.7169 C   0  0  0  0  0  0  0  0  0  0  0  0
    0.6089    1.0060    2.2217 O   0  0  0  0  0  0  0  0  0  0  0  0
    0.6326   -1.2378    2.3784 N   0  0  0  0  0  0  0  0  0  0  0  0
    0.5129   -2.1035    1.8622 H   0  0  0  0  0  0  0  0  0  0  0  0
    1.1113   -1.3138    3.7575 C   0  0  0  0  0  0  0  0  0  0  0  0
    0.4337   -0.7626    4.4131 H   0  0  0  0  0  0  0  0  0  0  0  0
    1.1578   -2.3546    4.0807 H   0  0  0  0  0  0  0  0  0  0  0  0
    2.1055   -0.8693    3.8274 H   0  0  0  0  0  0  0  0  0  0  0  0
  5  6  2  0  0  0  0
  5  7  1  0  0  0  0
  2  3  1  0  0  0  0
  2  4  1  0  0  0  0
  2  5  1  0  0  0  0
  1  2  1  0  0  0  0
 19 20  2  0  0  0  0
 19 21  1  0  0  0  0
 16 17  1  0  0  0  0
 16 18  1  0  0  0  0
 14 15  2  0  0  0  0
 14 16  1  0  0  0  0
 11 12  1  0  0  0  0
 11 13  1  0  0  0  0
 11 14  1  0  0  0  0
  9 10  1  0  0  0  0
  9 11  1  0  0  0  0
  9 19  1  0  0  0  0
  7  8  1  0  0  0  0
  7  9  1  0  0  0  0
 23 24  1  0  0  0  0
 23 25  1  0  0  0  0
 23 26  1  0  0  0  0
 21 22  1  0  0  0  0
 21 23  1  0  0  0  0
M  END
$$$$
default_name
  -OEChem-01062215323D

 26 25  0     1  0  0  0  0  0999 V2000
   -3.0232   -3.6924    1.0038 H   0  0  0  0  0  0  0  0  0  0  0  0
   -3.0082   -2.6684    0.6318 C   0  0  0  0  0  0  0  0  0  0  0  0
   -3.6332   -2.0414    1.2658 H   0  0  0  0  0  0  0  0  0  0  0  0
   -3.3762   -2.6444   -0.3912 H   0  0  0  0  0  0  0  0  0  0  0  0
   -1.5882   -2.1554    0.6658 C   0  0  0  0  0  0  0  0  0  0  0  0
   -0.6832   -2.8764    1.0638 O   0  0  0  0  0  0  0  0  0  0  0  0
   -1.3952   -0.9084    0.2428 N   0  0  0  0  0  0  0  0  0  0  0  0
   -2.1972   -0.3644   -0.0422 H   0  0  0  0  0  0  0  0  0  0  0  0
   -0.1122   -0.1994    0.2658 C   0  0  1  0  0  0  0  0  0  0  0  0
    0.6131   -0.7748   -0.3153 H   0  0  0  0  0  0  0  0  0  0  0  0
   -0.2973    1.1841   -0.3966 C   0  0  0  0  0  0  0  0  0  0  0  0
   -1.1694    1.6735    0.0357 H   0  0  0  0  0  0  0  0  0  0  0  0
    0.5773    1.7999   -0.1924 H   0  0  0  0  0  0  0  0  0  0  0  0
   -0.5246    1.1250   -1.8985 C   0  0  0  0  0  0  0  0  0  0  0  0
    0.1002    0.3820   -2.6353 O   0  0  0  0  0  0  0  0  0  0  0  0
   -1.4306    1.9212   -2.4119 N   0  0  0  0  0  0  0  0  0  0  0  0
   -1.5713    1.8478   -3.4041 H   0  0  0  0  0  0  0  0  0  0  0  0
   -1.9713    2.5279   -1.8249 H   0  0  0  0  0  0  0  0  0  0  0  0
    0.4075   -0.0985    1.7169 C   0  0  0  0  0  0  0  0  0  0  0  0
    0.3490    0.9748    2.3170 O   0  0  0  0  0  0  0  0  0  0  0  0
    0.9202   -1.2005    2.2728 N   0  0  0  0  0  0  0  0  0  0  0  0
    0.9997   -2.0222    1.6822 H   0  0  0  0  0  0  0  0  0  0  0  0
    1.4411   -1.2743    3.6366 C   0  0  0  0  0  0  0  0  0  0  0  0
    0.6685   -0.9629    4.3429 H   0  0  0  0  0  0  0  0  0  0  0  0
    1.7474   -2.2960    3.8655 H   0  0  0  0  0  0  0  0  0  0  0  0
    2.2995   -0.6084    3.7399 H   0  0  0  0  0  0  0  0  0  0  0  0
  5  6  2  0  0  0  0
  5  7  1  0  0  0  0
  2  3  1  0  0  0  0
  2  4  1  0  0  0  0
  2  5  1  0  0  0  0
  1  2  1  0  0  0  0
 19 20  2  0  0  0  0
 19 21  1  0  0  0  0
 16 17  1  0  0  0  0
 16 18  1  0  0  0  0
 14 15  2  0  0  0  0
 14 16  1  0  0  0  0
 11 12  1  0  0  0  0
 11 13  1  0  0  0  0
 11 14  1  0  0  0  0
  9 10  1  0  0  0  0
  9 11  1  0  0  0  0
  9 19  1  0  0  0  0
  7  8  1  0  0  0  0
  7  9  1  0  0  0  0
 23 24  1  0  0  0  0
 23 25  1  0  0  0  0
 23 26  1  0  0  0  0
 21 22  1  0  0  0  0
 21 23  1  0  0  0  0
M  END
$$$$
default_name
  -OEChem-01062215323D

 26 25  0     1  0  0  0  0  0999 V2000
   -3.0232   -3.6924    1.0038 H   0  0  0  0  0  0  0  0  0  0  0  0
   -3.0082   -2.6684    0.6318 C   0  0  0  0  0  0  0  0  0  0  0  0
   -3.6332   -2.0414    1.2658 H   0  0  0  0  0  0  0  0  0  0  0  0
   -3.3762   -2.6444   -0.3912 H   0  0  0  0  0  0  0  0  0  0  0  0
   -1.5882   -2.1554    0.6658 C   0  0  0  0  0  0  0  0  0  0  0  0
   -0.6832   -2.8764    1.0638 O   0  0  0  0  0  0  0  0  0  0  0  0
   -1.3952   -0.9084    0.2428 N   0  0  0  0  0  0  0  0  0  0  0  0
   -2.1972   -0.3644   -0.0422 H   0  0  0  0  0  0  0  0  0  0  0  0
   -0.1122   -0.1994    0.2658 C   0  0  1  0  0  0  0  0  0  0  0  0
    0.6131   -0.7748   -0.3153 H   0  0  0  0  0  0  0  0  0  0  0  0
   -0.2973    1.1841   -0.3966 C   0  0  0  0  0  0  0  0  0  0  0  0
   -1.1694    1.6735    0.0357 H   0  0  0  0  0  0  0  0  0  0  0  0
    0.5773    1.7999   -0.1924 H   0  0  0  0  0  0  0  0  0  0  0  0
   -0.5246    1.1250   -1.8985 C   0  0  0  0  0  0  0  0  0  0  0  0
    0.1002    0.3820   -2.6353 O   0  0  0  0  0  0  0  0  0  0  0  0
   -1.4306    1.9212   -2.4119 N   0  0  0  0  0  0  0  0  0  0  0  0
   -1.5713    1.8478   -3.4041 H   0  0  0  0  0  0  0  0  0  0  0  0
   -1.9713    2.5279   -1.8249 H   0  0  0  0  0  0  0  0  0  0  0  0
    0.4075   -0.0985    1.7169 C   0  0  0  0  0  0  0  0  0  0  0  0
    0.1073    0.8731    2.4106 O   0  0  0  0  0  0  0  0  0  0  0  0
    1.1872   -1.0853    2.1692 N   0  0  0  0  0  0  0  0  0  0  0  0
    1.4471   -1.8095    1.5071 H   0  0  0  0  0  0  0  0  0  0  0  0
    1.7480   -1.1455    3.5177 C   0  0  0  0  0  0  0  0  0  0  0  0
    0.9428   -1.0931    4.2537 H   0  0  0  0  0  0  0  0  0  0  0  0
    2.2990   -2.0773    3.6527 H   0  0  0  0  0  0  0  0  0  0  0  0
    2.4219   -0.3016    3.6747 H   0  0  0  0  0  0  0  0  0  0  0  0
  5  6  2  0  0  0  0
  5  7  1  0  0  0  0
  2  3  1  0  0  0  0
  2  4  1  0  0  0  0
  2  5  1  0  0  0  0
  1  2  1  0  0  0  0
 19 20  2  0  0  0  0
 19 21  1  0  0  0  0
 16 17  1  0  0  0  0
 16 18  1  0  0  0  0
 14 15  2  0  0  0  0
 14 16  1  0  0  0  0
 11 12  1  0  0  0  0
 11 13  1  0  0  0  0
 11 14  1  0  0  0  0
  9 10  1  0  0  0  0
  9 11  1  0  0  0  0
  9 19  1  0  0  0  0
  7  8  1  0  0  0  0
  7  9  1  0  0  0  0
 23 24  1  0  0  0  0
 23 25  1  0  0  0  0
 23 26  1  0  0  0  0
 21 22  1  0  0  0  0
 21 23  1  0  0  0  0
M  END
$$$$
default_name
  -OEChem-01062215323D

 26 25  0     1  0  0  0  0  0999 V2000
   -3.0232   -3.6924    1.0038 H   0  0  0  0  0  0  0  0  0  0  0  0
   -3.0082   -2.6684    0.6318 C   0  0  0  0  0  0  0  0  0  0  0  0
   -3.6332   -2.0414    1.2658 H   0  0  0  0  0  0  0  0  0  0  0  0
   -3.3762   -2.6444   -0.3912 H   0  0  0  0  0  0  0  0  0  0  0  0
   -1.5882   -2.1554    0.6658 C   0  0  0  0  0  0  0  0  0  0  0  0
   -0.6832   -2.8764    1.0638 O   0  0  0  0  0  0  0  0  0  0  0  0
   -1.3952   -0.9084    0.2428 N   0  0  0  0  0  0  0  0  0  0  0  0
   -2.1972   -0.3644   -0.0422 H   0  0  0  0  0  0  0  0  0  0  0  0
   -0.1122   -0.1994    0.2658 C   0  0  1  0  0  0  0  0  0  0  0  0
    0.6131   -0.7748   -0.3153 H   0  0  0  0  0  0  0  0  0  0  0  0
   -0.2973    1.1841   -0.3966 C   0  0  0  0  0  0  0  0  0  0  0  0
   -1.1694    1.6735    0.0357 H   0  0  0  0  0  0  0  0  0  0  0  0
    0.5773    1.7999   -0.1924 H   0  0  0  0  0  0  0  0  0  0  0  0
   -0.5246    1.1250   -1.8985 C   0  0  0  0  0  0  0  0  0  0  0  0
    0.1002    0.3820   -2.6353 O   0  0  0  0  0  0  0  0  0  0  0  0
   -1.4306    1.9212   -2.4119 N   0  0  0  0  0  0  0  0  0  0  0  0
   -1.5713    1.8478   -3.4041 H   0  0  0  0  0  0  0  0  0  0  0  0
   -1.9713    2.5279   -1.8249 H   0  0  0  0  0  0  0  0  0  0  0  0
    0.4075   -0.0985    1.7169 C   0  0  0  0  0  0  0  0  0  0  0  0
   -0.1000    0.7079    2.4963 O   0  0  0  0  0  0  0  0  0  0  0  0
    1.4154   -0.9001    2.0746 N   0  0  0  0  0  0  0  0  0  0  0  0
    1.8246   -1.4801    1.3490 H   0  0  0  0  0  0  0  0  0  0  0  0
    2.0112   -0.9361    3.4089 C   0  0  0  0  0  0  0  0  0  0  0  0
    1.2379   -1.1444    4.1516 H   0  0  0  0  0  0  0  0  0  0  0  0
    2.7751   -1.7134    3.4569 H   0  0  0  0  0  0  0  0  0  0  0  0
    2.4644    0.0302    3.6364 H   0  0  0  0  0  0  0  0  0  0  0  0
  5  6  2  0  0  0  0
  5  7  1  0  0  0  0
  2  3  1  0  0  0  0
  2  4  1  0  0  0  0
  2  5  1  0  0  0  0
  1  2  1  0  0  0  0
 19 20  2  0  0  0  0
 19 21  1  0  0  0  0
 16 17  1  0  0  0  0
 16 18  1  0  0  0  0
 14 15  2  0  0  0  0
 14 16  1  0  0  0  0
 11 12  1  0  0  0  0
 11 13  1  0  0  0  0
 11 14  1  0  0  0  0
  9 10  1  0  0  0  0
  9 11  1  0  0  0  0
  9 19  1  0  0  0  0
  7  8  1  0  0  0  0
  7  9  1  0  0  0  0
 23 24  1  0  0  0  0
 23 25  1  0  0  0  0
 23 26  1  0  0  0  0
 21 22  1  0  0  0  0
 21 23  1  0  0  0  0
M  END
$$$$
default_name
  -OEChem-01062215323D

 26 25  0     1  0  0  0  0  0999 V2000
   -3.0232   -3.6924    1.0038 H   0  0  0  0  0  0  0  0  0  0  0  0
   -3.0082   -2.6684    0.6318 C   0  0  0  0  0  0  0  0  0  0  0  0
   -3.6332   -2.0414    1.2658 H   0  0  0  0  0  0  0  0  0  0  0  0
   -3.3762   -2.6444   -0.3912 H   0  0  0  0  0  0  0  0  0  0  0  0
   -1.5882   -2.1554    0.6658 C   0  0  0  0  0  0  0  0  0  0  0  0
   -0.6832   -2.8764    1.0638 O   0  0  0  0  0  0  0  0  0  0  0  0
   -1.3952   -0.9084    0.2428 N   0  0  0  0  0  0  0  0  0  0  0  0
   -2.1972   -0.3644   -0.0422 H   0  0  0  0  0  0  0  0  0  0  0  0
   -0.1122   -0.1994    0.2658 C   0  0  1  0  0  0  0  0  0  0  0  0
    0.6131   -0.7748   -0.3153 H   0  0  0  0  0  0  0  0  0  0  0  0
   -0.2973    1.1841   -0.3966 C   0  0  0  0  0  0  0  0  0  0  0  0
   -1.1694    1.6735    0.0357 H   0  0  0  0  0  0  0  0  0  0  0  0
    0.5773    1.7999   -0.1924 H   0  0  0  0  0  0  0  0  0  0  0  0
   -0.5246    1.1250   -1.8985 C   0  0  0  0  0  0  0  0  0  0  0  0
    0.1002    0.3820   -2.6353 O   0  0  0  0  0  0  0  0  0  0  0  0
   -1.4306    1.9212   -2.4119 N   0  0  0  0  0  0  0  0  0  0  0  0
   -1.5713    1.8478   -3.4041 H   0  0  0  0  0  0  0  0  0  0  0  0
   -1.9713    2.5279   -1.8249 H   0  0  0  0  0  0  0  0  0  0  0  0
    0.4075   -0.0985    1.7169 C   0  0  0  0  0  0  0  0  0  0  0  0
   -0.2586    0.4905    2.5682 O   0  0  0  0  0  0  0  0  0  0  0  0
    1.5891   -0.6575    1.9955 N   0  0  0  0  0  0  0  0  0  0  0  0
    2.1065   -1.0563    1.2186 H   0  0  0  0  0  0  0  0  0  0  0  0
    2.2126   -0.6604    3.3176 C   0  0  0  0  0  0  0  0  0  0  0  0
    1.5337   -1.1133    4.0435 H   0  0  0  0  0  0  0  0  0  0  0  0
    3.1431   -1.2290    3.2914 H   0  0  0  0  0  0  0  0  0  0  0  0
    2.4242    0.3643    3.6276 H   0  0  0  0  0  0  0  0  0  0  0  0
  5  6  2  0  0  0  0
  5  7  1  0  0  0  0
  2  3  1  0  0  0  0
  2  4  1  0  0  0  0
  2  5  1  0  0  0  0
  1  2  1  0  0  0  0
 19 20  2  0  0  0  0
 19 21  1  0  0  0  0
 16 17  1  0  0  0  0
 16 18  1  0  0  0  0
 14 15  2  0  0  0  0
 14 16  1  0  0  0  0
 11 12  1  0  0  0  0
 11 13  1  0  0  0  0
 11 14  1  0  0  0  0
  9 10  1  0  0  0  0
  9 11  1  0  0  0  0
  9 19  1  0  0  0  0
  7  8  1  0  0  0  0
  7  9  1  0  0  0  0
 23 24  1  0  0  0  0
 23 25  1  0  0  0  0
 23 26  1  0  0  0  0
 21 22  1  0  0  0  0
 21 23  1  0  0  0  0
M  END
$$$$
default_name
  -OEChem-01062215323D

 26 25  0     1  0  0  0  0  0999 V2000
   -3.0232   -3.6924    1.0038 H   0  0  0  0  0  0  0  0  0  0  0  0
   -3.0082   -2.6684    0.6318 C   0  0  0  0  0  0  0  0  0  0  0  0
   -3.6332   -2.0414    1.2658 H   0  0  0  0  0  0  0  0  0  0  0  0
   -3.3762   -2.6444   -0.3912 H   0  0  0  0  0  0  0  0  0  0  0  0
   -1.5882   -2.1554    0.6658 C   0  0  0  0  0  0  0  0  0  0  0  0
   -0.6832   -2.8764    1.0638 O   0  0  0  0  0  0  0  0  0  0  0  0
   -1.3952   -0.9084    0.2428 N   0  0  0  0  0  0  0  0  0  0  0  0
   -2.1972   -0.3644   -0.0422 H   0  0  0  0  0  0  0  0  0  0  0  0
   -0.1122   -0.1994    0.2658 C   0  0  1  0  0  0  0  0  0  0  0  0
    0.6131   -0.7748   -0.3153 H   0  0  0  0  0  0  0  0  0  0  0  0
   -0.2973    1.1841   -0.3966 C   0  0  0  0  0  0  0  0  0  0  0  0
   -1.1694    1.6735    0.0357 H   0  0  0  0  0  0  0  0  0  0  0  0
    0.5773    1.7999   -0.1924 H   0  0  0  0  0  0  0  0  0  0  0  0
   -0.5246    1.1250   -1.8985 C   0  0  0  0  0  0  0  0  0  0  0  0
    0.1002    0.3820   -2.6353 O   0  0  0  0  0  0  0  0  0  0  0  0
   -1.4306    1.9212   -2.4119 N   0  0  0  0  0  0  0  0  0  0  0  0
   -1.5713    1.8478   -3.4041 H   0  0  0  0  0  0  0  0  0  0  0  0
   -1.9713    2.5279   -1.8249 H   0  0  0  0  0  0  0  0  0  0  0  0
    0.4075   -0.0985    1.7169 C   0  0  0  0  0  0  0  0  0  0  0  0
   -0.3577    0.2358    2.6214 O   0  0  0  0  0  0  0  0  0  0  0  0
    1.6966   -0.3740    1.9373 N   0  0  0  0  0  0  0  0  0  0  0  0
    2.2736   -0.5671    1.1248 H   0  0  0  0  0  0  0  0  0  0  0  0
    2.3385   -0.3372    3.2501 C   0  0  0  0  0  0  0  0  0  0  0  0
    1.8101   -1.0019    3.9368 H   0  0  0  0  0  0  0  0  0  0  0  0
    3.3781   -0.6573    3.1675 H   0  0  0  0  0  0  0  0  0  0  0  0
    2.3039    0.6781    3.6488 H   0  0  0  0  0  0  0  0  0  0  0  0
  5  6  2  0  0  0  0
  5  7  1  0  0  0  0
  2  3  1  0  0  0  0
  2  4  1  0  0  0  0
  2  5  1  0  0  0  0
  1  2  1  0  0  0  0
 19 20  2  0  0  0  0
 19 21  1  0  0  0  0
 16 17  1  0  0  0  0
 16 18  1  0  0  0  0
 14 15  2  0  0  0  0
 14 16  1  0  0  0  0
 11 12  1  0  0  0  0
 11 13  1  0  0  0  0
 11 14  1  0  0  0  0
  9 10  1  0  0  0  0
  9 11  1  0  0  0  0
  9 19  1  0  0  0  0
  7  8  1  0  0  0  0
  7  9  1  0  0  0  0
 23 24  1  0  0  0  0
 23 25  1  0  0  0  0
 23 26  1  0  0  0  0
 21 22  1  0  0  0  0
 21 23  1  0  0  0  0
M  END
$$$$
default_name
  -OEChem-01062215323D

 26 25  0     1  0  0  0  0  0999 V2000
   -3.0232   -3.6924    1.0038 H   0  0  0  0  0  0  0  0  0  0  0  0
   -3.0082   -2.6684    0.6318 C   0  0  0  0  0  0  0  0  0  0  0  0
   -3.6332   -2.0414    1.2658 H   0  0  0  0  0  0  0  0  0  0  0  0
   -3.3762   -2.6444   -0.3912 H   0  0  0  0  0  0  0  0  0  0  0  0
   -1.5882   -2.1554    0.6658 C   0  0  0  0  0  0  0  0  0  0  0  0
   -0.6832   -2.8764    1.0638 O   0  0  0  0  0  0  0  0  0  0  0  0
   -1.3952   -0.9084    0.2428 N   0  0  0  0  0  0  0  0  0  0  0  0
   -2.1972   -0.3644   -0.0422 H   0  0  0  0  0  0  0  0  0  0  0  0
   -0.1122   -0.1994    0.2658 C   0  0  1  0  0  0  0  0  0  0  0  0
    0.6131   -0.7748   -0.3153 H   0  0  0  0  0  0  0  0  0  0  0  0
   -0.2973    1.1841   -0.3966 C   0  0  0  0  0  0  0  0  0  0  0  0
   -1.1694    1.6735    0.0357 H   0  0  0  0  0  0  0  0  0  0  0  0
    0.5773    1.7999   -0.1924 H   0  0  0  0  0  0  0  0  0  0  0  0
   -0.5246    1.1250   -1.8985 C   0  0  0  0  0  0  0  0  0  0  0  0
    0.1002    0.3820   -2.6353 O   0  0  0  0  0  0  0  0  0  0  0  0
   -1.4306    1.9212   -2.4119 N   0  0  0  0  0  0  0  0  0  0  0  0
   -1.5713    1.8478   -3.4041 H   0  0  0  0  0  0  0  0  0  0  0  0
   -1.9713    2.5279   -1.8249 H   0  0  0  0  0  0  0  0  0  0  0  0
    0.4075   -0.0985    1.7169 C   0  0  0  0  0  0  0  0  0  0  0  0
   -0.3905   -0.0391    2.6523 O   0  0  0  0  0  0  0  0  0  0  0  0
    1.7305   -0.0690    1.9039 N   0  0  0  0  0  0  0  0  0  0  0  0
    2.3144   -0.0458    1.0739 H   0  0  0  0  0  0  0  0  0  0  0  0
    2.3804    0.0116    3.2108 C   0  0  0  0  0  0  0  0  0  0  0  0
    2.0481   -0.8179    3.8387 H   0  0  0  0  0  0  0  0  0  0  0  0
    3.4639   -0.0371    3.0937 H   0  0  0  0  0  0  0  0  0  0  0  0
    2.1118    0.9501    3.6987 H   0  0  0  0  0  0  0  0  0  0  0  0
  5  6  2  0  0  0  0
  5  7  1  0  0  0  0
  2  3  1  0  0  0  0
  2  4  1  0  0  0  0
  2  5  1  0  0  0  0
  1  2  1  0  0  0  0
 19 20  2  0  0  0  0
 19 21  1  0  0  0  0
 16 17  1  0  0  0  0
 16 18  1  0  0  0  0
 14 15  2  0  0  0  0
 14 16  1  0  0  0  0
 11 12  1  0  0  0  0
 11 13  1  0  0  0  0
 11 14  1  0  0  0  0
  9 10  1  0  0  0  0
  9 11  1  0  0  0  0
  9 19  1  0  0  0  0
  7  8  1  0  0  0  0
  7  9  1  0  0  0  0
 23 24  1  0  0  0  0
 23 25  1  0  0  0  0
 23 26  1  0  0  0  0
 21 22  1  0  0  0  0
 21 23  1  0  0  0  0
M  END
$$$$
default_name
  -OEChem-01062215323D

 26 25  0     1  0  0  0  0  0999 V2000
   -3.0232   -3.6924    1.0038 H   0  0  0  0  0  0  0  0  0  0  0  0
   -3.0082   -2.6684    0.6318 C   0  0  0  0  0  0  0  0  0  0  0  0
   -3.6332   -2.0414    1.2658 H   0  0  0  0  0  0  0  0  0  0  0  0
   -3.3762   -2.6444   -0.3912 H   0  0  0  0  0  0  0  0  0  0  0  0
   -1.5882   -2.1554    0.6658 C   0  0  0  0  0  0  0  0  0  0  0  0
   -0.6832   -2.8764    1.0638 O   0  0  0  0  0  0  0  0  0  0  0  0
   -1.3952   -0.9084    0.2428 N   0  0  0  0  0  0  0  0  0  0  0  0
   -2.1972   -0.3644   -0.0422 H   0  0  0  0  0  0  0  0  0  0  0  0
   -0.1122   -0.1994    0.2658 C   0  0  1  0  0  0  0  0  0  0  0  0
    0.6131   -0.7748   -0.3153 H   0  0  0  0  0  0  0  0  0  0  0  0
   -0.2973    1.1841   -0.3966 C   0  0  0  0  0  0  0  0  0  0  0  0
   -1.1694    1.6735    0.0357 H   0  0  0  0  0  0  0  0  0  0  0  0
    0.5773    1.7999   -0.1924 H   0  0  0  0  0  0  0  0  0  0  0  0
   -0.5246    1.1250   -1.8985 C   0  0  0  0  0  0  0  0  0  0  0  0
    0.1002    0.3820   -2.6353 O   0  0  0  0  0  0  0  0  0  0  0  0
   -1.4306    1.9212   -2.4119 N   0  0  0  0  0  0  0  0  0  0  0  0
   -1.5713    1.8478   -3.4041 H   0  0  0  0  0  0  0  0  0  0  0  0
   -1.9713    2.5279   -1.8249 H   0  0  0  0  0  0  0  0  0  0  0  0
    0.4075   -0.0985    1.7169 C   0  0  0  0  0  0  0  0  0  0  0  0
   -0.3549   -0.3152    2.6588 O   0  0  0  0  0  0  0  0  0  0  0  0
    1.6886    0.2368    1.8977 N   0  0  0  0  0  0  0  0  0  0  0  0
    2.2262    0.4722    1.0695 H   0  0  0  0  0  0  0  0  0  0  0  0
    2.3355    0.3621    3.2025 C   0  0  0  0  0  0  0  0  0  0  0  0
    2.2316   -0.5737    3.7560 H   0  0  0  0  0  0  0  0  0  0  0  0
    3.3948    0.5892    3.0749 H   0  0  0  0  0  0  0  0  0  0  0  0
    1.8610    1.1617    3.7738 H   0  0  0  0  0  0  0  0  0  0  0  0
  5  6  2  0  0  0  0
  5  7  1  0  0  0  0
  2  3  1  0  0  0  0
  2  4  1  0  0  0  0
  2  5  1  0  0  0  0
  1  2  1  0  0  0  0
 19 20  2  0  0  0  0
 19 21  1  0  0  0  0
 16 17  1  0  0  0  0
 16 18  1  0  0  0  0
 14 15  2  0  0  0  0
 14 16  1  0  0  0  0
 11 12  1  0  0  0  0
 11 13  1  0  0  0  0
 11 14  1  0  0  0  0
  9 10  1  0  0  0  0
  9 11  1  0  0  0  0
  9 19  1  0  0  0  0
  7  8  1  0  0  0  0
  7  9  1  0  0  0  0
 23 24  1  0  0  0  0
 23 25  1  0  0  0  0
 23 26  1  0  0  0  0
 21 22  1  0  0  0  0
 21 23  1  0  0  0  0
M  END
$$$$
default_name
  -OEChem-01062215323D

 26 25  0     1  0  0  0  0  0999 V2000
   -3.0232   -3.6924    1.0038 H   0  0  0  0  0  0  0  0  0  0  0  0
   -3.0082   -2.6684    0.6318 C   0  0  0  0  0  0  0  0  0  0  0  0
   -3.6332   -2.0414    1.2658 H   0  0  0  0  0  0  0  0  0  0  0  0
   -3.3762   -2.6444   -0.3912 H   0  0  0  0  0  0  0  0  0  0  0  0
   -1.5882   -2.1554    0.6658 C   0  0  0  0  0  0  0  0  0  0  0  0
   -0.6832   -2.8764    1.0638 O   0  0  0  0  0  0  0  0  0  0  0  0
   -1.3952   -0.9084    0.2428 N   0  0  0  0  0  0  0  0  0  0  0  0
   -2.1972   -0.3644   -0.0422 H   0  0  0  0  0  0  0  0  0  0  0  0
   -0.1122   -0.1994    0.2658 C   0  0  1  0  0  0  0  0  0  0  0  0
    0.5283   -0.6149   -0.5164 H   0  0  0  0  0  0  0  0  0  0  0  0
   -0.3647    1.2944   -0.0372 C   0  0  0  0  0  0  0  0  0  0  0  0
   -1.1704    1.6571    0.6001 H   0  0  0  0  0  0  0  0  0  0  0  0
    0.5349    1.8641    0.1906 H   0  0  0  0  0  0  0  0  0  0  0  0
   -0.7795    1.5725   -1.4731 C   0  0  0  0  0  0  0  0  0  0  0  0
   -0.2599    1.0272   -2.4311 O   0  0  0  0  0  0  0  0  0  0  0  0
   -1.7345    2.4473   -1.6754 N   0  0  0  0  0  0  0  0  0  0  0  0
   -1.9995    2.5977   -2.6329 H   0  0  0  0  0  0  0  0  0  0  0  0
   -2.1909    2.8954   -0.9034 H   0  0  0  0  0  0  0  0  0  0  0  0
    0.5867   -0.4198    1.6255 C   0  0  0  0  0  0  0  0  0  0  0  0
    0.0423   -1.1040    2.4921 O   0  0  0  0  0  0  0  0  0  0  0  0
    1.7753    0.1608    1.8162 N   0  0  0  0  0  0  0  0  0  0  0  0
    2.1162    0.7692    1.0787 H   0  0  0  0  0  0  0  0  0  0  0  0
    2.5693    0.0403    3.0376 C   0  0  0  0  0  0  0  0  0  0  0  0
    2.7583   -1.0140    3.2511 H   0  0  0  0  0  0  0  0  0  0  0  0
    3.5211    0.5597    2.9181 H   0  0  0  0  0  0  0  0  0  0  0  0
    2.0234    0.4754    3.8764 H   0  0  0  0  0  0  0  0  0  0  0  0
  5  6  2  0  0  0  0
  5  7  1  0  0  0  0
  2  3  1  0  0  0  0
  2  4  1  0  0  0  0
  2  5  1  0  0  0  0
  1  2  1  0  0  0  0
 19 20  2  0  0  0  0
 19 21  1  0  0  0  0
 16 17  1  0  0  0  0
 16 18  1  0  0  0  0
 14 15  2  0  0  0  0
 14 16  1  0  0  0  0
 11 12  1  0  0  0  0
 11 13  1  0  0  0  0
 11 14  1  0  0  0  0
  9 10  1  0  0  0  0
  9 11  1  0  0  0  0
  9 19  1  0  0  0  0
  7  8  1  0  0  0  0
  7  9  1  0  0  0  0
 23 24  1  0  0  0  0
 23 25  1  0  0  0  0
 23 26  1  0  0  0  0
 21 22  1  0  0  0  0
 21 23  1  0  0  0  0
M  END
$$$$
default_name
  -OEChem-01062215323D

 26 25  0     1  0  0  0  0  0999 V2000
   -3.0232   -3.6924    1.0038 H   0  0  0  0  0  0  0  0  0  0  0  0
   -3.0082   -2.6684    0.6318 C   0  0  0  0  0  0  0  0  0  0  0  0
   -3.6332   -2.0414    1.2658 H   0  0  0  0  0  0  0  0  0  0  0  0
   -3.3762   -2.6444   -0.3912 H   0  0  0  0  0  0  0  0  0  0  0  0
   -1.5882   -2.1554    0.6658 C   0  0  0  0  0  0  0  0  0  0  0  0
   -0.6832   -2.8764    1.0638 O   0  0  0  0  0  0  0  0  0  0  0  0
   -1.3952   -0.9084    0.2428 N   0  0  0  0  0  0  0  0  0  0  0  0
   -2.1972   -0.3644   -0.0422 H   0  0  0  0  0  0  0  0  0  0  0  0
   -0.1122   -0.1994    0.2658 C   0  0  1  0  0  0  0  0  0  0  0  0
    0.5283   -0.6149   -0.5164 H   0  0  0  0  0  0  0  0  0  0  0  0
   -0.3647    1.2944   -0.0372 C   0  0  0  0  0  0  0  0  0  0  0  0
   -1.1704    1.6571    0.6001 H   0  0  0  0  0  0  0  0  0  0  0  0
    0.5349    1.8641    0.1906 H   0  0  0  0  0  0  0  0  0  0  0  0
   -0.7795    1.5725   -1.4731 C   0  0  0  0  0  0  0  0  0  0  0  0
   -0.2599    1.0272   -2.4311 O   0  0  0  0  0  0  0  0  0  0  0  0
   -1.7345    2.4473   -1.6754 N   0  0  0  0  0  0  0  0  0  0  0  0
   -1.9995    2.5977   -2.6329 H   0  0  0  0  0  0  0  0  0  0  0  0
   -2.1909    2.8954   -0.9034 H   0  0  0  0  0  0  0  0  0  0  0  0
    0.5867   -0.4198    1.6255 C   0  0  0  0  0  0  0  0  0  0  0  0
    0.1942   -1.3092    2.3808 O   0  0  0  0  0  0  0  0  0  0  0  0
    1.6051    0.3864    1.9402 N   0  0  0  0  0  0  0  0  0  0  0  0
    1.8140    1.1410    1.2943 H   0  0  0  0  0  0  0  0  0  0  0  0
    2.3767    0.3009    3.1788 C   0  0  0  0  0  0  0  0  0  0  0  0
    2.7982   -0.7015    3.2813 H   0  0  0  0  0  0  0  0  0  0  0  0
    3.1861    1.0322    3.1669 H   0  0  0  0  0  0  0  0  0  0  0  0
    1.7259    0.4964    4.0327 H   0  0  0  0  0  0  0  0  0  0  0  0
  5  6  2  0  0  0  0
  5  7  1  0  0  0  0
  2  3  1  0  0  0  0
  2  4  1  0  0  0  0
  2  5  1  0  0  0  0
  1  2  1  0  0  0  0
 19 20  2  0  0  0  0
 19 21  1  0  0  0  0
 16 17  1  0  0  0  0
 16 18  1  0  0  0  0
 14 15  2  0  0  0  0
 14 16  1  0  0  0  0
 11 12  1  0  0  0  0
 11 13  1  0  0  0  0
 11 14  1  0  0  0  0
  9 10  1  0  0  0  0
  9 11  1  0  0  0  0
  9 19  1  0  0  0  0
  7  8  1  0  0  0  0
  7  9  1  0  0  0  0
 23 24  1  0  0  0  0
 23 25  1  0  0  0  0
 23 26  1  0  0  0  0
 21 22  1  0  0  0  0
 21 23  1  0  0  0  0
M  END
$$$$
default_name
  -OEChem-01062215323D

 26 25  0     1  0  0  0  0  0999 V2000
   -3.0232   -3.6924    1.0038 H   0  0  0  0  0  0  0  0  0  0  0  0
   -3.0082   -2.6684    0.6318 C   0  0  0  0  0  0  0  0  0  0  0  0
   -3.6332   -2.0414    1.2658 H   0  0  0  0  0  0  0  0  0  0  0  0
   -3.3762   -2.6444   -0.3912 H   0  0  0  0  0  0  0  0  0  0  0  0
   -1.5882   -2.1554    0.6658 C   0  0  0  0  0  0  0  0  0  0  0  0
   -0.6832   -2.8764    1.0638 O   0  0  0  0  0  0  0  0  0  0  0  0
   -1.3952   -0.9084    0.2428 N   0  0  0  0  0  0  0  0  0  0  0  0
   -2.1972   -0.3644   -0.0422 H   0  0  0  0  0  0  0  0  0  0  0  0
   -0.1122   -0.1994    0.2658 C   0  0  1  0  0  0  0  0  0  0  0  0
    0.5283   -0.6149   -0.5164 H   0  0  0  0  0  0  0  0  0  0  0  0
   -0.3647    1.2944   -0.0372 C   0  0  0  0  0  0  0  0  0  0  0  0
   -1.1704    1.6571    0.6001 H   0  0  0  0  0  0  0  0  0  0  0  0
    0.5349    1.8641    0.1906 H   0  0  0  0  0  0  0  0  0  0  0  0
   -0.7795    1.5725   -1.4731 C   0  0  0  0  0  0  0  0  0  0  0  0
   -0.2599    1.0272   -2.4311 O   0  0  0  0  0  0  0  0  0  0  0  0
   -1.7345    2.4473   -1.6754 N   0  0  0  0  0  0  0  0  0  0  0  0
   -1.9995    2.5977   -2.6329 H   0  0  0  0  0  0  0  0  0  0  0  0
   -2.1909    2.8954   -0.9034 H   0  0  0  0  0  0  0  0  0  0  0  0
    0.5867   -0.4198    1.6255 C   0  0  0  0  0  0  0  0  0  0  0  0
    0.3917   -1.4597    2.2548 O   0  0  0  0  0  0  0  0  0  0  0  0
    1.3847    0.5511    2.0802 N   0  0  0  0  0  0  0  0  0  0  0  0
    1.4295    1.4061    1.5349 H   0  0  0  0  0  0  0  0  0  0  0  0
    2.1261    0.4921    3.3386 C   0  0  0  0  0  0  0  0  0  0  0  0
    2.7644   -0.3941    3.3485 H   0  0  0  0  0  0  0  0  0  0  0  0
    2.7456    1.3831    3.4502 H   0  0  0  0  0  0  0  0  0  0  0  0
    1.4280    0.4306    4.1752 H   0  0  0  0  0  0  0  0  0  0  0  0
  5  6  2  0  0  0  0
  5  7  1  0  0  0  0
  2  3  1  0  0  0  0
  2  4  1  0  0  0  0
  2  5  1  0  0  0  0
  1  2  1  0  0  0  0
 19 20  2  0  0  0  0
 19 21  1  0  0  0  0
 16 17  1  0  0  0  0
 16 18  1  0  0  0  0
 14 15  2  0  0  0  0
 14 16  1  0  0  0  0
 11 12  1  0  0  0  0
 11 13  1  0  0  0  0
 11 14  1  0  0  0  0
  9 10  1  0  0  0  0
  9 11  1  0  0  0  0
  9 19  1  0  0  0  0
  7  8  1  0  0  0  0
  7  9  1  0  0  0  0
 23 24  1  0  0  0  0
 23 25  1  0  0  0  0
 23 26  1  0  0  0  0
 21 22  1  0  0  0  0
 21 23  1  0  0  0  0
M  END
$$$$
default_name
  -OEChem-01062215323D

 26 25  0     1  0  0  0  0  0999 V2000
   -3.0232   -3.6924    1.0038 H   0  0  0  0  0  0  0  0  0  0  0  0
   -3.0082   -2.6684    0.6318 C   0  0  0  0  0  0  0  0  0  0  0  0
   -3.6332   -2.0414    1.2658 H   0  0  0  0  0  0  0  0  0  0  0  0
   -3.3762   -2.6444   -0.3912 H   0  0  0  0  0  0  0  0  0  0  0  0
   -1.5882   -2.1554    0.6658 C   0  0  0  0  0  0  0  0  0  0  0  0
   -0.6832   -2.8764    1.0638 O   0  0  0  0  0  0  0  0  0  0  0  0
   -1.3952   -0.9084    0.2428 N   0  0  0  0  0  0  0  0  0  0  0  0
   -2.1972   -0.3644   -0.0422 H   0  0  0  0  0  0  0  0  0  0  0  0
   -0.1122   -0.1994    0.2658 C   0  0  1  0  0  0  0  0  0  0  0  0
    0.5283   -0.6149   -0.5164 H   0  0  0  0  0  0  0  0  0  0  0  0
   -0.3647    1.2944   -0.0372 C   0  0  0  0  0  0  0  0  0  0  0  0
   -1.1704    1.6571    0.6001 H   0  0  0  0  0  0  0  0  0  0  0  0
    0.5349    1.8641    0.1906 H   0  0  0  0  0  0  0  0  0  0  0  0
   -0.7795    1.5725   -1.4731 C   0  0  0  0  0  0  0  0  0  0  0  0
   -0.2599    1.0272   -2.4311 O   0  0  0  0  0  0  0  0  0  0  0  0
   -1.7345    2.4473   -1.6754 N   0  0  0  0  0  0  0  0  0  0  0  0
   -1.9995    2.5977   -2.6329 H   0  0  0  0  0  0  0  0  0  0  0  0
   -2.1909    2.8954   -0.9034 H   0  0  0  0  0  0  0  0  0  0  0  0
    0.5867   -0.4198    1.6255 C   0  0  0  0  0  0  0  0  0  0  0  0
    0.6215   -1.5454    2.1228 O   0  0  0  0  0  0  0  0  0  0  0  0
    1.1291    0.6435    2.2266 N   0  0  0  0  0  0  0  0  0  0  0  0
    0.9887    1.5463    1.7842 H   0  0  0  0  0  0  0  0  0  0  0  0
    1.8346    0.6011    3.5062 C   0  0  0  0  0  0  0  0  0  0  0  0
    2.6592   -0.1127    3.4482 H   0  0  0  0  0  0  0  0  0  0  0  0
    2.2297    1.5885    3.7487 H   0  0  0  0  0  0  0  0  0  0  0  0
    1.1500    0.2826    4.2941 H   0  0  0  0  0  0  0  0  0  0  0  0
  5  6  2  0  0  0  0
  5  7  1  0  0  0  0
  2  3  1  0  0  0  0
  2  4  1  0  0  0  0
  2  5  1  0  0  0  0
  1  2  1  0  0  0  0
 19 20  2  0  0  0  0
 19 21  1  0  0  0  0
 16 17  1  0  0  0  0
 16 18  1  0  0  0  0
 14 15  2  0  0  0  0
 14 16  1  0  0  0  0
 11 12  1  0  0  0  0
 11 13  1  0  0  0  0
 11 14  1  0  0  0  0
  9 10  1  0  0  0  0
  9 11  1  0  0  0  0
  9 19  1  0  0  0  0
  7  8  1  0  0  0  0
  7  9  1  0  0  0  0
 23 24  1  0  0  0  0
 23 25  1  0  0  0  0
 23 26  1  0  0  0  0
 21 22  1  0  0  0  0
 21 23  1  0  0  0  0
M  END
$$$$
default_name
  -OEChem-01062215323D

 26 25  0     1  0  0  0  0  0999 V2000
   -3.0232   -3.6924    1.0038 H   0  0  0  0  0  0  0  0  0  0  0  0
   -3.0082   -2.6684    0.6318 C   0  0  0  0  0  0  0  0  0  0  0  0
   -3.6332   -2.0414    1.2658 H   0  0  0  0  0  0  0  0  0  0  0  0
   -3.3762   -2.6444   -0.3912 H   0  0  0  0  0  0  0  0  0  0  0  0
   -1.5882   -2.1554    0.6658 C   0  0  0  0  0  0  0  0  0  0  0  0
   -0.6832   -2.8764    1.0638 O   0  0  0  0  0  0  0  0  0  0  0  0
   -1.3952   -0.9084    0.2428 N   0  0  0  0  0  0  0  0  0  0  0  0
   -2.1972   -0.3644   -0.0422 H   0  0  0  0  0  0  0  0  0  0  0  0
   -0.1122   -0.1994    0.2658 C   0  0  1  0  0  0  0  0  0  0  0  0
    0.5283   -0.6149   -0.5164 H   0  0  0  0  0  0  0  0  0  0  0  0
   -0.3647    1.2944   -0.0372 C   0  0  0  0  0  0  0  0  0  0  0  0
   -1.1704    1.6571    0.6001 H   0  0  0  0  0  0  0  0  0  0  0  0
    0.5349    1.8641    0.1906 H   0  0  0  0  0  0  0  0  0  0  0  0
   -0.7795    1.5725   -1.4731 C   0  0  0  0  0  0  0  0  0  0  0  0
   -0.2599    1.0272   -2.4311 O   0  0  0  0  0  0  0  0  0  0  0  0
   -1.7345    2.4473   -1.6754 N   0  0  0  0  0  0  0  0  0  0  0  0
   -1.9995    2.5977   -2.6329 H   0  0  0  0  0  0  0  0  0  0  0  0
   -2.1909    2.8954   -0.9034 H   0  0  0  0  0  0  0  0  0  0  0  0
    0.5867   -0.4198    1.6255 C   0  0  0  0  0  0  0  0  0  0  0  0
    0.8679   -1.5604    1.9938 O   0  0  0  0  0  0  0  0  0  0  0  0
    0.8558    0.6575    2.3694 N   0  0  0  0  0  0  0  0  0  0  0  0
    0.5219    1.5521    2.0251 H   0  0  0  0  0  0  0  0  0  0  0  0
    1.5220    0.6203    3.6699 C   0  0  0  0  0  0  0  0  0  0  0  0
    2.4898    0.1234    3.5735 H   0  0  0  0  0  0  0  0  0  0  0  0
    1.6736    1.6345    4.0420 H   0  0  0  0  0  0  0  0  0  0  0  0
    0.9108    0.0623    4.3813 H   0  0  0  0  0  0  0  0  0  0  0  0
  5  6  2  0  0  0  0
  5  7  1  0  0  0  0
  2  3  1  0  0  0  0
  2  4  1  0  0  0  0
  2  5  1  0  0  0  0
  1  2  1  0  0  0  0
 19 20  2  0  0  0  0
 19 21  1  0  0  0  0
 16 17  1  0  0  0  0
 16 18  1  0  0  0  0
 14 15  2  0  0  0  0
 14 16  1  0  0  0  0
 11 12  1  0  0  0  0
 11 13  1  0  0  0  0
 11 14  1  0  0  0  0
  9 10  1  0  0  0  0
  9 11  1  0  0  0  0
  9 19  1  0  0  0  0
  7  8  1  0  0  0  0
  7  9  1  0  0  0  0
 23 24  1  0  0  0  0
 23 25  1  0  0  0  0
 23 26  1  0  0  0  0
 21 22  1  0  0  0  0
 21 23  1  0  0  0  0
M  END
$$$$
default_name
  -OEChem-01062215323D

 26 25  0     1  0  0  0  0  0999 V2000
   -3.0232   -3.6924    1.0038 H   0  0  0  0  0  0  0  0  0  0  0  0
   -3.0082   -2.6684    0.6318 C   0  0  0  0  0  0  0  0  0  0  0  0
   -3.6332   -2.0414    1.2658 H   0  0  0  0  0  0  0  0  0  0  0  0
   -3.3762   -2.6444   -0.3912 H   0  0  0  0  0  0  0  0  0  0  0  0
   -1.5882   -2.1554    0.6658 C   0  0  0  0  0  0  0  0  0  0  0  0
   -0.6832   -2.8764    1.0638 O   0  0  0  0  0  0  0  0  0  0  0  0
   -1.3952   -0.9084    0.2428 N   0  0  0  0  0  0  0  0  0  0  0  0
   -2.1972   -0.3644   -0.0422 H   0  0  0  0  0  0  0  0  0  0  0  0
   -0.1122   -0.1994    0.2658 C   0  0  1  0  0  0  0  0  0  0  0  0
    0.5283   -0.6149   -0.5164 H   0  0  0  0  0  0  0  0  0  0  0  0
   -0.3647    1.2944   -0.0372 C   0  0  0  0  0  0  0  0  0  0  0  0
   -1.1704    1.6571    0.6001 H   0  0  0  0  0  0  0  0  0  0  0  0
    0.5349    1.8641    0.1906 H   0  0  0  0  0  0  0  0  0  0  0  0
   -0.7795    1.5725   -1.4731 C   0  0  0  0  0  0  0  0  0  0  0  0
   -0.2599    1.0272   -2.4311 O   0  0  0  0  0  0  0  0  0  0  0  0
   -1.7345    2.4473   -1.6754 N   0  0  0  0  0  0  0  0  0  0  0  0
   -1.9995    2.5977   -2.6329 H   0  0  0  0  0  0  0  0  0  0  0  0
   -2.1909    2.8954   -0.9034 H   0  0  0  0  0  0  0  0  0  0  0  0
    0.5867   -0.4198    1.6255 C   0  0  0  0  0  0  0  0  0  0  0  0
    1.1140   -1.5036    1.8765 O   0  0  0  0  0  0  0  0  0  0  0  0
    0.5833    0.5919    2.4988 N   0  0  0  0  0  0  0  0  0  0  0  0
    0.0607    1.4231    2.2413 H   0  0  0  0  0  0  0  0  0  0  0  0
    1.2096    0.5484    3.8189 C   0  0  0  0  0  0  0  0  0  0  0  0
    2.2677    0.2981    3.7160 H   0  0  0  0  0  0  0  0  0  0  0  0
    1.1151    1.5178    4.3102 H   0  0  0  0  0  0  0  0  0  0  0  0
    0.7268   -0.2152    4.4309 H   0  0  0  0  0  0  0  0  0  0  0  0
  5  6  2  0  0  0  0
  5  7  1  0  0  0  0
  2  3  1  0  0  0  0
  2  4  1  0  0  0  0
  2  5  1  0  0  0  0
  1  2  1  0  0  0  0
 19 20  2  0  0  0  0
 19 21  1  0  0  0  0
 16 17  1  0  0  0  0
 16 18  1  0  0  0  0
 14 15  2  0  0  0  0
 14 16  1  0  0  0  0
 11 12  1  0  0  0  0
 11 13  1  0  0  0  0
 11 14  1  0  0  0  0
  9 10  1  0  0  0  0
  9 11  1  0  0  0  0
  9 19  1  0  0  0  0
  7  8  1  0  0  0  0
  7  9  1  0  0  0  0
 23 24  1  0  0  0  0
 23 25  1  0  0  0  0
 23 26  1  0  0  0  0
 21 22  1  0  0  0  0
 21 23  1  0  0  0  0
M  END
$$$$
default_name
  -OEChem-01062215323D

 26 25  0     1  0  0  0  0  0999 V2000
   -3.0232   -3.6924    1.0038 H   0  0  0  0  0  0  0  0  0  0  0  0
   -3.0082   -2.6684    0.6318 C   0  0  0  0  0  0  0  0  0  0  0  0
   -3.6332   -2.0414    1.2658 H   0  0  0  0  0  0  0  0  0  0  0  0
   -3.3762   -2.6444   -0.3912 H   0  0  0  0  0  0  0  0  0  0  0  0
   -1.5882   -2.1554    0.6658 C   0  0  0  0  0  0  0  0  0  0  0  0
   -0.6832   -2.8764    1.0638 O   0  0  0  0  0  0  0  0  0  0  0  0
   -1.3952   -0.9084    0.2428 N   0  0  0  0  0  0  0  0  0  0  0  0
   -2.1972   -0.3644   -0.0422 H   0  0  0  0  0  0  0  0  0  0  0  0
   -0.1122   -0.1994    0.2658 C   0  0  1  0  0  0  0  0  0  0  0  0
    0.5283   -0.6149   -0.5164 H   0  0  0  0  0  0  0  0  0  0  0  0
   -0.3647    1.2944   -0.0372 C   0  0  0  0  0  0  0  0  0  0  0  0
   -1.1704    1.6571    0.6001 H   0  0  0  0  0  0  0  0  0  0  0  0
    0.5349    1.8641    0.1906 H   0  0  0  0  0  0  0  0  0  0  0  0
   -0.7795    1.5725   -1.4731 C   0  0  0  0  0  0  0  0  0  0  0  0
   -0.2599    1.0272   -2.4311 O   0  0  0  0  0  0  0  0  0  0  0  0
   -1.7345    2.4473   -1.6754 N   0  0  0  0  0  0  0  0  0  0  0  0
   -1.9995    2.5977   -2.6329 H   0  0  0  0  0  0  0  0  0  0  0  0
   -2.1909    2.8954   -0.9034 H   0  0  0  0  0  0  0  0  0  0  0  0
    0.5867   -0.4198    1.6255 C   0  0  0  0  0  0  0  0  0  0  0  0
    1.3431   -1.3789    1.7789 O   0  0  0  0  0  0  0  0  0  0  0  0
    0.3302    0.4513    2.6061 N   0  0  0  0  0  0  0  0  0  0  0  0
   -0.3634    1.1681    2.4179 H   0  0  0  0  0  0  0  0  0  0  0  0
    0.9188    0.3904    3.9428 C   0  0  0  0  0  0  0  0  0  0  0  0
    2.0082    0.3997    3.8659 H   0  0  0  0  0  0  0  0  0  0  0  0
    0.5923    1.2464    4.5349 H   0  0  0  0  0  0  0  0  0  0  0  0
    0.6103   -0.5310    4.4396 H   0  0  0  0  0  0  0  0  0  0  0  0
  5  6  2  0  0  0  0
  5  7  1  0  0  0  0
  2  3  1  0  0  0  0
  2  4  1  0  0  0  0
  2  5  1  0  0  0  0
  1  2  1  0  0  0  0
 19 20  2  0  0  0  0
 19 21  1  0  0  0  0
 16 17  1  0  0  0  0
 16 18  1  0  0  0  0
 14 15  2  0  0  0  0
 14 16  1  0  0  0  0
 11 12  1  0  0  0  0
 11 13  1  0  0  0  0
 11 14  1  0  0  0  0
  9 10  1  0  0  0  0
  9 11  1  0  0  0  0
  9 19  1  0  0  0  0
  7  8  1  0  0  0  0
  7  9  1  0  0  0  0
 23 24  1  0  0  0  0
 23 25  1  0  0  0  0
 23 26  1  0  0  0  0
 21 22  1  0  0  0  0
 21 23  1  0  0  0  0
M  END
$$$$
default_name
  -OEChem-01062215323D

 26 25  0     1  0  0  0  0  0999 V2000
   -3.0232   -3.6924    1.0038 H   0  0  0  0  0  0  0  0  0  0  0  0
   -3.0082   -2.6684    0.6318 C   0  0  0  0  0  0  0  0  0  0  0  0
   -3.6332   -2.0414    1.2658 H   0  0  0  0  0  0  0  0  0  0  0  0
   -3.3762   -2.6444   -0.3912 H   0  0  0  0  0  0  0  0  0  0  0  0
   -1.5882   -2.1554    0.6658 C   0  0  0  0  0  0  0  0  0  0  0  0
   -0.6832   -2.8764    1.0638 O   0  0  0  0  0  0  0  0  0  0  0  0
   -1.3952   -0.9084    0.2428 N   0  0  0  0  0  0  0  0  0  0  0  0
   -2.1972   -0.3644   -0.0422 H   0  0  0  0  0  0  0  0  0  0  0  0
   -0.1122   -0.1994    0.2658 C   0  0  1  0  0  0  0  0  0  0  0  0
    0.5283   -0.6149   -0.5164 H   0  0  0  0  0  0  0  0  0  0  0  0
   -0.3647    1.2944   -0.0372 C   0  0  0  0  0  0  0  0  0  0  0  0
   -1.1704    1.6571    0.6001 H   0  0  0  0  0  0  0  0  0  0  0  0
    0.5349    1.8641    0.1906 H   0  0  0  0  0  0  0  0  0  0  0  0
   -0.7795    1.5725   -1.4731 C   0  0  0  0  0  0  0  0  0  0  0  0
   -0.2599    1.0272   -2.4311 O   0  0  0  0  0  0  0  0  0  0  0  0
   -1.7345    2.4473   -1.6754 N   0  0  0  0  0  0  0  0  0  0  0  0
   -1.9995    2.5977   -2.6329 H   0  0  0  0  0  0  0  0  0  0  0  0
   -2.1909    2.8954   -0.9034 H   0  0  0  0  0  0  0  0  0  0  0  0
    0.5867   -0.4198    1.6255 C   0  0  0  0  0  0  0  0  0  0  0  0
    1.5397   -1.1948    1.7077 O   0  0  0  0  0  0  0  0  0  0  0  0
    0.1139    0.2454    2.6839 N   0  0  0  0  0  0  0  0  0  0  0  0
   -0.7215    0.8046    2.5430 H   0  0  0  0  0  0  0  0  0  0  0  0
    0.6693    0.1570    4.0332 C   0  0  0  0  0  0  0  0  0  0  0  0
    1.7288    0.4211    4.0130 H   0  0  0  0  0  0  0  0  0  0  0  0
    0.1409    0.8389    4.7008 H   0  0  0  0  0  0  0  0  0  0  0  0
    0.5695   -0.8636    4.4066 H   0  0  0  0  0  0  0  0  0  0  0  0
  5  6  2  0  0  0  0
  5  7  1  0  0  0  0
  2  3  1  0  0  0  0
  2  4  1  0  0  0  0
  2  5  1  0  0  0  0
  1  2  1  0  0  0  0
 19 20  2  0  0  0  0
 19 21  1  0  0  0  0
 16 17  1  0  0  0  0
 16 18  1  0  0  0  0
 14 15  2  0  0  0  0
 14 16  1  0  0  0  0
 11 12  1  0  0  0  0
 11 13  1  0  0  0  0
 11 14  1  0  0  0  0
  9 10  1  0  0  0  0
  9 11  1  0  0  0  0
  9 19  1  0  0  0  0
  7  8  1  0  0  0  0
  7  9  1  0  0  0  0
 23 24  1  0  0  0  0
 23 25  1  0  0  0  0
 23 26  1  0  0  0  0
 21 22  1  0  0  0  0
 21 23  1  0  0  0  0
M  END
$$$$
default_name
  -OEChem-01062215323D

 26 25  0     1  0  0  0  0  0999 V2000
   -3.0232   -3.6924    1.0038 H   0  0  0  0  0  0  0  0  0  0  0  0
   -3.0082   -2.6684    0.6318 C   0  0  0  0  0  0  0  0  0  0  0  0
   -3.6332   -2.0414    1.2658 H   0  0  0  0  0  0  0  0  0  0  0  0
   -3.3762   -2.6444   -0.3912 H   0  0  0  0  0  0  0  0  0  0  0  0
   -1.5882   -2.1554    0.6658 C   0  0  0  0  0  0  0  0  0  0  0  0
   -0.6832   -2.8764    1.0638 O   0  0  0  0  0  0  0  0  0  0  0  0
   -1.3952   -0.9084    0.2428 N   0  0  0  0  0  0  0  0  0  0  0  0
   -2.1972   -0.3644   -0.0422 H   0  0  0  0  0  0  0  0  0  0  0  0
   -0.1122   -0.1994    0.2658 C   0  0  1  0  0  0  0  0  0  0  0  0
    0.5283   -0.6149   -0.5164 H   0  0  0  0  0  0  0  0  0  0  0  0
   -0.3647    1.2944   -0.0372 C   0  0  0  0  0  0  0  0  0  0  0  0
   -1.1704    1.6571    0.6001 H   0  0  0  0  0  0  0  0  0  0  0  0
    0.5349    1.8641    0.1906 H   0  0  0  0  0  0  0  0  0  0  0  0
   -0.7795    1.5725   -1.4731 C   0  0  0  0  0  0  0  0  0  0  0  0
   -0.2599    1.0272   -2.4311 O   0  0  0  0  0  0  0  0  0  0  0  0
   -1.7345    2.4473   -1.6754 N   0  0  0  0  0  0  0  0  0  0  0  0
   -1.9995    2.5977   -2.6329 H   0  0  0  0  0  0  0  0  0  0  0  0
   -2.1909    2.8954   -0.9034 H   0  0  0  0  0  0  0  0  0  0  0  0
    0.5867   -0.4198    1.6255 C   0  0  0  0  0  0  0  0  0  0  0  0
    1.6902   -0.9639    1.6678 O   0  0  0  0  0  0  0  0  0  0  0  0
   -0.0511   -0.0120    2.7270 N   0  0  0  0  0  0  0  0  0  0  0  0
   -0.9891    0.3571    2.6081 H   0  0  0  0  0  0  0  0  0  0  0  0
    0.4781   -0.1359    4.0840 C   0  0  0  0  0  0  0  0  0  0  0  0
    1.4486    0.3609    4.1472 H   0  0  0  0  0  0  0  0  0  0  0  0
   -0.2084    0.3230    4.7968 H   0  0  0  0  0  0  0  0  0  0  0  0
    0.6071   -1.1903    4.3344 H   0  0  0  0  0  0  0  0  0  0  0  0
  5  6  2  0  0  0  0
  5  7  1  0  0  0  0
  2  3  1  0  0  0  0
  2  4  1  0  0  0  0
  2  5  1  0  0  0  0
  1  2  1  0  0  0  0
 19 20  2  0  0  0  0
 19 21  1  0  0  0  0
 16 17  1  0  0  0  0
 16 18  1  0  0  0  0
 14 15  2  0  0  0  0
 14 16  1  0  0  0  0
 11 12  1  0  0  0  0
 11 13  1  0  0  0  0
 11 14  1  0  0  0  0
  9 10  1  0  0  0  0
  9 11  1  0  0  0  0
  9 19  1  0  0  0  0
  7  8  1  0  0  0  0
  7  9  1  0  0  0  0
 23 24  1  0  0  0  0
 23 25  1  0  0  0  0
 23 26  1  0  0  0  0
 21 22  1  0  0  0  0
 21 23  1  0  0  0  0
M  END
$$$$
default_name
  -OEChem-01062215323D

 26 25  0     1  0  0  0  0  0999 V2000
   -3.0232   -3.6924    1.0038 H   0  0  0  0  0  0  0  0  0  0  0  0
   -3.0082   -2.6684    0.6318 C   0  0  0  0  0  0  0  0  0  0  0  0
   -3.6332   -2.0414    1.2658 H   0  0  0  0  0  0  0  0  0  0  0  0
   -3.3762   -2.6444   -0.3912 H   0  0  0  0  0  0  0  0  0  0  0  0
   -1.5882   -2.1554    0.6658 C   0  0  0  0  0  0  0  0  0  0  0  0
   -0.6832   -2.8764    1.0638 O   0  0  0  0  0  0  0  0  0  0  0  0
   -1.3952   -0.9084    0.2428 N   0  0  0  0  0  0  0  0  0  0  0  0
   -2.1972   -0.3644   -0.0422 H   0  0  0  0  0  0  0  0  0  0  0  0
   -0.1122   -0.1994    0.2658 C   0  0  1  0  0  0  0  0  0  0  0  0
    0.5283   -0.6149   -0.5164 H   0  0  0  0  0  0  0  0  0  0  0  0
   -0.3647    1.2944   -0.0372 C   0  0  0  0  0  0  0  0  0  0  0  0
   -1.1704    1.6571    0.6001 H   0  0  0  0  0  0  0  0  0  0  0  0
    0.5349    1.8641    0.1906 H   0  0  0  0  0  0  0  0  0  0  0  0
   -0.7795    1.5725   -1.4731 C   0  0  0  0  0  0  0  0  0  0  0  0
   -0.2599    1.0272   -2.4311 O   0  0  0  0  0  0  0  0  0  0  0  0
   -1.7345    2.4473   -1.6754 N   0  0  0  0  0  0  0  0  0  0  0  0
   -1.9995    2.5977   -2.6329 H   0  0  0  0  0  0  0  0  0  0  0  0
   -2.1909    2.8954   -0.9034 H   0  0  0  0  0  0  0  0  0  0  0  0
    0.5867   -0.4198    1.6255 C   0  0  0  0  0  0  0  0  0  0  0  0
    1.7845   -0.7019    1.6618 O   0  0  0  0  0  0  0  0  0  0  0  0
   -0.1533   -0.3032    2.7323 N   0  0  0  0  0  0  0  0  0  0  0  0
   -1.1481   -0.1436    2.6086 H   0  0  0  0  0  0  0  0  0  0  0  0
    0.3583   -0.4684    4.0916 C   0  0  0  0  0  0  0  0  0  0  0  0
    1.1867    0.2232    4.2595 H   0  0  0  0  0  0  0  0  0  0  0  0
   -0.4319   -0.2662    4.8161 H   0  0  0  0  0  0  0  0  0  0  0  0
    0.7205   -1.4888    4.2277 H   0  0  0  0  0  0  0  0  0  0  0  0
  5  6  2  0  0  0  0
  5  7  1  0  0  0  0
  2  3  1  0  0  0  0
  2  4  1  0  0  0  0
  2  5  1  0  0  0  0
  1  2  1  0  0  0  0
 19 20  2  0  0  0  0
 19 21  1  0  0  0  0
 16 17  1  0  0  0  0
 16 18  1  0  0  0  0
 14 15  2  0  0  0  0
 14 16  1  0  0  0  0
 11 12  1  0  0  0  0
 11 13  1  0  0  0  0
 11 14  1  0  0  0  0
  9 10  1  0  0  0  0
  9 11  1  0  0  0  0
  9 19  1  0  0  0  0
  7  8  1  0  0  0  0
  7  9  1  0  0  0  0
 23 24  1  0  0  0  0
 23 25  1  0  0  0  0
 23 26  1  0  0  0  0
 21 22  1  0  0  0  0
 21 23  1  0  0  0  0
M  END
$$$$
default_name
  -OEChem-01062215323D

 26 25  0     1  0  0  0  0  0999 V2000
   -3.0232   -3.6924    1.0038 H   0  0  0  0  0  0  0  0  0  0  0  0
   -3.0082   -2.6684    0.6318 C   0  0  0  0  0  0  0  0  0  0  0  0
   -3.6332   -2.0414    1.2658 H   0  0  0  0  0  0  0  0  0  0  0  0
   -3.3762   -2.6444   -0.3912 H   0  0  0  0  0  0  0  0  0  0  0  0
   -1.5882   -2.1554    0.6658 C   0  0  0  0  0  0  0  0  0  0  0  0
   -0.6832   -2.8764    1.0638 O   0  0  0  0  0  0  0  0  0  0  0  0
   -1.3952   -0.9084    0.2428 N   0  0  0  0  0  0  0  0  0  0  0  0
   -2.1972   -0.3644   -0.0422 H   0  0  0  0  0  0  0  0  0  0  0  0
   -0.1122   -0.1994    0.2658 C   0  0  1  0  0  0  0  0  0  0  0  0
    0.5283   -0.6149   -0.5164 H   0  0  0  0  0  0  0  0  0  0  0  0
   -0.3647    1.2944   -0.0372 C   0  0  0  0  0  0  0  0  0  0  0  0
   -1.1704    1.6571    0.6001 H   0  0  0  0  0  0  0  0  0  0  0  0
    0.5349    1.8641    0.1906 H   0  0  0  0  0  0  0  0  0  0  0  0
   -0.7795    1.5725   -1.4731 C   0  0  0  0  0  0  0  0  0  0  0  0
   -0.2599    1.0272   -2.4311 O   0  0  0  0  0  0  0  0  0  0  0  0
   -1.7345    2.4473   -1.6754 N   0  0  0  0  0  0  0  0  0  0  0  0
   -1.9995    2.5977   -2.6329 H   0  0  0  0  0  0  0  0  0  0  0  0
   -2.1909    2.8954   -0.9034 H   0  0  0  0  0  0  0  0  0  0  0  0
    0.5867   -0.4198    1.6255 C   0  0  0  0  0  0  0  0  0  0  0  0
    1.8160   -0.4266    1.6902 O   0  0  0  0  0  0  0  0  0  0  0  0
   -0.1859   -0.6085    2.6996 N   0  0  0  0  0  0  0  0  0  0  0  0
   -1.1876   -0.6636    2.5446 H   0  0  0  0  0  0  0  0  0  0  0  0
    0.3180   -0.8176    4.0557 C   0  0  0  0  0  0  0  0  0  0  0  0
    0.9610    0.0174    4.3421 H   0  0  0  0  0  0  0  0  0  0  0  0
   -0.5142   -0.8885    4.7575 H   0  0  0  0  0  0  0  0  0  0  0  0
    0.9019   -1.7388    4.0939 H   0  0  0  0  0  0  0  0  0  0  0  0
  5  6  2  0  0  0  0
  5  7  1  0  0  0  0
  2  3  1  0  0  0  0
  2  4  1  0  0  0  0
  2  5  1  0  0  0  0
  1  2  1  0  0  0  0
 19 20  2  0  0  0  0
 19 21  1  0  0  0  0
 16 17  1  0  0  0  0
 16 18  1  0  0  0  0
 14 15  2  0  0  0  0
 14 16  1  0  0  0  0
 11 12  1  0  0  0  0
 11 13  1  0  0  0  0
 11 14  1  0  0  0  0
  9 10  1  0  0  0  0
  9 11  1  0  0  0  0
  9 19  1  0  0  0  0
  7  8  1  0  0  0  0
  7  9  1  0  0  0  0
 23 24  1  0  0  0  0
 23 25  1  0  0  0  0
 23 26  1  0  0  0  0
 21 22  1  0  0  0  0
 21 23  1  0  0  0  0
M  END
$$$$
default_name
  -OEChem-01062215323D

 26 25  0     1  0  0  0  0  0999 V2000
   -3.0232   -3.6924    1.0038 H   0  0  0  0  0  0  0  0  0  0  0  0
   -3.0082   -2.6684    0.6318 C   0  0  0  0  0  0  0  0  0  0  0  0
   -3.6332   -2.0414    1.2658 H   0  0  0  0  0  0  0  0  0  0  0  0
   -3.3762   -2.6444   -0.3912 H   0  0  0  0  0  0  0  0  0  0  0  0
   -1.5882   -2.1554    0.6658 C   0  0  0  0  0  0  0  0  0  0  0  0
   -0.6832   -2.8764    1.0638 O   0  0  0  0  0  0  0  0  0  0  0  0
   -1.3952   -0.9084    0.2428 N   0  0  0  0  0  0  0  0  0  0  0  0
   -2.1972   -0.3644   -0.0422 H   0  0  0  0  0  0  0  0  0  0  0  0
   -0.1122   -0.1994    0.2658 C   0  0  1  0  0  0  0  0  0  0  0  0
    0.5283   -0.6149   -0.5164 H   0  0  0  0  0  0  0  0  0  0  0  0
   -0.3647    1.2944   -0.0372 C   0  0  0  0  0  0  0  0  0  0  0  0
   -1.1704    1.6571    0.6001 H   0  0  0  0  0  0  0  0  0  0  0  0
    0.5349    1.8641    0.1906 H   0  0  0  0  0  0  0  0  0  0  0  0
   -0.7795    1.5725   -1.4731 C   0  0  0  0  0  0  0  0  0  0  0  0
   -0.2599    1.0272   -2.4311 O   0  0  0  0  0  0  0  0  0  0  0  0
   -1.7345    2.4473   -1.6754 N   0  0  0  0  0  0  0  0  0  0  0  0
   -1.9995    2.5977   -2.6329 H   0  0  0  0  0  0  0  0  0  0  0  0
   -2.1909    2.8954   -0.9034 H   0  0  0  0  0  0  0  0  0  0  0  0
    0.5867   -0.4198    1.6255 C   0  0  0  0  0  0  0  0  0  0  0  0
    1.7828   -0.1569    1.7510 O   0  0  0  0  0  0  0  0  0  0  0  0
   -0.1467   -0.9069    2.6310 N   0  0  0  0  0  0  0  0  0  0  0  0
   -1.1049   -1.1674    2.4204 H   0  0  0  0  0  0  0  0  0  0  0  0
    0.3600   -1.1600    3.9786 C   0  0  0  0  0  0  0  0  0  0  0  0
    0.7868   -0.2425    4.3895 H   0  0  0  0  0  0  0  0  0  0  0  0
   -0.4497   -1.5014    4.6250 H   0  0  0  0  0  0  0  0  0  0  0  0
    1.1391   -1.9233    3.9420 H   0  0  0  0  0  0  0  0  0  0  0  0
  5  6  2  0  0  0  0
  5  7  1  0  0  0  0
  2  3  1  0  0  0  0
  2  4  1  0  0  0  0
  2  5  1  0  0  0  0
  1  2  1  0  0  0  0
 19 20  2  0  0  0  0
 19 21  1  0  0  0  0
 16 17  1  0  0  0  0
 16 18  1  0  0  0  0
 14 15  2  0  0  0  0
 14 16  1  0  0  0  0
 11 12  1  0  0  0  0
 11 13  1  0  0  0  0
 11 14  1  0  0  0  0
  9 10  1  0  0  0  0
  9 11  1  0  0  0  0
  9 19  1  0  0  0  0
  7  8  1  0  0  0  0
  7  9  1  0  0  0  0
 23 24  1  0  0  0  0
 23 25  1  0  0  0  0
 23 26  1  0  0  0  0
 21 22  1  0  0  0  0
 21 23  1  0  0  0  0
M  END
$$$$
default_name
  -OEChem-01062215323D

 26 25  0     1  0  0  0  0  0999 V2000
   -3.0232   -3.6924    1.0038 H   0  0  0  0  0  0  0  0  0  0  0  0
   -3.0082   -2.6684    0.6318 C   0  0  0  0  0  0  0  0  0  0  0  0
   -3.6332   -2.0414    1.2658 H   0  0  0  0  0  0  0  0  0  0  0  0
   -3.3762   -2.6444   -0.3912 H   0  0  0  0  0  0  0  0  0  0  0  0
   -1.5882   -2.1554    0.6658 C   0  0  0  0  0  0  0  0  0  0  0  0
   -0.6832   -2.8764    1.0638 O   0  0  0  0  0  0  0  0  0  0  0  0
   -1.3952   -0.9084    0.2428 N   0  0  0  0  0  0  0  0  0  0  0  0
   -2.1972   -0.3644   -0.0422 H   0  0  0  0  0  0  0  0  0  0  0  0
   -0.1122   -0.1994    0.2658 C   0  0  1  0  0  0  0  0  0  0  0  0
    0.5283   -0.6149   -0.5164 H   0  0  0  0  0  0  0  0  0  0  0  0
   -0.3647    1.2944   -0.0372 C   0  0  0  0  0  0  0  0  0  0  0  0
   -1.1704    1.6571    0.6001 H   0  0  0  0  0  0  0  0  0  0  0  0
    0.5349    1.8641    0.1906 H   0  0  0  0  0  0  0  0  0  0  0  0
   -0.7795    1.5725   -1.4731 C   0  0  0  0  0  0  0  0  0  0  0  0
   -0.2599    1.0272   -2.4311 O   0  0  0  0  0  0  0  0  0  0  0  0
   -1.7345    2.4473   -1.6754 N   0  0  0  0  0  0  0  0  0  0  0  0
   -1.9995    2.5977   -2.6329 H   0  0  0  0  0  0  0  0  0  0  0  0
   -2.1909    2.8954   -0.9034 H   0  0  0  0  0  0  0  0  0  0  0  0
    0.5867   -0.4198    1.6255 C   0  0  0  0  0  0  0  0  0  0  0  0
    1.6869    0.0890    1.8401 O   0  0  0  0  0  0  0  0  0  0  0  0
   -0.0383   -1.1782    2.5313 N   0  0  0  0  0  0  0  0  0  0  0  0
   -0.9057   -1.6206    2.2445 H   0  0  0  0  0  0  0  0  0  0  0  0
    0.4814   -1.4721    3.8656 C   0  0  0  0  0  0  0  0  0  0  0  0
    0.6760   -0.5388    4.3985 H   0  0  0  0  0  0  0  0  0  0  0  0
   -0.2429   -2.0633    4.4276 H   0  0  0  0  0  0  0  0  0  0  0  0
    1.4159   -2.0297    3.7825 H   0  0  0  0  0  0  0  0  0  0  0  0
  5  6  2  0  0  0  0
  5  7  1  0  0  0  0
  2  3  1  0  0  0  0
  2  4  1  0  0  0  0
  2  5  1  0  0  0  0
  1  2  1  0  0  0  0
 19 20  2  0  0  0  0
 19 21  1  0  0  0  0
 16 17  1  0  0  0  0
 16 18  1  0  0  0  0
 14 15  2  0  0  0  0
 14 16  1  0  0  0  0
 11 12  1  0  0  0  0
 11 13  1  0  0  0  0
 11 14  1  0  0  0  0
  9 10  1  0  0  0  0
  9 11  1  0  0  0  0
  9 19  1  0  0  0  0
  7  8  1  0  0  0  0
  7  9  1  0  0  0  0
 23 24  1  0  0  0  0
 23 25  1  0  0  0  0
 23 26  1  0  0  0  0
 21 22  1  0  0  0  0
 21 23  1  0  0  0  0
M  END
$$$$
default_name
  -OEChem-01062215323D

 26 25  0     1  0  0  0  0  0999 V2000
   -3.0232   -3.6924    1.0038 H   0  0  0  0  0  0  0  0  0  0  0  0
   -3.0082   -2.6684    0.6318 C   0  0  0  0  0  0  0  0  0  0  0  0
   -3.6332   -2.0414    1.2658 H   0  0  0  0  0  0  0  0  0  0  0  0
   -3.3762   -2.6444   -0.3912 H   0  0  0  0  0  0  0  0  0  0  0  0
   -1.5882   -2.1554    0.6658 C   0  0  0  0  0  0  0  0  0  0  0  0
   -0.6832   -2.8764    1.0638 O   0  0  0  0  0  0  0  0  0  0  0  0
   -1.3952   -0.9084    0.2428 N   0  0  0  0  0  0  0  0  0  0  0  0
   -2.1972   -0.3644   -0.0422 H   0  0  0  0  0  0  0  0  0  0  0  0
   -0.1122   -0.1994    0.2658 C   0  0  1  0  0  0  0  0  0  0  0  0
    0.5283   -0.6149   -0.5164 H   0  0  0  0  0  0  0  0  0  0  0  0
   -0.3647    1.2944   -0.0372 C   0  0  0  0  0  0  0  0  0  0  0  0
   -1.1704    1.6571    0.6001 H   0  0  0  0  0  0  0  0  0  0  0  0
    0.5349    1.8641    0.1906 H   0  0  0  0  0  0  0  0  0  0  0  0
   -0.7795    1.5725   -1.4731 C   0  0  0  0  0  0  0  0  0  0  0  0
   -0.2599    1.0272   -2.4311 O   0  0  0  0  0  0  0  0  0  0  0  0
   -1.7345    2.4473   -1.6754 N   0  0  0  0  0  0  0  0  0  0  0  0
   -1.9995    2.5977   -2.6329 H   0  0  0  0  0  0  0  0  0  0  0  0
   -2.1909    2.8954   -0.9034 H   0  0  0  0  0  0  0  0  0  0  0  0
    0.5867   -0.4198    1.6255 C   0  0  0  0  0  0  0  0  0  0  0  0
    1.5351    0.2942    1.9515 O   0  0  0  0  0  0  0  0  0  0  0  0
    0.1319   -1.4039    2.4072 N   0  0  0  0  0  0  0  0  0  0  0  0
   -0.6035   -1.9924    2.0289 H   0  0  0  0  0  0  0  0  0  0  0  0
    0.6740   -1.7327    3.7244 C   0  0  0  0  0  0  0  0  0  0  0  0
    0.6362   -0.8513    4.3683 H   0  0  0  0  0  0  0  0  0  0  0  0
    0.0921   -2.5357    4.1788 H   0  0  0  0  0  0  0  0  0  0  0  0
    1.7133   -2.0507    3.6262 H   0  0  0  0  0  0  0  0  0  0  0  0
  5  6  2  0  0  0  0
  5  7  1  0  0  0  0
  2  3  1  0  0  0  0
  2  4  1  0  0  0  0
  2  5  1  0  0  0  0
  1  2  1  0  0  0  0
 19 20  2  0  0  0  0
 19 21  1  0  0  0  0
 16 17  1  0  0  0  0
 16 18  1  0  0  0  0
 14 15  2  0  0  0  0
 14 16  1  0  0  0  0
 11 12  1  0  0  0  0
 11 13  1  0  0  0  0
 11 14  1  0  0  0  0
  9 10  1  0  0  0  0
  9 11  1  0  0  0  0
  9 19  1  0  0  0  0
  7  8  1  0  0  0  0
  7  9  1  0  0  0  0
 23 24  1  0  0  0  0
 23 25  1  0  0  0  0
 23 26  1  0  0  0  0
 21 22  1  0  0  0  0
 21 23  1  0  0  0  0
M  END
$$$$
default_name
  -OEChem-01062215323D

 26 25  0     1  0  0  0  0  0999 V2000
   -3.0232   -3.6924    1.0038 H   0  0  0  0  0  0  0  0  0  0  0  0
   -3.0082   -2.6684    0.6318 C   0  0  0  0  0  0  0  0  0  0  0  0
   -3.6332   -2.0414    1.2658 H   0  0  0  0  0  0  0  0  0  0  0  0
   -3.3762   -2.6444   -0.3912 H   0  0  0  0  0  0  0  0  0  0  0  0
   -1.5882   -2.1554    0.6658 C   0  0  0  0  0  0  0  0  0  0  0  0
   -0.6832   -2.8764    1.0638 O   0  0  0  0  0  0  0  0  0  0  0  0
   -1.3952   -0.9084    0.2428 N   0  0  0  0  0  0  0  0  0  0  0  0
   -2.1972   -0.3644   -0.0422 H   0  0  0  0  0  0  0  0  0  0  0  0
   -0.1122   -0.1994    0.2658 C   0  0  1  0  0  0  0  0  0  0  0  0
    0.5283   -0.6149   -0.5164 H   0  0  0  0  0  0  0  0  0  0  0  0
   -0.3647    1.2944   -0.0372 C   0  0  0  0  0  0  0  0  0  0  0  0
   -1.1704    1.6571    0.6001 H   0  0  0  0  0  0  0  0  0  0  0  0
    0.5349    1.8641    0.1906 H   0  0  0  0  0  0  0  0  0  0  0  0
   -0.7795    1.5725   -1.4731 C   0  0  0  0  0  0  0  0  0  0  0  0
   -0.2599    1.0272   -2.4311 O   0  0  0  0  0  0  0  0  0  0  0  0
   -1.7345    2.4473   -1.6754 N   0  0  0  0  0  0  0  0  0  0  0  0
   -1.9995    2.5977   -2.6329 H   0  0  0  0  0  0  0  0  0  0  0  0
   -2.1909    2.8954   -0.9034 H   0  0  0  0  0  0  0  0  0  0  0  0
    0.5867   -0.4198    1.6255 C   0  0  0  0  0  0  0  0  0  0  0  0
    1.3375    0.4448    2.0775 O   0  0  0  0  0  0  0  0  0  0  0  0
    0.3523   -1.5685    2.2672 N   0  0  0  0  0  0  0  0  0  0  0  0
   -0.2189   -2.2574    1.7883 H   0  0  0  0  0  0  0  0  0  0  0  0
    0.9246   -1.9239    3.5646 C   0  0  0  0  0  0  0  0  0  0  0  0
    0.6700   -1.1587    4.3010 H   0  0  0  0  0  0  0  0  0  0  0  0
    0.5326   -2.8867    3.8955 H   0  0  0  0  0  0  0  0  0  0  0  0
    2.0112   -1.9849    3.4838 H   0  0  0  0  0  0  0  0  0  0  0  0
  5  6  2  0  0  0  0
  5  7  1  0  0  0  0
  2  3  1  0  0  0  0
  2  4  1  0  0  0  0
  2  5  1  0  0  0  0
  1  2  1  0  0  0  0
 19 20  2  0  0  0  0
 19 21  1  0  0  0  0
 16 17  1  0  0  0  0
 16 18  1  0  0  0  0
 14 15  2  0  0  0  0
 14 16  1  0  0  0  0
 11 12  1  0  0  0  0
 11 13  1  0  0  0  0
 11 14  1  0  0  0  0
  9 10  1  0  0  0  0
  9 11  1  0  0  0  0
  9 19  1  0  0  0  0
  7  8  1  0  0  0  0
  7  9  1  0  0  0  0
 23 24  1  0  0  0  0
 23 25  1  0  0  0  0
 23 26  1  0  0  0  0
 21 22  1  0  0  0  0
 21 23  1  0  0  0  0
M  END
$$$$
default_name
  -OEChem-01062215323D

 26 25  0     1  0  0  0  0  0999 V2000
   -3.0232   -3.6924    1.0038 H   0  0  0  0  0  0  0  0  0  0  0  0
   -3.0082   -2.6684    0.6318 C   0  0  0  0  0  0  0  0  0  0  0  0
   -3.6332   -2.0414    1.2658 H   0  0  0  0  0  0  0  0  0  0  0  0
   -3.3762   -2.6444   -0.3912 H   0  0  0  0  0  0  0  0  0  0  0  0
   -1.5882   -2.1554    0.6658 C   0  0  0  0  0  0  0  0  0  0  0  0
   -0.6832   -2.8764    1.0638 O   0  0  0  0  0  0  0  0  0  0  0  0
   -1.3952   -0.9084    0.2428 N   0  0  0  0  0  0  0  0  0  0  0  0
   -2.1972   -0.3644   -0.0422 H   0  0  0  0  0  0  0  0  0  0  0  0
   -0.1122   -0.1994    0.2658 C   0  0  1  0  0  0  0  0  0  0  0  0
    0.5283   -0.6149   -0.5164 H   0  0  0  0  0  0  0  0  0  0  0  0
   -0.3647    1.2944   -0.0372 C   0  0  0  0  0  0  0  0  0  0  0  0
   -1.1704    1.6571    0.6001 H   0  0  0  0  0  0  0  0  0  0  0  0
    0.5349    1.8641    0.1906 H   0  0  0  0  0  0  0  0  0  0  0  0
   -0.7795    1.5725   -1.4731 C   0  0  0  0  0  0  0  0  0  0  0  0
   -0.2599    1.0272   -2.4311 O   0  0  0  0  0  0  0  0  0  0  0  0
   -1.7345    2.4473   -1.6754 N   0  0  0  0  0  0  0  0  0  0  0  0
   -1.9995    2.5977   -2.6329 H   0  0  0  0  0  0  0  0  0  0  0  0
   -2.1909    2.8954   -0.9034 H   0  0  0  0  0  0  0  0  0  0  0  0
    0.5867   -0.4198    1.6255 C   0  0  0  0  0  0  0  0  0  0  0  0
    1.1077    0.5304    2.2095 O   0  0  0  0  0  0  0  0  0  0  0  0
    0.6079   -1.6610    2.1209 N   0  0  0  0  0  0  0  0  0  0  0  0
    0.2218   -2.3976    1.5390 H   0  0  0  0  0  0  0  0  0  0  0  0
    1.2161   -2.0329    3.3970 C   0  0  0  0  0  0  0  0  0  0  0  0
    0.7752   -1.4400    4.2014 H   0  0  0  0  0  0  0  0  0  0  0  0
    1.0485   -3.0921    3.5970 H   0  0  0  0  0  0  0  0  0  0  0  0
    2.2892   -1.8369    3.3649 H   0  0  0  0  0  0  0  0  0  0  0  0
  5  6  2  0  0  0  0
  5  7  1  0  0  0  0
  2  3  1  0  0  0  0
  2  4  1  0  0  0  0
  2  5  1  0  0  0  0
  1  2  1  0  0  0  0
 19 20  2  0  0  0  0
 19 21  1  0  0  0  0
 16 17  1  0  0  0  0
 16 18  1  0  0  0  0
 14 15  2  0  0  0  0
 14 16  1  0  0  0  0
 11 12  1  0  0  0  0
 11 13  1  0  0  0  0
 11 14  1  0  0  0  0
  9 10  1  0  0  0  0
  9 11  1  0  0  0  0
  9 19  1  0  0  0  0
  7  8  1  0  0  0  0
  7  9  1  0  0  0  0
 23 24  1  0  0  0  0
 23 25  1  0  0  0  0
 23 26  1  0  0  0  0
 21 22  1  0  0  0  0
 21 23  1  0  0  0  0
M  END
$$$$
default_name
  -OEChem-01062215323D

 26 25  0     1  0  0  0  0  0999 V2000
   -3.0232   -3.6924    1.0038 H   0  0  0  0  0  0  0  0  0  0  0  0
   -3.0082   -2.6684    0.6318 C   0  0  0  0  0  0  0  0  0  0  0  0
   -3.6332   -2.0414    1.2658 H   0  0  0  0  0  0  0  0  0  0  0  0
   -3.3762   -2.6444   -0.3912 H   0  0  0  0  0  0  0  0  0  0  0  0
   -1.5882   -2.1554    0.6658 C   0  0  0  0  0  0  0  0  0  0  0  0
   -0.6832   -2.8764    1.0638 O   0  0  0  0  0  0  0  0  0  0  0  0
   -1.3952   -0.9084    0.2428 N   0  0  0  0  0  0  0  0  0  0  0  0
   -2.1972   -0.3644   -0.0422 H   0  0  0  0  0  0  0  0  0  0  0  0
   -0.1122   -0.1994    0.2658 C   0  0  1  0  0  0  0  0  0  0  0  0
    0.5283   -0.6149   -0.5164 H   0  0  0  0  0  0  0  0  0  0  0  0
   -0.3647    1.2944   -0.0372 C   0  0  0  0  0  0  0  0  0  0  0  0
   -1.1704    1.6571    0.6001 H   0  0  0  0  0  0  0  0  0  0  0  0
    0.5349    1.8641    0.1906 H   0  0  0  0  0  0  0  0  0  0  0  0
   -0.7795    1.5725   -1.4731 C   0  0  0  0  0  0  0  0  0  0  0  0
   -0.2599    1.0272   -2.4311 O   0  0  0  0  0  0  0  0  0  0  0  0
   -1.7345    2.4473   -1.6754 N   0  0  0  0  0  0  0  0  0  0  0  0
   -1.9995    2.5977   -2.6329 H   0  0  0  0  0  0  0  0  0  0  0  0
   -2.1909    2.8954   -0.9034 H   0  0  0  0  0  0  0  0  0  0  0  0
    0.5867   -0.4198    1.6255 C   0  0  0  0  0  0  0  0  0  0  0  0
    0.8614    0.5454    2.3385 O   0  0  0  0  0  0  0  0  0  0  0  0
    0.8813   -1.6749    1.9781 N   0  0  0  0  0  0  0  0  0  0  0  0
    0.6887   -2.4034    1.2981 H   0  0  0  0  0  0  0  0  0  0  0  0
    1.5287   -2.0521    3.2332 C   0  0  0  0  0  0  0  0  0  0  0  0
    0.9446   -1.6762    4.0760 H   0  0  0  0  0  0  0  0  0  0  0  0
    1.6046   -3.1380    3.3037 H   0  0  0  0  0  0  0  0  0  0  0  0
    2.5284   -1.6166    3.2777 H   0  0  0  0  0  0  0  0  0  0  0  0
  5  6  2  0  0  0  0
  5  7  1  0  0  0  0
  2  3  1  0  0  0  0
  2  4  1  0  0  0  0
  2  5  1  0  0  0  0
  1  2  1  0  0  0  0
 19 20  2  0  0  0  0
 19 21  1  0  0  0  0
 16 17  1  0  0  0  0
 16 18  1  0  0  0  0
 14 15  2  0  0  0  0
 14 16  1  0  0  0  0
 11 12  1  0  0  0  0
 11 13  1  0  0  0  0
 11 14  1  0  0  0  0
  9 10  1  0  0  0  0
  9 11  1  0  0  0  0
  9 19  1  0  0  0  0
  7  8  1  0  0  0  0
  7  9  1  0  0  0  0
 23 24  1  0  0  0  0
 23 25  1  0  0  0  0
 23 26  1  0  0  0  0
 21 22  1  0  0  0  0
 21 23  1  0  0  0  0
M  END
$$$$
default_name
  -OEChem-01062215323D

 26 25  0     1  0  0  0  0  0999 V2000
   -3.0232   -3.6924    1.0038 H   0  0  0  0  0  0  0  0  0  0  0  0
   -3.0082   -2.6684    0.6318 C   0  0  0  0  0  0  0  0  0  0  0  0
   -3.6332   -2.0414    1.2658 H   0  0  0  0  0  0  0  0  0  0  0  0
   -3.3762   -2.6444   -0.3912 H   0  0  0  0  0  0  0  0  0  0  0  0
   -1.5882   -2.1554    0.6658 C   0  0  0  0  0  0  0  0  0  0  0  0
   -0.6832   -2.8764    1.0638 O   0  0  0  0  0  0  0  0  0  0  0  0
   -1.3952   -0.9084    0.2428 N   0  0  0  0  0  0  0  0  0  0  0  0
   -2.1972   -0.3644   -0.0422 H   0  0  0  0  0  0  0  0  0  0  0  0
   -0.1122   -0.1994    0.2658 C   0  0  1  0  0  0  0  0  0  0  0  0
    0.5283   -0.6149   -0.5164 H   0  0  0  0  0  0  0  0  0  0  0  0
   -0.3647    1.2944   -0.0372 C   0  0  0  0  0  0  0  0  0  0  0  0
   -1.1704    1.6571    0.6001 H   0  0  0  0  0  0  0  0  0  0  0  0
    0.5349    1.8641    0.1906 H   0  0  0  0  0  0  0  0  0  0  0  0
   -0.7795    1.5725   -1.4731 C   0  0  0  0  0  0  0  0  0  0  0  0
   -0.2599    1.0272   -2.4311 O   0  0  0  0  0  0  0  0  0  0  0  0
   -1.7345    2.4473   -1.6754 N   0  0  0  0  0  0  0  0  0  0  0  0
   -1.9995    2.5977   -2.6329 H   0  0  0  0  0  0  0  0  0  0  0  0
   -2.1909    2.8954   -0.9034 H   0  0  0  0  0  0  0  0  0  0  0  0
    0.5867   -0.4198    1.6255 C   0  0  0  0  0  0  0  0  0  0  0  0
    0.6152    0.4886    2.4558 O   0  0  0  0  0  0  0  0  0  0  0  0
    1.1538   -1.6093    1.8487 N   0  0  0  0  0  0  0  0  0  0  0  0
    1.1499   -2.2745    1.0819 H   0  0  0  0  0  0  0  0  0  0  0  0
    1.8411   -1.9802    3.0843 C   0  0  0  0  0  0  0  0  0  0  0  0
    1.1666   -1.8509    3.9335 H   0  0  0  0  0  0  0  0  0  0  0  0
    2.1631   -3.0213    3.0355 H   0  0  0  0  0  0  0  0  0  0  0  0
    2.7125   -1.3391    3.2280 H   0  0  0  0  0  0  0  0  0  0  0  0
  5  6  2  0  0  0  0
  5  7  1  0  0  0  0
  2  3  1  0  0  0  0
  2  4  1  0  0  0  0
  2  5  1  0  0  0  0
  1  2  1  0  0  0  0
 19 20  2  0  0  0  0
 19 21  1  0  0  0  0
 16 17  1  0  0  0  0
 16 18  1  0  0  0  0
 14 15  2  0  0  0  0
 14 16  1  0  0  0  0
 11 12  1  0  0  0  0
 11 13  1  0  0  0  0
 11 14  1  0  0  0  0
  9 10  1  0  0  0  0
  9 11  1  0  0  0  0
  9 19  1  0  0  0  0
  7  8  1  0  0  0  0
  7  9  1  0  0  0  0
 23 24  1  0  0  0  0
 23 25  1  0  0  0  0
 23 26  1  0  0  0  0
 21 22  1  0  0  0  0
 21 23  1  0  0  0  0
M  END
$$$$
default_name
  -OEChem-01062215323D

 26 25  0     1  0  0  0  0  0999 V2000
   -3.0232   -3.6924    1.0038 H   0  0  0  0  0  0  0  0  0  0  0  0
   -3.0082   -2.6684    0.6318 C   0  0  0  0  0  0  0  0  0  0  0  0
   -3.6332   -2.0414    1.2658 H   0  0  0  0  0  0  0  0  0  0  0  0
   -3.3762   -2.6444   -0.3912 H   0  0  0  0  0  0  0  0  0  0  0  0
   -1.5882   -2.1554    0.6658 C   0  0  0  0  0  0  0  0  0  0  0  0
   -0.6832   -2.8764    1.0638 O   0  0  0  0  0  0  0  0  0  0  0  0
   -1.3952   -0.9084    0.2428 N   0  0  0  0  0  0  0  0  0  0  0  0
   -2.1972   -0.3644   -0.0422 H   0  0  0  0  0  0  0  0  0  0  0  0
   -0.1122   -0.1994    0.2658 C   0  0  1  0  0  0  0  0  0  0  0  0
    0.5283   -0.6149   -0.5164 H   0  0  0  0  0  0  0  0  0  0  0  0
   -0.3647    1.2944   -0.0372 C   0  0  0  0  0  0  0  0  0  0  0  0
   -1.1704    1.6571    0.6001 H   0  0  0  0  0  0  0  0  0  0  0  0
    0.5349    1.8641    0.1906 H   0  0  0  0  0  0  0  0  0  0  0  0
   -0.7795    1.5725   -1.4731 C   0  0  0  0  0  0  0  0  0  0  0  0
   -0.2599    1.0272   -2.4311 O   0  0  0  0  0  0  0  0  0  0  0  0
   -1.7345    2.4473   -1.6754 N   0  0  0  0  0  0  0  0  0  0  0  0
   -1.9995    2.5977   -2.6329 H   0  0  0  0  0  0  0  0  0  0  0  0
   -2.1909    2.8954   -0.9034 H   0  0  0  0  0  0  0  0  0  0  0  0
    0.5867   -0.4198    1.6255 C   0  0  0  0  0  0  0  0  0  0  0  0
    0.3861    0.3639    2.5534 O   0  0  0  0  0  0  0  0  0  0  0  0
    1.4068   -1.4688    1.7414 N   0  0  0  0  0  0  0  0  0  0  0  0
    1.5739   -2.0195    0.9053 H   0  0  0  0  0  0  0  0  0  0  0  0
    2.1319   -1.8222    2.9604 C   0  0  0  0  0  0  0  0  0  0  0  0
    1.4262   -1.9525    3.7837 H   0  0  0  0  0  0  0  0  0  0  0  0
    2.6859   -2.7500    2.8108 H   0  0  0  0  0  0  0  0  0  0  0  0
    2.8289   -1.0233    3.2194 H   0  0  0  0  0  0  0  0  0  0  0  0
  5  6  2  0  0  0  0
  5  7  1  0  0  0  0
  2  3  1  0  0  0  0
  2  4  1  0  0  0  0
  2  5  1  0  0  0  0
  1  2  1  0  0  0  0
 19 20  2  0  0  0  0
 19 21  1  0  0  0  0
 16 17  1  0  0  0  0
 16 18  1  0  0  0  0
 14 15  2  0  0  0  0
 14 16  1  0  0  0  0
 11 12  1  0  0  0  0
 11 13  1  0  0  0  0
 11 14  1  0  0  0  0
  9 10  1  0  0  0  0
  9 11  1  0  0  0  0
  9 19  1  0  0  0  0
  7  8  1  0  0  0  0
  7  9  1  0  0  0  0
 23 24  1  0  0  0  0
 23 25  1  0  0  0  0
 23 26  1  0  0  0  0
 21 22  1  0  0  0  0
 21 23  1  0  0  0  0
M  END
$$$$
default_name
  -OEChem-01062215323D

 26 25  0     1  0  0  0  0  0999 V2000
   -3.0232   -3.6924    1.0038 H   0  0  0  0  0  0  0  0  0  0  0  0
   -3.0082   -2.6684    0.6318 C   0  0  0  0  0  0  0  0  0  0  0  0
   -3.6332   -2.0414    1.2658 H   0  0  0  0  0  0  0  0  0  0  0  0
   -3.3762   -2.6444   -0.3912 H   0  0  0  0  0  0  0  0  0  0  0  0
   -1.5882   -2.1554    0.6658 C   0  0  0  0  0  0  0  0  0  0  0  0
   -0.6832   -2.8764    1.0638 O   0  0  0  0  0  0  0  0  0  0  0  0
   -1.3952   -0.9084    0.2428 N   0  0  0  0  0  0  0  0  0  0  0  0
   -2.1972   -0.3644   -0.0422 H   0  0  0  0  0  0  0  0  0  0  0  0
   -0.1122   -0.1994    0.2658 C   0  0  1  0  0  0  0  0  0  0  0  0
    0.5283   -0.6149   -0.5164 H   0  0  0  0  0  0  0  0  0  0  0  0
   -0.3647    1.2944   -0.0372 C   0  0  0  0  0  0  0  0  0  0  0  0
   -1.1704    1.6571    0.6001 H   0  0  0  0  0  0  0  0  0  0  0  0
    0.5349    1.8641    0.1906 H   0  0  0  0  0  0  0  0  0  0  0  0
   -0.7795    1.5725   -1.4731 C   0  0  0  0  0  0  0  0  0  0  0  0
   -0.2599    1.0272   -2.4311 O   0  0  0  0  0  0  0  0  0  0  0  0
   -1.7345    2.4473   -1.6754 N   0  0  0  0  0  0  0  0  0  0  0  0
   -1.9995    2.5977   -2.6329 H   0  0  0  0  0  0  0  0  0  0  0  0
   -2.1909    2.8954   -0.9034 H   0  0  0  0  0  0  0  0  0  0  0  0
    0.5867   -0.4198    1.6255 C   0  0  0  0  0  0  0  0  0  0  0  0
    0.1896    0.1798    2.6246 O   0  0  0  0  0  0  0  0  0  0  0  0
    1.6232   -1.2628    1.6636 N   0  0  0  0  0  0  0  0  0  0  0  0
    1.9320   -1.6559    0.7802 H   0  0  0  0  0  0  0  0  0  0  0  0
    2.3815   -1.5888    2.8700 C   0  0  0  0  0  0  0  0  0  0  0  0
    1.7056   -1.9739    3.6366 H   0  0  0  0  0  0  0  0  0  0  0  0
    3.1373   -2.3424    2.6448 H   0  0  0  0  0  0  0  0  0  0  0  0
    2.8697   -0.6907    3.2523 H   0  0  0  0  0  0  0  0  0  0  0  0
  5  6  2  0  0  0  0
  5  7  1  0  0  0  0
  2  3  1  0  0  0  0
  2  4  1  0  0  0  0
  2  5  1  0  0  0  0
  1  2  1  0  0  0  0
 19 20  2  0  0  0  0
 19 21  1  0  0  0  0
 16 17  1  0  0  0  0
 16 18  1  0  0  0  0
 14 15  2  0  0  0  0
 14 16  1  0  0  0  0
 11 12  1  0  0  0  0
 11 13  1  0  0  0  0
 11 14  1  0  0  0  0
  9 10  1  0  0  0  0
  9 11  1  0  0  0  0
  9 19  1  0  0  0  0
  7  8  1  0  0  0  0
  7  9  1  0  0  0  0
 23 24  1  0  0  0  0
 23 25  1  0  0  0  0
 23 26  1  0  0  0  0
 21 22  1  0  0  0  0
 21 23  1  0  0  0  0
M  END
$$$$
default_name
  -OEChem-01062215323D

 26 25  0     1  0  0  0  0  0999 V2000
   -3.0232   -3.6924    1.0038 H   0  0  0  0  0  0  0  0  0  0  0  0
   -3.0082   -2.6684    0.6318 C   0  0  0  0  0  0  0  0  0  0  0  0
   -3.6332   -2.0414    1.2658 H   0  0  0  0  0  0  0  0  0  0  0  0
   -3.3762   -2.6444   -0.3912 H   0  0  0  0  0  0  0  0  0  0  0  0
   -1.5882   -2.1554    0.6658 C   0  0  0  0  0  0  0  0  0  0  0  0
   -0.6832   -2.8764    1.0638 O   0  0  0  0  0  0  0  0  0  0  0  0
   -1.3952   -0.9084    0.2428 N   0  0  0  0  0  0  0  0  0  0  0  0
   -2.1972   -0.3644   -0.0422 H   0  0  0  0  0  0  0  0  0  0  0  0
   -0.1122   -0.1994    0.2658 C   0  0  1  0  0  0  0  0  0  0  0  0
    0.5283   -0.6149   -0.5164 H   0  0  0  0  0  0  0  0  0  0  0  0
   -0.3647    1.2944   -0.0372 C   0  0  0  0  0  0  0  0  0  0  0  0
   -1.1704    1.6571    0.6001 H   0  0  0  0  0  0  0  0  0  0  0  0
    0.5349    1.8641    0.1906 H   0  0  0  0  0  0  0  0  0  0  0  0
   -0.7795    1.5725   -1.4731 C   0  0  0  0  0  0  0  0  0  0  0  0
   -0.2599    1.0272   -2.4311 O   0  0  0  0  0  0  0  0  0  0  0  0
   -1.7345    2.4473   -1.6754 N   0  0  0  0  0  0  0  0  0  0  0  0
   -1.9995    2.5977   -2.6329 H   0  0  0  0  0  0  0  0  0  0  0  0
   -2.1909    2.8954   -0.9034 H   0  0  0  0  0  0  0  0  0  0  0  0
    0.5867   -0.4198    1.6255 C   0  0  0  0  0  0  0  0  0  0  0  0
    0.0390   -0.0511    2.6645 O   0  0  0  0  0  0  0  0  0  0  0  0
    1.7881   -1.0054    1.6205 N   0  0  0  0  0  0  0  0  0  0  0  0
    2.1996   -1.2085    0.7151 H   0  0  0  0  0  0  0  0  0  0  0  0
    2.5726   -1.2959    2.8192 C   0  0  0  0  0  0  0  0  0  0  0  0
    1.9858   -1.9137    3.5023 H   0  0  0  0  0  0  0  0  0  0  0  0
    3.4866   -1.8265    2.5489 H   0  0  0  0  0  0  0  0  0  0  0  0
    2.8321   -0.3641    3.3246 H   0  0  0  0  0  0  0  0  0  0  0  0
  5  6  2  0  0  0  0
  5  7  1  0  0  0  0
  2  3  1  0  0  0  0
  2  4  1  0  0  0  0
  2  5  1  0  0  0  0
  1  2  1  0  0  0  0
 19 20  2  0  0  0  0
 19 21  1  0  0  0  0
 16 17  1  0  0  0  0
 16 18  1  0  0  0  0
 14 15  2  0  0  0  0
 14 16  1  0  0  0  0
 11 12  1  0  0  0  0
 11 13  1  0  0  0  0
 11 14  1  0  0  0  0
  9 10  1  0  0  0  0
  9 11  1  0  0  0  0
  9 19  1  0  0  0  0
  7  8  1  0  0  0  0
  7  9  1  0  0  0  0
 23 24  1  0  0  0  0
 23 25  1  0  0  0  0
 23 26  1  0  0  0  0
 21 22  1  0  0  0  0
 21 23  1  0  0  0  0
M  END
$$$$
default_name
  -OEChem-01062215323D

 26 25  0     1  0  0  0  0  0999 V2000
   -3.0232   -3.6924    1.0038 H   0  0  0  0  0  0  0  0  0  0  0  0
   -3.0082   -2.6684    0.6318 C   0  0  0  0  0  0  0  0  0  0  0  0
   -3.6332   -2.0414    1.2658 H   0  0  0  0  0  0  0  0  0  0  0  0
   -3.3762   -2.6444   -0.3912 H   0  0  0  0  0  0  0  0  0  0  0  0
   -1.5882   -2.1554    0.6658 C   0  0  0  0  0  0  0  0  0  0  0  0
   -0.6832   -2.8764    1.0638 O   0  0  0  0  0  0  0  0  0  0  0  0
   -1.3952   -0.9084    0.2428 N   0  0  0  0  0  0  0  0  0  0  0  0
   -2.1972   -0.3644   -0.0422 H   0  0  0  0  0  0  0  0  0  0  0  0
   -0.1122   -0.1994    0.2658 C   0  0  1  0  0  0  0  0  0  0  0  0
    0.5283   -0.6149   -0.5164 H   0  0  0  0  0  0  0  0  0  0  0  0
   -0.3647    1.2944   -0.0372 C   0  0  0  0  0  0  0  0  0  0  0  0
   -1.1704    1.6571    0.6001 H   0  0  0  0  0  0  0  0  0  0  0  0
    0.5349    1.8641    0.1906 H   0  0  0  0  0  0  0  0  0  0  0  0
   -0.7795    1.5725   -1.4731 C   0  0  0  0  0  0  0  0  0  0  0  0
   -0.2599    1.0272   -2.4311 O   0  0  0  0  0  0  0  0  0  0  0  0
   -1.7345    2.4473   -1.6754 N   0  0  0  0  0  0  0  0  0  0  0  0
   -1.9995    2.5977   -2.6329 H   0  0  0  0  0  0  0  0  0  0  0  0
   -2.1909    2.8954   -0.9034 H   0  0  0  0  0  0  0  0  0  0  0  0
    0.5867   -0.4198    1.6255 C   0  0  0  0  0  0  0  0  0  0  0  0
   -0.0552   -0.3131    2.6705 O   0  0  0  0  0  0  0  0  0  0  0  0
    1.8904   -0.7142    1.6152 N   0  0  0  0  0  0  0  0  0  0  0  0
    2.3586   -0.7077    0.7146 H   0  0  0  0  0  0  0  0  0  0  0  0
    2.6925   -0.9634    2.8116 C   0  0  0  0  0  0  0  0  0  0  0  0
    2.2476   -1.7760    3.3900 H   0  0  0  0  0  0  0  0  0  0  0  0
    3.7100   -1.2373    2.5296 H   0  0  0  0  0  0  0  0  0  0  0  0
    2.7188   -0.0656    3.4313 H   0  0  0  0  0  0  0  0  0  0  0  0
  5  6  2  0  0  0  0
  5  7  1  0  0  0  0
  2  3  1  0  0  0  0
  2  4  1  0  0  0  0
  2  5  1  0  0  0  0
  1  2  1  0  0  0  0
 19 20  2  0  0  0  0
 19 21  1  0  0  0  0
 16 17  1  0  0  0  0
 16 18  1  0  0  0  0
 14 15  2  0  0  0  0
 14 16  1  0  0  0  0
 11 12  1  0  0  0  0
 11 13  1  0  0  0  0
 11 14  1  0  0  0  0
  9 10  1  0  0  0  0
  9 11  1  0  0  0  0
  9 19  1  0  0  0  0
  7  8  1  0  0  0  0
  7  9  1  0  0  0  0
 23 24  1  0  0  0  0
 23 25  1  0  0  0  0
 23 26  1  0  0  0  0
 21 22  1  0  0  0  0
 21 23  1  0  0  0  0
M  END
$$$$
default_name
  -OEChem-01062215323D

 26 25  0     1  0  0  0  0  0999 V2000
   -3.0232   -3.6924    1.0038 H   0  0  0  0  0  0  0  0  0  0  0  0
   -3.0082   -2.6684    0.6318 C   0  0  0  0  0  0  0  0  0  0  0  0
   -3.6332   -2.0414    1.2658 H   0  0  0  0  0  0  0  0  0  0  0  0
   -3.3762   -2.6444   -0.3912 H   0  0  0  0  0  0  0  0  0  0  0  0
   -1.5882   -2.1554    0.6658 C   0  0  0  0  0  0  0  0  0  0  0  0
   -0.6832   -2.8764    1.0638 O   0  0  0  0  0  0  0  0  0  0  0  0
   -1.3952   -0.9084    0.2428 N   0  0  0  0  0  0  0  0  0  0  0  0
   -2.1972   -0.3644   -0.0422 H   0  0  0  0  0  0  0  0  0  0  0  0
   -0.1122   -0.1994    0.2658 C   0  0  1  0  0  0  0  0  0  0  0  0
    0.5283   -0.6149   -0.5164 H   0  0  0  0  0  0  0  0  0  0  0  0
   -0.3647    1.2944   -0.0372 C   0  0  0  0  0  0  0  0  0  0  0  0
   -1.1704    1.6571    0.6001 H   0  0  0  0  0  0  0  0  0  0  0  0
    0.5349    1.8641    0.1906 H   0  0  0  0  0  0  0  0  0  0  0  0
   -0.7795    1.5725   -1.4731 C   0  0  0  0  0  0  0  0  0  0  0  0
   -0.2599    1.0272   -2.4311 O   0  0  0  0  0  0  0  0  0  0  0  0
   -1.7345    2.4473   -1.6754 N   0  0  0  0  0  0  0  0  0  0  0  0
   -1.9995    2.5977   -2.6329 H   0  0  0  0  0  0  0  0  0  0  0  0
   -2.1909    2.8954   -0.9034 H   0  0  0  0  0  0  0  0  0  0  0  0
    0.5867   -0.4198    1.6255 C   0  0  0  0  0  0  0  0  0  0  0  0
   -0.0868   -0.5884    2.6421 O   0  0  0  0  0  0  0  0  0  0  0  0
    1.9230   -0.4090    1.6479 N   0  0  0  0  0  0  0  0  0  0  0  0
    2.3981   -0.1878    0.7786 H   0  0  0  0  0  0  0  0  0  0  0  0
    2.7327   -0.6141    2.8475 C   0  0  0  0  0  0  0  0  0  0  0  0
    2.4734   -1.5702    3.3074 H   0  0  0  0  0  0  0  0  0  0  0  0
    3.7923   -0.6151    2.5882 H   0  0  0  0  0  0  0  0  0  0  0  0
    2.5373    0.1845    3.5651 H   0  0  0  0  0  0  0  0  0  0  0  0
  5  6  2  0  0  0  0
  5  7  1  0  0  0  0
  2  3  1  0  0  0  0
  2  4  1  0  0  0  0
  2  5  1  0  0  0  0
  1  2  1  0  0  0  0
 19 20  2  0  0  0  0
 19 21  1  0  0  0  0
 16 17  1  0  0  0  0
 16 18  1  0  0  0  0
 14 15  2  0  0  0  0
 14 16  1  0  0  0  0
 11 12  1  0  0  0  0
 11 13  1  0  0  0  0
 11 14  1  0  0  0  0
  9 10  1  0  0  0  0
  9 11  1  0  0  0  0
  9 19  1  0  0  0  0
  7  8  1  0  0  0  0
  7  9  1  0  0  0  0
 23 24  1  0  0  0  0
 23 25  1  0  0  0  0
 23 26  1  0  0  0  0
 21 22  1  0  0  0  0
 21 23  1  0  0  0  0
M  END
$$$$
default_name
  -OEChem-01062215323D

 26 25  0     1  0  0  0  0  0999 V2000
   -3.0232   -3.6924    1.0038 H   0  0  0  0  0  0  0  0  0  0  0  0
   -3.0082   -2.6684    0.6318 C   0  0  0  0  0  0  0  0  0  0  0  0
   -3.6332   -2.0414    1.2658 H   0  0  0  0  0  0  0  0  0  0  0  0
   -3.3762   -2.6444   -0.3912 H   0  0  0  0  0  0  0  0  0  0  0  0
   -1.5882   -2.1554    0.6658 C   0  0  0  0  0  0  0  0  0  0  0  0
   -0.6832   -2.8764    1.0638 O   0  0  0  0  0  0  0  0  0  0  0  0
   -1.3952   -0.9084    0.2428 N   0  0  0  0  0  0  0  0  0  0  0  0
   -2.1972   -0.3644   -0.0422 H   0  0  0  0  0  0  0  0  0  0  0  0
   -0.1122   -0.1994    0.2658 C   0  0  1  0  0  0  0  0  0  0  0  0
    0.5283   -0.6149   -0.5164 H   0  0  0  0  0  0  0  0  0  0  0  0
   -0.3647    1.2944   -0.0372 C   0  0  0  0  0  0  0  0  0  0  0  0
   -1.1704    1.6571    0.6001 H   0  0  0  0  0  0  0  0  0  0  0  0
    0.5349    1.8641    0.1906 H   0  0  0  0  0  0  0  0  0  0  0  0
   -0.7795    1.5725   -1.4731 C   0  0  0  0  0  0  0  0  0  0  0  0
   -0.2599    1.0272   -2.4311 O   0  0  0  0  0  0  0  0  0  0  0  0
   -1.7345    2.4473   -1.6754 N   0  0  0  0  0  0  0  0  0  0  0  0
   -1.9995    2.5977   -2.6329 H   0  0  0  0  0  0  0  0  0  0  0  0
   -2.1909    2.8954   -0.9034 H   0  0  0  0  0  0  0  0  0  0  0  0
    0.5867   -0.4198    1.6255 C   0  0  0  0  0  0  0  0  0  0  0  0
   -0.0535   -0.8581    2.5812 O   0  0  0  0  0  0  0  0  0  0  0  0
    1.8838   -0.1105    1.7164 N   0  0  0  0  0  0  0  0  0  0  0  0
    2.3154    0.3160    0.9028 H   0  0  0  0  0  0  0  0  0  0  0  0
    2.6907   -0.2718    2.9246 C   0  0  0  0  0  0  0  0  0  0  0  0
    2.6476   -1.3103    3.2600 H   0  0  0  0  0  0  0  0  0  0  0  0
    3.7279   -0.0021    2.7207 H   0  0  0  0  0  0  0  0  0  0  0  0
    2.3001    0.3690    3.7169 H   0  0  0  0  0  0  0  0  0  0  0  0
  5  6  2  0  0  0  0
  5  7  1  0  0  0  0
  2  3  1  0  0  0  0
  2  4  1  0  0  0  0
  2  5  1  0  0  0  0
  1  2  1  0  0  0  0
 19 20  2  0  0  0  0
 19 21  1  0  0  0  0
 16 17  1  0  0  0  0
 16 18  1  0  0  0  0
 14 15  2  0  0  0  0
 14 16  1  0  0  0  0
 11 12  1  0  0  0  0
 11 13  1  0  0  0  0
 11 14  1  0  0  0  0
  9 10  1  0  0  0  0
  9 11  1  0  0  0  0
  9 19  1  0  0  0  0
  7  8  1  0  0  0  0
  7  9  1  0  0  0  0
 23 24  1  0  0  0  0
 23 25  1  0  0  0  0
 23 26  1  0  0  0  0
 21 22  1  0  0  0  0
 21 23  1  0  0  0  0
M  END
$$$$
default_name
  -OEChem-01062215323D

 26 25  0     1  0  0  0  0  0999 V2000
   -3.0232   -3.6924    1.0038 H   0  0  0  0  0  0  0  0  0  0  0  0
   -3.0082   -2.6684    0.6318 C   0  0  0  0  0  0  0  0  0  0  0  0
   -3.6332   -2.0414    1.2658 H   0  0  0  0  0  0  0  0  0  0  0  0
   -3.3762   -2.6444   -0.3912 H   0  0  0  0  0  0  0  0  0  0  0  0
   -1.5882   -2.1554    0.6658 C   0  0  0  0  0  0  0  0  0  0  0  0
   -0.6832   -2.8764    1.0638 O   0  0  0  0  0  0  0  0  0  0  0  0
   -1.3952   -0.9084    0.2428 N   0  0  0  0  0  0  0  0  0  0  0  0
   -2.1972   -0.3644   -0.0422 H   0  0  0  0  0  0  0  0  0  0  0  0
   -0.1122   -0.1994    0.2658 C   0  0  1  0  0  0  0  0  0  0  0  0
    0.4207   -0.4152   -0.6638 H   0  0  0  0  0  0  0  0  0  0  0  0
   -0.3853    1.3193    0.3433 C   0  0  0  0  0  0  0  0  0  0  0  0
   -1.1008    1.5135    1.1417 H   0  0  0  0  0  0  0  0  0  0  0  0
    0.5417    1.8393    0.5804 H   0  0  0  0  0  0  0  0  0  0  0  0
   -0.9743    1.9073   -0.9288 C   0  0  0  0  0  0  0  0  0  0  0  0
   -0.5849    1.6026   -2.0427 O   0  0  0  0  0  0  0  0  0  0  0  0
   -1.9381    2.7874   -0.8068 N   0  0  0  0  0  0  0  0  0  0  0  0
   -2.3197    3.1456   -1.6646 H   0  0  0  0  0  0  0  0  0  0  0  0
   -2.2891    3.0407    0.0974 H   0  0  0  0  0  0  0  0  0  0  0  0
    0.7497   -0.7088    1.4420 C   0  0  0  0  0  0  0  0  0  0  0  0
    0.3114   -1.5812    2.1919 O   0  0  0  0  0  0  0  0  0  0  0  0
    1.9588   -0.1645    1.6096 N   0  0  0  0  0  0  0  0  0  0  0  0
    2.2106    0.6012    0.9928 H   0  0  0  0  0  0  0  0  0  0  0  0
    2.8986   -0.5435    2.6631 C   0  0  0  0  0  0  0  0  0  0  0  0
    3.1021   -1.6150    2.6067 H   0  0  0  0  0  0  0  0  0  0  0  0
    3.8332    0.0070    2.5468 H   0  0  0  0  0  0  0  0  0  0  0  0
    2.4669   -0.3197    3.6401 H   0  0  0  0  0  0  0  0  0  0  0  0
  5  6  2  0  0  0  0
  5  7  1  0  0  0  0
  2  3  1  0  0  0  0
  2  4  1  0  0  0  0
  2  5  1  0  0  0  0
  1  2  1  0  0  0  0
 19 20  2  0  0  0  0
 19 21  1  0  0  0  0
 16 17  1  0  0  0  0
 16 18  1  0  0  0  0
 14 15  2  0  0  0  0
 14 16  1  0  0  0  0
 11 12  1  0  0  0  0
 11 13  1  0  0  0  0
 11 14  1  0  0  0  0
  9 10  1  0  0  0  0
  9 11  1  0  0  0  0
  9 19  1  0  0  0  0
  7  8  1  0  0  0  0
  7  9  1  0  0  0  0
 23 24  1  0  0  0  0
 23 25  1  0  0  0  0
 23 26  1  0  0  0  0
 21 22  1  0  0  0  0
 21 23  1  0  0  0  0
M  END
$$$$
default_name
  -OEChem-01062215323D

 26 25  0     1  0  0  0  0  0999 V2000
   -3.0232   -3.6924    1.0038 H   0  0  0  0  0  0  0  0  0  0  0  0
   -3.0082   -2.6684    0.6318 C   0  0  0  0  0  0  0  0  0  0  0  0
   -3.6332   -2.0414    1.2658 H   0  0  0  0  0  0  0  0  0  0  0  0
   -3.3762   -2.6444   -0.3912 H   0  0  0  0  0  0  0  0  0  0  0  0
   -1.5882   -2.1554    0.6658 C   0  0  0  0  0  0  0  0  0  0  0  0
   -0.6832   -2.8764    1.0638 O   0  0  0  0  0  0  0  0  0  0  0  0
   -1.3952   -0.9084    0.2428 N   0  0  0  0  0  0  0  0  0  0  0  0
   -2.1972   -0.3644   -0.0422 H   0  0  0  0  0  0  0  0  0  0  0  0
   -0.1122   -0.1994    0.2658 C   0  0  1  0  0  0  0  0  0  0  0  0
    0.4207   -0.4152   -0.6638 H   0  0  0  0  0  0  0  0  0  0  0  0
   -0.3853    1.3193    0.3433 C   0  0  0  0  0  0  0  0  0  0  0  0
   -1.1008    1.5135    1.1417 H   0  0  0  0  0  0  0  0  0  0  0  0
    0.5417    1.8393    0.5804 H   0  0  0  0  0  0  0  0  0  0  0  0
   -0.9743    1.9073   -0.9288 C   0  0  0  0  0  0  0  0  0  0  0  0
   -0.5849    1.6026   -2.0427 O   0  0  0  0  0  0  0  0  0  0  0  0
   -1.9381    2.7874   -0.8068 N   0  0  0  0  0  0  0  0  0  0  0  0
   -2.3197    3.1456   -1.6646 H   0  0  0  0  0  0  0  0  0  0  0  0
   -2.2891    3.0407    0.0974 H   0  0  0  0  0  0  0  0  0  0  0  0
    0.7497   -0.7088    1.4420 C   0  0  0  0  0  0  0  0  0  0  0  0
    0.4459   -1.7530    2.0189 O   0  0  0  0  0  0  0  0  0  0  0  0
    1.8079    0.0240    1.8019 N   0  0  0  0  0  0  0  0  0  0  0  0
    1.9418    0.9090    1.3230 H   0  0  0  0  0  0  0  0  0  0  0  0
    2.7280   -0.3252    2.8827 C   0  0  0  0  0  0  0  0  0  0  0  0
    3.1486   -1.3168    2.7018 H   0  0  0  0  0  0  0  0  0  0  0  0
    3.5370    0.4047    2.9361 H   0  0  0  0  0  0  0  0  0  0  0  0
    2.1917   -0.3401    3.8330 H   0  0  0  0  0  0  0  0  0  0  0  0
  5  6  2  0  0  0  0
  5  7  1  0  0  0  0
  2  3  1  0  0  0  0
  2  4  1  0  0  0  0
  2  5  1  0  0  0  0
  1  2  1  0  0  0  0
 19 20  2  0  0  0  0
 19 21  1  0  0  0  0
 16 17  1  0  0  0  0
 16 18  1  0  0  0  0
 14 15  2  0  0  0  0
 14 16  1  0  0  0  0
 11 12  1  0  0  0  0
 11 13  1  0  0  0  0
 11 14  1  0  0  0  0
  9 10  1  0  0  0  0
  9 11  1  0  0  0  0
  9 19  1  0  0  0  0
  7  8  1  0  0  0  0
  7  9  1  0  0  0  0
 23 24  1  0  0  0  0
 23 25  1  0  0  0  0
 23 26  1  0  0  0  0
 21 22  1  0  0  0  0
 21 23  1  0  0  0  0
M  END
$$$$
default_name
  -OEChem-01062215323D

 26 25  0     1  0  0  0  0  0999 V2000
   -3.0232   -3.6924    1.0038 H   0  0  0  0  0  0  0  0  0  0  0  0
   -3.0082   -2.6684    0.6318 C   0  0  0  0  0  0  0  0  0  0  0  0
   -3.6332   -2.0414    1.2658 H   0  0  0  0  0  0  0  0  0  0  0  0
   -3.3762   -2.6444   -0.3912 H   0  0  0  0  0  0  0  0  0  0  0  0
   -1.5882   -2.1554    0.6658 C   0  0  0  0  0  0  0  0  0  0  0  0
   -0.6832   -2.8764    1.0638 O   0  0  0  0  0  0  0  0  0  0  0  0
   -1.3952   -0.9084    0.2428 N   0  0  0  0  0  0  0  0  0  0  0  0
   -2.1972   -0.3644   -0.0422 H   0  0  0  0  0  0  0  0  0  0  0  0
   -0.1122   -0.1994    0.2658 C   0  0  1  0  0  0  0  0  0  0  0  0
    0.4207   -0.4152   -0.6638 H   0  0  0  0  0  0  0  0  0  0  0  0
   -0.3853    1.3193    0.3433 C   0  0  0  0  0  0  0  0  0  0  0  0
   -1.1008    1.5135    1.1417 H   0  0  0  0  0  0  0  0  0  0  0  0
    0.5417    1.8393    0.5804 H   0  0  0  0  0  0  0  0  0  0  0  0
   -0.9743    1.9073   -0.9288 C   0  0  0  0  0  0  0  0  0  0  0  0
   -0.5849    1.6026   -2.0427 O   0  0  0  0  0  0  0  0  0  0  0  0
   -1.9381    2.7874   -0.8068 N   0  0  0  0  0  0  0  0  0  0  0  0
   -2.3197    3.1456   -1.6646 H   0  0  0  0  0  0  0  0  0  0  0  0
   -2.2891    3.0407    0.0974 H   0  0  0  0  0  0  0  0  0  0  0  0
    0.7497   -0.7088    1.4420 C   0  0  0  0  0  0  0  0  0  0  0  0
    0.6245   -1.8675    1.8384 O   0  0  0  0  0  0  0  0  0  0  0  0
    1.6085    0.1487    2.0019 N   0  0  0  0  0  0  0  0  0  0  0  0
    1.5932    1.1055    1.6635 H   0  0  0  0  0  0  0  0  0  0  0  0
    2.5015   -0.1798    3.1116 C   0  0  0  0  0  0  0  0  0  0  0  0
    3.1267   -1.0333    2.8406 H   0  0  0  0  0  0  0  0  0  0  0  0
    3.1393    0.6742    3.3442 H   0  0  0  0  0  0  0  0  0  0  0  0
    1.9134   -0.4418    3.9928 H   0  0  0  0  0  0  0  0  0  0  0  0
  5  6  2  0  0  0  0
  5  7  1  0  0  0  0
  2  3  1  0  0  0  0
  2  4  1  0  0  0  0
  2  5  1  0  0  0  0
  1  2  1  0  0  0  0
 19 20  2  0  0  0  0
 19 21  1  0  0  0  0
 16 17  1  0  0  0  0
 16 18  1  0  0  0  0
 14 15  2  0  0  0  0
 14 16  1  0  0  0  0
 11 12  1  0  0  0  0
 11 13  1  0  0  0  0
 11 14  1  0  0  0  0
  9 10  1  0  0  0  0
  9 11  1  0  0  0  0
  9 19  1  0  0  0  0
  7  8  1  0  0  0  0
  7  9  1  0  0  0  0
 23 24  1  0  0  0  0
 23 25  1  0  0  0  0
 23 26  1  0  0  0  0
 21 22  1  0  0  0  0
 21 23  1  0  0  0  0
M  END
$$$$
default_name
  -OEChem-01062215323D

 26 25  0     1  0  0  0  0  0999 V2000
   -3.0232   -3.6924    1.0038 H   0  0  0  0  0  0  0  0  0  0  0  0
   -3.0082   -2.6684    0.6318 C   0  0  0  0  0  0  0  0  0  0  0  0
   -3.6332   -2.0414    1.2658 H   0  0  0  0  0  0  0  0  0  0  0  0
   -3.3762   -2.6444   -0.3912 H   0  0  0  0  0  0  0  0  0  0  0  0
   -1.5882   -2.1554    0.6658 C   0  0  0  0  0  0  0  0  0  0  0  0
   -0.6832   -2.8764    1.0638 O   0  0  0  0  0  0  0  0  0  0  0  0
   -1.3952   -0.9084    0.2428 N   0  0  0  0  0  0  0  0  0  0  0  0
   -2.1972   -0.3644   -0.0422 H   0  0  0  0  0  0  0  0  0  0  0  0
   -0.1122   -0.1994    0.2658 C   0  0  1  0  0  0  0  0  0  0  0  0
    0.4207   -0.4152   -0.6638 H   0  0  0  0  0  0  0  0  0  0  0  0
   -0.3853    1.3193    0.3433 C   0  0  0  0  0  0  0  0  0  0  0  0
   -1.1008    1.5135    1.1417 H   0  0  0  0  0  0  0  0  0  0  0  0
    0.5417    1.8393    0.5804 H   0  0  0  0  0  0  0  0  0  0  0  0
   -0.9743    1.9073   -0.9288 C   0  0  0  0  0  0  0  0  0  0  0  0
   -0.5849    1.6026   -2.0427 O   0  0  0  0  0  0  0  0  0  0  0  0
   -1.9381    2.7874   -0.8068 N   0  0  0  0  0  0  0  0  0  0  0  0
   -2.3197    3.1456   -1.6646 H   0  0  0  0  0  0  0  0  0  0  0  0
   -2.2891    3.0407    0.0974 H   0  0  0  0  0  0  0  0  0  0  0  0
    0.7497   -0.7088    1.4420 C   0  0  0  0  0  0  0  0  0  0  0  0
    0.8350   -1.9169    1.6628 O   0  0  0  0  0  0  0  0  0  0  0  0
    1.3743    0.2008    2.1962 N   0  0  0  0  0  0  0  0  0  0  0  0
    1.1888    1.1775    1.9910 H   0  0  0  0  0  0  0  0  0  0  0  0
    2.2345   -0.1169    3.3345 C   0  0  0  0  0  0  0  0  0  0  0  0
    3.0378   -0.7838    3.0138 H   0  0  0  0  0  0  0  0  0  0  0  0
    2.6671    0.7972    3.7434 H   0  0  0  0  0  0  0  0  0  0  0  0
    1.6510   -0.6181    4.1087 H   0  0  0  0  0  0  0  0  0  0  0  0
  5  6  2  0  0  0  0
  5  7  1  0  0  0  0
  2  3  1  0  0  0  0
  2  4  1  0  0  0  0
  2  5  1  0  0  0  0
  1  2  1  0  0  0  0
 19 20  2  0  0  0  0
 19 21  1  0  0  0  0
 16 17  1  0  0  0  0
 16 18  1  0  0  0  0
 14 15  2  0  0  0  0
 14 16  1  0  0  0  0
 11 12  1  0  0  0  0
 11 13  1  0  0  0  0
 11 14  1  0  0  0  0
  9 10  1  0  0  0  0
  9 11  1  0  0  0  0
  9 19  1  0  0  0  0
  7  8  1  0  0  0  0
  7  9  1  0  0  0  0
 23 24  1  0  0  0  0
 23 25  1  0  0  0  0
 23 26  1  0  0  0  0
 21 22  1  0  0  0  0
 21 23  1  0  0  0  0
M  END
$$$$
default_name
  -OEChem-01062215323D

 26 25  0     1  0  0  0  0  0999 V2000
   -3.0232   -3.6924    1.0038 H   0  0  0  0  0  0  0  0  0  0  0  0
   -3.0082   -2.6684    0.6318 C   0  0  0  0  0  0  0  0  0  0  0  0
   -3.6332   -2.0414    1.2658 H   0  0  0  0  0  0  0  0  0  0  0  0
   -3.3762   -2.6444   -0.3912 H   0  0  0  0  0  0  0  0  0  0  0  0
   -1.5882   -2.1554    0.6658 C   0  0  0  0  0  0  0  0  0  0  0  0
   -0.6832   -2.8764    1.0638 O   0  0  0  0  0  0  0  0  0  0  0  0
   -1.3952   -0.9084    0.2428 N   0  0  0  0  0  0  0  0  0  0  0  0
   -2.1972   -0.3644   -0.0422 H   0  0  0  0  0  0  0  0  0  0  0  0
   -0.1122   -0.1994    0.2658 C   0  0  1  0  0  0  0  0  0  0  0  0
    0.4207   -0.4152   -0.6638 H   0  0  0  0  0  0  0  0  0  0  0  0
   -0.3853    1.3193    0.3433 C   0  0  0  0  0  0  0  0  0  0  0  0
   -1.1008    1.5135    1.1417 H   0  0  0  0  0  0  0  0  0  0  0  0
    0.5417    1.8393    0.5804 H   0  0  0  0  0  0  0  0  0  0  0  0
   -0.9743    1.9073   -0.9288 C   0  0  0  0  0  0  0  0  0  0  0  0
   -0.5849    1.6026   -2.0427 O   0  0  0  0  0  0  0  0  0  0  0  0
   -1.9381    2.7874   -0.8068 N   0  0  0  0  0  0  0  0  0  0  0  0
   -2.3197    3.1456   -1.6646 H   0  0  0  0  0  0  0  0  0  0  0  0
   -2.2891    3.0407    0.0974 H   0  0  0  0  0  0  0  0  0  0  0  0
    0.7497   -0.7088    1.4420 C   0  0  0  0  0  0  0  0  0  0  0  0
    1.0630   -1.8977    1.5041 O   0  0  0  0  0  0  0  0  0  0  0  0
    1.1212    0.1771    2.3713 N   0  0  0  0  0  0  0  0  0  0  0  0
    0.7560    1.1200    2.2833 H   0  0  0  0  0  0  0  0  0  0  0  0
    1.9452   -0.1411    3.5361 C   0  0  0  0  0  0  0  0  0  0  0  0
    2.8879   -0.5853    3.2096 H   0  0  0  0  0  0  0  0  0  0  0  0
    2.1528    0.7653    4.1065 H   0  0  0  0  0  0  0  0  0  0  0  0
    1.4224   -0.8568    4.1729 H   0  0  0  0  0  0  0  0  0  0  0  0
  5  6  2  0  0  0  0
  5  7  1  0  0  0  0
  2  3  1  0  0  0  0
  2  4  1  0  0  0  0
  2  5  1  0  0  0  0
  1  2  1  0  0  0  0
 19 20  2  0  0  0  0
 19 21  1  0  0  0  0
 16 17  1  0  0  0  0
 16 18  1  0  0  0  0
 14 15  2  0  0  0  0
 14 16  1  0  0  0  0
 11 12  1  0  0  0  0
 11 13  1  0  0  0  0
 11 14  1  0  0  0  0
  9 10  1  0  0  0  0
  9 11  1  0  0  0  0
  9 19  1  0  0  0  0
  7  8  1  0  0  0  0
  7  9  1  0  0  0  0
 23 24  1  0  0  0  0
 23 25  1  0  0  0  0
 23 26  1  0  0  0  0
 21 22  1  0  0  0  0
 21 23  1  0  0  0  0
M  END
$$$$
default_name
  -OEChem-01062215323D

 26 25  0     1  0  0  0  0  0999 V2000
   -3.0232   -3.6924    1.0038 H   0  0  0  0  0  0  0  0  0  0  0  0
   -3.0082   -2.6684    0.6318 C   0  0  0  0  0  0  0  0  0  0  0  0
   -3.6332   -2.0414    1.2658 H   0  0  0  0  0  0  0  0  0  0  0  0
   -3.3762   -2.6444   -0.3912 H   0  0  0  0  0  0  0  0  0  0  0  0
   -1.5882   -2.1554    0.6658 C   0  0  0  0  0  0  0  0  0  0  0  0
   -0.6832   -2.8764    1.0638 O   0  0  0  0  0  0  0  0  0  0  0  0
   -1.3952   -0.9084    0.2428 N   0  0  0  0  0  0  0  0  0  0  0  0
   -2.1972   -0.3644   -0.0422 H   0  0  0  0  0  0  0  0  0  0  0  0
   -0.1122   -0.1994    0.2658 C   0  0  1  0  0  0  0  0  0  0  0  0
    0.4207   -0.4152   -0.6638 H   0  0  0  0  0  0  0  0  0  0  0  0
   -0.3853    1.3193    0.3433 C   0  0  0  0  0  0  0  0  0  0  0  0
   -1.1008    1.5135    1.1417 H   0  0  0  0  0  0  0  0  0  0  0  0
    0.5417    1.8393    0.5804 H   0  0  0  0  0  0  0  0  0  0  0  0
   -0.9743    1.9073   -0.9288 C   0  0  0  0  0  0  0  0  0  0  0  0
   -0.5849    1.6026   -2.0427 O   0  0  0  0  0  0  0  0  0  0  0  0
   -1.9381    2.7874   -0.8068 N   0  0  0  0  0  0  0  0  0  0  0  0
   -2.3197    3.1456   -1.6646 H   0  0  0  0  0  0  0  0  0  0  0  0
   -2.2891    3.0407    0.0974 H   0  0  0  0  0  0  0  0  0  0  0  0
    0.7497   -0.7088    1.4420 C   0  0  0  0  0  0  0  0  0  0  0  0
    1.2931   -1.8112    1.3729 O   0  0  0  0  0  0  0  0  0  0  0  0
    0.8665    0.0789    2.5154 N   0  0  0  0  0  0  0  0  0  0  0  0
    0.3243    0.9370    2.5203 H   0  0  0  0  0  0  0  0  0  0  0  0
    1.6532   -0.2505    3.7026 C   0  0  0  0  0  0  0  0  0  0  0  0
    2.6874   -0.4514    3.4145 H   0  0  0  0  0  0  0  0  0  0  0  0
    1.6312    0.5806    4.4087 H   0  0  0  0  0  0  0  0  0  0  0  0
    1.2432   -1.1416    4.1808 H   0  0  0  0  0  0  0  0  0  0  0  0
  5  6  2  0  0  0  0
  5  7  1  0  0  0  0
  2  3  1  0  0  0  0
  2  4  1  0  0  0  0
  2  5  1  0  0  0  0
  1  2  1  0  0  0  0
 19 20  2  0  0  0  0
 19 21  1  0  0  0  0
 16 17  1  0  0  0  0
 16 18  1  0  0  0  0
 14 15  2  0  0  0  0
 14 16  1  0  0  0  0
 11 12  1  0  0  0  0
 11 13  1  0  0  0  0
 11 14  1  0  0  0  0
  9 10  1  0  0  0  0
  9 11  1  0  0  0  0
  9 19  1  0  0  0  0
  7  8  1  0  0  0  0
  7  9  1  0  0  0  0
 23 24  1  0  0  0  0
 23 25  1  0  0  0  0
 23 26  1  0  0  0  0
 21 22  1  0  0  0  0
 21 23  1  0  0  0  0
M  END
$$$$
default_name
  -OEChem-01062215323D

 26 25  0     1  0  0  0  0  0999 V2000
   -3.0232   -3.6924    1.0038 H   0  0  0  0  0  0  0  0  0  0  0  0
   -3.0082   -2.6684    0.6318 C   0  0  0  0  0  0  0  0  0  0  0  0
   -3.6332   -2.0414    1.2658 H   0  0  0  0  0  0  0  0  0  0  0  0
   -3.3762   -2.6444   -0.3912 H   0  0  0  0  0  0  0  0  0  0  0  0
   -1.5882   -2.1554    0.6658 C   0  0  0  0  0  0  0  0  0  0  0  0
   -0.6832   -2.8764    1.0638 O   0  0  0  0  0  0  0  0  0  0  0  0
   -1.3952   -0.9084    0.2428 N   0  0  0  0  0  0  0  0  0  0  0  0
   -2.1972   -0.3644   -0.0422 H   0  0  0  0  0  0  0  0  0  0  0  0
   -0.1122   -0.1994    0.2658 C   0  0  1  0  0  0  0  0  0  0  0  0
    0.4207   -0.4152   -0.6638 H   0  0  0  0  0  0  0  0  0  0  0  0
   -0.3853    1.3193    0.3433 C   0  0  0  0  0  0  0  0  0  0  0  0
   -1.1008    1.5135    1.1417 H   0  0  0  0  0  0  0  0  0  0  0  0
    0.5417    1.8393    0.5804 H   0  0  0  0  0  0  0  0  0  0  0  0
   -0.9743    1.9073   -0.9288 C   0  0  0  0  0  0  0  0  0  0  0  0
   -0.5849    1.6026   -2.0427 O   0  0  0  0  0  0  0  0  0  0  0  0
   -1.9381    2.7874   -0.8068 N   0  0  0  0  0  0  0  0  0  0  0  0
   -2.3197    3.1456   -1.6646 H   0  0  0  0  0  0  0  0  0  0  0  0
   -2.2891    3.0407    0.0974 H   0  0  0  0  0  0  0  0  0  0  0  0
    0.7497   -0.7088    1.4420 C   0  0  0  0  0  0  0  0  0  0  0  0
    1.5094   -1.6635    1.2784 O   0  0  0  0  0  0  0  0  0  0  0  0
    0.6275   -0.0869    2.6187 N   0  0  0  0  0  0  0  0  0  0  0  0
   -0.0768    0.6409    2.6860 H   0  0  0  0  0  0  0  0  0  0  0  0
    1.3786   -0.4378    3.8227 C   0  0  0  0  0  0  0  0  0  0  0  0
    2.4498   -0.3912    3.6147 H   0  0  0  0  0  0  0  0  0  0  0  0
    1.1380    0.2559    4.6294 H   0  0  0  0  0  0  0  0  0  0  0  0
    1.1255   -1.4533    4.1321 H   0  0  0  0  0  0  0  0  0  0  0  0
  5  6  2  0  0  0  0
  5  7  1  0  0  0  0
  2  3  1  0  0  0  0
  2  4  1  0  0  0  0
  2  5  1  0  0  0  0
  1  2  1  0  0  0  0
 19 20  2  0  0  0  0
 19 21  1  0  0  0  0
 16 17  1  0  0  0  0
 16 18  1  0  0  0  0
 14 15  2  0  0  0  0
 14 16  1  0  0  0  0
 11 12  1  0  0  0  0
 11 13  1  0  0  0  0
 11 14  1  0  0  0  0
  9 10  1  0  0  0  0
  9 11  1  0  0  0  0
  9 19  1  0  0  0  0
  7  8  1  0  0  0  0
  7  9  1  0  0  0  0
 23 24  1  0  0  0  0
 23 25  1  0  0  0  0
 23 26  1  0  0  0  0
 21 22  1  0  0  0  0
 21 23  1  0  0  0  0
M  END
$$$$
default_name
  -OEChem-01062215323D

 26 25  0     1  0  0  0  0  0999 V2000
   -3.0232   -3.6924    1.0038 H   0  0  0  0  0  0  0  0  0  0  0  0
   -3.0082   -2.6684    0.6318 C   0  0  0  0  0  0  0  0  0  0  0  0
   -3.6332   -2.0414    1.2658 H   0  0  0  0  0  0  0  0  0  0  0  0
   -3.3762   -2.6444   -0.3912 H   0  0  0  0  0  0  0  0  0  0  0  0
   -1.5882   -2.1554    0.6658 C   0  0  0  0  0  0  0  0  0  0  0  0
   -0.6832   -2.8764    1.0638 O   0  0  0  0  0  0  0  0  0  0  0  0
   -1.3952   -0.9084    0.2428 N   0  0  0  0  0  0  0  0  0  0  0  0
   -2.1972   -0.3644   -0.0422 H   0  0  0  0  0  0  0  0  0  0  0  0
   -0.1122   -0.1994    0.2658 C   0  0  1  0  0  0  0  0  0  0  0  0
    0.4207   -0.4152   -0.6638 H   0  0  0  0  0  0  0  0  0  0  0  0
   -0.3853    1.3193    0.3433 C   0  0  0  0  0  0  0  0  0  0  0  0
   -1.1008    1.5135    1.1417 H   0  0  0  0  0  0  0  0  0  0  0  0
    0.5417    1.8393    0.5804 H   0  0  0  0  0  0  0  0  0  0  0  0
   -0.9743    1.9073   -0.9288 C   0  0  0  0  0  0  0  0  0  0  0  0
   -0.5849    1.6026   -2.0427 O   0  0  0  0  0  0  0  0  0  0  0  0
   -1.9381    2.7874   -0.8068 N   0  0  0  0  0  0  0  0  0  0  0  0
   -2.3197    3.1456   -1.6646 H   0  0  0  0  0  0  0  0  0  0  0  0
   -2.2891    3.0407    0.0974 H   0  0  0  0  0  0  0  0  0  0  0  0
    0.7497   -0.7088    1.4420 C   0  0  0  0  0  0  0  0  0  0  0  0
    1.6973   -1.4645    1.2269 O   0  0  0  0  0  0  0  0  0  0  0  0
    0.4205   -0.3092    2.6742 N   0  0  0  0  0  0  0  0  0  0  0  0
   -0.4201    0.2519    2.7691 H   0  0  0  0  0  0  0  0  0  0  0  0
    1.1400   -0.6902    3.8882 C   0  0  0  0  0  0  0  0  0  0  0  0
    2.1913   -0.4088    3.7964 H   0  0  0  0  0  0  0  0  0  0  0  0
    0.7068   -0.1869    4.7536 H   0  0  0  0  0  0  0  0  0  0  0  0
    1.0774   -1.7705    4.0300 H   0  0  0  0  0  0  0  0  0  0  0  0
  5  6  2  0  0  0  0
  5  7  1  0  0  0  0
  2  3  1  0  0  0  0
  2  4  1  0  0  0  0
  2  5  1  0  0  0  0
  1  2  1  0  0  0  0
 19 20  2  0  0  0  0
 19 21  1  0  0  0  0
 16 17  1  0  0  0  0
 16 18  1  0  0  0  0
 14 15  2  0  0  0  0
 14 16  1  0  0  0  0
 11 12  1  0  0  0  0
 11 13  1  0  0  0  0
 11 14  1  0  0  0  0
  9 10  1  0  0  0  0
  9 11  1  0  0  0  0
  9 19  1  0  0  0  0
  7  8  1  0  0  0  0
  7  9  1  0  0  0  0
 23 24  1  0  0  0  0
 23 25  1  0  0  0  0
 23 26  1  0  0  0  0
 21 22  1  0  0  0  0
 21 23  1  0  0  0  0
M  END
$$$$
default_name
  -OEChem-01062215323D

 26 25  0     1  0  0  0  0  0999 V2000
   -3.0232   -3.6924    1.0038 H   0  0  0  0  0  0  0  0  0  0  0  0
   -3.0082   -2.6684    0.6318 C   0  0  0  0  0  0  0  0  0  0  0  0
   -3.6332   -2.0414    1.2658 H   0  0  0  0  0  0  0  0  0  0  0  0
   -3.3762   -2.6444   -0.3912 H   0  0  0  0  0  0  0  0  0  0  0  0
   -1.5882   -2.1554    0.6658 C   0  0  0  0  0  0  0  0  0  0  0  0
   -0.6832   -2.8764    1.0638 O   0  0  0  0  0  0  0  0  0  0  0  0
   -1.3952   -0.9084    0.2428 N   0  0  0  0  0  0  0  0  0  0  0  0
   -2.1972   -0.3644   -0.0422 H   0  0  0  0  0  0  0  0  0  0  0  0
   -0.1122   -0.1994    0.2658 C   0  0  1  0  0  0  0  0  0  0  0  0
    0.4207   -0.4152   -0.6638 H   0  0  0  0  0  0  0  0  0  0  0  0
   -0.3853    1.3193    0.3433 C   0  0  0  0  0  0  0  0  0  0  0  0
   -1.1008    1.5135    1.1417 H   0  0  0  0  0  0  0  0  0  0  0  0
    0.5417    1.8393    0.5804 H   0  0  0  0  0  0  0  0  0  0  0  0
   -0.9743    1.9073   -0.9288 C   0  0  0  0  0  0  0  0  0  0  0  0
   -0.5849    1.6026   -2.0427 O   0  0  0  0  0  0  0  0  0  0  0  0
   -1.9381    2.7874   -0.8068 N   0  0  0  0  0  0  0  0  0  0  0  0
   -2.3197    3.1456   -1.6646 H   0  0  0  0  0  0  0  0  0  0  0  0
   -2.2891    3.0407    0.0974 H   0  0  0  0  0  0  0  0  0  0  0  0
    0.7497   -0.7088    1.4420 C   0  0  0  0  0  0  0  0  0  0  0  0
    1.8440   -1.2278    1.2219 O   0  0  0  0  0  0  0  0  0  0  0  0
    0.2596   -0.5726    2.6780 N   0  0  0  0  0  0  0  0  0  0  0  0
   -0.6821   -0.2035    2.7638 H   0  0  0  0  0  0  0  0  0  0  0  0
    0.9537   -0.9905    3.8947 C   0  0  0  0  0  0  0  0  0  0  0  0
    1.9296   -0.5030    3.9474 H   0  0  0  0  0  0  0  0  0  0  0  0
    0.3670   -0.7175    4.7729 H   0  0  0  0  0  0  0  0  0  0  0  0
    1.1022   -2.0716    3.8814 H   0  0  0  0  0  0  0  0  0  0  0  0
  5  6  2  0  0  0  0
  5  7  1  0  0  0  0
  2  3  1  0  0  0  0
  2  4  1  0  0  0  0
  2  5  1  0  0  0  0
  1  2  1  0  0  0  0
 19 20  2  0  0  0  0
 19 21  1  0  0  0  0
 16 17  1  0  0  0  0
 16 18  1  0  0  0  0
 14 15  2  0  0  0  0
 14 16  1  0  0  0  0
 11 12  1  0  0  0  0
 11 13  1  0  0  0  0
 11 14  1  0  0  0  0
  9 10  1  0  0  0  0
  9 11  1  0  0  0  0
  9 19  1  0  0  0  0
  7  8  1  0  0  0  0
  7  9  1  0  0  0  0
 23 24  1  0  0  0  0
 23 25  1  0  0  0  0
 23 26  1  0  0  0  0
 21 22  1  0  0  0  0
 21 23  1  0  0  0  0
M  END
$$$$
default_name
  -OEChem-01062215323D

 26 25  0     1  0  0  0  0  0999 V2000
   -3.0232   -3.6924    1.0038 H   0  0  0  0  0  0  0  0  0  0  0  0
   -3.0082   -2.6684    0.6318 C   0  0  0  0  0  0  0  0  0  0  0  0
   -3.6332   -2.0414    1.2658 H   0  0  0  0  0  0  0  0  0  0  0  0
   -3.3762   -2.6444   -0.3912 H   0  0  0  0  0  0  0  0  0  0  0  0
   -1.5882   -2.1554    0.6658 C   0  0  0  0  0  0  0  0  0  0  0  0
   -0.6832   -2.8764    1.0638 O   0  0  0  0  0  0  0  0  0  0  0  0
   -1.3952   -0.9084    0.2428 N   0  0  0  0  0  0  0  0  0  0  0  0
   -2.1972   -0.3644   -0.0422 H   0  0  0  0  0  0  0  0  0  0  0  0
   -0.1122   -0.1994    0.2658 C   0  0  1  0  0  0  0  0  0  0  0  0
    0.4207   -0.4152   -0.6638 H   0  0  0  0  0  0  0  0  0  0  0  0
   -0.3853    1.3193    0.3433 C   0  0  0  0  0  0  0  0  0  0  0  0
   -1.1008    1.5135    1.1417 H   0  0  0  0  0  0  0  0  0  0  0  0
    0.5417    1.8393    0.5804 H   0  0  0  0  0  0  0  0  0  0  0  0
   -0.9743    1.9073   -0.9288 C   0  0  0  0  0  0  0  0  0  0  0  0
   -0.5849    1.6026   -2.0427 O   0  0  0  0  0  0  0  0  0  0  0  0
   -1.9381    2.7874   -0.8068 N   0  0  0  0  0  0  0  0  0  0  0  0
   -2.3197    3.1456   -1.6646 H   0  0  0  0  0  0  0  0  0  0  0  0
   -2.2891    3.0407    0.0974 H   0  0  0  0  0  0  0  0  0  0  0  0
    0.7497   -0.7088    1.4420 C   0  0  0  0  0  0  0  0  0  0  0  0
    1.9395   -0.9695    1.2638 O   0  0  0  0  0  0  0  0  0  0  0  0
    0.1558   -0.8593    2.6299 N   0  0  0  0  0  0  0  0  0  0  0  0
   -0.8449   -0.6943    2.6706 H   0  0  0  0  0  0  0  0  0  0  0  0
    0.8324   -1.3182    3.8416 C   0  0  0  0  0  0  0  0  0  0  0  0
    1.6825   -0.6674    4.0573 H   0  0  0  0  0  0  0  0  0  0  0  0
    0.1417   -1.2998    4.6858 H   0  0  0  0  0  0  0  0  0  0  0  0
    1.1982   -2.3361    3.6965 H   0  0  0  0  0  0  0  0  0  0  0  0
  5  6  2  0  0  0  0
  5  7  1  0  0  0  0
  2  3  1  0  0  0  0
  2  4  1  0  0  0  0
  2  5  1  0  0  0  0
  1  2  1  0  0  0  0
 19 20  2  0  0  0  0
 19 21  1  0  0  0  0
 16 17  1  0  0  0  0
 16 18  1  0  0  0  0
 14 15  2  0  0  0  0
 14 16  1  0  0  0  0
 11 12  1  0  0  0  0
 11 13  1  0  0  0  0
 11 14  1  0  0  0  0
  9 10  1  0  0  0  0
  9 11  1  0  0  0  0
  9 19  1  0  0  0  0
  7  8  1  0  0  0  0
  7  9  1  0  0  0  0
 23 24  1  0  0  0  0
 23 25  1  0  0  0  0
 23 26  1  0  0  0  0
 21 22  1  0  0  0  0
 21 23  1  0  0  0  0
M  END
$$$$
default_name
  -OEChem-01062215323D

 26 25  0     1  0  0  0  0  0999 V2000
   -3.0232   -3.6924    1.0038 H   0  0  0  0  0  0  0  0  0  0  0  0
   -3.0082   -2.6684    0.6318 C   0  0  0  0  0  0  0  0  0  0  0  0
   -3.6332   -2.0414    1.2658 H   0  0  0  0  0  0  0  0  0  0  0  0
   -3.3762   -2.6444   -0.3912 H   0  0  0  0  0  0  0  0  0  0  0  0
   -1.5882   -2.1554    0.6658 C   0  0  0  0  0  0  0  0  0  0  0  0
   -0.6832   -2.8764    1.0638 O   0  0  0  0  0  0  0  0  0  0  0  0
   -1.3952   -0.9084    0.2428 N   0  0  0  0  0  0  0  0  0  0  0  0
   -2.1972   -0.3644   -0.0422 H   0  0  0  0  0  0  0  0  0  0  0  0
   -0.1122   -0.1994    0.2658 C   0  0  1  0  0  0  0  0  0  0  0  0
    0.4207   -0.4152   -0.6638 H   0  0  0  0  0  0  0  0  0  0  0  0
   -0.3853    1.3193    0.3433 C   0  0  0  0  0  0  0  0  0  0  0  0
   -1.1008    1.5135    1.1417 H   0  0  0  0  0  0  0  0  0  0  0  0
    0.5417    1.8393    0.5804 H   0  0  0  0  0  0  0  0  0  0  0  0
   -0.9743    1.9073   -0.9288 C   0  0  0  0  0  0  0  0  0  0  0  0
   -0.5849    1.6026   -2.0427 O   0  0  0  0  0  0  0  0  0  0  0  0
   -1.9381    2.7874   -0.8068 N   0  0  0  0  0  0  0  0  0  0  0  0
   -2.3197    3.1456   -1.6646 H   0  0  0  0  0  0  0  0  0  0  0  0
   -2.2891    3.0407    0.0974 H   0  0  0  0  0  0  0  0  0  0  0  0
    0.7497   -0.7088    1.4420 C   0  0  0  0  0  0  0  0  0  0  0  0
    1.9773   -0.7073    1.3497 O   0  0  0  0  0  0  0  0  0  0  0  0
    0.1162   -1.1498    2.5331 N   0  0  0  0  0  0  0  0  0  0  0  0
   -0.8975   -1.1869    2.4958 H   0  0  0  0  0  0  0  0  0  0  0  0
    0.7843   -1.6510    3.7328 C   0  0  0  0  0  0  0  0  0  0  0  0
    1.4668   -0.8907    4.1186 H   0  0  0  0  0  0  0  0  0  0  0  0
    0.0462   -1.8941    4.4984 H   0  0  0  0  0  0  0  0  0  0  0  0
    1.3588   -2.5460    3.4879 H   0  0  0  0  0  0  0  0  0  0  0  0
  5  6  2  0  0  0  0
  5  7  1  0  0  0  0
  2  3  1  0  0  0  0
  2  4  1  0  0  0  0
  2  5  1  0  0  0  0
  1  2  1  0  0  0  0
 19 20  2  0  0  0  0
 19 21  1  0  0  0  0
 16 17  1  0  0  0  0
 16 18  1  0  0  0  0
 14 15  2  0  0  0  0
 14 16  1  0  0  0  0
 11 12  1  0  0  0  0
 11 13  1  0  0  0  0
 11 14  1  0  0  0  0
  9 10  1  0  0  0  0
  9 11  1  0  0  0  0
  9 19  1  0  0  0  0
  7  8  1  0  0  0  0
  7  9  1  0  0  0  0
 23 24  1  0  0  0  0
 23 25  1  0  0  0  0
 23 26  1  0  0  0  0
 21 22  1  0  0  0  0
 21 23  1  0  0  0  0
M  END
$$$$
default_name
  -OEChem-01062215323D

 26 25  0     1  0  0  0  0  0999 V2000
   -3.0232   -3.6924    1.0038 H   0  0  0  0  0  0  0  0  0  0  0  0
   -3.0082   -2.6684    0.6318 C   0  0  0  0  0  0  0  0  0  0  0  0
   -3.6332   -2.0414    1.2658 H   0  0  0  0  0  0  0  0  0  0  0  0
   -3.3762   -2.6444   -0.3912 H   0  0  0  0  0  0  0  0  0  0  0  0
   -1.5882   -2.1554    0.6658 C   0  0  0  0  0  0  0  0  0  0  0  0
   -0.6832   -2.8764    1.0638 O   0  0  0  0  0  0  0  0  0  0  0  0
   -1.3952   -0.9084    0.2428 N   0  0  0  0  0  0  0  0  0  0  0  0
   -2.1972   -0.3644   -0.0422 H   0  0  0  0  0  0  0  0  0  0  0  0
   -0.1122   -0.1994    0.2658 C   0  0  1  0  0  0  0  0  0  0  0  0
    0.4207   -0.4152   -0.6638 H   0  0  0  0  0  0  0  0  0  0  0  0
   -0.3853    1.3193    0.3433 C   0  0  0  0  0  0  0  0  0  0  0  0
   -1.1008    1.5135    1.1417 H   0  0  0  0  0  0  0  0  0  0  0  0
    0.5417    1.8393    0.5804 H   0  0  0  0  0  0  0  0  0  0  0  0
   -0.9743    1.9073   -0.9288 C   0  0  0  0  0  0  0  0  0  0  0  0
   -0.5849    1.6026   -2.0427 O   0  0  0  0  0  0  0  0  0  0  0  0
   -1.9381    2.7874   -0.8068 N   0  0  0  0  0  0  0  0  0  0  0  0
   -2.3197    3.1456   -1.6646 H   0  0  0  0  0  0  0  0  0  0  0  0
   -2.2891    3.0407    0.0974 H   0  0  0  0  0  0  0  0  0  0  0  0
    0.7497   -0.7088    1.4420 C   0  0  0  0  0  0  0  0  0  0  0  0
    1.9547   -0.4590    1.4738 O   0  0  0  0  0  0  0  0  0  0  0  0
    0.1434   -1.4242    2.3943 N   0  0  0  0  0  0  0  0  0  0  0  0
   -0.8363   -1.6479    2.2513 H   0  0  0  0  0  0  0  0  0  0  0  0
    0.8128   -1.9662    3.5754 C   0  0  0  0  0  0  0  0  0  0  0  0
    1.2973   -1.1578    4.1272 H   0  0  0  0  0  0  0  0  0  0  0  0
    0.0872   -2.4599    4.2233 H   0  0  0  0  0  0  0  0  0  0  0  0
    1.5731   -2.6869    3.2699 H   0  0  0  0  0  0  0  0  0  0  0  0
  5  6  2  0  0  0  0
  5  7  1  0  0  0  0
  2  3  1  0  0  0  0
  2  4  1  0  0  0  0
  2  5  1  0  0  0  0
  1  2  1  0  0  0  0
 19 20  2  0  0  0  0
 19 21  1  0  0  0  0
 16 17  1  0  0  0  0
 16 18  1  0  0  0  0
 14 15  2  0  0  0  0
 14 16  1  0  0  0  0
 11 12  1  0  0  0  0
 11 13  1  0  0  0  0
 11 14  1  0  0  0  0
  9 10  1  0  0  0  0
  9 11  1  0  0  0  0
  9 19  1  0  0  0  0
  7  8  1  0  0  0  0
  7  9  1  0  0  0  0
 23 24  1  0  0  0  0
 23 25  1  0  0  0  0
 23 26  1  0  0  0  0
 21 22  1  0  0  0  0
 21 23  1  0  0  0  0
M  END
$$$$
default_name
  -OEChem-01062215323D

 26 25  0     1  0  0  0  0  0999 V2000
   -3.0232   -3.6924    1.0038 H   0  0  0  0  0  0  0  0  0  0  0  0
   -3.0082   -2.6684    0.6318 C   0  0  0  0  0  0  0  0  0  0  0  0
   -3.6332   -2.0414    1.2658 H   0  0  0  0  0  0  0  0  0  0  0  0
   -3.3762   -2.6444   -0.3912 H   0  0  0  0  0  0  0  0  0  0  0  0
   -1.5882   -2.1554    0.6658 C   0  0  0  0  0  0  0  0  0  0  0  0
   -0.6832   -2.8764    1.0638 O   0  0  0  0  0  0  0  0  0  0  0  0
   -1.3952   -0.9084    0.2428 N   0  0  0  0  0  0  0  0  0  0  0  0
   -2.1972   -0.3644   -0.0422 H   0  0  0  0  0  0  0  0  0  0  0  0
   -0.1122   -0.1994    0.2658 C   0  0  1  0  0  0  0  0  0  0  0  0
    0.4207   -0.4152   -0.6638 H   0  0  0  0  0  0  0  0  0  0  0  0
   -0.3853    1.3193    0.3433 C   0  0  0  0  0  0  0  0  0  0  0  0
   -1.1008    1.5135    1.1417 H   0  0  0  0  0  0  0  0  0  0  0  0
    0.5417    1.8393    0.5804 H   0  0  0  0  0  0  0  0  0  0  0  0
   -0.9743    1.9073   -0.9288 C   0  0  0  0  0  0  0  0  0  0  0  0
   -0.5849    1.6026   -2.0427 O   0  0  0  0  0  0  0  0  0  0  0  0
   -1.9381    2.7874   -0.8068 N   0  0  0  0  0  0  0  0  0  0  0  0
   -2.3197    3.1456   -1.6646 H   0  0  0  0  0  0  0  0  0  0  0  0
   -2.2891    3.0407    0.0974 H   0  0  0  0  0  0  0  0  0  0  0  0
    0.7497   -0.7088    1.4420 C   0  0  0  0  0  0  0  0  0  0  0  0
    1.8734   -0.2415    1.6276 O   0  0  0  0  0  0  0  0  0  0  0  0
    0.2356   -1.6638    2.2230 N   0  0  0  0  0  0  0  0  0  0  0  0
   -0.6655   -2.0458    1.9538 H   0  0  0  0  0  0  0  0  0  0  0  0
    0.9158   -2.2423    3.3803 C   0  0  0  0  0  0  0  0  0  0  0  0
    1.1854   -1.4504    4.0824 H   0  0  0  0  0  0  0  0  0  0  0  0
    0.2617   -2.9586    3.8795 H   0  0  0  0  0  0  0  0  0  0  0  0
    1.8265   -2.7493    3.0572 H   0  0  0  0  0  0  0  0  0  0  0  0
  5  6  2  0  0  0  0
  5  7  1  0  0  0  0
  2  3  1  0  0  0  0
  2  4  1  0  0  0  0
  2  5  1  0  0  0  0
  1  2  1  0  0  0  0
 19 20  2  0  0  0  0
 19 21  1  0  0  0  0
 16 17  1  0  0  0  0
 16 18  1  0  0  0  0
 14 15  2  0  0  0  0
 14 16  1  0  0  0  0
 11 12  1  0  0  0  0
 11 13  1  0  0  0  0
 11 14  1  0  0  0  0
  9 10  1  0  0  0  0
  9 11  1  0  0  0  0
  9 19  1  0  0  0  0
  7  8  1  0  0  0  0
  7  9  1  0  0  0  0
 23 24  1  0  0  0  0
 23 25  1  0  0  0  0
 23 26  1  0  0  0  0
 21 22  1  0  0  0  0
 21 23  1  0  0  0  0
M  END
$$$$
default_name
  -OEChem-01062215323D

 26 25  0     1  0  0  0  0  0999 V2000
   -3.0232   -3.6924    1.0038 H   0  0  0  0  0  0  0  0  0  0  0  0
   -3.0082   -2.6684    0.6318 C   0  0  0  0  0  0  0  0  0  0  0  0
   -3.6332   -2.0414    1.2658 H   0  0  0  0  0  0  0  0  0  0  0  0
   -3.3762   -2.6444   -0.3912 H   0  0  0  0  0  0  0  0  0  0  0  0
   -1.5882   -2.1554    0.6658 C   0  0  0  0  0  0  0  0  0  0  0  0
   -0.6832   -2.8764    1.0638 O   0  0  0  0  0  0  0  0  0  0  0  0
   -1.3952   -0.9084    0.2428 N   0  0  0  0  0  0  0  0  0  0  0  0
   -2.1972   -0.3644   -0.0422 H   0  0  0  0  0  0  0  0  0  0  0  0
   -0.1122   -0.1994    0.2658 C   0  0  1  0  0  0  0  0  0  0  0  0
    0.4207   -0.4152   -0.6638 H   0  0  0  0  0  0  0  0  0  0  0  0
   -0.3853    1.3193    0.3433 C   0  0  0  0  0  0  0  0  0  0  0  0
   -1.1008    1.5135    1.1417 H   0  0  0  0  0  0  0  0  0  0  0  0
    0.5417    1.8393    0.5804 H   0  0  0  0  0  0  0  0  0  0  0  0
   -0.9743    1.9073   -0.9288 C   0  0  0  0  0  0  0  0  0  0  0  0
   -0.5849    1.6026   -2.0427 O   0  0  0  0  0  0  0  0  0  0  0  0
   -1.9381    2.7874   -0.8068 N   0  0  0  0  0  0  0  0  0  0  0  0
   -2.3197    3.1456   -1.6646 H   0  0  0  0  0  0  0  0  0  0  0  0
   -2.2891    3.0407    0.0974 H   0  0  0  0  0  0  0  0  0  0  0  0
    0.7497   -0.7088    1.4420 C   0  0  0  0  0  0  0  0  0  0  0  0
    1.7388   -0.0696    1.8006 O   0  0  0  0  0  0  0  0  0  0  0  0
    0.3865   -1.8524    2.0307 N   0  0  0  0  0  0  0  0  0  0  0  0
   -0.3966   -2.3536    1.6235 H   0  0  0  0  0  0  0  0  0  0  0  0
    1.0864   -2.4606    3.1608 C   0  0  0  0  0  0  0  0  0  0  0  0
    1.1389   -1.7486    3.9874 H   0  0  0  0  0  0  0  0  0  0  0  0
    0.5579   -3.3563    3.4902 H   0  0  0  0  0  0  0  0  0  0  0  0
    2.1018   -2.7289    2.8643 H   0  0  0  0  0  0  0  0  0  0  0  0
  5  6  2  0  0  0  0
  5  7  1  0  0  0  0
  2  3  1  0  0  0  0
  2  4  1  0  0  0  0
  2  5  1  0  0  0  0
  1  2  1  0  0  0  0
 19 20  2  0  0  0  0
 19 21  1  0  0  0  0
 16 17  1  0  0  0  0
 16 18  1  0  0  0  0
 14 15  2  0  0  0  0
 14 16  1  0  0  0  0
 11 12  1  0  0  0  0
 11 13  1  0  0  0  0
 11 14  1  0  0  0  0
  9 10  1  0  0  0  0
  9 11  1  0  0  0  0
  9 19  1  0  0  0  0
  7  8  1  0  0  0  0
  7  9  1  0  0  0  0
 23 24  1  0  0  0  0
 23 25  1  0  0  0  0
 23 26  1  0  0  0  0
 21 22  1  0  0  0  0
 21 23  1  0  0  0  0
M  END
$$$$
default_name
  -OEChem-01062215323D

 26 25  0     1  0  0  0  0  0999 V2000
   -3.0232   -3.6924    1.0038 H   0  0  0  0  0  0  0  0  0  0  0  0
   -3.0082   -2.6684    0.6318 C   0  0  0  0  0  0  0  0  0  0  0  0
   -3.6332   -2.0414    1.2658 H   0  0  0  0  0  0  0  0  0  0  0  0
   -3.3762   -2.6444   -0.3912 H   0  0  0  0  0  0  0  0  0  0  0  0
   -1.5882   -2.1554    0.6658 C   0  0  0  0  0  0  0  0  0  0  0  0
   -0.6832   -2.8764    1.0638 O   0  0  0  0  0  0  0  0  0  0  0  0
   -1.3952   -0.9084    0.2428 N   0  0  0  0  0  0  0  0  0  0  0  0
   -2.1972   -0.3644   -0.0422 H   0  0  0  0  0  0  0  0  0  0  0  0
   -0.1122   -0.1994    0.2658 C   0  0  1  0  0  0  0  0  0  0  0  0
    0.4207   -0.4152   -0.6638 H   0  0  0  0  0  0  0  0  0  0  0  0
   -0.3853    1.3193    0.3433 C   0  0  0  0  0  0  0  0  0  0  0  0
   -1.1008    1.5135    1.1417 H   0  0  0  0  0  0  0  0  0  0  0  0
    0.5417    1.8393    0.5804 H   0  0  0  0  0  0  0  0  0  0  0  0
   -0.9743    1.9073   -0.9288 C   0  0  0  0  0  0  0  0  0  0  0  0
   -0.5849    1.6026   -2.0427 O   0  0  0  0  0  0  0  0  0  0  0  0
   -1.9381    2.7874   -0.8068 N   0  0  0  0  0  0  0  0  0  0  0  0
   -2.3197    3.1456   -1.6646 H   0  0  0  0  0  0  0  0  0  0  0  0
   -2.2891    3.0407    0.0974 H   0  0  0  0  0  0  0  0  0  0  0  0
    0.7497   -0.7088    1.4420 C   0  0  0  0  0  0  0  0  0  0  0  0
    1.5602    0.0449    1.9810 O   0  0  0  0  0  0  0  0  0  0  0  0
    0.5859   -1.9770    1.8307 N   0  0  0  0  0  0  0  0  0  0  0  0
   -0.0481   -2.5501    1.2830 H   0  0  0  0  0  0  0  0  0  0  0  0
    1.3129   -2.6061    2.9318 C   0  0  0  0  0  0  0  0  0  0  0  0
    1.1608   -2.0322    3.8485 H   0  0  0  0  0  0  0  0  0  0  0  0
    0.9556   -3.6258    3.0820 H   0  0  0  0  0  0  0  0  0  0  0  0
    2.3800   -2.6271    2.7045 H   0  0  0  0  0  0  0  0  0  0  0  0
  5  6  2  0  0  0  0
  5  7  1  0  0  0  0
  2  3  1  0  0  0  0
  2  4  1  0  0  0  0
  2  5  1  0  0  0  0
  1  2  1  0  0  0  0
 19 20  2  0  0  0  0
 19 21  1  0  0  0  0
 16 17  1  0  0  0  0
 16 18  1  0  0  0  0
 14 15  2  0  0  0  0
 14 16  1  0  0  0  0
 11 12  1  0  0  0  0
 11 13  1  0  0  0  0
 11 14  1  0  0  0  0
  9 10  1  0  0  0  0
  9 11  1  0  0  0  0
  9 19  1  0  0  0  0
  7  8  1  0  0  0  0
  7  9  1  0  0  0  0
 23 24  1  0  0  0  0
 23 25  1  0  0  0  0
 23 26  1  0  0  0  0
 21 22  1  0  0  0  0
 21 23  1  0  0  0  0
M  END
$$$$
default_name
  -OEChem-01062215323D

 26 25  0     1  0  0  0  0  0999 V2000
   -3.0232   -3.6924    1.0038 H   0  0  0  0  0  0  0  0  0  0  0  0
   -3.0082   -2.6684    0.6318 C   0  0  0  0  0  0  0  0  0  0  0  0
   -3.6332   -2.0414    1.2658 H   0  0  0  0  0  0  0  0  0  0  0  0
   -3.3762   -2.6444   -0.3912 H   0  0  0  0  0  0  0  0  0  0  0  0
   -1.5882   -2.1554    0.6658 C   0  0  0  0  0  0  0  0  0  0  0  0
   -0.6832   -2.8764    1.0638 O   0  0  0  0  0  0  0  0  0  0  0  0
   -1.3952   -0.9084    0.2428 N   0  0  0  0  0  0  0  0  0  0  0  0
   -2.1972   -0.3644   -0.0422 H   0  0  0  0  0  0  0  0  0  0  0  0
   -0.1122   -0.1994    0.2658 C   0  0  1  0  0  0  0  0  0  0  0  0
    0.4207   -0.4152   -0.6638 H   0  0  0  0  0  0  0  0  0  0  0  0
   -0.3853    1.3193    0.3433 C   0  0  0  0  0  0  0  0  0  0  0  0
   -1.1008    1.5135    1.1417 H   0  0  0  0  0  0  0  0  0  0  0  0
    0.5417    1.8393    0.5804 H   0  0  0  0  0  0  0  0  0  0  0  0
   -0.9743    1.9073   -0.9288 C   0  0  0  0  0  0  0  0  0  0  0  0
   -0.5849    1.6026   -2.0427 O   0  0  0  0  0  0  0  0  0  0  0  0
   -1.9381    2.7874   -0.8068 N   0  0  0  0  0  0  0  0  0  0  0  0
   -2.3197    3.1456   -1.6646 H   0  0  0  0  0  0  0  0  0  0  0  0
   -2.2891    3.0407    0.0974 H   0  0  0  0  0  0  0  0  0  0  0  0
    0.7497   -0.7088    1.4420 C   0  0  0  0  0  0  0  0  0  0  0  0
    1.3497    0.0942    2.1566 O   0  0  0  0  0  0  0  0  0  0  0  0
    0.8201   -2.0292    1.6365 N   0  0  0  0  0  0  0  0  0  0  0  0
    0.3563   -2.6221    0.9555 H   0  0  0  0  0  0  0  0  0  0  0  0
    1.5799   -2.6689    2.7090 C   0  0  0  0  0  0  0  0  0  0  0  0
    1.2497   -2.2817    3.6753 H   0  0  0  0  0  0  0  0  0  0  0  0
    1.4278   -3.7488    2.6828 H   0  0  0  0  0  0  0  0  0  0  0  0
    2.6424   -2.4509    2.5885 H   0  0  0  0  0  0  0  0  0  0  0  0
  5  6  2  0  0  0  0
  5  7  1  0  0  0  0
  2  3  1  0  0  0  0
  2  4  1  0  0  0  0
  2  5  1  0  0  0  0
  1  2  1  0  0  0  0
 19 20  2  0  0  0  0
 19 21  1  0  0  0  0
 16 17  1  0  0  0  0
 16 18  1  0  0  0  0
 14 15  2  0  0  0  0
 14 16  1  0  0  0  0
 11 12  1  0  0  0  0
 11 13  1  0  0  0  0
 11 14  1  0  0  0  0
  9 10  1  0  0  0  0
  9 11  1  0  0  0  0
  9 19  1  0  0  0  0
  7  8  1  0  0  0  0
  7  9  1  0  0  0  0
 23 24  1  0  0  0  0
 23 25  1  0  0  0  0
 23 26  1  0  0  0  0
 21 22  1  0  0  0  0
 21 23  1  0  0  0  0
M  END
$$$$
default_name
  -OEChem-01062215323D

 26 25  0     1  0  0  0  0  0999 V2000
   -3.0232   -3.6924    1.0038 H   0  0  0  0  0  0  0  0  0  0  0  0
   -3.0082   -2.6684    0.6318 C   0  0  0  0  0  0  0  0  0  0  0  0
   -3.6332   -2.0414    1.2658 H   0  0  0  0  0  0  0  0  0  0  0  0
   -3.3762   -2.6444   -0.3912 H   0  0  0  0  0  0  0  0  0  0  0  0
   -1.5882   -2.1554    0.6658 C   0  0  0  0  0  0  0  0  0  0  0  0
   -0.6832   -2.8764    1.0638 O   0  0  0  0  0  0  0  0  0  0  0  0
   -1.3952   -0.9084    0.2428 N   0  0  0  0  0  0  0  0  0  0  0  0
   -2.1972   -0.3644   -0.0422 H   0  0  0  0  0  0  0  0  0  0  0  0
   -0.1122   -0.1994    0.2658 C   0  0  1  0  0  0  0  0  0  0  0  0
    0.4207   -0.4152   -0.6638 H   0  0  0  0  0  0  0  0  0  0  0  0
   -0.3853    1.3193    0.3433 C   0  0  0  0  0  0  0  0  0  0  0  0
   -1.1008    1.5135    1.1417 H   0  0  0  0  0  0  0  0  0  0  0  0
    0.5417    1.8393    0.5804 H   0  0  0  0  0  0  0  0  0  0  0  0
   -0.9743    1.9073   -0.9288 C   0  0  0  0  0  0  0  0  0  0  0  0
   -0.5849    1.6026   -2.0427 O   0  0  0  0  0  0  0  0  0  0  0  0
   -1.9381    2.7874   -0.8068 N   0  0  0  0  0  0  0  0  0  0  0  0
   -2.3197    3.1456   -1.6646 H   0  0  0  0  0  0  0  0  0  0  0  0
   -2.2891    3.0407    0.0974 H   0  0  0  0  0  0  0  0  0  0  0  0
    0.7497   -0.7088    1.4420 C   0  0  0  0  0  0  0  0  0  0  0  0
    1.1217    0.0750    2.3154 O   0  0  0  0  0  0  0  0  0  0  0  0
    1.0732   -2.0054    1.4613 N   0  0  0  0  0  0  0  0  0  0  0  0
    0.7892   -2.5646    0.6632 H   0  0  0  0  0  0  0  0  0  0  0  0
    1.8692   -2.6447    2.5074 C   0  0  0  0  0  0  0  0  0  0  0  0
    1.3996   -2.4801    3.4796 H   0  0  0  0  0  0  0  0  0  0  0  0
    1.9421   -3.7169    2.3197 H   0  0  0  0  0  0  0  0  0  0  0  0
    2.8710   -2.2122    2.5244 H   0  0  0  0  0  0  0  0  0  0  0  0
  5  6  2  0  0  0  0
  5  7  1  0  0  0  0
  2  3  1  0  0  0  0
  2  4  1  0  0  0  0
  2  5  1  0  0  0  0
  1  2  1  0  0  0  0
 19 20  2  0  0  0  0
 19 21  1  0  0  0  0
 16 17  1  0  0  0  0
 16 18  1  0  0  0  0
 14 15  2  0  0  0  0
 14 16  1  0  0  0  0
 11 12  1  0  0  0  0
 11 13  1  0  0  0  0
 11 14  1  0  0  0  0
  9 10  1  0  0  0  0
  9 11  1  0  0  0  0
  9 19  1  0  0  0  0
  7  8  1  0  0  0  0
  7  9  1  0  0  0  0
 23 24  1  0  0  0  0
 23 25  1  0  0  0  0
 23 26  1  0  0  0  0
 21 22  1  0  0  0  0
 21 23  1  0  0  0  0
M  END
$$$$
default_name
  -OEChem-01062215323D

 26 25  0     1  0  0  0  0  0999 V2000
   -3.0232   -3.6924    1.0038 H   0  0  0  0  0  0  0  0  0  0  0  0
   -3.0082   -2.6684    0.6318 C   0  0  0  0  0  0  0  0  0  0  0  0
   -3.6332   -2.0414    1.2658 H   0  0  0  0  0  0  0  0  0  0  0  0
   -3.3762   -2.6444   -0.3912 H   0  0  0  0  0  0  0  0  0  0  0  0
   -1.5882   -2.1554    0.6658 C   0  0  0  0  0  0  0  0  0  0  0  0
   -0.6832   -2.8764    1.0638 O   0  0  0  0  0  0  0  0  0  0  0  0
   -1.3952   -0.9084    0.2428 N   0  0  0  0  0  0  0  0  0  0  0  0
   -2.1972   -0.3644   -0.0422 H   0  0  0  0  0  0  0  0  0  0  0  0
   -0.1122   -0.1994    0.2658 C   0  0  1  0  0  0  0  0  0  0  0  0
    0.4207   -0.4152   -0.6638 H   0  0  0  0  0  0  0  0  0  0  0  0
   -0.3853    1.3193    0.3433 C   0  0  0  0  0  0  0  0  0  0  0  0
   -1.1008    1.5135    1.1417 H   0  0  0  0  0  0  0  0  0  0  0  0
    0.5417    1.8393    0.5804 H   0  0  0  0  0  0  0  0  0  0  0  0
   -0.9743    1.9073   -0.9288 C   0  0  0  0  0  0  0  0  0  0  0  0
   -0.5849    1.6026   -2.0427 O   0  0  0  0  0  0  0  0  0  0  0  0
   -1.9381    2.7874   -0.8068 N   0  0  0  0  0  0  0  0  0  0  0  0
   -2.3197    3.1456   -1.6646 H   0  0  0  0  0  0  0  0  0  0  0  0
   -2.2891    3.0407    0.0974 H   0  0  0  0  0  0  0  0  0  0  0  0
    0.7497   -0.7088    1.4420 C   0  0  0  0  0  0  0  0  0  0  0  0
    0.8917   -0.0114    2.4465 O   0  0  0  0  0  0  0  0  0  0  0  0
    1.3279   -1.9072    1.3172 N   0  0  0  0  0  0  0  0  0  0  0  0
    1.2208   -2.3816    0.4262 H   0  0  0  0  0  0  0  0  0  0  0  0
    2.1612   -2.5353    2.3409 C   0  0  0  0  0  0  0  0  0  0  0  0
    1.6001   -2.6140    3.2746 H   0  0  0  0  0  0  0  0  0  0  0  0
    2.4637   -3.5322    2.0175 H   0  0  0  0  0  0  0  0  0  0  0  0
    3.0503   -1.9273    2.5164 H   0  0  0  0  0  0  0  0  0  0  0  0
  5  6  2  0  0  0  0
  5  7  1  0  0  0  0
  2  3  1  0  0  0  0
  2  4  1  0  0  0  0
  2  5  1  0  0  0  0
  1  2  1  0  0  0  0
 19 20  2  0  0  0  0
 19 21  1  0  0  0  0
 16 17  1  0  0  0  0
 16 18  1  0  0  0  0
 14 15  2  0  0  0  0
 14 16  1  0  0  0  0
 11 12  1  0  0  0  0
 11 13  1  0  0  0  0
 11 14  1  0  0  0  0
  9 10  1  0  0  0  0
  9 11  1  0  0  0  0
  9 19  1  0  0  0  0
  7  8  1  0  0  0  0
  7  9  1  0  0  0  0
 23 24  1  0  0  0  0
 23 25  1  0  0  0  0
 23 26  1  0  0  0  0
 21 22  1  0  0  0  0
 21 23  1  0  0  0  0
M  END
$$$$
default_name
  -OEChem-01062215323D

 26 25  0     1  0  0  0  0  0999 V2000
   -3.0232   -3.6924    1.0038 H   0  0  0  0  0  0  0  0  0  0  0  0
   -3.0082   -2.6684    0.6318 C   0  0  0  0  0  0  0  0  0  0  0  0
   -3.6332   -2.0414    1.2658 H   0  0  0  0  0  0  0  0  0  0  0  0
   -3.3762   -2.6444   -0.3912 H   0  0  0  0  0  0  0  0  0  0  0  0
   -1.5882   -2.1554    0.6658 C   0  0  0  0  0  0  0  0  0  0  0  0
   -0.6832   -2.8764    1.0638 O   0  0  0  0  0  0  0  0  0  0  0  0
   -1.3952   -0.9084    0.2428 N   0  0  0  0  0  0  0  0  0  0  0  0
   -2.1972   -0.3644   -0.0422 H   0  0  0  0  0  0  0  0  0  0  0  0
   -0.1122   -0.1994    0.2658 C   0  0  1  0  0  0  0  0  0  0  0  0
    0.4207   -0.4152   -0.6638 H   0  0  0  0  0  0  0  0  0  0  0  0
   -0.3853    1.3193    0.3433 C   0  0  0  0  0  0  0  0  0  0  0  0
   -1.1008    1.5135    1.1417 H   0  0  0  0  0  0  0  0  0  0  0  0
    0.5417    1.8393    0.5804 H   0  0  0  0  0  0  0  0  0  0  0  0
   -0.9743    1.9073   -0.9288 C   0  0  0  0  0  0  0  0  0  0  0  0
   -0.5849    1.6026   -2.0427 O   0  0  0  0  0  0  0  0  0  0  0  0
   -1.9381    2.7874   -0.8068 N   0  0  0  0  0  0  0  0  0  0  0  0
   -2.3197    3.1456   -1.6646 H   0  0  0  0  0  0  0  0  0  0  0  0
   -2.2891    3.0407    0.0974 H   0  0  0  0  0  0  0  0  0  0  0  0
    0.7497   -0.7088    1.4420 C   0  0  0  0  0  0  0  0  0  0  0  0
    0.6753   -0.1592    2.5411 O   0  0  0  0  0  0  0  0  0  0  0  0
    1.5669   -1.7414    1.2139 N   0  0  0  0  0  0  0  0  0  0  0  0
    1.6220   -2.0855    0.2605 H   0  0  0  0  0  0  0  0  0  0  0  0
    2.4358   -2.3480    2.2208 C   0  0  0  0  0  0  0  0  0  0  0  0
    1.8377   -2.6742    3.0744 H   0  0  0  0  0  0  0  0  0  0  0  0
    2.9569   -3.2075    1.7968 H   0  0  0  0  0  0  0  0  0  0  0  0
    3.1679   -1.6157    2.5652 H   0  0  0  0  0  0  0  0  0  0  0  0
  5  6  2  0  0  0  0
  5  7  1  0  0  0  0
  2  3  1  0  0  0  0
  2  4  1  0  0  0  0
  2  5  1  0  0  0  0
  1  2  1  0  0  0  0
 19 20  2  0  0  0  0
 19 21  1  0  0  0  0
 16 17  1  0  0  0  0
 16 18  1  0  0  0  0
 14 15  2  0  0  0  0
 14 16  1  0  0  0  0
 11 12  1  0  0  0  0
 11 13  1  0  0  0  0
 11 14  1  0  0  0  0
  9 10  1  0  0  0  0
  9 11  1  0  0  0  0
  9 19  1  0  0  0  0
  7  8  1  0  0  0  0
  7  9  1  0  0  0  0
 23 24  1  0  0  0  0
 23 25  1  0  0  0  0
 23 26  1  0  0  0  0
 21 22  1  0  0  0  0
 21 23  1  0  0  0  0
M  END
$$$$
default_name
  -OEChem-01062215323D

 26 25  0     1  0  0  0  0  0999 V2000
   -3.0232   -3.6924    1.0038 H   0  0  0  0  0  0  0  0  0  0  0  0
   -3.0082   -2.6684    0.6318 C   0  0  0  0  0  0  0  0  0  0  0  0
   -3.6332   -2.0414    1.2658 H   0  0  0  0  0  0  0  0  0  0  0  0
   -3.3762   -2.6444   -0.3912 H   0  0  0  0  0  0  0  0  0  0  0  0
   -1.5882   -2.1554    0.6658 C   0  0  0  0  0  0  0  0  0  0  0  0
   -0.6832   -2.8764    1.0638 O   0  0  0  0  0  0  0  0  0  0  0  0
   -1.3952   -0.9084    0.2428 N   0  0  0  0  0  0  0  0  0  0  0  0
   -2.1972   -0.3644   -0.0422 H   0  0  0  0  0  0  0  0  0  0  0  0
   -0.1122   -0.1994    0.2658 C   0  0  1  0  0  0  0  0  0  0  0  0
    0.4207   -0.4152   -0.6638 H   0  0  0  0  0  0  0  0  0  0  0  0
   -0.3853    1.3193    0.3433 C   0  0  0  0  0  0  0  0  0  0  0  0
   -1.1008    1.5135    1.1417 H   0  0  0  0  0  0  0  0  0  0  0  0
    0.5417    1.8393    0.5804 H   0  0  0  0  0  0  0  0  0  0  0  0
   -0.9743    1.9073   -0.9288 C   0  0  0  0  0  0  0  0  0  0  0  0
   -0.5849    1.6026   -2.0427 O   0  0  0  0  0  0  0  0  0  0  0  0
   -1.9381    2.7874   -0.8068 N   0  0  0  0  0  0  0  0  0  0  0  0
   -2.3197    3.1456   -1.6646 H   0  0  0  0  0  0  0  0  0  0  0  0
   -2.2891    3.0407    0.0974 H   0  0  0  0  0  0  0  0  0  0  0  0
    0.7497   -0.7088    1.4420 C   0  0  0  0  0  0  0  0  0  0  0  0
    0.4874   -0.3582    2.5926 O   0  0  0  0  0  0  0  0  0  0  0  0
    1.7739   -1.5192    1.1584 N   0  0  0  0  0  0  0  0  0  0  0  0
    1.9652   -1.6965    0.1775 H   0  0  0  0  0  0  0  0  0  0  0  0
    2.6744   -2.0956    2.1553 C   0  0  0  0  0  0  0  0  0  0  0  0
    2.0962   -2.6566    2.8927 H   0  0  0  0  0  0  0  0  0  0  0  0
    3.3881   -2.7647    1.6726 H   0  0  0  0  0  0  0  0  0  0  0  0
    3.2160   -1.2985    2.6673 H   0  0  0  0  0  0  0  0  0  0  0  0
  5  6  2  0  0  0  0
  5  7  1  0  0  0  0
  2  3  1  0  0  0  0
  2  4  1  0  0  0  0
  2  5  1  0  0  0  0
  1  2  1  0  0  0  0
 19 20  2  0  0  0  0
 19 21  1  0  0  0  0
 16 17  1  0  0  0  0
 16 18  1  0  0  0  0
 14 15  2  0  0  0  0
 14 16  1  0  0  0  0
 11 12  1  0  0  0  0
 11 13  1  0  0  0  0
 11 14  1  0  0  0  0
  9 10  1  0  0  0  0
  9 11  1  0  0  0  0
  9 19  1  0  0  0  0
  7  8  1  0  0  0  0
  7  9  1  0  0  0  0
 23 24  1  0  0  0  0
 23 25  1  0  0  0  0
 23 26  1  0  0  0  0
 21 22  1  0  0  0  0
 21 23  1  0  0  0  0
M  END
$$$$
default_name
  -OEChem-01062215323D

 26 25  0     1  0  0  0  0  0999 V2000
   -3.0232   -3.6924    1.0038 H   0  0  0  0  0  0  0  0  0  0  0  0
   -3.0082   -2.6684    0.6318 C   0  0  0  0  0  0  0  0  0  0  0  0
   -3.6332   -2.0414    1.2658 H   0  0  0  0  0  0  0  0  0  0  0  0
   -3.3762   -2.6444   -0.3912 H   0  0  0  0  0  0  0  0  0  0  0  0
   -1.5882   -2.1554    0.6658 C   0  0  0  0  0  0  0  0  0  0  0  0
   -0.6832   -2.8764    1.0638 O   0  0  0  0  0  0  0  0  0  0  0  0
   -1.3952   -0.9084    0.2428 N   0  0  0  0  0  0  0  0  0  0  0  0
   -2.1972   -0.3644   -0.0422 H   0  0  0  0  0  0  0  0  0  0  0  0
   -0.1122   -0.1994    0.2658 C   0  0  1  0  0  0  0  0  0  0  0  0
    0.4207   -0.4152   -0.6638 H   0  0  0  0  0  0  0  0  0  0  0  0
   -0.3853    1.3193    0.3433 C   0  0  0  0  0  0  0  0  0  0  0  0
   -1.1008    1.5135    1.1417 H   0  0  0  0  0  0  0  0  0  0  0  0
    0.5417    1.8393    0.5804 H   0  0  0  0  0  0  0  0  0  0  0  0
   -0.9743    1.9073   -0.9288 C   0  0  0  0  0  0  0  0  0  0  0  0
   -0.5849    1.6026   -2.0427 O   0  0  0  0  0  0  0  0  0  0  0  0
   -1.9381    2.7874   -0.8068 N   0  0  0  0  0  0  0  0  0  0  0  0
   -2.3197    3.1456   -1.6646 H   0  0  0  0  0  0  0  0  0  0  0  0
   -2.2891    3.0407    0.0974 H   0  0  0  0  0  0  0  0  0  0  0  0
    0.7497   -0.7088    1.4420 C   0  0  0  0  0  0  0  0  0  0  0  0
    0.3407   -0.5948    2.5976 O   0  0  0  0  0  0  0  0  0  0  0  0
    1.9348   -1.2557    1.1546 N   0  0  0  0  0  0  0  0  0  0  0  0
    2.2272   -1.2411    0.1827 H   0  0  0  0  0  0  0  0  0  0  0  0
    2.8607   -1.7953    2.1488 C   0  0  0  0  0  0  0  0  0  0  0  0
    2.3579   -2.5624    2.7417 H   0  0  0  0  0  0  0  0  0  0  0  0
    3.7279   -2.2341    1.6534 H   0  0  0  0  0  0  0  0  0  0  0  0
    3.1912   -0.9974    2.8159 H   0  0  0  0  0  0  0  0  0  0  0  0
  5  6  2  0  0  0  0
  5  7  1  0  0  0  0
  2  3  1  0  0  0  0
  2  4  1  0  0  0  0
  2  5  1  0  0  0  0
  1  2  1  0  0  0  0
 19 20  2  0  0  0  0
 19 21  1  0  0  0  0
 16 17  1  0  0  0  0
 16 18  1  0  0  0  0
 14 15  2  0  0  0  0
 14 16  1  0  0  0  0
 11 12  1  0  0  0  0
 11 13  1  0  0  0  0
 11 14  1  0  0  0  0
  9 10  1  0  0  0  0
  9 11  1  0  0  0  0
  9 19  1  0  0  0  0
  7  8  1  0  0  0  0
  7  9  1  0  0  0  0
 23 24  1  0  0  0  0
 23 25  1  0  0  0  0
 23 26  1  0  0  0  0
 21 22  1  0  0  0  0
 21 23  1  0  0  0  0
M  END
$$$$
default_name
  -OEChem-01062215323D

 26 25  0     1  0  0  0  0  0999 V2000
   -3.0232   -3.6924    1.0038 H   0  0  0  0  0  0  0  0  0  0  0  0
   -3.0082   -2.6684    0.6318 C   0  0  0  0  0  0  0  0  0  0  0  0
   -3.6332   -2.0414    1.2658 H   0  0  0  0  0  0  0  0  0  0  0  0
   -3.3762   -2.6444   -0.3912 H   0  0  0  0  0  0  0  0  0  0  0  0
   -1.5882   -2.1554    0.6658 C   0  0  0  0  0  0  0  0  0  0  0  0
   -0.6832   -2.8764    1.0638 O   0  0  0  0  0  0  0  0  0  0  0  0
   -1.3952   -0.9084    0.2428 N   0  0  0  0  0  0  0  0  0  0  0  0
   -2.1972   -0.3644   -0.0422 H   0  0  0  0  0  0  0  0  0  0  0  0
   -0.1122   -0.1994    0.2658 C   0  0  1  0  0  0  0  0  0  0  0  0
    0.4207   -0.4152   -0.6638 H   0  0  0  0  0  0  0  0  0  0  0  0
   -0.3853    1.3193    0.3433 C   0  0  0  0  0  0  0  0  0  0  0  0
   -1.1008    1.5135    1.1417 H   0  0  0  0  0  0  0  0  0  0  0  0
    0.5417    1.8393    0.5804 H   0  0  0  0  0  0  0  0  0  0  0  0
   -0.9743    1.9073   -0.9288 C   0  0  0  0  0  0  0  0  0  0  0  0
   -0.5849    1.6026   -2.0427 O   0  0  0  0  0  0  0  0  0  0  0  0
   -1.9381    2.7874   -0.8068 N   0  0  0  0  0  0  0  0  0  0  0  0
   -2.3197    3.1456   -1.6646 H   0  0  0  0  0  0  0  0  0  0  0  0
   -2.2891    3.0407    0.0974 H   0  0  0  0  0  0  0  0  0  0  0  0
    0.7497   -0.7088    1.4420 C   0  0  0  0  0  0  0  0  0  0  0  0
    0.2452   -0.8531    2.5557 O   0  0  0  0  0  0  0  0  0  0  0  0
    2.0386   -0.9690    1.2028 N   0  0  0  0  0  0  0  0  0  0  0  0
    2.3900   -0.7503    0.2759 H   0  0  0  0  0  0  0  0  0  0  0  0
    2.9820   -1.4676    2.2018 C   0  0  0  0  0  0  0  0  0  0  0  0
    2.6050   -2.3981    2.6318 H   0  0  0  0  0  0  0  0  0  0  0  0
    3.9532   -1.6518    1.7405 H   0  0  0  0  0  0  0  0  0  0  0  0
    3.0953   -0.7329    3.0008 H   0  0  0  0  0  0  0  0  0  0  0  0
  5  6  2  0  0  0  0
  5  7  1  0  0  0  0
  2  3  1  0  0  0  0
  2  4  1  0  0  0  0
  2  5  1  0  0  0  0
  1  2  1  0  0  0  0
 19 20  2  0  0  0  0
 19 21  1  0  0  0  0
 16 17  1  0  0  0  0
 16 18  1  0  0  0  0
 14 15  2  0  0  0  0
 14 16  1  0  0  0  0
 11 12  1  0  0  0  0
 11 13  1  0  0  0  0
 11 14  1  0  0  0  0
  9 10  1  0  0  0  0
  9 11  1  0  0  0  0
  9 19  1  0  0  0  0
  7  8  1  0  0  0  0
  7  9  1  0  0  0  0
 23 24  1  0  0  0  0
 23 25  1  0  0  0  0
 23 26  1  0  0  0  0
 21 22  1  0  0  0  0
 21 23  1  0  0  0  0
M  END
$$$$
default_name
  -OEChem-01062215323D

 26 25  0     1  0  0  0  0  0999 V2000
   -3.0232   -3.6924    1.0038 H   0  0  0  0  0  0  0  0  0  0  0  0
   -3.0082   -2.6684    0.6318 C   0  0  0  0  0  0  0  0  0  0  0  0
   -3.6332   -2.0414    1.2658 H   0  0  0  0  0  0  0  0  0  0  0  0
   -3.3762   -2.6444   -0.3912 H   0  0  0  0  0  0  0  0  0  0  0  0
   -1.5882   -2.1554    0.6658 C   0  0  0  0  0  0  0  0  0  0  0  0
   -0.6832   -2.8764    1.0638 O   0  0  0  0  0  0  0  0  0  0  0  0
   -1.3952   -0.9084    0.2428 N   0  0  0  0  0  0  0  0  0  0  0  0
   -2.1972   -0.3644   -0.0422 H   0  0  0  0  0  0  0  0  0  0  0  0
   -0.1122   -0.1994    0.2658 C   0  0  1  0  0  0  0  0  0  0  0  0
    0.4207   -0.4152   -0.6638 H   0  0  0  0  0  0  0  0  0  0  0  0
   -0.3853    1.3193    0.3433 C   0  0  0  0  0  0  0  0  0  0  0  0
   -1.1008    1.5135    1.1417 H   0  0  0  0  0  0  0  0  0  0  0  0
    0.5417    1.8393    0.5804 H   0  0  0  0  0  0  0  0  0  0  0  0
   -0.9743    1.9073   -0.9288 C   0  0  0  0  0  0  0  0  0  0  0  0
   -0.5849    1.6026   -2.0427 O   0  0  0  0  0  0  0  0  0  0  0  0
   -1.9381    2.7874   -0.8068 N   0  0  0  0  0  0  0  0  0  0  0  0
   -2.3197    3.1456   -1.6646 H   0  0  0  0  0  0  0  0  0  0  0  0
   -2.2891    3.0407    0.0974 H   0  0  0  0  0  0  0  0  0  0  0  0
    0.7497   -0.7088    1.4420 C   0  0  0  0  0  0  0  0  0  0  0  0
    0.2075   -1.1153    2.4698 O   0  0  0  0  0  0  0  0  0  0  0  0
    2.0782   -0.6786    1.2995 N   0  0  0  0  0  0  0  0  0  0  0  0
    2.4426   -0.2577    0.4507 H   0  0  0  0  0  0  0  0  0  0  0  0
    3.0301   -1.1348    2.3107 C   0  0  0  0  0  0  0  0  0  0  0  0
    2.8207   -2.1747    2.5705 H   0  0  0  0  0  0  0  0  0  0  0  0
    4.0487   -1.0575    1.9279 H   0  0  0  0  0  0  0  0  0  0  0  0
    2.9346   -0.5230    3.2093 H   0  0  0  0  0  0  0  0  0  0  0  0
  5  6  2  0  0  0  0
  5  7  1  0  0  0  0
  2  3  1  0  0  0  0
  2  4  1  0  0  0  0
  2  5  1  0  0  0  0
  1  2  1  0  0  0  0
 19 20  2  0  0  0  0
 19 21  1  0  0  0  0
 16 17  1  0  0  0  0
 16 18  1  0  0  0  0
 14 15  2  0  0  0  0
 14 16  1  0  0  0  0
 11 12  1  0  0  0  0
 11 13  1  0  0  0  0
 11 14  1  0  0  0  0
  9 10  1  0  0  0  0
  9 11  1  0  0  0  0
  9 19  1  0  0  0  0
  7  8  1  0  0  0  0
  7  9  1  0  0  0  0
 23 24  1  0  0  0  0
 23 25  1  0  0  0  0
 23 26  1  0  0  0  0
 21 22  1  0  0  0  0
 21 23  1  0  0  0  0
M  END
$$$$
default_name
  -OEChem-01062215323D

 26 25  0     1  0  0  0  0  0999 V2000
   -3.0232   -3.6924    1.0038 H   0  0  0  0  0  0  0  0  0  0  0  0
   -3.0082   -2.6684    0.6318 C   0  0  0  0  0  0  0  0  0  0  0  0
   -3.6332   -2.0414    1.2658 H   0  0  0  0  0  0  0  0  0  0  0  0
   -3.3762   -2.6444   -0.3912 H   0  0  0  0  0  0  0  0  0  0  0  0
   -1.5882   -2.1554    0.6658 C   0  0  0  0  0  0  0  0  0  0  0  0
   -0.6832   -2.8764    1.0638 O   0  0  0  0  0  0  0  0  0  0  0  0
   -1.3952   -0.9084    0.2428 N   0  0  0  0  0  0  0  0  0  0  0  0
   -2.1972   -0.3644   -0.0422 H   0  0  0  0  0  0  0  0  0  0  0  0
   -0.1122   -0.1994    0.2658 C   0  0  1  0  0  0  0  0  0  0  0  0
    0.4207   -0.4152   -0.6638 H   0  0  0  0  0  0  0  0  0  0  0  0
   -0.3853    1.3193    0.3433 C   0  0  0  0  0  0  0  0  0  0  0  0
   -1.1008    1.5135    1.1417 H   0  0  0  0  0  0  0  0  0  0  0  0
    0.5417    1.8393    0.5804 H   0  0  0  0  0  0  0  0  0  0  0  0
   -0.9743    1.9073   -0.9288 C   0  0  0  0  0  0  0  0  0  0  0  0
   -0.5849    1.6026   -2.0427 O   0  0  0  0  0  0  0  0  0  0  0  0
   -1.9381    2.7874   -0.8068 N   0  0  0  0  0  0  0  0  0  0  0  0
   -2.3197    3.1456   -1.6646 H   0  0  0  0  0  0  0  0  0  0  0  0
   -2.2891    3.0407    0.0974 H   0  0  0  0  0  0  0  0  0  0  0  0
    0.7497   -0.7088    1.4420 C   0  0  0  0  0  0  0  0  0  0  0  0
    0.2301   -1.3637    2.3457 O   0  0  0  0  0  0  0  0  0  0  0  0
    2.0510   -0.4042    1.4383 N   0  0  0  0  0  0  0  0  0  0  0  0
    2.3814    0.2033    0.6952 H   0  0  0  0  0  0  0  0  0  0  0  0
    3.0017   -0.8196    2.4681 C   0  0  0  0  0  0  0  0  0  0  0  0
    2.9902   -1.9077    2.5619 H   0  0  0  0  0  0  0  0  0  0  0  0
    4.0077   -0.4917    2.2029 H   0  0  0  0  0  0  0  0  0  0  0  0
    2.7203   -0.3821    3.4274 H   0  0  0  0  0  0  0  0  0  0  0  0
  5  6  2  0  0  0  0
  5  7  1  0  0  0  0
  2  3  1  0  0  0  0
  2  4  1  0  0  0  0
  2  5  1  0  0  0  0
  1  2  1  0  0  0  0
 19 20  2  0  0  0  0
 19 21  1  0  0  0  0
 16 17  1  0  0  0  0
 16 18  1  0  0  0  0
 14 15  2  0  0  0  0
 14 16  1  0  0  0  0
 11 12  1  0  0  0  0
 11 13  1  0  0  0  0
 11 14  1  0  0  0  0
  9 10  1  0  0  0  0
  9 11  1  0  0  0  0
  9 19  1  0  0  0  0
  7  8  1  0  0  0  0
  7  9  1  0  0  0  0
 23 24  1  0  0  0  0
 23 25  1  0  0  0  0
 23 26  1  0  0  0  0
 21 22  1  0  0  0  0
 21 23  1  0  0  0  0
M  END
$$$$
default_name
  -OEChem-01062215323D

 26 25  0     1  0  0  0  0  0999 V2000
   -3.0232   -3.6924    1.0038 H   0  0  0  0  0  0  0  0  0  0  0  0
   -3.0082   -2.6684    0.6318 C   0  0  0  0  0  0  0  0  0  0  0  0
   -3.6332   -2.0414    1.2658 H   0  0  0  0  0  0  0  0  0  0  0  0
   -3.3762   -2.6444   -0.3912 H   0  0  0  0  0  0  0  0  0  0  0  0
   -1.5882   -2.1554    0.6658 C   0  0  0  0  0  0  0  0  0  0  0  0
   -0.6832   -2.8764    1.0638 O   0  0  0  0  0  0  0  0  0  0  0  0
   -1.3952   -0.9084    0.2428 N   0  0  0  0  0  0  0  0  0  0  0  0
   -2.1972   -0.3644   -0.0422 H   0  0  0  0  0  0  0  0  0  0  0  0
   -0.1122   -0.1994    0.2658 C   0  0  1  0  0  0  0  0  0  0  0  0
    0.2974   -0.1894   -0.7476 H   0  0  0  0  0  0  0  0  0  0  0  0
   -0.3577    1.2571    0.7191 C   0  0  0  0  0  0  0  0  0  0  0  0
   -0.9651    1.2523    1.6235 H   0  0  0  0  0  0  0  0  0  0  0  0
    0.5971    1.7269    0.9504 H   0  0  0  0  0  0  0  0  0  0  0  0
   -1.0957    2.1067   -0.3029 C   0  0  0  0  0  0  0  0  0  0  0  0
   -0.8525    2.0691   -1.4965 O   0  0  0  0  0  0  0  0  0  0  0  0
   -2.0273    2.9184    0.1347 N   0  0  0  0  0  0  0  0  0  0  0  0
   -2.5099    3.4542   -0.5650 H   0  0  0  0  0  0  0  0  0  0  0  0
   -2.2593    2.9540    1.1093 H   0  0  0  0  0  0  0  0  0  0  0  0
    0.8853   -0.9457    1.1790 C   0  0  0  0  0  0  0  0  0  0  0  0
    0.5357   -1.9730    1.7601 O   0  0  0  0  0  0  0  0  0  0  0  0
    2.1115   -0.4312    1.3135 N   0  0  0  0  0  0  0  0  0  0  0  0
    2.2917    0.4588    0.8599 H   0  0  0  0  0  0  0  0  0  0  0  0
    3.1722   -1.0212    2.1280 C   0  0  0  0  0  0  0  0  0  0  0  0
    3.3559   -2.0483    1.8051 H   0  0  0  0  0  0  0  0  0  0  0  0
    4.0904   -0.4415    2.0239 H   0  0  0  0  0  0  0  0  0  0  0  0
    2.8690   -1.0323    3.1763 H   0  0  0  0  0  0  0  0  0  0  0  0
  5  6  2  0  0  0  0
  5  7  1  0  0  0  0
  2  3  1  0  0  0  0
  2  4  1  0  0  0  0
  2  5  1  0  0  0  0
  1  2  1  0  0  0  0
 19 20  2  0  0  0  0
 19 21  1  0  0  0  0
 16 17  1  0  0  0  0
 16 18  1  0  0  0  0
 14 15  2  0  0  0  0
 14 16  1  0  0  0  0
 11 12  1  0  0  0  0
 11 13  1  0  0  0  0
 11 14  1  0  0  0  0
  9 10  1  0  0  0  0
  9 11  1  0  0  0  0
  9 19  1  0  0  0  0
  7  8  1  0  0  0  0
  7  9  1  0  0  0  0
 23 24  1  0  0  0  0
 23 25  1  0  0  0  0
 23 26  1  0  0  0  0
 21 22  1  0  0  0  0
 21 23  1  0  0  0  0
M  END
$$$$
default_name
  -OEChem-01062215323D

 26 25  0     1  0  0  0  0  0999 V2000
   -3.0232   -3.6924    1.0038 H   0  0  0  0  0  0  0  0  0  0  0  0
   -3.0082   -2.6684    0.6318 C   0  0  0  0  0  0  0  0  0  0  0  0
   -3.6332   -2.0414    1.2658 H   0  0  0  0  0  0  0  0  0  0  0  0
   -3.3762   -2.6444   -0.3912 H   0  0  0  0  0  0  0  0  0  0  0  0
   -1.5882   -2.1554    0.6658 C   0  0  0  0  0  0  0  0  0  0  0  0
   -0.6832   -2.8764    1.0638 O   0  0  0  0  0  0  0  0  0  0  0  0
   -1.3952   -0.9084    0.2428 N   0  0  0  0  0  0  0  0  0  0  0  0
   -2.1972   -0.3644   -0.0422 H   0  0  0  0  0  0  0  0  0  0  0  0
   -0.1122   -0.1994    0.2658 C   0  0  1  0  0  0  0  0  0  0  0  0
    0.2974   -0.1894   -0.7476 H   0  0  0  0  0  0  0  0  0  0  0  0
   -0.3577    1.2571    0.7191 C   0  0  0  0  0  0  0  0  0  0  0  0
   -0.9651    1.2523    1.6235 H   0  0  0  0  0  0  0  0  0  0  0  0
    0.5971    1.7269    0.9504 H   0  0  0  0  0  0  0  0  0  0  0  0
   -1.0957    2.1067   -0.3029 C   0  0  0  0  0  0  0  0  0  0  0  0
   -0.8525    2.0691   -1.4965 O   0  0  0  0  0  0  0  0  0  0  0  0
   -2.0273    2.9184    0.1347 N   0  0  0  0  0  0  0  0  0  0  0  0
   -2.5099    3.4542   -0.5650 H   0  0  0  0  0  0  0  0  0  0  0  0
   -2.2593    2.9540    1.1093 H   0  0  0  0  0  0  0  0  0  0  0  0
    0.8853   -0.9457    1.1790 C   0  0  0  0  0  0  0  0  0  0  0  0
    0.6456   -2.0988    1.5373 O   0  0  0  0  0  0  0  0  0  0  0  0
    1.9878   -0.2938    1.5608 N   0  0  0  0  0  0  0  0  0  0  0  0
    2.0697    0.6788    1.2822 H   0  0  0  0  0  0  0  0  0  0  0  0
    3.0328   -0.8615    2.4108 C   0  0  0  0  0  0  0  0  0  0  0  0
    3.4171   -1.7785    1.9588 H   0  0  0  0  0  0  0  0  0  0  0  0
    3.8496   -0.1478    2.5270 H   0  0  0  0  0  0  0  0  0  0  0  0
    2.6200   -1.1009    3.3922 H   0  0  0  0  0  0  0  0  0  0  0  0
  5  6  2  0  0  0  0
  5  7  1  0  0  0  0
  2  3  1  0  0  0  0
  2  4  1  0  0  0  0
  2  5  1  0  0  0  0
  1  2  1  0  0  0  0
 19 20  2  0  0  0  0
 19 21  1  0  0  0  0
 16 17  1  0  0  0  0
 16 18  1  0  0  0  0
 14 15  2  0  0  0  0
 14 16  1  0  0  0  0
 11 12  1  0  0  0  0
 11 13  1  0  0  0  0
 11 14  1  0  0  0  0
  9 10  1  0  0  0  0
  9 11  1  0  0  0  0
  9 19  1  0  0  0  0
  7  8  1  0  0  0  0
  7  9  1  0  0  0  0
 23 24  1  0  0  0  0
 23 25  1  0  0  0  0
 23 26  1  0  0  0  0
 21 22  1  0  0  0  0
 21 23  1  0  0  0  0
M  END
$$$$
default_name
  -OEChem-01062215323D

 26 25  0     1  0  0  0  0  0999 V2000
   -3.0232   -3.6924    1.0038 H   0  0  0  0  0  0  0  0  0  0  0  0
   -3.0082   -2.6684    0.6318 C   0  0  0  0  0  0  0  0  0  0  0  0
   -3.6332   -2.0414    1.2658 H   0  0  0  0  0  0  0  0  0  0  0  0
   -3.3762   -2.6444   -0.3912 H   0  0  0  0  0  0  0  0  0  0  0  0
   -1.5882   -2.1554    0.6658 C   0  0  0  0  0  0  0  0  0  0  0  0
   -0.6832   -2.8764    1.0638 O   0  0  0  0  0  0  0  0  0  0  0  0
   -1.3952   -0.9084    0.2428 N   0  0  0  0  0  0  0  0  0  0  0  0
   -2.1972   -0.3644   -0.0422 H   0  0  0  0  0  0  0  0  0  0  0  0
   -0.1122   -0.1994    0.2658 C   0  0  1  0  0  0  0  0  0  0  0  0
    0.2974   -0.1894   -0.7476 H   0  0  0  0  0  0  0  0  0  0  0  0
   -0.3577    1.2571    0.7191 C   0  0  0  0  0  0  0  0  0  0  0  0
   -0.9651    1.2523    1.6235 H   0  0  0  0  0  0  0  0  0  0  0  0
    0.5971    1.7269    0.9504 H   0  0  0  0  0  0  0  0  0  0  0  0
   -1.0957    2.1067   -0.3029 C   0  0  0  0  0  0  0  0  0  0  0  0
   -0.8525    2.0691   -1.4965 O   0  0  0  0  0  0  0  0  0  0  0  0
   -2.0273    2.9184    0.1347 N   0  0  0  0  0  0  0  0  0  0  0  0
   -2.5099    3.4542   -0.5650 H   0  0  0  0  0  0  0  0  0  0  0  0
   -2.2593    2.9540    1.1093 H   0  0  0  0  0  0  0  0  0  0  0  0
    0.8853   -0.9457    1.1790 C   0  0  0  0  0  0  0  0  0  0  0  0
    0.7990   -2.1662    1.3147 O   0  0  0  0  0  0  0  0  0  0  0  0
    1.8165   -0.2214    1.8072 N   0  0  0  0  0  0  0  0  0  0  0  0
    1.7688    0.7867    1.6991 H   0  0  0  0  0  0  0  0  0  0  0  0
    2.8384   -0.7758    2.6932 C   0  0  0  0  0  0  0  0  0  0  0  0
    3.4157   -1.5342    2.1599 H   0  0  0  0  0  0  0  0  0  0  0  0
    3.5091    0.0150    3.0320 H   0  0  0  0  0  0  0  0  0  0  0  0
    2.3630   -1.2413    3.5583 H   0  0  0  0  0  0  0  0  0  0  0  0
  5  6  2  0  0  0  0
  5  7  1  0  0  0  0
  2  3  1  0  0  0  0
  2  4  1  0  0  0  0
  2  5  1  0  0  0  0
  1  2  1  0  0  0  0
 19 20  2  0  0  0  0
 19 21  1  0  0  0  0
 16 17  1  0  0  0  0
 16 18  1  0  0  0  0
 14 15  2  0  0  0  0
 14 16  1  0  0  0  0
 11 12  1  0  0  0  0
 11 13  1  0  0  0  0
 11 14  1  0  0  0  0
  9 10  1  0  0  0  0
  9 11  1  0  0  0  0
  9 19  1  0  0  0  0
  7  8  1  0  0  0  0
  7  9  1  0  0  0  0
 23 24  1  0  0  0  0
 23 25  1  0  0  0  0
 23 26  1  0  0  0  0
 21 22  1  0  0  0  0
 21 23  1  0  0  0  0
M  END
$$$$
default_name
  -OEChem-01062215323D

 26 25  0     1  0  0  0  0  0999 V2000
   -3.0232   -3.6924    1.0038 H   0  0  0  0  0  0  0  0  0  0  0  0
   -3.0082   -2.6684    0.6318 C   0  0  0  0  0  0  0  0  0  0  0  0
   -3.6332   -2.0414    1.2658 H   0  0  0  0  0  0  0  0  0  0  0  0
   -3.3762   -2.6444   -0.3912 H   0  0  0  0  0  0  0  0  0  0  0  0
   -1.5882   -2.1554    0.6658 C   0  0  0  0  0  0  0  0  0  0  0  0
   -0.6832   -2.8764    1.0638 O   0  0  0  0  0  0  0  0  0  0  0  0
   -1.3952   -0.9084    0.2428 N   0  0  0  0  0  0  0  0  0  0  0  0
   -2.1972   -0.3644   -0.0422 H   0  0  0  0  0  0  0  0  0  0  0  0
   -0.1122   -0.1994    0.2658 C   0  0  1  0  0  0  0  0  0  0  0  0
    0.2974   -0.1894   -0.7476 H   0  0  0  0  0  0  0  0  0  0  0  0
   -0.3577    1.2571    0.7191 C   0  0  0  0  0  0  0  0  0  0  0  0
   -0.9651    1.2523    1.6235 H   0  0  0  0  0  0  0  0  0  0  0  0
    0.5971    1.7269    0.9504 H   0  0  0  0  0  0  0  0  0  0  0  0
   -1.0957    2.1067   -0.3029 C   0  0  0  0  0  0  0  0  0  0  0  0
   -0.8525    2.0691   -1.4965 O   0  0  0  0  0  0  0  0  0  0  0  0
   -2.0273    2.9184    0.1347 N   0  0  0  0  0  0  0  0  0  0  0  0
   -2.5099    3.4542   -0.5650 H   0  0  0  0  0  0  0  0  0  0  0  0
   -2.2593    2.9540    1.1093 H   0  0  0  0  0  0  0  0  0  0  0  0
    0.8853   -0.9457    1.1790 C   0  0  0  0  0  0  0  0  0  0  0  0
    0.9852   -2.1706    1.1077 O   0  0  0  0  0  0  0  0  0  0  0  0
    1.6091   -0.2189    2.0358 N   0  0  0  0  0  0  0  0  0  0  0  0
    1.4094    0.7753    2.0823 H   0  0  0  0  0  0  0  0  0  0  0  0
    2.6022   -0.7700    2.9560 C   0  0  0  0  0  0  0  0  0  0  0  0
    3.3518   -1.3320    2.3949 H   0  0  0  0  0  0  0  0  0  0  0  0
    3.0922    0.0357    3.5044 H   0  0  0  0  0  0  0  0  0  0  0  0
    2.1154   -1.4440    3.6630 H   0  0  0  0  0  0  0  0  0  0  0  0
  5  6  2  0  0  0  0
  5  7  1  0  0  0  0
  2  3  1  0  0  0  0
  2  4  1  0  0  0  0
  2  5  1  0  0  0  0
  1  2  1  0  0  0  0
 19 20  2  0  0  0  0
 19 21  1  0  0  0  0
 16 17  1  0  0  0  0
 16 18  1  0  0  0  0
 14 15  2  0  0  0  0
 14 16  1  0  0  0  0
 11 12  1  0  0  0  0
 11 13  1  0  0  0  0
 11 14  1  0  0  0  0
  9 10  1  0  0  0  0
  9 11  1  0  0  0  0
  9 19  1  0  0  0  0
  7  8  1  0  0  0  0
  7  9  1  0  0  0  0
 23 24  1  0  0  0  0
 23 25  1  0  0  0  0
 23 26  1  0  0  0  0
 21 22  1  0  0  0  0
 21 23  1  0  0  0  0
M  END
$$$$
default_name
  -OEChem-01062215323D

 26 25  0     1  0  0  0  0  0999 V2000
   -3.0232   -3.6924    1.0038 H   0  0  0  0  0  0  0  0  0  0  0  0
   -3.0082   -2.6684    0.6318 C   0  0  0  0  0  0  0  0  0  0  0  0
   -3.6332   -2.0414    1.2658 H   0  0  0  0  0  0  0  0  0  0  0  0
   -3.3762   -2.6444   -0.3912 H   0  0  0  0  0  0  0  0  0  0  0  0
   -1.5882   -2.1554    0.6658 C   0  0  0  0  0  0  0  0  0  0  0  0
   -0.6832   -2.8764    1.0638 O   0  0  0  0  0  0  0  0  0  0  0  0
   -1.3952   -0.9084    0.2428 N   0  0  0  0  0  0  0  0  0  0  0  0
   -2.1972   -0.3644   -0.0422 H   0  0  0  0  0  0  0  0  0  0  0  0
   -0.1122   -0.1994    0.2658 C   0  0  1  0  0  0  0  0  0  0  0  0
    0.2974   -0.1894   -0.7476 H   0  0  0  0  0  0  0  0  0  0  0  0
   -0.3577    1.2571    0.7191 C   0  0  0  0  0  0  0  0  0  0  0  0
   -0.9651    1.2523    1.6235 H   0  0  0  0  0  0  0  0  0  0  0  0
    0.5971    1.7269    0.9504 H   0  0  0  0  0  0  0  0  0  0  0  0
   -1.0957    2.1067   -0.3029 C   0  0  0  0  0  0  0  0  0  0  0  0
   -0.8525    2.0691   -1.4965 O   0  0  0  0  0  0  0  0  0  0  0  0
   -2.0273    2.9184    0.1347 N   0  0  0  0  0  0  0  0  0  0  0  0
   -2.5099    3.4542   -0.5650 H   0  0  0  0  0  0  0  0  0  0  0  0
   -2.2593    2.9540    1.1093 H   0  0  0  0  0  0  0  0  0  0  0  0
    0.8853   -0.9457    1.1790 C   0  0  0  0  0  0  0  0  0  0  0  0
    1.1916   -2.1118    0.9302 O   0  0  0  0  0  0  0  0  0  0  0  0
    1.3798   -0.2863    2.2311 N   0  0  0  0  0  0  0  0  0  0  0  0
    1.0162    0.6452    2.4055 H   0  0  0  0  0  0  0  0  0  0  0  0
    2.3402   -0.8445    3.1813 C   0  0  0  0  0  0  0  0  0  0  0  0
    3.2298   -1.1858    2.6476 H   0  0  0  0  0  0  0  0  0  0  0  0
    2.6272   -0.0870    3.9120 H   0  0  0  0  0  0  0  0  0  0  0  0
    1.8943   -1.6952    3.6993 H   0  0  0  0  0  0  0  0  0  0  0  0
  5  6  2  0  0  0  0
  5  7  1  0  0  0  0
  2  3  1  0  0  0  0
  2  4  1  0  0  0  0
  2  5  1  0  0  0  0
  1  2  1  0  0  0  0
 19 20  2  0  0  0  0
 19 21  1  0  0  0  0
 16 17  1  0  0  0  0
 16 18  1  0  0  0  0
 14 15  2  0  0  0  0
 14 16  1  0  0  0  0
 11 12  1  0  0  0  0
 11 13  1  0  0  0  0
 11 14  1  0  0  0  0
  9 10  1  0  0  0  0
  9 11  1  0  0  0  0
  9 19  1  0  0  0  0
  7  8  1  0  0  0  0
  7  9  1  0  0  0  0
 23 24  1  0  0  0  0
 23 25  1  0  0  0  0
 23 26  1  0  0  0  0
 21 22  1  0  0  0  0
 21 23  1  0  0  0  0
M  END
$$$$
default_name
  -OEChem-01062215323D

 26 25  0     1  0  0  0  0  0999 V2000
   -3.0232   -3.6924    1.0038 H   0  0  0  0  0  0  0  0  0  0  0  0
   -3.0082   -2.6684    0.6318 C   0  0  0  0  0  0  0  0  0  0  0  0
   -3.6332   -2.0414    1.2658 H   0  0  0  0  0  0  0  0  0  0  0  0
   -3.3762   -2.6444   -0.3912 H   0  0  0  0  0  0  0  0  0  0  0  0
   -1.5882   -2.1554    0.6658 C   0  0  0  0  0  0  0  0  0  0  0  0
   -0.6832   -2.8764    1.0638 O   0  0  0  0  0  0  0  0  0  0  0  0
   -1.3952   -0.9084    0.2428 N   0  0  0  0  0  0  0  0  0  0  0  0
   -2.1972   -0.3644   -0.0422 H   0  0  0  0  0  0  0  0  0  0  0  0
   -0.1122   -0.1994    0.2658 C   0  0  1  0  0  0  0  0  0  0  0  0
    0.2974   -0.1894   -0.7476 H   0  0  0  0  0  0  0  0  0  0  0  0
   -0.3577    1.2571    0.7191 C   0  0  0  0  0  0  0  0  0  0  0  0
   -0.9651    1.2523    1.6235 H   0  0  0  0  0  0  0  0  0  0  0  0
    0.5971    1.7269    0.9504 H   0  0  0  0  0  0  0  0  0  0  0  0
   -1.0957    2.1067   -0.3029 C   0  0  0  0  0  0  0  0  0  0  0  0
   -0.8525    2.0691   -1.4965 O   0  0  0  0  0  0  0  0  0  0  0  0
   -2.0273    2.9184    0.1347 N   0  0  0  0  0  0  0  0  0  0  0  0
   -2.5099    3.4542   -0.5650 H   0  0  0  0  0  0  0  0  0  0  0  0
   -2.2593    2.9540    1.1093 H   0  0  0  0  0  0  0  0  0  0  0  0
    0.8853   -0.9457    1.1790 C   0  0  0  0  0  0  0  0  0  0  0  0
    1.4043   -1.9937    0.7945 O   0  0  0  0  0  0  0  0  0  0  0  0
    1.1442   -0.4193    2.3799 N   0  0  0  0  0  0  0  0  0  0  0  0
    0.6158    0.4053    2.6468 H   0  0  0  0  0  0  0  0  0  0  0  0
    2.0704   -0.9941    3.3537 C   0  0  0  0  0  0  0  0  0  0  0  0
    3.0580   -1.1055    2.9010 H   0  0  0  0  0  0  0  0  0  0  0  0
    2.1459   -0.3448    4.2271 H   0  0  0  0  0  0  0  0  0  0  0  0
    1.7145   -1.9778    3.6648 H   0  0  0  0  0  0  0  0  0  0  0  0
  5  6  2  0  0  0  0
  5  7  1  0  0  0  0
  2  3  1  0  0  0  0
  2  4  1  0  0  0  0
  2  5  1  0  0  0  0
  1  2  1  0  0  0  0
 19 20  2  0  0  0  0
 19 21  1  0  0  0  0
 16 17  1  0  0  0  0
 16 18  1  0  0  0  0
 14 15  2  0  0  0  0
 14 16  1  0  0  0  0
 11 12  1  0  0  0  0
 11 13  1  0  0  0  0
 11 14  1  0  0  0  0
  9 10  1  0  0  0  0
  9 11  1  0  0  0  0
  9 19  1  0  0  0  0
  7  8  1  0  0  0  0
  7  9  1  0  0  0  0
 23 24  1  0  0  0  0
 23 25  1  0  0  0  0
 23 26  1  0  0  0  0
 21 22  1  0  0  0  0
 21 23  1  0  0  0  0
M  END
$$$$
default_name
  -OEChem-01062215323D

 26 25  0     1  0  0  0  0  0999 V2000
   -3.0232   -3.6924    1.0038 H   0  0  0  0  0  0  0  0  0  0  0  0
   -3.0082   -2.6684    0.6318 C   0  0  0  0  0  0  0  0  0  0  0  0
   -3.6332   -2.0414    1.2658 H   0  0  0  0  0  0  0  0  0  0  0  0
   -3.3762   -2.6444   -0.3912 H   0  0  0  0  0  0  0  0  0  0  0  0
   -1.5882   -2.1554    0.6658 C   0  0  0  0  0  0  0  0  0  0  0  0
   -0.6832   -2.8764    1.0638 O   0  0  0  0  0  0  0  0  0  0  0  0
   -1.3952   -0.9084    0.2428 N   0  0  0  0  0  0  0  0  0  0  0  0
   -2.1972   -0.3644   -0.0422 H   0  0  0  0  0  0  0  0  0  0  0  0
   -0.1122   -0.1994    0.2658 C   0  0  1  0  0  0  0  0  0  0  0  0
    0.2974   -0.1894   -0.7476 H   0  0  0  0  0  0  0  0  0  0  0  0
   -0.3577    1.2571    0.7191 C   0  0  0  0  0  0  0  0  0  0  0  0
   -0.9651    1.2523    1.6235 H   0  0  0  0  0  0  0  0  0  0  0  0
    0.5971    1.7269    0.9504 H   0  0  0  0  0  0  0  0  0  0  0  0
   -1.0957    2.1067   -0.3029 C   0  0  0  0  0  0  0  0  0  0  0  0
   -0.8525    2.0691   -1.4965 O   0  0  0  0  0  0  0  0  0  0  0  0
   -2.0273    2.9184    0.1347 N   0  0  0  0  0  0  0  0  0  0  0  0
   -2.5099    3.4542   -0.5650 H   0  0  0  0  0  0  0  0  0  0  0  0
   -2.2593    2.9540    1.1093 H   0  0  0  0  0  0  0  0  0  0  0  0
    0.8853   -0.9457    1.1790 C   0  0  0  0  0  0  0  0  0  0  0  0
    1.6085   -1.8244    0.7097 O   0  0  0  0  0  0  0  0  0  0  0  0
    0.9184   -0.6086    2.4719 N   0  0  0  0  0  0  0  0  0  0  0  0
    0.2357    0.0720    2.7897 H   0  0  0  0  0  0  0  0  0  0  0  0
    1.8111   -1.2088    3.4615 C   0  0  0  0  0  0  0  0  0  0  0  0
    2.8481   -1.0965    3.1376 H   0  0  0  0  0  0  0  0  0  0  0  0
    1.6810   -0.7202    4.4281 H   0  0  0  0  0  0  0  0  0  0  0  0
    1.5884   -2.2724    3.5617 H   0  0  0  0  0  0  0  0  0  0  0  0
  5  6  2  0  0  0  0
  5  7  1  0  0  0  0
  2  3  1  0  0  0  0
  2  4  1  0  0  0  0
  2  5  1  0  0  0  0
  1  2  1  0  0  0  0
 19 20  2  0  0  0  0
 19 21  1  0  0  0  0
 16 17  1  0  0  0  0
 16 18  1  0  0  0  0
 14 15  2  0  0  0  0
 14 16  1  0  0  0  0
 11 12  1  0  0  0  0
 11 13  1  0  0  0  0
 11 14  1  0  0  0  0
  9 10  1  0  0  0  0
  9 11  1  0  0  0  0
  9 19  1  0  0  0  0
  7  8  1  0  0  0  0
  7  9  1  0  0  0  0
 23 24  1  0  0  0  0
 23 25  1  0  0  0  0
 23 26  1  0  0  0  0
 21 22  1  0  0  0  0
 21 23  1  0  0  0  0
M  END
$$$$
default_name
  -OEChem-01062215323D

 26 25  0     1  0  0  0  0  0999 V2000
   -3.0232   -3.6924    1.0038 H   0  0  0  0  0  0  0  0  0  0  0  0
   -3.0082   -2.6684    0.6318 C   0  0  0  0  0  0  0  0  0  0  0  0
   -3.6332   -2.0414    1.2658 H   0  0  0  0  0  0  0  0  0  0  0  0
   -3.3762   -2.6444   -0.3912 H   0  0  0  0  0  0  0  0  0  0  0  0
   -1.5882   -2.1554    0.6658 C   0  0  0  0  0  0  0  0  0  0  0  0
   -0.6832   -2.8764    1.0638 O   0  0  0  0  0  0  0  0  0  0  0  0
   -1.3952   -0.9084    0.2428 N   0  0  0  0  0  0  0  0  0  0  0  0
   -2.1972   -0.3644   -0.0422 H   0  0  0  0  0  0  0  0  0  0  0  0
   -0.1122   -0.1994    0.2658 C   0  0  1  0  0  0  0  0  0  0  0  0
    0.2974   -0.1894   -0.7476 H   0  0  0  0  0  0  0  0  0  0  0  0
   -0.3577    1.2571    0.7191 C   0  0  0  0  0  0  0  0  0  0  0  0
   -0.9651    1.2523    1.6235 H   0  0  0  0  0  0  0  0  0  0  0  0
    0.5971    1.7269    0.9504 H   0  0  0  0  0  0  0  0  0  0  0  0
   -1.0957    2.1067   -0.3029 C   0  0  0  0  0  0  0  0  0  0  0  0
   -0.8525    2.0691   -1.4965 O   0  0  0  0  0  0  0  0  0  0  0  0
   -2.0273    2.9184    0.1347 N   0  0  0  0  0  0  0  0  0  0  0  0
   -2.5099    3.4542   -0.5650 H   0  0  0  0  0  0  0  0  0  0  0  0
   -2.2593    2.9540    1.1093 H   0  0  0  0  0  0  0  0  0  0  0  0
    0.8853   -0.9457    1.1790 C   0  0  0  0  0  0  0  0  0  0  0  0
    1.7905   -1.6155    0.6816 O   0  0  0  0  0  0  0  0  0  0  0  0
    0.7177   -0.8413    2.5008 N   0  0  0  0  0  0  0  0  0  0  0  0
   -0.0985   -0.3319    2.8245 H   0  0  0  0  0  0  0  0  0  0  0  0
    1.5801   -1.4738    3.4973 C   0  0  0  0  0  0  0  0  0  0  0  0
    2.6143   -1.1596    3.3414 H   0  0  0  0  0  0  0  0  0  0  0  0
    1.2643   -1.1875    4.5015 H   0  0  0  0  0  0  0  0  0  0  0  0
    1.5246   -2.5591    3.3971 H   0  0  0  0  0  0  0  0  0  0  0  0
  5  6  2  0  0  0  0
  5  7  1  0  0  0  0
  2  3  1  0  0  0  0
  2  4  1  0  0  0  0
  2  5  1  0  0  0  0
  1  2  1  0  0  0  0
 19 20  2  0  0  0  0
 19 21  1  0  0  0  0
 16 17  1  0  0  0  0
 16 18  1  0  0  0  0
 14 15  2  0  0  0  0
 14 16  1  0  0  0  0
 11 12  1  0  0  0  0
 11 13  1  0  0  0  0
 11 14  1  0  0  0  0
  9 10  1  0  0  0  0
  9 11  1  0  0  0  0
  9 19  1  0  0  0  0
  7  8  1  0  0  0  0
  7  9  1  0  0  0  0
 23 24  1  0  0  0  0
 23 25  1  0  0  0  0
 23 26  1  0  0  0  0
 21 22  1  0  0  0  0
 21 23  1  0  0  0  0
M  END
$$$$
default_name
  -OEChem-01062215323D

 26 25  0     1  0  0  0  0  0999 V2000
   -3.0232   -3.6924    1.0038 H   0  0  0  0  0  0  0  0  0  0  0  0
   -3.0082   -2.6684    0.6318 C   0  0  0  0  0  0  0  0  0  0  0  0
   -3.6332   -2.0414    1.2658 H   0  0  0  0  0  0  0  0  0  0  0  0
   -3.3762   -2.6444   -0.3912 H   0  0  0  0  0  0  0  0  0  0  0  0
   -1.5882   -2.1554    0.6658 C   0  0  0  0  0  0  0  0  0  0  0  0
   -0.6832   -2.8764    1.0638 O   0  0  0  0  0  0  0  0  0  0  0  0
   -1.3952   -0.9084    0.2428 N   0  0  0  0  0  0  0  0  0  0  0  0
   -2.1972   -0.3644   -0.0422 H   0  0  0  0  0  0  0  0  0  0  0  0
   -0.1122   -0.1994    0.2658 C   0  0  1  0  0  0  0  0  0  0  0  0
    0.2974   -0.1894   -0.7476 H   0  0  0  0  0  0  0  0  0  0  0  0
   -0.3577    1.2571    0.7191 C   0  0  0  0  0  0  0  0  0  0  0  0
   -0.9651    1.2523    1.6235 H   0  0  0  0  0  0  0  0  0  0  0  0
    0.5971    1.7269    0.9504 H   0  0  0  0  0  0  0  0  0  0  0  0
   -1.0957    2.1067   -0.3029 C   0  0  0  0  0  0  0  0  0  0  0  0
   -0.8525    2.0691   -1.4965 O   0  0  0  0  0  0  0  0  0  0  0  0
   -2.0273    2.9184    0.1347 N   0  0  0  0  0  0  0  0  0  0  0  0
   -2.5099    3.4542   -0.5650 H   0  0  0  0  0  0  0  0  0  0  0  0
   -2.2593    2.9540    1.1093 H   0  0  0  0  0  0  0  0  0  0  0  0
    0.8853   -0.9457    1.1790 C   0  0  0  0  0  0  0  0  0  0  0  0
    1.9379   -1.3811    0.7122 O   0  0  0  0  0  0  0  0  0  0  0  0
    0.5558   -1.1017    2.4648 N   0  0  0  0  0  0  0  0  0  0  0  0
   -0.3637   -0.7791    2.7488 H   0  0  0  0  0  0  0  0  0  0  0  0
    1.3929   -1.7712    3.4587 C   0  0  0  0  0  0  0  0  0  0  0  0
    2.3727   -1.2903    3.4985 H   0  0  0  0  0  0  0  0  0  0  0  0
    0.9241   -1.7149    4.4421 H   0  0  0  0  0  0  0  0  0  0  0  0
    1.5274   -2.8183    3.1822 H   0  0  0  0  0  0  0  0  0  0  0  0
  5  6  2  0  0  0  0
  5  7  1  0  0  0  0
  2  3  1  0  0  0  0
  2  4  1  0  0  0  0
  2  5  1  0  0  0  0
  1  2  1  0  0  0  0
 19 20  2  0  0  0  0
 19 21  1  0  0  0  0
 16 17  1  0  0  0  0
 16 18  1  0  0  0  0
 14 15  2  0  0  0  0
 14 16  1  0  0  0  0
 11 12  1  0  0  0  0
 11 13  1  0  0  0  0
 11 14  1  0  0  0  0
  9 10  1  0  0  0  0
  9 11  1  0  0  0  0
  9 19  1  0  0  0  0
  7  8  1  0  0  0  0
  7  9  1  0  0  0  0
 23 24  1  0  0  0  0
 23 25  1  0  0  0  0
 23 26  1  0  0  0  0
 21 22  1  0  0  0  0
 21 23  1  0  0  0  0
M  END
$$$$
default_name
  -OEChem-01062215323D

 26 25  0     1  0  0  0  0  0999 V2000
   -3.0232   -3.6924    1.0038 H   0  0  0  0  0  0  0  0  0  0  0  0
   -3.0082   -2.6684    0.6318 C   0  0  0  0  0  0  0  0  0  0  0  0
   -3.6332   -2.0414    1.2658 H   0  0  0  0  0  0  0  0  0  0  0  0
   -3.3762   -2.6444   -0.3912 H   0  0  0  0  0  0  0  0  0  0  0  0
   -1.5882   -2.1554    0.6658 C   0  0  0  0  0  0  0  0  0  0  0  0
   -0.6832   -2.8764    1.0638 O   0  0  0  0  0  0  0  0  0  0  0  0
   -1.3952   -0.9084    0.2428 N   0  0  0  0  0  0  0  0  0  0  0  0
   -2.1972   -0.3644   -0.0422 H   0  0  0  0  0  0  0  0  0  0  0  0
   -0.1122   -0.1994    0.2658 C   0  0  1  0  0  0  0  0  0  0  0  0
    0.2974   -0.1894   -0.7476 H   0  0  0  0  0  0  0  0  0  0  0  0
   -0.3577    1.2571    0.7191 C   0  0  0  0  0  0  0  0  0  0  0  0
   -0.9651    1.2523    1.6235 H   0  0  0  0  0  0  0  0  0  0  0  0
    0.5971    1.7269    0.9504 H   0  0  0  0  0  0  0  0  0  0  0  0
   -1.0957    2.1067   -0.3029 C   0  0  0  0  0  0  0  0  0  0  0  0
   -0.8525    2.0691   -1.4965 O   0  0  0  0  0  0  0  0  0  0  0  0
   -2.0273    2.9184    0.1347 N   0  0  0  0  0  0  0  0  0  0  0  0
   -2.5099    3.4542   -0.5650 H   0  0  0  0  0  0  0  0  0  0  0  0
   -2.2593    2.9540    1.1093 H   0  0  0  0  0  0  0  0  0  0  0  0
    0.8853   -0.9457    1.1790 C   0  0  0  0  0  0  0  0  0  0  0  0
    2.0405   -1.1373    0.7993 O   0  0  0  0  0  0  0  0  0  0  0  0
    0.4438   -1.3720    2.3663 N   0  0  0  0  0  0  0  0  0  0  0  0
   -0.5421   -1.2390    2.5678 H   0  0  0  0  0  0  0  0  0  0  0  0
    1.2625   -2.0806    3.3483 C   0  0  0  0  0  0  0  0  0  0  0  0
    2.1397   -1.4798    3.5982 H   0  0  0  0  0  0  0  0  0  0  0  0
    0.6836   -2.2664    4.2540 H   0  0  0  0  0  0  0  0  0  0  0  0
    1.5966   -3.0323    2.9317 H   0  0  0  0  0  0  0  0  0  0  0  0
  5  6  2  0  0  0  0
  5  7  1  0  0  0  0
  2  3  1  0  0  0  0
  2  4  1  0  0  0  0
  2  5  1  0  0  0  0
  1  2  1  0  0  0  0
 19 20  2  0  0  0  0
 19 21  1  0  0  0  0
 16 17  1  0  0  0  0
 16 18  1  0  0  0  0
 14 15  2  0  0  0  0
 14 16  1  0  0  0  0
 11 12  1  0  0  0  0
 11 13  1  0  0  0  0
 11 14  1  0  0  0  0
  9 10  1  0  0  0  0
  9 11  1  0  0  0  0
  9 19  1  0  0  0  0
  7  8  1  0  0  0  0
  7  9  1  0  0  0  0
 23 24  1  0  0  0  0
 23 25  1  0  0  0  0
 23 26  1  0  0  0  0
 21 22  1  0  0  0  0
 21 23  1  0  0  0  0
M  END
$$$$
default_name
  -OEChem-01062215323D

 26 25  0     1  0  0  0  0  0999 V2000
   -3.0232   -3.6924    1.0038 H   0  0  0  0  0  0  0  0  0  0  0  0
   -3.0082   -2.6684    0.6318 C   0  0  0  0  0  0  0  0  0  0  0  0
   -3.6332   -2.0414    1.2658 H   0  0  0  0  0  0  0  0  0  0  0  0
   -3.3762   -2.6444   -0.3912 H   0  0  0  0  0  0  0  0  0  0  0  0
   -1.5882   -2.1554    0.6658 C   0  0  0  0  0  0  0  0  0  0  0  0
   -0.6832   -2.8764    1.0638 O   0  0  0  0  0  0  0  0  0  0  0  0
   -1.3952   -0.9084    0.2428 N   0  0  0  0  0  0  0  0  0  0  0  0
   -2.1972   -0.3644   -0.0422 H   0  0  0  0  0  0  0  0  0  0  0  0
   -0.1122   -0.1994    0.2658 C   0  0  1  0  0  0  0  0  0  0  0  0
    0.2974   -0.1894   -0.7476 H   0  0  0  0  0  0  0  0  0  0  0  0
   -0.3577    1.2571    0.7191 C   0  0  0  0  0  0  0  0  0  0  0  0
   -0.9651    1.2523    1.6235 H   0  0  0  0  0  0  0  0  0  0  0  0
    0.5971    1.7269    0.9504 H   0  0  0  0  0  0  0  0  0  0  0  0
   -1.0957    2.1067   -0.3029 C   0  0  0  0  0  0  0  0  0  0  0  0
   -0.8525    2.0691   -1.4965 O   0  0  0  0  0  0  0  0  0  0  0  0
   -2.0273    2.9184    0.1347 N   0  0  0  0  0  0  0  0  0  0  0  0
   -2.5099    3.4542   -0.5650 H   0  0  0  0  0  0  0  0  0  0  0  0
   -2.2593    2.9540    1.1093 H   0  0  0  0  0  0  0  0  0  0  0  0
    0.8853   -0.9457    1.1790 C   0  0  0  0  0  0  0  0  0  0  0  0
    2.0915   -0.9007    0.9370 O   0  0  0  0  0  0  0  0  0  0  0  0
    0.3894   -1.6337    2.2119 N   0  0  0  0  0  0  0  0  0  0  0  0
   -0.6213   -1.6802    2.2938 H   0  0  0  0  0  0  0  0  0  0  0  0
    1.1977   -2.3809    3.1737 C   0  0  0  0  0  0  0  0  0  0  0  0
    1.9311   -1.7151    3.6337 H   0  0  0  0  0  0  0  0  0  0  0  0
    0.5592   -2.8045    3.9501 H   0  0  0  0  0  0  0  0  0  0  0  0
    1.7276   -3.1865    2.6626 H   0  0  0  0  0  0  0  0  0  0  0  0
  5  6  2  0  0  0  0
  5  7  1  0  0  0  0
  2  3  1  0  0  0  0
  2  4  1  0  0  0  0
  2  5  1  0  0  0  0
  1  2  1  0  0  0  0
 19 20  2  0  0  0  0
 19 21  1  0  0  0  0
 16 17  1  0  0  0  0
 16 18  1  0  0  0  0
 14 15  2  0  0  0  0
 14 16  1  0  0  0  0
 11 12  1  0  0  0  0
 11 13  1  0  0  0  0
 11 14  1  0  0  0  0
  9 10  1  0  0  0  0
  9 11  1  0  0  0  0
  9 19  1  0  0  0  0
  7  8  1  0  0  0  0
  7  9  1  0  0  0  0
 23 24  1  0  0  0  0
 23 25  1  0  0  0  0
 23 26  1  0  0  0  0
 21 22  1  0  0  0  0
 21 23  1  0  0  0  0
M  END
$$$$
default_name
  -OEChem-01062215323D

 26 25  0     1  0  0  0  0  0999 V2000
   -3.0232   -3.6924    1.0038 H   0  0  0  0  0  0  0  0  0  0  0  0
   -3.0082   -2.6684    0.6318 C   0  0  0  0  0  0  0  0  0  0  0  0
   -3.6332   -2.0414    1.2658 H   0  0  0  0  0  0  0  0  0  0  0  0
   -3.3762   -2.6444   -0.3912 H   0  0  0  0  0  0  0  0  0  0  0  0
   -1.5882   -2.1554    0.6658 C   0  0  0  0  0  0  0  0  0  0  0  0
   -0.6832   -2.8764    1.0638 O   0  0  0  0  0  0  0  0  0  0  0  0
   -1.3952   -0.9084    0.2428 N   0  0  0  0  0  0  0  0  0  0  0  0
   -2.1972   -0.3644   -0.0422 H   0  0  0  0  0  0  0  0  0  0  0  0
   -0.1122   -0.1994    0.2658 C   0  0  1  0  0  0  0  0  0  0  0  0
    0.2974   -0.1894   -0.7476 H   0  0  0  0  0  0  0  0  0  0  0  0
   -0.3577    1.2571    0.7191 C   0  0  0  0  0  0  0  0  0  0  0  0
   -0.9651    1.2523    1.6235 H   0  0  0  0  0  0  0  0  0  0  0  0
    0.5971    1.7269    0.9504 H   0  0  0  0  0  0  0  0  0  0  0  0
   -1.0957    2.1067   -0.3029 C   0  0  0  0  0  0  0  0  0  0  0  0
   -0.8525    2.0691   -1.4965 O   0  0  0  0  0  0  0  0  0  0  0  0
   -2.0273    2.9184    0.1347 N   0  0  0  0  0  0  0  0  0  0  0  0
   -2.5099    3.4542   -0.5650 H   0  0  0  0  0  0  0  0  0  0  0  0
   -2.2593    2.9540    1.1093 H   0  0  0  0  0  0  0  0  0  0  0  0
    0.8853   -0.9457    1.1790 C   0  0  0  0  0  0  0  0  0  0  0  0
    2.0873   -0.6873    1.1160 O   0  0  0  0  0  0  0  0  0  0  0  0
    0.3961   -1.8691    2.0122 N   0  0  0  0  0  0  0  0  0  0  0  0
   -0.5961   -2.0727    1.9455 H   0  0  0  0  0  0  0  0  0  0  0  0
    1.2029   -2.6518    2.9467 C   0  0  0  0  0  0  0  0  0  0  0  0
    1.7612   -1.9803    3.6025 H   0  0  0  0  0  0  0  0  0  0  0  0
    0.5594   -3.2926    3.5511 H   0  0  0  0  0  0  0  0  0  0  0  0
    1.9113   -3.2705    2.3933 H   0  0  0  0  0  0  0  0  0  0  0  0
  5  6  2  0  0  0  0
  5  7  1  0  0  0  0
  2  3  1  0  0  0  0
  2  4  1  0  0  0  0
  2  5  1  0  0  0  0
  1  2  1  0  0  0  0
 19 20  2  0  0  0  0
 19 21  1  0  0  0  0
 16 17  1  0  0  0  0
 16 18  1  0  0  0  0
 14 15  2  0  0  0  0
 14 16  1  0  0  0  0
 11 12  1  0  0  0  0
 11 13  1  0  0  0  0
 11 14  1  0  0  0  0
  9 10  1  0  0  0  0
  9 11  1  0  0  0  0
  9 19  1  0  0  0  0
  7  8  1  0  0  0  0
  7  9  1  0  0  0  0
 23 24  1  0  0  0  0
 23 25  1  0  0  0  0
 23 26  1  0  0  0  0
 21 22  1  0  0  0  0
 21 23  1  0  0  0  0
M  END
$$$$
default_name
  -OEChem-01062215323D

 26 25  0     1  0  0  0  0  0999 V2000
   -3.0232   -3.6924    1.0038 H   0  0  0  0  0  0  0  0  0  0  0  0
   -3.0082   -2.6684    0.6318 C   0  0  0  0  0  0  0  0  0  0  0  0
   -3.6332   -2.0414    1.2658 H   0  0  0  0  0  0  0  0  0  0  0  0
   -3.3762   -2.6444   -0.3912 H   0  0  0  0  0  0  0  0  0  0  0  0
   -1.5882   -2.1554    0.6658 C   0  0  0  0  0  0  0  0  0  0  0  0
   -0.6832   -2.8764    1.0638 O   0  0  0  0  0  0  0  0  0  0  0  0
   -1.3952   -0.9084    0.2428 N   0  0  0  0  0  0  0  0  0  0  0  0
   -2.1972   -0.3644   -0.0422 H   0  0  0  0  0  0  0  0  0  0  0  0
   -0.1122   -0.1994    0.2658 C   0  0  1  0  0  0  0  0  0  0  0  0
    0.2974   -0.1894   -0.7476 H   0  0  0  0  0  0  0  0  0  0  0  0
   -0.3577    1.2571    0.7191 C   0  0  0  0  0  0  0  0  0  0  0  0
   -0.9651    1.2523    1.6235 H   0  0  0  0  0  0  0  0  0  0  0  0
    0.5971    1.7269    0.9504 H   0  0  0  0  0  0  0  0  0  0  0  0
   -1.0957    2.1067   -0.3029 C   0  0  0  0  0  0  0  0  0  0  0  0
   -0.8525    2.0691   -1.4965 O   0  0  0  0  0  0  0  0  0  0  0  0
   -2.0273    2.9184    0.1347 N   0  0  0  0  0  0  0  0  0  0  0  0
   -2.5099    3.4542   -0.5650 H   0  0  0  0  0  0  0  0  0  0  0  0
   -2.2593    2.9540    1.1093 H   0  0  0  0  0  0  0  0  0  0  0  0
    0.8853   -0.9457    1.1790 C   0  0  0  0  0  0  0  0  0  0  0  0
    2.0282   -0.5118    1.3240 O   0  0  0  0  0  0  0  0  0  0  0  0
    0.4635   -2.0620    1.7809 N   0  0  0  0  0  0  0  0  0  0  0  0
   -0.4681   -2.3898    1.5466 H   0  0  0  0  0  0  0  0  0  0  0  0
    1.2777   -2.8747    2.6828 C   0  0  0  0  0  0  0  0  0  0  0  0
    1.6416   -2.2572    3.5069 H   0  0  0  0  0  0  0  0  0  0  0  0
    0.6841   -3.6972    3.0841 H   0  0  0  0  0  0  0  0  0  0  0  0
    2.1353   -3.2784    2.1421 H   0  0  0  0  0  0  0  0  0  0  0  0
  5  6  2  0  0  0  0
  5  7  1  0  0  0  0
  2  3  1  0  0  0  0
  2  4  1  0  0  0  0
  2  5  1  0  0  0  0
  1  2  1  0  0  0  0
 19 20  2  0  0  0  0
 19 21  1  0  0  0  0
 16 17  1  0  0  0  0
 16 18  1  0  0  0  0
 14 15  2  0  0  0  0
 14 16  1  0  0  0  0
 11 12  1  0  0  0  0
 11 13  1  0  0  0  0
 11 14  1  0  0  0  0
  9 10  1  0  0  0  0
  9 11  1  0  0  0  0
  9 19  1  0  0  0  0
  7  8  1  0  0  0  0
  7  9  1  0  0  0  0
 23 24  1  0  0  0  0
 23 25  1  0  0  0  0
 23 26  1  0  0  0  0
 21 22  1  0  0  0  0
 21 23  1  0  0  0  0
M  END
$$$$
default_name
  -OEChem-01062215323D

 26 25  0     1  0  0  0  0  0999 V2000
   -3.0232   -3.6924    1.0038 H   0  0  0  0  0  0  0  0  0  0  0  0
   -3.0082   -2.6684    0.6318 C   0  0  0  0  0  0  0  0  0  0  0  0
   -3.6332   -2.0414    1.2658 H   0  0  0  0  0  0  0  0  0  0  0  0
   -3.3762   -2.6444   -0.3912 H   0  0  0  0  0  0  0  0  0  0  0  0
   -1.5882   -2.1554    0.6658 C   0  0  0  0  0  0  0  0  0  0  0  0
   -0.6832   -2.8764    1.0638 O   0  0  0  0  0  0  0  0  0  0  0  0
   -1.3952   -0.9084    0.2428 N   0  0  0  0  0  0  0  0  0  0  0  0
   -2.1972   -0.3644   -0.0422 H   0  0  0  0  0  0  0  0  0  0  0  0
   -0.1122   -0.1994    0.2658 C   0  0  1  0  0  0  0  0  0  0  0  0
    0.2974   -0.1894   -0.7476 H   0  0  0  0  0  0  0  0  0  0  0  0
   -0.3577    1.2571    0.7191 C   0  0  0  0  0  0  0  0  0  0  0  0
   -0.9651    1.2523    1.6235 H   0  0  0  0  0  0  0  0  0  0  0  0
    0.5971    1.7269    0.9504 H   0  0  0  0  0  0  0  0  0  0  0  0
   -1.0957    2.1067   -0.3029 C   0  0  0  0  0  0  0  0  0  0  0  0
   -0.8525    2.0691   -1.4965 O   0  0  0  0  0  0  0  0  0  0  0  0
   -2.0273    2.9184    0.1347 N   0  0  0  0  0  0  0  0  0  0  0  0
   -2.5099    3.4542   -0.5650 H   0  0  0  0  0  0  0  0  0  0  0  0
   -2.2593    2.9540    1.1093 H   0  0  0  0  0  0  0  0  0  0  0  0
    0.8853   -0.9457    1.1790 C   0  0  0  0  0  0  0  0  0  0  0  0
    1.9182   -0.3860    1.5469 O   0  0  0  0  0  0  0  0  0  0  0  0
    0.5872   -2.1993    1.5336 N   0  0  0  0  0  0  0  0  0  0  0  0
   -0.2461   -2.6098    1.1243 H   0  0  0  0  0  0  0  0  0  0  0  0
    1.4171   -3.0344    2.4000 C   0  0  0  0  0  0  0  0  0  0  0  0
    1.5804   -2.5271    3.3533 H   0  0  0  0  0  0  0  0  0  0  0  0
    0.9250   -3.9910    2.5809 H   0  0  0  0  0  0  0  0  0  0  0  0
    2.3844   -3.2099    1.9261 H   0  0  0  0  0  0  0  0  0  0  0  0
  5  6  2  0  0  0  0
  5  7  1  0  0  0  0
  2  3  1  0  0  0  0
  2  4  1  0  0  0  0
  2  5  1  0  0  0  0
  1  2  1  0  0  0  0
 19 20  2  0  0  0  0
 19 21  1  0  0  0  0
 16 17  1  0  0  0  0
 16 18  1  0  0  0  0
 14 15  2  0  0  0  0
 14 16  1  0  0  0  0
 11 12  1  0  0  0  0
 11 13  1  0  0  0  0
 11 14  1  0  0  0  0
  9 10  1  0  0  0  0
  9 11  1  0  0  0  0
  9 19  1  0  0  0  0
  7  8  1  0  0  0  0
  7  9  1  0  0  0  0
 23 24  1  0  0  0  0
 23 25  1  0  0  0  0
 23 26  1  0  0  0  0
 21 22  1  0  0  0  0
 21 23  1  0  0  0  0
M  END
$$$$
default_name
  -OEChem-01062215323D

 26 25  0     1  0  0  0  0  0999 V2000
   -3.0232   -3.6924    1.0038 H   0  0  0  0  0  0  0  0  0  0  0  0
   -3.0082   -2.6684    0.6318 C   0  0  0  0  0  0  0  0  0  0  0  0
   -3.6332   -2.0414    1.2658 H   0  0  0  0  0  0  0  0  0  0  0  0
   -3.3762   -2.6444   -0.3912 H   0  0  0  0  0  0  0  0  0  0  0  0
   -1.5882   -2.1554    0.6658 C   0  0  0  0  0  0  0  0  0  0  0  0
   -0.6832   -2.8764    1.0638 O   0  0  0  0  0  0  0  0  0  0  0  0
   -1.3952   -0.9084    0.2428 N   0  0  0  0  0  0  0  0  0  0  0  0
   -2.1972   -0.3644   -0.0422 H   0  0  0  0  0  0  0  0  0  0  0  0
   -0.1122   -0.1994    0.2658 C   0  0  1  0  0  0  0  0  0  0  0  0
    0.2974   -0.1894   -0.7476 H   0  0  0  0  0  0  0  0  0  0  0  0
   -0.3577    1.2571    0.7191 C   0  0  0  0  0  0  0  0  0  0  0  0
   -0.9651    1.2523    1.6235 H   0  0  0  0  0  0  0  0  0  0  0  0
    0.5971    1.7269    0.9504 H   0  0  0  0  0  0  0  0  0  0  0  0
   -1.0957    2.1067   -0.3029 C   0  0  0  0  0  0  0  0  0  0  0  0
   -0.8525    2.0691   -1.4965 O   0  0  0  0  0  0  0  0  0  0  0  0
   -2.0273    2.9184    0.1347 N   0  0  0  0  0  0  0  0  0  0  0  0
   -2.5099    3.4542   -0.5650 H   0  0  0  0  0  0  0  0  0  0  0  0
   -2.2593    2.9540    1.1093 H   0  0  0  0  0  0  0  0  0  0  0  0
    0.8853   -0.9457    1.1790 C   0  0  0  0  0  0  0  0  0  0  0  0
    1.7649   -0.3187    1.7694 O   0  0  0  0  0  0  0  0  0  0  0  0
    0.7585   -2.2717    1.2872 N   0  0  0  0  0  0  0  0  0  0  0  0
    0.0548   -2.7177    0.7073 H   0  0  0  0  0  0  0  0  0  0  0  0
    1.6115   -3.1201    2.1176 C   0  0  0  0  0  0  0  0  0  0  0  0
    1.5818   -2.7714    3.1521 H   0  0  0  0  0  0  0  0  0  0  0  0
    1.2654   -4.1538    2.0760 H   0  0  0  0  0  0  0  0  0  0  0  0
    2.6414   -3.0694    1.7601 H   0  0  0  0  0  0  0  0  0  0  0  0
  5  6  2  0  0  0  0
  5  7  1  0  0  0  0
  2  3  1  0  0  0  0
  2  4  1  0  0  0  0
  2  5  1  0  0  0  0
  1  2  1  0  0  0  0
 19 20  2  0  0  0  0
 19 21  1  0  0  0  0
 16 17  1  0  0  0  0
 16 18  1  0  0  0  0
 14 15  2  0  0  0  0
 14 16  1  0  0  0  0
 11 12  1  0  0  0  0
 11 13  1  0  0  0  0
 11 14  1  0  0  0  0
  9 10  1  0  0  0  0
  9 11  1  0  0  0  0
  9 19  1  0  0  0  0
  7  8  1  0  0  0  0
  7  9  1  0  0  0  0
 23 24  1  0  0  0  0
 23 25  1  0  0  0  0
 23 26  1  0  0  0  0
 21 22  1  0  0  0  0
 21 23  1  0  0  0  0
M  END
$$$$
default_name
  -OEChem-01062215323D

 26 25  0     1  0  0  0  0  0999 V2000
   -3.0232   -3.6924    1.0038 H   0  0  0  0  0  0  0  0  0  0  0  0
   -3.0082   -2.6684    0.6318 C   0  0  0  0  0  0  0  0  0  0  0  0
   -3.6332   -2.0414    1.2658 H   0  0  0  0  0  0  0  0  0  0  0  0
   -3.3762   -2.6444   -0.3912 H   0  0  0  0  0  0  0  0  0  0  0  0
   -1.5882   -2.1554    0.6658 C   0  0  0  0  0  0  0  0  0  0  0  0
   -0.6832   -2.8764    1.0638 O   0  0  0  0  0  0  0  0  0  0  0  0
   -1.3952   -0.9084    0.2428 N   0  0  0  0  0  0  0  0  0  0  0  0
   -2.1972   -0.3644   -0.0422 H   0  0  0  0  0  0  0  0  0  0  0  0
   -0.1122   -0.1994    0.2658 C   0  0  1  0  0  0  0  0  0  0  0  0
    0.2974   -0.1894   -0.7476 H   0  0  0  0  0  0  0  0  0  0  0  0
   -0.3577    1.2571    0.7191 C   0  0  0  0  0  0  0  0  0  0  0  0
   -0.9651    1.2523    1.6235 H   0  0  0  0  0  0  0  0  0  0  0  0
    0.5971    1.7269    0.9504 H   0  0  0  0  0  0  0  0  0  0  0  0
   -1.0957    2.1067   -0.3029 C   0  0  0  0  0  0  0  0  0  0  0  0
   -0.8525    2.0691   -1.4965 O   0  0  0  0  0  0  0  0  0  0  0  0
   -2.0273    2.9184    0.1347 N   0  0  0  0  0  0  0  0  0  0  0  0
   -2.5099    3.4542   -0.5650 H   0  0  0  0  0  0  0  0  0  0  0  0
   -2.2593    2.9540    1.1093 H   0  0  0  0  0  0  0  0  0  0  0  0
    0.8853   -0.9457    1.1790 C   0  0  0  0  0  0  0  0  0  0  0  0
    1.5787   -0.3142    1.9765 O   0  0  0  0  0  0  0  0  0  0  0  0
    0.9659   -2.2743    1.0586 N   0  0  0  0  0  0  0  0  0  0  0  0
    0.4142   -2.7062    0.3242 H   0  0  0  0  0  0  0  0  0  0  0  0
    1.8478   -3.1259    1.8547 C   0  0  0  0  0  0  0  0  0  0  0  0
    1.6456   -2.9735    2.9171 H   0  0  0  0  0  0  0  0  0  0  0  0
    1.6824   -4.1745    1.6036 H   0  0  0  0  0  0  0  0  0  0  0  0
    2.8889   -2.8667    1.6554 H   0  0  0  0  0  0  0  0  0  0  0  0
  5  6  2  0  0  0  0
  5  7  1  0  0  0  0
  2  3  1  0  0  0  0
  2  4  1  0  0  0  0
  2  5  1  0  0  0  0
  1  2  1  0  0  0  0
 19 20  2  0  0  0  0
 19 21  1  0  0  0  0
 16 17  1  0  0  0  0
 16 18  1  0  0  0  0
 14 15  2  0  0  0  0
 14 16  1  0  0  0  0
 11 12  1  0  0  0  0
 11 13  1  0  0  0  0
 11 14  1  0  0  0  0
  9 10  1  0  0  0  0
  9 11  1  0  0  0  0
  9 19  1  0  0  0  0
  7  8  1  0  0  0  0
  7  9  1  0  0  0  0
 23 24  1  0  0  0  0
 23 25  1  0  0  0  0
 23 26  1  0  0  0  0
 21 22  1  0  0  0  0
 21 23  1  0  0  0  0
M  END
$$$$
default_name
  -OEChem-01062215323D

 26 25  0     1  0  0  0  0  0999 V2000
   -3.0232   -3.6924    1.0038 H   0  0  0  0  0  0  0  0  0  0  0  0
   -3.0082   -2.6684    0.6318 C   0  0  0  0  0  0  0  0  0  0  0  0
   -3.6332   -2.0414    1.2658 H   0  0  0  0  0  0  0  0  0  0  0  0
   -3.3762   -2.6444   -0.3912 H   0  0  0  0  0  0  0  0  0  0  0  0
   -1.5882   -2.1554    0.6658 C   0  0  0  0  0  0  0  0  0  0  0  0
   -0.6832   -2.8764    1.0638 O   0  0  0  0  0  0  0  0  0  0  0  0
   -1.3952   -0.9084    0.2428 N   0  0  0  0  0  0  0  0  0  0  0  0
   -2.1972   -0.3644   -0.0422 H   0  0  0  0  0  0  0  0  0  0  0  0
   -0.1122   -0.1994    0.2658 C   0  0  1  0  0  0  0  0  0  0  0  0
    0.2974   -0.1894   -0.7476 H   0  0  0  0  0  0  0  0  0  0  0  0
   -0.3577    1.2571    0.7191 C   0  0  0  0  0  0  0  0  0  0  0  0
   -0.9651    1.2523    1.6235 H   0  0  0  0  0  0  0  0  0  0  0  0
    0.5971    1.7269    0.9504 H   0  0  0  0  0  0  0  0  0  0  0  0
   -1.0957    2.1067   -0.3029 C   0  0  0  0  0  0  0  0  0  0  0  0
   -0.8525    2.0691   -1.4965 O   0  0  0  0  0  0  0  0  0  0  0  0
   -2.0273    2.9184    0.1347 N   0  0  0  0  0  0  0  0  0  0  0  0
   -2.5099    3.4542   -0.5650 H   0  0  0  0  0  0  0  0  0  0  0  0
   -2.2593    2.9540    1.1093 H   0  0  0  0  0  0  0  0  0  0  0  0
    0.8853   -0.9457    1.1790 C   0  0  0  0  0  0  0  0  0  0  0  0
    1.3722   -0.3731    2.1539 O   0  0  0  0  0  0  0  0  0  0  0  0
    1.1952   -2.2068    0.8632 N   0  0  0  0  0  0  0  0  0  0  0  0
    0.8074   -2.5762    0.0010 H   0  0  0  0  0  0  0  0  0  0  0  0
    2.1097   -3.0514    1.6295 C   0  0  0  0  0  0  0  0  0  0  0  0
    1.7676   -3.1197    2.6644 H   0  0  0  0  0  0  0  0  0  0  0  0
    2.1474   -4.0518    1.1960 H   0  0  0  0  0  0  0  0  0  0  0  0
    3.1101   -2.6155    1.6190 H   0  0  0  0  0  0  0  0  0  0  0  0
  5  6  2  0  0  0  0
  5  7  1  0  0  0  0
  2  3  1  0  0  0  0
  2  4  1  0  0  0  0
  2  5  1  0  0  0  0
  1  2  1  0  0  0  0
 19 20  2  0  0  0  0
 19 21  1  0  0  0  0
 16 17  1  0  0  0  0
 16 18  1  0  0  0  0
 14 15  2  0  0  0  0
 14 16  1  0  0  0  0
 11 12  1  0  0  0  0
 11 13  1  0  0  0  0
 11 14  1  0  0  0  0
  9 10  1  0  0  0  0
  9 11  1  0  0  0  0
  9 19  1  0  0  0  0
  7  8  1  0  0  0  0
  7  9  1  0  0  0  0
 23 24  1  0  0  0  0
 23 25  1  0  0  0  0
 23 26  1  0  0  0  0
 21 22  1  0  0  0  0
 21 23  1  0  0  0  0
M  END
$$$$
default_name
  -OEChem-01062215323D

 26 25  0     1  0  0  0  0  0999 V2000
   -3.0232   -3.6924    1.0038 H   0  0  0  0  0  0  0  0  0  0  0  0
   -3.0082   -2.6684    0.6318 C   0  0  0  0  0  0  0  0  0  0  0  0
   -3.6332   -2.0414    1.2658 H   0  0  0  0  0  0  0  0  0  0  0  0
   -3.3762   -2.6444   -0.3912 H   0  0  0  0  0  0  0  0  0  0  0  0
   -1.5882   -2.1554    0.6658 C   0  0  0  0  0  0  0  0  0  0  0  0
   -0.6832   -2.8764    1.0638 O   0  0  0  0  0  0  0  0  0  0  0  0
   -1.3952   -0.9084    0.2428 N   0  0  0  0  0  0  0  0  0  0  0  0
   -2.1972   -0.3644   -0.0422 H   0  0  0  0  0  0  0  0  0  0  0  0
   -0.1122   -0.1994    0.2658 C   0  0  1  0  0  0  0  0  0  0  0  0
    0.2974   -0.1894   -0.7476 H   0  0  0  0  0  0  0  0  0  0  0  0
   -0.3577    1.2571    0.7191 C   0  0  0  0  0  0  0  0  0  0  0  0
   -0.9651    1.2523    1.6235 H   0  0  0  0  0  0  0  0  0  0  0  0
    0.5971    1.7269    0.9504 H   0  0  0  0  0  0  0  0  0  0  0  0
   -1.0957    2.1067   -0.3029 C   0  0  0  0  0  0  0  0  0  0  0  0
   -0.8525    2.0691   -1.4965 O   0  0  0  0  0  0  0  0  0  0  0  0
   -2.0273    2.9184    0.1347 N   0  0  0  0  0  0  0  0  0  0  0  0
   -2.5099    3.4542   -0.5650 H   0  0  0  0  0  0  0  0  0  0  0  0
   -2.2593    2.9540    1.1093 H   0  0  0  0  0  0  0  0  0  0  0  0
    0.8853   -0.9457    1.1790 C   0  0  0  0  0  0  0  0  0  0  0  0
    1.1596   -0.4911    2.2897 O   0  0  0  0  0  0  0  0  0  0  0  0
    1.4308   -2.0739    0.7145 N   0  0  0  0  0  0  0  0  0  0  0  0
    1.2078   -2.3363   -0.2403 H   0  0  0  0  0  0  0  0  0  0  0  0
    2.3795   -2.9018    1.4570 C   0  0  0  0  0  0  0  0  0  0  0  0
    1.9395   -3.2000    2.4111 H   0  0  0  0  0  0  0  0  0  0  0  0
    2.6287   -3.7940    0.8809 H   0  0  0  0  0  0  0  0  0  0  0  0
    3.2899   -2.3330    1.6536 H   0  0  0  0  0  0  0  0  0  0  0  0
  5  6  2  0  0  0  0
  5  7  1  0  0  0  0
  2  3  1  0  0  0  0
  2  4  1  0  0  0  0
  2  5  1  0  0  0  0
  1  2  1  0  0  0  0
 19 20  2  0  0  0  0
 19 21  1  0  0  0  0
 16 17  1  0  0  0  0
 16 18  1  0  0  0  0
 14 15  2  0  0  0  0
 14 16  1  0  0  0  0
 11 12  1  0  0  0  0
 11 13  1  0  0  0  0
 11 14  1  0  0  0  0
  9 10  1  0  0  0  0
  9 11  1  0  0  0  0
  9 19  1  0  0  0  0
  7  8  1  0  0  0  0
  7  9  1  0  0  0  0
 23 24  1  0  0  0  0
 23 25  1  0  0  0  0
 23 26  1  0  0  0  0
 21 22  1  0  0  0  0
 21 23  1  0  0  0  0
M  END
$$$$
default_name
  -OEChem-01062215323D

 26 25  0     1  0  0  0  0  0999 V2000
   -3.0232   -3.6924    1.0038 H   0  0  0  0  0  0  0  0  0  0  0  0
   -3.0082   -2.6684    0.6318 C   0  0  0  0  0  0  0  0  0  0  0  0
   -3.6332   -2.0414    1.2658 H   0  0  0  0  0  0  0  0  0  0  0  0
   -3.3762   -2.6444   -0.3912 H   0  0  0  0  0  0  0  0  0  0  0  0
   -1.5882   -2.1554    0.6658 C   0  0  0  0  0  0  0  0  0  0  0  0
   -0.6832   -2.8764    1.0638 O   0  0  0  0  0  0  0  0  0  0  0  0
   -1.3952   -0.9084    0.2428 N   0  0  0  0  0  0  0  0  0  0  0  0
   -2.1972   -0.3644   -0.0422 H   0  0  0  0  0  0  0  0  0  0  0  0
   -0.1122   -0.1994    0.2658 C   0  0  1  0  0  0  0  0  0  0  0  0
    0.2974   -0.1894   -0.7476 H   0  0  0  0  0  0  0  0  0  0  0  0
   -0.3577    1.2571    0.7191 C   0  0  0  0  0  0  0  0  0  0  0  0
   -0.9651    1.2523    1.6235 H   0  0  0  0  0  0  0  0  0  0  0  0
    0.5971    1.7269    0.9504 H   0  0  0  0  0  0  0  0  0  0  0  0
   -1.0957    2.1067   -0.3029 C   0  0  0  0  0  0  0  0  0  0  0  0
   -0.8525    2.0691   -1.4965 O   0  0  0  0  0  0  0  0  0  0  0  0
   -2.0273    2.9184    0.1347 N   0  0  0  0  0  0  0  0  0  0  0  0
   -2.5099    3.4542   -0.5650 H   0  0  0  0  0  0  0  0  0  0  0  0
   -2.2593    2.9540    1.1093 H   0  0  0  0  0  0  0  0  0  0  0  0
    0.8853   -0.9457    1.1790 C   0  0  0  0  0  0  0  0  0  0  0  0
    0.9553   -0.6604    2.3745 O   0  0  0  0  0  0  0  0  0  0  0  0
    1.6567   -1.8846    0.6225 N   0  0  0  0  0  0  0  0  0  0  0  0
    1.5879   -2.0030   -0.3833 H   0  0  0  0  0  0  0  0  0  0  0  0
    2.6388   -2.6871    1.3493 C   0  0  0  0  0  0  0  0  0  0  0  0
    2.1494   -3.2090    2.1744 H   0  0  0  0  0  0  0  0  0  0  0  0
    3.0936   -3.4186    0.6798 H   0  0  0  0  0  0  0  0  0  0  0  0
    3.4160   -2.0383    1.7567 H   0  0  0  0  0  0  0  0  0  0  0  0
  5  6  2  0  0  0  0
  5  7  1  0  0  0  0
  2  3  1  0  0  0  0
  2  4  1  0  0  0  0
  2  5  1  0  0  0  0
  1  2  1  0  0  0  0
 19 20  2  0  0  0  0
 19 21  1  0  0  0  0
 16 17  1  0  0  0  0
 16 18  1  0  0  0  0
 14 15  2  0  0  0  0
 14 16  1  0  0  0  0
 11 12  1  0  0  0  0
 11 13  1  0  0  0  0
 11 14  1  0  0  0  0
  9 10  1  0  0  0  0
  9 11  1  0  0  0  0
  9 19  1  0  0  0  0
  7  8  1  0  0  0  0
  7  9  1  0  0  0  0
 23 24  1  0  0  0  0
 23 25  1  0  0  0  0
 23 26  1  0  0  0  0
 21 22  1  0  0  0  0
 21 23  1  0  0  0  0
M  END
$$$$
default_name
  -OEChem-01062215323D

 26 25  0     1  0  0  0  0  0999 V2000
   -3.0232   -3.6924    1.0038 H   0  0  0  0  0  0  0  0  0  0  0  0
   -3.0082   -2.6684    0.6318 C   0  0  0  0  0  0  0  0  0  0  0  0
   -3.6332   -2.0414    1.2658 H   0  0  0  0  0  0  0  0  0  0  0  0
   -3.3762   -2.6444   -0.3912 H   0  0  0  0  0  0  0  0  0  0  0  0
   -1.5882   -2.1554    0.6658 C   0  0  0  0  0  0  0  0  0  0  0  0
   -0.6832   -2.8764    1.0638 O   0  0  0  0  0  0  0  0  0  0  0  0
   -1.3952   -0.9084    0.2428 N   0  0  0  0  0  0  0  0  0  0  0  0
   -2.1972   -0.3644   -0.0422 H   0  0  0  0  0  0  0  0  0  0  0  0
   -0.1122   -0.1994    0.2658 C   0  0  1  0  0  0  0  0  0  0  0  0
    0.2974   -0.1894   -0.7476 H   0  0  0  0  0  0  0  0  0  0  0  0
   -0.3577    1.2571    0.7191 C   0  0  0  0  0  0  0  0  0  0  0  0
   -0.9651    1.2523    1.6235 H   0  0  0  0  0  0  0  0  0  0  0  0
    0.5971    1.7269    0.9504 H   0  0  0  0  0  0  0  0  0  0  0  0
   -1.0957    2.1067   -0.3029 C   0  0  0  0  0  0  0  0  0  0  0  0
   -0.8525    2.0691   -1.4965 O   0  0  0  0  0  0  0  0  0  0  0  0
   -2.0273    2.9184    0.1347 N   0  0  0  0  0  0  0  0  0  0  0  0
   -2.5099    3.4542   -0.5650 H   0  0  0  0  0  0  0  0  0  0  0  0
   -2.2593    2.9540    1.1093 H   0  0  0  0  0  0  0  0  0  0  0  0
    0.8853   -0.9457    1.1790 C   0  0  0  0  0  0  0  0  0  0  0  0
    0.7733   -0.8693    2.4025 O   0  0  0  0  0  0  0  0  0  0  0  0
    1.8573   -1.6518    0.5935 N   0  0  0  0  0  0  0  0  0  0  0  0
    1.9220   -1.5990   -0.4181 H   0  0  0  0  0  0  0  0  0  0  0  0
    2.8699   -2.4221    1.3135 C   0  0  0  0  0  0  0  0  0  0  0  0
    2.3831   -3.1460    1.9706 H   0  0  0  0  0  0  0  0  0  0  0  0
    3.5103   -2.9513    0.6065 H   0  0  0  0  0  0  0  0  0  0  0  0
    3.4798   -1.7516    1.9213 H   0  0  0  0  0  0  0  0  0  0  0  0
  5  6  2  0  0  0  0
  5  7  1  0  0  0  0
  2  3  1  0  0  0  0
  2  4  1  0  0  0  0
  2  5  1  0  0  0  0
  1  2  1  0  0  0  0
 19 20  2  0  0  0  0
 19 21  1  0  0  0  0
 16 17  1  0  0  0  0
 16 18  1  0  0  0  0
 14 15  2  0  0  0  0
 14 16  1  0  0  0  0
 11 12  1  0  0  0  0
 11 13  1  0  0  0  0
 11 14  1  0  0  0  0
  9 10  1  0  0  0  0
  9 11  1  0  0  0  0
  9 19  1  0  0  0  0
  7  8  1  0  0  0  0
  7  9  1  0  0  0  0
 23 24  1  0  0  0  0
 23 25  1  0  0  0  0
 23 26  1  0  0  0  0
 21 22  1  0  0  0  0
 21 23  1  0  0  0  0
M  END
$$$$
default_name
  -OEChem-01062215323D

 26 25  0     1  0  0  0  0  0999 V2000
   -3.0232   -3.6924    1.0038 H   0  0  0  0  0  0  0  0  0  0  0  0
   -3.0082   -2.6684    0.6318 C   0  0  0  0  0  0  0  0  0  0  0  0
   -3.6332   -2.0414    1.2658 H   0  0  0  0  0  0  0  0  0  0  0  0
   -3.3762   -2.6444   -0.3912 H   0  0  0  0  0  0  0  0  0  0  0  0
   -1.5882   -2.1554    0.6658 C   0  0  0  0  0  0  0  0  0  0  0  0
   -0.6832   -2.8764    1.0638 O   0  0  0  0  0  0  0  0  0  0  0  0
   -1.3952   -0.9084    0.2428 N   0  0  0  0  0  0  0  0  0  0  0  0
   -2.1972   -0.3644   -0.0422 H   0  0  0  0  0  0  0  0  0  0  0  0
   -0.1122   -0.1994    0.2658 C   0  0  1  0  0  0  0  0  0  0  0  0
    0.2974   -0.1894   -0.7476 H   0  0  0  0  0  0  0  0  0  0  0  0
   -0.3577    1.2571    0.7191 C   0  0  0  0  0  0  0  0  0  0  0  0
   -0.9651    1.2523    1.6235 H   0  0  0  0  0  0  0  0  0  0  0  0
    0.5971    1.7269    0.9504 H   0  0  0  0  0  0  0  0  0  0  0  0
   -1.0957    2.1067   -0.3029 C   0  0  0  0  0  0  0  0  0  0  0  0
   -0.8525    2.0691   -1.4965 O   0  0  0  0  0  0  0  0  0  0  0  0
   -2.0273    2.9184    0.1347 N   0  0  0  0  0  0  0  0  0  0  0  0
   -2.5099    3.4542   -0.5650 H   0  0  0  0  0  0  0  0  0  0  0  0
   -2.2593    2.9540    1.1093 H   0  0  0  0  0  0  0  0  0  0  0  0
    0.8853   -0.9457    1.1790 C   0  0  0  0  0  0  0  0  0  0  0  0
    0.6260   -1.1037    2.3720 O   0  0  0  0  0  0  0  0  0  0  0  0
    2.0192   -1.3914    0.6296 N   0  0  0  0  0  0  0  0  0  0  0  0
    2.1873   -1.1519   -0.3424 H   0  0  0  0  0  0  0  0  0  0  0  0
    3.0570   -2.1247    1.3521 C   0  0  0  0  0  0  0  0  0  0  0  0
    2.6248   -3.0152    1.8135 H   0  0  0  0  0  0  0  0  0  0  0  0
    3.8505   -2.4239    0.6659 H   0  0  0  0  0  0  0  0  0  0  0  0
    3.4770   -1.4925    2.1361 H   0  0  0  0  0  0  0  0  0  0  0  0
  5  6  2  0  0  0  0
  5  7  1  0  0  0  0
  2  3  1  0  0  0  0
  2  4  1  0  0  0  0
  2  5  1  0  0  0  0
  1  2  1  0  0  0  0
 19 20  2  0  0  0  0
 19 21  1  0  0  0  0
 16 17  1  0  0  0  0
 16 18  1  0  0  0  0
 14 15  2  0  0  0  0
 14 16  1  0  0  0  0
 11 12  1  0  0  0  0
 11 13  1  0  0  0  0
 11 14  1  0  0  0  0
  9 10  1  0  0  0  0
  9 11  1  0  0  0  0
  9 19  1  0  0  0  0
  7  8  1  0  0  0  0
  7  9  1  0  0  0  0
 23 24  1  0  0  0  0
 23 25  1  0  0  0  0
 23 26  1  0  0  0  0
 21 22  1  0  0  0  0
 21 23  1  0  0  0  0
M  END
$$$$
default_name
  -OEChem-01062215323D

 26 25  0     1  0  0  0  0  0999 V2000
   -3.0232   -3.6924    1.0038 H   0  0  0  0  0  0  0  0  0  0  0  0
   -3.0082   -2.6684    0.6318 C   0  0  0  0  0  0  0  0  0  0  0  0
   -3.6332   -2.0414    1.2658 H   0  0  0  0  0  0  0  0  0  0  0  0
   -3.3762   -2.6444   -0.3912 H   0  0  0  0  0  0  0  0  0  0  0  0
   -1.5882   -2.1554    0.6658 C   0  0  0  0  0  0  0  0  0  0  0  0
   -0.6832   -2.8764    1.0638 O   0  0  0  0  0  0  0  0  0  0  0  0
   -1.3952   -0.9084    0.2428 N   0  0  0  0  0  0  0  0  0  0  0  0
   -2.1972   -0.3644   -0.0422 H   0  0  0  0  0  0  0  0  0  0  0  0
   -0.1122   -0.1994    0.2658 C   0  0  1  0  0  0  0  0  0  0  0  0
    0.2974   -0.1894   -0.7476 H   0  0  0  0  0  0  0  0  0  0  0  0
   -0.3577    1.2571    0.7191 C   0  0  0  0  0  0  0  0  0  0  0  0
   -0.9651    1.2523    1.6235 H   0  0  0  0  0  0  0  0  0  0  0  0
    0.5971    1.7269    0.9504 H   0  0  0  0  0  0  0  0  0  0  0  0
   -1.0957    2.1067   -0.3029 C   0  0  0  0  0  0  0  0  0  0  0  0
   -0.8525    2.0691   -1.4965 O   0  0  0  0  0  0  0  0  0  0  0  0
   -2.0273    2.9184    0.1347 N   0  0  0  0  0  0  0  0  0  0  0  0
   -2.5099    3.4542   -0.5650 H   0  0  0  0  0  0  0  0  0  0  0  0
   -2.2593    2.9540    1.1093 H   0  0  0  0  0  0  0  0  0  0  0  0
    0.8853   -0.9457    1.1790 C   0  0  0  0  0  0  0  0  0  0  0  0
    0.5233   -1.3475    2.2848 O   0  0  0  0  0  0  0  0  0  0  0  0
    2.1312   -1.1212    0.7281 N   0  0  0  0  0  0  0  0  0  0  0  0
    2.3656   -0.6920   -0.1614 H   0  0  0  0  0  0  0  0  0  0  0  0
    3.1874   -1.8153    1.4624 C   0  0  0  0  0  0  0  0  0  0  0  0
    2.8578   -2.8258    1.7138 H   0  0  0  0  0  0  0  0  0  0  0  0
    4.0910   -1.8724    0.8539 H   0  0  0  0  0  0  0  0  0  0  0  0
    3.4078   -1.2785    2.3866 H   0  0  0  0  0  0  0  0  0  0  0  0
  5  6  2  0  0  0  0
  5  7  1  0  0  0  0
  2  3  1  0  0  0  0
  2  4  1  0  0  0  0
  2  5  1  0  0  0  0
  1  2  1  0  0  0  0
 19 20  2  0  0  0  0
 19 21  1  0  0  0  0
 16 17  1  0  0  0  0
 16 18  1  0  0  0  0
 14 15  2  0  0  0  0
 14 16  1  0  0  0  0
 11 12  1  0  0  0  0
 11 13  1  0  0  0  0
 11 14  1  0  0  0  0
  9 10  1  0  0  0  0
  9 11  1  0  0  0  0
  9 19  1  0  0  0  0
  7  8  1  0  0  0  0
  7  9  1  0  0  0  0
 23 24  1  0  0  0  0
 23 25  1  0  0  0  0
 23 26  1  0  0  0  0
 21 22  1  0  0  0  0
 21 23  1  0  0  0  0
M  END
$$$$
default_name
  -OEChem-01062215323D

 26 25  0     1  0  0  0  0  0999 V2000
   -3.0232   -3.6924    1.0038 H   0  0  0  0  0  0  0  0  0  0  0  0
   -3.0082   -2.6684    0.6318 C   0  0  0  0  0  0  0  0  0  0  0  0
   -3.6332   -2.0414    1.2658 H   0  0  0  0  0  0  0  0  0  0  0  0
   -3.3762   -2.6444   -0.3912 H   0  0  0  0  0  0  0  0  0  0  0  0
   -1.5882   -2.1554    0.6658 C   0  0  0  0  0  0  0  0  0  0  0  0
   -0.6832   -2.8764    1.0638 O   0  0  0  0  0  0  0  0  0  0  0  0
   -1.3952   -0.9084    0.2428 N   0  0  0  0  0  0  0  0  0  0  0  0
   -2.1972   -0.3644   -0.0422 H   0  0  0  0  0  0  0  0  0  0  0  0
   -0.1122   -0.1994    0.2658 C   0  0  1  0  0  0  0  0  0  0  0  0
    0.2974   -0.1894   -0.7476 H   0  0  0  0  0  0  0  0  0  0  0  0
   -0.3577    1.2571    0.7191 C   0  0  0  0  0  0  0  0  0  0  0  0
   -0.9651    1.2523    1.6235 H   0  0  0  0  0  0  0  0  0  0  0  0
    0.5971    1.7269    0.9504 H   0  0  0  0  0  0  0  0  0  0  0  0
   -1.0957    2.1067   -0.3029 C   0  0  0  0  0  0  0  0  0  0  0  0
   -0.8525    2.0691   -1.4965 O   0  0  0  0  0  0  0  0  0  0  0  0
   -2.0273    2.9184    0.1347 N   0  0  0  0  0  0  0  0  0  0  0  0
   -2.5099    3.4542   -0.5650 H   0  0  0  0  0  0  0  0  0  0  0  0
   -2.2593    2.9540    1.1093 H   0  0  0  0  0  0  0  0  0  0  0  0
    0.8853   -0.9457    1.1790 C   0  0  0  0  0  0  0  0  0  0  0  0
    0.4724   -1.5842    2.1471 O   0  0  0  0  0  0  0  0  0  0  0  0
    2.1857   -0.8594    0.8825 N   0  0  0  0  0  0  0  0  0  0  0  0
    2.4449   -0.2508    0.1126 H   0  0  0  0  0  0  0  0  0  0  0  0
    3.2522   -1.5150    1.6371 C   0  0  0  0  0  0  0  0  0  0  0  0
    3.0664   -2.5904    1.6783 H   0  0  0  0  0  0  0  0  0  0  0  0
    4.2154   -1.3342    1.1578 H   0  0  0  0  0  0  0  0  0  0  0  0
    3.2768   -1.1242    2.6557 H   0  0  0  0  0  0  0  0  0  0  0  0
  5  6  2  0  0  0  0
  5  7  1  0  0  0  0
  2  3  1  0  0  0  0
  2  4  1  0  0  0  0
  2  5  1  0  0  0  0
  1  2  1  0  0  0  0
 19 20  2  0  0  0  0
 19 21  1  0  0  0  0
 16 17  1  0  0  0  0
 16 18  1  0  0  0  0
 14 15  2  0  0  0  0
 14 16  1  0  0  0  0
 11 12  1  0  0  0  0
 11 13  1  0  0  0  0
 11 14  1  0  0  0  0
  9 10  1  0  0  0  0
  9 11  1  0  0  0  0
  9 19  1  0  0  0  0
  7  8  1  0  0  0  0
  7  9  1  0  0  0  0
 23 24  1  0  0  0  0
 23 25  1  0  0  0  0
 23 26  1  0  0  0  0
 21 22  1  0  0  0  0
 21 23  1  0  0  0  0
M  END
$$$$
default_name
  -OEChem-01062215323D

 26 25  0     1  0  0  0  0  0999 V2000
   -3.0232   -3.6924    1.0038 H   0  0  0  0  0  0  0  0  0  0  0  0
   -3.0082   -2.6684    0.6318 C   0  0  0  0  0  0  0  0  0  0  0  0
   -3.6332   -2.0414    1.2658 H   0  0  0  0  0  0  0  0  0  0  0  0
   -3.3762   -2.6444   -0.3912 H   0  0  0  0  0  0  0  0  0  0  0  0
   -1.5882   -2.1554    0.6658 C   0  0  0  0  0  0  0  0  0  0  0  0
   -0.6832   -2.8764    1.0638 O   0  0  0  0  0  0  0  0  0  0  0  0
   -1.3952   -0.9084    0.2428 N   0  0  0  0  0  0  0  0  0  0  0  0
   -2.1972   -0.3644   -0.0422 H   0  0  0  0  0  0  0  0  0  0  0  0
   -0.1122   -0.1994    0.2658 C   0  0  1  0  0  0  0  0  0  0  0  0
    0.2974   -0.1894   -0.7476 H   0  0  0  0  0  0  0  0  0  0  0  0
   -0.3577    1.2571    0.7191 C   0  0  0  0  0  0  0  0  0  0  0  0
   -0.9651    1.2523    1.6235 H   0  0  0  0  0  0  0  0  0  0  0  0
    0.5971    1.7269    0.9504 H   0  0  0  0  0  0  0  0  0  0  0  0
   -1.0957    2.1067   -0.3029 C   0  0  0  0  0  0  0  0  0  0  0  0
   -0.8525    2.0691   -1.4965 O   0  0  0  0  0  0  0  0  0  0  0  0
   -2.0273    2.9184    0.1347 N   0  0  0  0  0  0  0  0  0  0  0  0
   -2.5099    3.4542   -0.5650 H   0  0  0  0  0  0  0  0  0  0  0  0
   -2.2593    2.9540    1.1093 H   0  0  0  0  0  0  0  0  0  0  0  0
    0.8853   -0.9457    1.1790 C   0  0  0  0  0  0  0  0  0  0  0  0
    0.4766   -1.7975    1.9681 O   0  0  0  0  0  0  0  0  0  0  0  0
    2.1789   -0.6241    1.0821 N   0  0  0  0  0  0  0  0  0  0  0  0
    2.4197    0.1417    0.4610 H   0  0  0  0  0  0  0  0  0  0  0  0
    3.2471   -1.2441    1.8641 C   0  0  0  0  0  0  0  0  0  0  0  0
    3.2362   -2.3252    1.7095 H   0  0  0  0  0  0  0  0  0  0  0  0
    4.2152   -0.8462    1.5569 H   0  0  0  0  0  0  0  0  0  0  0  0
    3.0931   -1.0403    2.9251 H   0  0  0  0  0  0  0  0  0  0  0  0
  5  6  2  0  0  0  0
  5  7  1  0  0  0  0
  2  3  1  0  0  0  0
  2  4  1  0  0  0  0
  2  5  1  0  0  0  0
  1  2  1  0  0  0  0
 19 20  2  0  0  0  0
 19 21  1  0  0  0  0
 16 17  1  0  0  0  0
 16 18  1  0  0  0  0
 14 15  2  0  0  0  0
 14 16  1  0  0  0  0
 11 12  1  0  0  0  0
 11 13  1  0  0  0  0
 11 14  1  0  0  0  0
  9 10  1  0  0  0  0
  9 11  1  0  0  0  0
  9 19  1  0  0  0  0
  7  8  1  0  0  0  0
  7  9  1  0  0  0  0
 23 24  1  0  0  0  0
 23 25  1  0  0  0  0
 23 26  1  0  0  0  0
 21 22  1  0  0  0  0
 21 23  1  0  0  0  0
M  END
$$$$
default_name
  -OEChem-01062215323D

 26 25  0     1  0  0  0  0  0999 V2000
   -3.0232   -3.6924    1.0038 H   0  0  0  0  0  0  0  0  0  0  0  0
   -3.0082   -2.6684    0.6318 C   0  0  0  0  0  0  0  0  0  0  0  0
   -3.6332   -2.0414    1.2658 H   0  0  0  0  0  0  0  0  0  0  0  0
   -3.3762   -2.6444   -0.3912 H   0  0  0  0  0  0  0  0  0  0  0  0
   -1.5882   -2.1554    0.6658 C   0  0  0  0  0  0  0  0  0  0  0  0
   -0.6832   -2.8764    1.0638 O   0  0  0  0  0  0  0  0  0  0  0  0
   -1.3952   -0.9084    0.2428 N   0  0  0  0  0  0  0  0  0  0  0  0
   -2.1972   -0.3644   -0.0422 H   0  0  0  0  0  0  0  0  0  0  0  0
   -0.1122   -0.1994    0.2658 C   0  0  1  0  0  0  0  0  0  0  0  0
    0.1669    0.0472   -0.7618 H   0  0  0  0  0  0  0  0  0  0  0  0
   -0.2837    1.1120    1.0646 C   0  0  0  0  0  0  0  0  0  0  0  0
   -0.7727    0.8915    2.0128 H   0  0  0  0  0  0  0  0  0  0  0  0
    0.6974    1.5349    1.2755 H   0  0  0  0  0  0  0  0  0  0  0  0
   -1.1354    2.1569    0.3620 C   0  0  0  0  0  0  0  0  0  0  0  0
   -1.0445    2.3949   -0.8297 O   0  0  0  0  0  0  0  0  0  0  0  0
   -1.9962    2.8313    1.0850 N   0  0  0  0  0  0  0  0  0  0  0  0
   -2.5573    3.5025    0.5908 H   0  0  0  0  0  0  0  0  0  0  0  0
   -2.1036    2.6411    2.0634 H   0  0  0  0  0  0  0  0  0  0  0  0
    0.9844   -1.1144    0.8543 C   0  0  0  0  0  0  0  0  0  0  0  0
    0.6999   -2.2528    1.2262 O   0  0  0  0  0  0  0  0  0  0  0  0
    2.2230   -0.6211    0.9480 N   0  0  0  0  0  0  0  0  0  0  0  0
    2.3540    0.3516    0.6891 H   0  0  0  0  0  0  0  0  0  0  0  0
    3.3715   -1.3604    1.4686 C   0  0  0  0  0  0  0  0  0  0  0  0
    3.5024   -2.2842    0.9010 H   0  0  0  0  0  0  0  0  0  0  0  0
    4.2753   -0.7553    1.3850 H   0  0  0  0  0  0  0  0  0  0  0  0
    3.2023   -1.6139    2.5165 H   0  0  0  0  0  0  0  0  0  0  0  0
  5  6  2  0  0  0  0
  5  7  1  0  0  0  0
  2  3  1  0  0  0  0
  2  4  1  0  0  0  0
  2  5  1  0  0  0  0
  1  2  1  0  0  0  0
 19 20  2  0  0  0  0
 19 21  1  0  0  0  0
 16 17  1  0  0  0  0
 16 18  1  0  0  0  0
 14 15  2  0  0  0  0
 14 16  1  0  0  0  0
 11 12  1  0  0  0  0
 11 13  1  0  0  0  0
 11 14  1  0  0  0  0
  9 10  1  0  0  0  0
  9 11  1  0  0  0  0
  9 19  1  0  0  0  0
  7  8  1  0  0  0  0
  7  9  1  0  0  0  0
 23 24  1  0  0  0  0
 23 25  1  0  0  0  0
 23 26  1  0  0  0  0
 21 22  1  0  0  0  0
 21 23  1  0  0  0  0
M  END
$$$$
default_name
  -OEChem-01062215323D

 26 25  0     1  0  0  0  0  0999 V2000
   -3.0232   -3.6924    1.0038 H   0  0  0  0  0  0  0  0  0  0  0  0
   -3.0082   -2.6684    0.6318 C   0  0  0  0  0  0  0  0  0  0  0  0
   -3.6332   -2.0414    1.2658 H   0  0  0  0  0  0  0  0  0  0  0  0
   -3.3762   -2.6444   -0.3912 H   0  0  0  0  0  0  0  0  0  0  0  0
   -1.5882   -2.1554    0.6658 C   0  0  0  0  0  0  0  0  0  0  0  0
   -0.6832   -2.8764    1.0638 O   0  0  0  0  0  0  0  0  0  0  0  0
   -1.3952   -0.9084    0.2428 N   0  0  0  0  0  0  0  0  0  0  0  0
   -2.1972   -0.3644   -0.0422 H   0  0  0  0  0  0  0  0  0  0  0  0
   -0.1122   -0.1994    0.2658 C   0  0  1  0  0  0  0  0  0  0  0  0
    0.1669    0.0472   -0.7618 H   0  0  0  0  0  0  0  0  0  0  0  0
   -0.2837    1.1120    1.0646 C   0  0  0  0  0  0  0  0  0  0  0  0
   -0.7727    0.8915    2.0128 H   0  0  0  0  0  0  0  0  0  0  0  0
    0.6974    1.5349    1.2755 H   0  0  0  0  0  0  0  0  0  0  0  0
   -1.1354    2.1569    0.3620 C   0  0  0  0  0  0  0  0  0  0  0  0
   -1.0445    2.3949   -0.8297 O   0  0  0  0  0  0  0  0  0  0  0  0
   -1.9962    2.8313    1.0850 N   0  0  0  0  0  0  0  0  0  0  0  0
   -2.5573    3.5025    0.5908 H   0  0  0  0  0  0  0  0  0  0  0  0
   -2.1036    2.6411    2.0634 H   0  0  0  0  0  0  0  0  0  0  0  0
    0.9844   -1.1144    0.8543 C   0  0  0  0  0  0  0  0  0  0  0  0
    0.7797   -2.3228    0.9687 O   0  0  0  0  0  0  0  0  0  0  0  0
    2.1328   -0.5455    1.2334 N   0  0  0  0  0  0  0  0  0  0  0  0
    2.1891    0.4662    1.1746 H   0  0  0  0  0  0  0  0  0  0  0  0
    3.2704   -1.2714    1.7954 C   0  0  0  0  0  0  0  0  0  0  0  0
    3.5852   -2.0551    1.1029 H   0  0  0  0  0  0  0  0  0  0  0  0
    4.1026   -0.5875    1.9677 H   0  0  0  0  0  0  0  0  0  0  0  0
    2.9817   -1.7342    2.7406 H   0  0  0  0  0  0  0  0  0  0  0  0
  5  6  2  0  0  0  0
  5  7  1  0  0  0  0
  2  3  1  0  0  0  0
  2  4  1  0  0  0  0
  2  5  1  0  0  0  0
  1  2  1  0  0  0  0
 19 20  2  0  0  0  0
 19 21  1  0  0  0  0
 16 17  1  0  0  0  0
 16 18  1  0  0  0  0
 14 15  2  0  0  0  0
 14 16  1  0  0  0  0
 11 12  1  0  0  0  0
 11 13  1  0  0  0  0
 11 14  1  0  0  0  0
  9 10  1  0  0  0  0
  9 11  1  0  0  0  0
  9 19  1  0  0  0  0
  7  8  1  0  0  0  0
  7  9  1  0  0  0  0
 23 24  1  0  0  0  0
 23 25  1  0  0  0  0
 23 26  1  0  0  0  0
 21 22  1  0  0  0  0
 21 23  1  0  0  0  0
M  END
$$$$
default_name
  -OEChem-01062215323D

 26 25  0     1  0  0  0  0  0999 V2000
   -3.0232   -3.6924    1.0038 H   0  0  0  0  0  0  0  0  0  0  0  0
   -3.0082   -2.6684    0.6318 C   0  0  0  0  0  0  0  0  0  0  0  0
   -3.6332   -2.0414    1.2658 H   0  0  0  0  0  0  0  0  0  0  0  0
   -3.3762   -2.6444   -0.3912 H   0  0  0  0  0  0  0  0  0  0  0  0
   -1.5882   -2.1554    0.6658 C   0  0  0  0  0  0  0  0  0  0  0  0
   -0.6832   -2.8764    1.0638 O   0  0  0  0  0  0  0  0  0  0  0  0
   -1.3952   -0.9084    0.2428 N   0  0  0  0  0  0  0  0  0  0  0  0
   -2.1972   -0.3644   -0.0422 H   0  0  0  0  0  0  0  0  0  0  0  0
   -0.1122   -0.1994    0.2658 C   0  0  1  0  0  0  0  0  0  0  0  0
    0.1669    0.0472   -0.7618 H   0  0  0  0  0  0  0  0  0  0  0  0
   -0.2837    1.1120    1.0646 C   0  0  0  0  0  0  0  0  0  0  0  0
   -0.7727    0.8915    2.0128 H   0  0  0  0  0  0  0  0  0  0  0  0
    0.6974    1.5349    1.2755 H   0  0  0  0  0  0  0  0  0  0  0  0
   -1.1354    2.1569    0.3620 C   0  0  0  0  0  0  0  0  0  0  0  0
   -1.0445    2.3949   -0.8297 O   0  0  0  0  0  0  0  0  0  0  0  0
   -1.9962    2.8313    1.0850 N   0  0  0  0  0  0  0  0  0  0  0  0
   -2.5573    3.5025    0.5908 H   0  0  0  0  0  0  0  0  0  0  0  0
   -2.1036    2.6411    2.0634 H   0  0  0  0  0  0  0  0  0  0  0  0
    0.9844   -1.1144    0.8543 C   0  0  0  0  0  0  0  0  0  0  0  0
    0.9031   -2.3353    0.7194 O   0  0  0  0  0  0  0  0  0  0  0  0
    1.9945   -0.5339    1.5091 N   0  0  0  0  0  0  0  0  0  0  0  0
    1.9440    0.4715    1.6394 H   0  0  0  0  0  0  0  0  0  0  0  0
    3.1139   -1.2554    2.1119 C   0  0  0  0  0  0  0  0  0  0  0  0
    3.6117   -1.8627    1.3528 H   0  0  0  0  0  0  0  0  0  0  0  0
    3.8300   -0.5495    2.5348 H   0  0  0  0  0  0  0  0  0  0  0  0
    2.7461   -1.9132    2.9012 H   0  0  0  0  0  0  0  0  0  0  0  0
  5  6  2  0  0  0  0
  5  7  1  0  0  0  0
  2  3  1  0  0  0  0
  2  4  1  0  0  0  0
  2  5  1  0  0  0  0
  1  2  1  0  0  0  0
 19 20  2  0  0  0  0
 19 21  1  0  0  0  0
 16 17  1  0  0  0  0
 16 18  1  0  0  0  0
 14 15  2  0  0  0  0
 14 16  1  0  0  0  0
 11 12  1  0  0  0  0
 11 13  1  0  0  0  0
 11 14  1  0  0  0  0
  9 10  1  0  0  0  0
  9 11  1  0  0  0  0
  9 19  1  0  0  0  0
  7  8  1  0  0  0  0
  7  9  1  0  0  0  0
 23 24  1  0  0  0  0
 23 25  1  0  0  0  0
 23 26  1  0  0  0  0
 21 22  1  0  0  0  0
 21 23  1  0  0  0  0
M  END
$$$$
default_name
  -OEChem-01062215323D

 26 25  0     1  0  0  0  0  0999 V2000
   -3.0232   -3.6924    1.0038 H   0  0  0  0  0  0  0  0  0  0  0  0
   -3.0082   -2.6684    0.6318 C   0  0  0  0  0  0  0  0  0  0  0  0
   -3.6332   -2.0414    1.2658 H   0  0  0  0  0  0  0  0  0  0  0  0
   -3.3762   -2.6444   -0.3912 H   0  0  0  0  0  0  0  0  0  0  0  0
   -1.5882   -2.1554    0.6658 C   0  0  0  0  0  0  0  0  0  0  0  0
   -0.6832   -2.8764    1.0638 O   0  0  0  0  0  0  0  0  0  0  0  0
   -1.3952   -0.9084    0.2428 N   0  0  0  0  0  0  0  0  0  0  0  0
   -2.1972   -0.3644   -0.0422 H   0  0  0  0  0  0  0  0  0  0  0  0
   -0.1122   -0.1994    0.2658 C   0  0  1  0  0  0  0  0  0  0  0  0
    0.1669    0.0472   -0.7618 H   0  0  0  0  0  0  0  0  0  0  0  0
   -0.2837    1.1120    1.0646 C   0  0  0  0  0  0  0  0  0  0  0  0
   -0.7727    0.8915    2.0128 H   0  0  0  0  0  0  0  0  0  0  0  0
    0.6974    1.5349    1.2755 H   0  0  0  0  0  0  0  0  0  0  0  0
   -1.1354    2.1569    0.3620 C   0  0  0  0  0  0  0  0  0  0  0  0
   -1.0445    2.3949   -0.8297 O   0  0  0  0  0  0  0  0  0  0  0  0
   -1.9962    2.8313    1.0850 N   0  0  0  0  0  0  0  0  0  0  0  0
   -2.5573    3.5025    0.5908 H   0  0  0  0  0  0  0  0  0  0  0  0
   -2.1036    2.6411    2.0634 H   0  0  0  0  0  0  0  0  0  0  0  0
    0.9844   -1.1144    0.8543 C   0  0  0  0  0  0  0  0  0  0  0  0
    1.0618   -2.2893    0.4952 O   0  0  0  0  0  0  0  0  0  0  0  0
    1.8175   -0.5870    1.7564 N   0  0  0  0  0  0  0  0  0  0  0  0
    1.6356    0.3670    2.0517 H   0  0  0  0  0  0  0  0  0  0  0  0
    2.9126   -1.3136    2.3965 C   0  0  0  0  0  0  0  0  0  0  0  0
    3.5799   -1.7201    1.6335 H   0  0  0  0  0  0  0  0  0  0  0  0
    3.4759   -0.6439    3.0478 H   0  0  0  0  0  0  0  0  0  0  0  0
    2.5116   -2.1389    2.9873 H   0  0  0  0  0  0  0  0  0  0  0  0
  5  6  2  0  0  0  0
  5  7  1  0  0  0  0
  2  3  1  0  0  0  0
  2  4  1  0  0  0  0
  2  5  1  0  0  0  0
  1  2  1  0  0  0  0
 19 20  2  0  0  0  0
 19 21  1  0  0  0  0
 16 17  1  0  0  0  0
 16 18  1  0  0  0  0
 14 15  2  0  0  0  0
 14 16  1  0  0  0  0
 11 12  1  0  0  0  0
 11 13  1  0  0  0  0
 11 14  1  0  0  0  0
  9 10  1  0  0  0  0
  9 11  1  0  0  0  0
  9 19  1  0  0  0  0
  7  8  1  0  0  0  0
  7  9  1  0  0  0  0
 23 24  1  0  0  0  0
 23 25  1  0  0  0  0
 23 26  1  0  0  0  0
 21 22  1  0  0  0  0
 21 23  1  0  0  0  0
M  END
$$$$
default_name
  -OEChem-01062215323D

 26 25  0     1  0  0  0  0  0999 V2000
   -3.0232   -3.6924    1.0038 H   0  0  0  0  0  0  0  0  0  0  0  0
   -3.0082   -2.6684    0.6318 C   0  0  0  0  0  0  0  0  0  0  0  0
   -3.6332   -2.0414    1.2658 H   0  0  0  0  0  0  0  0  0  0  0  0
   -3.3762   -2.6444   -0.3912 H   0  0  0  0  0  0  0  0  0  0  0  0
   -1.5882   -2.1554    0.6658 C   0  0  0  0  0  0  0  0  0  0  0  0
   -0.6832   -2.8764    1.0638 O   0  0  0  0  0  0  0  0  0  0  0  0
   -1.3952   -0.9084    0.2428 N   0  0  0  0  0  0  0  0  0  0  0  0
   -2.1972   -0.3644   -0.0422 H   0  0  0  0  0  0  0  0  0  0  0  0
   -0.1122   -0.1994    0.2658 C   0  0  1  0  0  0  0  0  0  0  0  0
    0.1669    0.0472   -0.7618 H   0  0  0  0  0  0  0  0  0  0  0  0
   -0.2837    1.1120    1.0646 C   0  0  0  0  0  0  0  0  0  0  0  0
   -0.7727    0.8915    2.0128 H   0  0  0  0  0  0  0  0  0  0  0  0
    0.6974    1.5349    1.2755 H   0  0  0  0  0  0  0  0  0  0  0  0
   -1.1354    2.1569    0.3620 C   0  0  0  0  0  0  0  0  0  0  0  0
   -1.0445    2.3949   -0.8297 O   0  0  0  0  0  0  0  0  0  0  0  0
   -1.9962    2.8313    1.0850 N   0  0  0  0  0  0  0  0  0  0  0  0
   -2.5573    3.5025    0.5908 H   0  0  0  0  0  0  0  0  0  0  0  0
   -2.1036    2.6411    2.0634 H   0  0  0  0  0  0  0  0  0  0  0  0
    0.9844   -1.1144    0.8543 C   0  0  0  0  0  0  0  0  0  0  0  0
    1.2449   -2.1881    0.3114 O   0  0  0  0  0  0  0  0  0  0  0  0
    1.6139   -0.7011    1.9584 N   0  0  0  0  0  0  0  0  0  0  0  0
    1.2848    0.1599    2.3834 H   0  0  0  0  0  0  0  0  0  0  0  0
    2.6803   -1.4419    2.6299 C   0  0  0  0  0  0  0  0  0  0  0  0
    3.4922   -1.6372    1.9261 H   0  0  0  0  0  0  0  0  0  0  0  0
    3.0646   -0.8642    3.4717 H   0  0  0  0  0  0  0  0  0  0  0  0
    2.2941   -2.3959    2.9930 H   0  0  0  0  0  0  0  0  0  0  0  0
  5  6  2  0  0  0  0
  5  7  1  0  0  0  0
  2  3  1  0  0  0  0
  2  4  1  0  0  0  0
  2  5  1  0  0  0  0
  1  2  1  0  0  0  0
 19 20  2  0  0  0  0
 19 21  1  0  0  0  0
 16 17  1  0  0  0  0
 16 18  1  0  0  0  0
 14 15  2  0  0  0  0
 14 16  1  0  0  0  0
 11 12  1  0  0  0  0
 11 13  1  0  0  0  0
 11 14  1  0  0  0  0
  9 10  1  0  0  0  0
  9 11  1  0  0  0  0
  9 19  1  0  0  0  0
  7  8  1  0  0  0  0
  7  9  1  0  0  0  0
 23 24  1  0  0  0  0
 23 25  1  0  0  0  0
 23 26  1  0  0  0  0
 21 22  1  0  0  0  0
 21 23  1  0  0  0  0
M  END
$$$$
default_name
  -OEChem-01062215323D

 26 25  0     1  0  0  0  0  0999 V2000
   -3.0232   -3.6924    1.0038 H   0  0  0  0  0  0  0  0  0  0  0  0
   -3.0082   -2.6684    0.6318 C   0  0  0  0  0  0  0  0  0  0  0  0
   -3.6332   -2.0414    1.2658 H   0  0  0  0  0  0  0  0  0  0  0  0
   -3.3762   -2.6444   -0.3912 H   0  0  0  0  0  0  0  0  0  0  0  0
   -1.5882   -2.1554    0.6658 C   0  0  0  0  0  0  0  0  0  0  0  0
   -0.6832   -2.8764    1.0638 O   0  0  0  0  0  0  0  0  0  0  0  0
   -1.3952   -0.9084    0.2428 N   0  0  0  0  0  0  0  0  0  0  0  0
   -2.1972   -0.3644   -0.0422 H   0  0  0  0  0  0  0  0  0  0  0  0
   -0.1122   -0.1994    0.2658 C   0  0  1  0  0  0  0  0  0  0  0  0
    0.1669    0.0472   -0.7618 H   0  0  0  0  0  0  0  0  0  0  0  0
   -0.2837    1.1120    1.0646 C   0  0  0  0  0  0  0  0  0  0  0  0
   -0.7727    0.8915    2.0128 H   0  0  0  0  0  0  0  0  0  0  0  0
    0.6974    1.5349    1.2755 H   0  0  0  0  0  0  0  0  0  0  0  0
   -1.1354    2.1569    0.3620 C   0  0  0  0  0  0  0  0  0  0  0  0
   -1.0445    2.3949   -0.8297 O   0  0  0  0  0  0  0  0  0  0  0  0
   -1.9962    2.8313    1.0850 N   0  0  0  0  0  0  0  0  0  0  0  0
   -2.5573    3.5025    0.5908 H   0  0  0  0  0  0  0  0  0  0  0  0
   -2.1036    2.6411    2.0634 H   0  0  0  0  0  0  0  0  0  0  0  0
    0.9844   -1.1144    0.8543 C   0  0  0  0  0  0  0  0  0  0  0  0
    1.4400   -2.0384    0.1805 O   0  0  0  0  0  0  0  0  0  0  0  0
    1.3975   -0.8686    2.1013 N   0  0  0  0  0  0  0  0  0  0  0  0
    0.9154   -0.1357    2.6120 H   0  0  0  0  0  0  0  0  0  0  0  0
    2.4327   -1.6317    2.7962 C   0  0  0  0  0  0  0  0  0  0  0  0
    3.3544   -1.6194    2.2104 H   0  0  0  0  0  0  0  0  0  0  0  0
    2.6240   -1.1955    3.7776 H   0  0  0  0  0  0  0  0  0  0  0  0
    2.1085   -2.6666    2.9179 H   0  0  0  0  0  0  0  0  0  0  0  0
  5  6  2  0  0  0  0
  5  7  1  0  0  0  0
  2  3  1  0  0  0  0
  2  4  1  0  0  0  0
  2  5  1  0  0  0  0
  1  2  1  0  0  0  0
 19 20  2  0  0  0  0
 19 21  1  0  0  0  0
 16 17  1  0  0  0  0
 16 18  1  0  0  0  0
 14 15  2  0  0  0  0
 14 16  1  0  0  0  0
 11 12  1  0  0  0  0
 11 13  1  0  0  0  0
 11 14  1  0  0  0  0
  9 10  1  0  0  0  0
  9 11  1  0  0  0  0
  9 19  1  0  0  0  0
  7  8  1  0  0  0  0
  7  9  1  0  0  0  0
 23 24  1  0  0  0  0
 23 25  1  0  0  0  0
 23 26  1  0  0  0  0
 21 22  1  0  0  0  0
 21 23  1  0  0  0  0
M  END
$$$$
default_name
  -OEChem-01062215323D

 26 25  0     1  0  0  0  0  0999 V2000
   -3.0232   -3.6924    1.0038 H   0  0  0  0  0  0  0  0  0  0  0  0
   -3.0082   -2.6684    0.6318 C   0  0  0  0  0  0  0  0  0  0  0  0
   -3.6332   -2.0414    1.2658 H   0  0  0  0  0  0  0  0  0  0  0  0
   -3.3762   -2.6444   -0.3912 H   0  0  0  0  0  0  0  0  0  0  0  0
   -1.5882   -2.1554    0.6658 C   0  0  0  0  0  0  0  0  0  0  0  0
   -0.6832   -2.8764    1.0638 O   0  0  0  0  0  0  0  0  0  0  0  0
   -1.3952   -0.9084    0.2428 N   0  0  0  0  0  0  0  0  0  0  0  0
   -2.1972   -0.3644   -0.0422 H   0  0  0  0  0  0  0  0  0  0  0  0
   -0.1122   -0.1994    0.2658 C   0  0  1  0  0  0  0  0  0  0  0  0
    0.1669    0.0472   -0.7618 H   0  0  0  0  0  0  0  0  0  0  0  0
   -0.2837    1.1120    1.0646 C   0  0  0  0  0  0  0  0  0  0  0  0
   -0.7727    0.8915    2.0128 H   0  0  0  0  0  0  0  0  0  0  0  0
    0.6974    1.5349    1.2755 H   0  0  0  0  0  0  0  0  0  0  0  0
   -1.1354    2.1569    0.3620 C   0  0  0  0  0  0  0  0  0  0  0  0
   -1.0445    2.3949   -0.8297 O   0  0  0  0  0  0  0  0  0  0  0  0
   -1.9962    2.8313    1.0850 N   0  0  0  0  0  0  0  0  0  0  0  0
   -2.5573    3.5025    0.5908 H   0  0  0  0  0  0  0  0  0  0  0  0
   -2.1036    2.6411    2.0634 H   0  0  0  0  0  0  0  0  0  0  0  0
    0.9844   -1.1144    0.8543 C   0  0  0  0  0  0  0  0  0  0  0  0
    1.6337   -1.8506    0.1115 O   0  0  0  0  0  0  0  0  0  0  0  0
    1.1830   -1.0779    2.1754 N   0  0  0  0  0  0  0  0  0  0  0  0
    0.5528   -0.4996    2.7219 H   0  0  0  0  0  0  0  0  0  0  0  0
    2.1868   -1.8699    2.8839 C   0  0  0  0  0  0  0  0  0  0  0  0
    3.1760   -1.6681    2.4672 H   0  0  0  0  0  0  0  0  0  0  0  0
    2.1842   -1.6151    3.9446 H   0  0  0  0  0  0  0  0  0  0  0  0
    1.9674   -2.9325    2.7673 H   0  0  0  0  0  0  0  0  0  0  0  0
  5  6  2  0  0  0  0
  5  7  1  0  0  0  0
  2  3  1  0  0  0  0
  2  4  1  0  0  0  0
  2  5  1  0  0  0  0
  1  2  1  0  0  0  0
 19 20  2  0  0  0  0
 19 21  1  0  0  0  0
 16 17  1  0  0  0  0
 16 18  1  0  0  0  0
 14 15  2  0  0  0  0
 14 16  1  0  0  0  0
 11 12  1  0  0  0  0
 11 13  1  0  0  0  0
 11 14  1  0  0  0  0
  9 10  1  0  0  0  0
  9 11  1  0  0  0  0
  9 19  1  0  0  0  0
  7  8  1  0  0  0  0
  7  9  1  0  0  0  0
 23 24  1  0  0  0  0
 23 25  1  0  0  0  0
 23 26  1  0  0  0  0
 21 22  1  0  0  0  0
 21 23  1  0  0  0  0
M  END
$$$$
default_name
  -OEChem-01062215323D

 26 25  0     1  0  0  0  0  0999 V2000
   -3.0232   -3.6924    1.0038 H   0  0  0  0  0  0  0  0  0  0  0  0
   -3.0082   -2.6684    0.6318 C   0  0  0  0  0  0  0  0  0  0  0  0
   -3.6332   -2.0414    1.2658 H   0  0  0  0  0  0  0  0  0  0  0  0
   -3.3762   -2.6444   -0.3912 H   0  0  0  0  0  0  0  0  0  0  0  0
   -1.5882   -2.1554    0.6658 C   0  0  0  0  0  0  0  0  0  0  0  0
   -0.6832   -2.8764    1.0638 O   0  0  0  0  0  0  0  0  0  0  0  0
   -1.3952   -0.9084    0.2428 N   0  0  0  0  0  0  0  0  0  0  0  0
   -2.1972   -0.3644   -0.0422 H   0  0  0  0  0  0  0  0  0  0  0  0
   -0.1122   -0.1994    0.2658 C   0  0  1  0  0  0  0  0  0  0  0  0
    0.1669    0.0472   -0.7618 H   0  0  0  0  0  0  0  0  0  0  0  0
   -0.2837    1.1120    1.0646 C   0  0  0  0  0  0  0  0  0  0  0  0
   -0.7727    0.8915    2.0128 H   0  0  0  0  0  0  0  0  0  0  0  0
    0.6974    1.5349    1.2755 H   0  0  0  0  0  0  0  0  0  0  0  0
   -1.1354    2.1569    0.3620 C   0  0  0  0  0  0  0  0  0  0  0  0
   -1.0445    2.3949   -0.8297 O   0  0  0  0  0  0  0  0  0  0  0  0
   -1.9962    2.8313    1.0850 N   0  0  0  0  0  0  0  0  0  0  0  0
   -2.5573    3.5025    0.5908 H   0  0  0  0  0  0  0  0  0  0  0  0
   -2.1036    2.6411    2.0634 H   0  0  0  0  0  0  0  0  0  0  0  0
    0.9844   -1.1144    0.8543 C   0  0  0  0  0  0  0  0  0  0  0  0
    1.8129   -1.6374    0.1091 O   0  0  0  0  0  0  0  0  0  0  0  0
    0.9852   -1.3149    2.1756 N   0  0  0  0  0  0  0  0  0  0  0  0
    0.2215   -0.9071    2.7056 H   0  0  0  0  0  0  0  0  0  0  0  0
    1.9594   -2.1404    2.8872 C   0  0  0  0  0  0  0  0  0  0  0  0
    2.9690   -1.7800    2.6789 H   0  0  0  0  0  0  0  0  0  0  0  0
    1.7752   -2.0945    3.9615 H   0  0  0  0  0  0  0  0  0  0  0  0
    1.8805   -3.1757    2.5512 H   0  0  0  0  0  0  0  0  0  0  0  0
  5  6  2  0  0  0  0
  5  7  1  0  0  0  0
  2  3  1  0  0  0  0
  2  4  1  0  0  0  0
  2  5  1  0  0  0  0
  1  2  1  0  0  0  0
 19 20  2  0  0  0  0
 19 21  1  0  0  0  0
 16 17  1  0  0  0  0
 16 18  1  0  0  0  0
 14 15  2  0  0  0  0
 14 16  1  0  0  0  0
 11 12  1  0  0  0  0
 11 13  1  0  0  0  0
 11 14  1  0  0  0  0
  9 10  1  0  0  0  0
  9 11  1  0  0  0  0
  9 19  1  0  0  0  0
  7  8  1  0  0  0  0
  7  9  1  0  0  0  0
 23 24  1  0  0  0  0
 23 25  1  0  0  0  0
 23 26  1  0  0  0  0
 21 22  1  0  0  0  0
 21 23  1  0  0  0  0
M  END
$$$$
default_name
  -OEChem-01062215323D

 26 25  0     1  0  0  0  0  0999 V2000
   -3.0232   -3.6924    1.0038 H   0  0  0  0  0  0  0  0  0  0  0  0
   -3.0082   -2.6684    0.6318 C   0  0  0  0  0  0  0  0  0  0  0  0
   -3.6332   -2.0414    1.2658 H   0  0  0  0  0  0  0  0  0  0  0  0
   -3.3762   -2.6444   -0.3912 H   0  0  0  0  0  0  0  0  0  0  0  0
   -1.5882   -2.1554    0.6658 C   0  0  0  0  0  0  0  0  0  0  0  0
   -0.6832   -2.8764    1.0638 O   0  0  0  0  0  0  0  0  0  0  0  0
   -1.3952   -0.9084    0.2428 N   0  0  0  0  0  0  0  0  0  0  0  0
   -2.1972   -0.3644   -0.0422 H   0  0  0  0  0  0  0  0  0  0  0  0
   -0.1122   -0.1994    0.2658 C   0  0  1  0  0  0  0  0  0  0  0  0
    0.1669    0.0472   -0.7618 H   0  0  0  0  0  0  0  0  0  0  0  0
   -0.2837    1.1120    1.0646 C   0  0  0  0  0  0  0  0  0  0  0  0
   -0.7727    0.8915    2.0128 H   0  0  0  0  0  0  0  0  0  0  0  0
    0.6974    1.5349    1.2755 H   0  0  0  0  0  0  0  0  0  0  0  0
   -1.1354    2.1569    0.3620 C   0  0  0  0  0  0  0  0  0  0  0  0
   -1.0445    2.3949   -0.8297 O   0  0  0  0  0  0  0  0  0  0  0  0
   -1.9962    2.8313    1.0850 N   0  0  0  0  0  0  0  0  0  0  0  0
   -2.5573    3.5025    0.5908 H   0  0  0  0  0  0  0  0  0  0  0  0
   -2.1036    2.6411    2.0634 H   0  0  0  0  0  0  0  0  0  0  0  0
    0.9844   -1.1144    0.8543 C   0  0  0  0  0  0  0  0  0  0  0  0
    1.9654   -1.4134    0.1733 O   0  0  0  0  0  0  0  0  0  0  0  0
    0.8174   -1.5633    2.1020 N   0  0  0  0  0  0  0  0  0  0  0  0
   -0.0558   -1.3304    2.5642 H   0  0  0  0  0  0  0  0  0  0  0  0
    1.7658   -2.4247    2.8058 C   0  0  0  0  0  0  0  0  0  0  0  0
    2.7477   -1.9473    2.8312 H   0  0  0  0  0  0  0  0  0  0  0  0
    1.4248   -2.6010    3.8269 H   0  0  0  0  0  0  0  0  0  0  0  0
    1.8536   -3.3794    2.2846 H   0  0  0  0  0  0  0  0  0  0  0  0
  5  6  2  0  0  0  0
  5  7  1  0  0  0  0
  2  3  1  0  0  0  0
  2  4  1  0  0  0  0
  2  5  1  0  0  0  0
  1  2  1  0  0  0  0
 19 20  2  0  0  0  0
 19 21  1  0  0  0  0
 16 17  1  0  0  0  0
 16 18  1  0  0  0  0
 14 15  2  0  0  0  0
 14 16  1  0  0  0  0
 11 12  1  0  0  0  0
 11 13  1  0  0  0  0
 11 14  1  0  0  0  0
  9 10  1  0  0  0  0
  9 11  1  0  0  0  0
  9 19  1  0  0  0  0
  7  8  1  0  0  0  0
  7  9  1  0  0  0  0
 23 24  1  0  0  0  0
 23 25  1  0  0  0  0
 23 26  1  0  0  0  0
 21 22  1  0  0  0  0
 21 23  1  0  0  0  0
M  END
$$$$
default_name
  -OEChem-01062215323D

 26 25  0     1  0  0  0  0  0999 V2000
   -3.0232   -3.6924    1.0038 H   0  0  0  0  0  0  0  0  0  0  0  0
   -3.0082   -2.6684    0.6318 C   0  0  0  0  0  0  0  0  0  0  0  0
   -3.6332   -2.0414    1.2658 H   0  0  0  0  0  0  0  0  0  0  0  0
   -3.3762   -2.6444   -0.3912 H   0  0  0  0  0  0  0  0  0  0  0  0
   -1.5882   -2.1554    0.6658 C   0  0  0  0  0  0  0  0  0  0  0  0
   -0.6832   -2.8764    1.0638 O   0  0  0  0  0  0  0  0  0  0  0  0
   -1.3952   -0.9084    0.2428 N   0  0  0  0  0  0  0  0  0  0  0  0
   -2.1972   -0.3644   -0.0422 H   0  0  0  0  0  0  0  0  0  0  0  0
   -0.1122   -0.1994    0.2658 C   0  0  1  0  0  0  0  0  0  0  0  0
    0.1669    0.0472   -0.7618 H   0  0  0  0  0  0  0  0  0  0  0  0
   -0.2837    1.1120    1.0646 C   0  0  0  0  0  0  0  0  0  0  0  0
   -0.7727    0.8915    2.0128 H   0  0  0  0  0  0  0  0  0  0  0  0
    0.6974    1.5349    1.2755 H   0  0  0  0  0  0  0  0  0  0  0  0
   -1.1354    2.1569    0.3620 C   0  0  0  0  0  0  0  0  0  0  0  0
   -1.0445    2.3949   -0.8297 O   0  0  0  0  0  0  0  0  0  0  0  0
   -1.9962    2.8313    1.0850 N   0  0  0  0  0  0  0  0  0  0  0  0
   -2.5573    3.5025    0.5908 H   0  0  0  0  0  0  0  0  0  0  0  0
   -2.1036    2.6411    2.0634 H   0  0  0  0  0  0  0  0  0  0  0  0
    0.9844   -1.1144    0.8543 C   0  0  0  0  0  0  0  0  0  0  0  0
    2.0807   -1.1937    0.3000 O   0  0  0  0  0  0  0  0  0  0  0  0
    0.6912   -1.8063    1.9595 N   0  0  0  0  0  0  0  0  0  0  0  0
   -0.2602   -1.7406    2.3073 H   0  0  0  0  0  0  0  0  0  0  0  0
    1.6193   -2.7035    2.6453 C   0  0  0  0  0  0  0  0  0  0  0  0
    2.5271   -2.1587    2.9135 H   0  0  0  0  0  0  0  0  0  0  0  0
    1.1569   -3.1001    3.5502 H   0  0  0  0  0  0  0  0  0  0  0  0
    1.8886   -3.5299    1.9854 H   0  0  0  0  0  0  0  0  0  0  0  0
  5  6  2  0  0  0  0
  5  7  1  0  0  0  0
  2  3  1  0  0  0  0
  2  4  1  0  0  0  0
  2  5  1  0  0  0  0
  1  2  1  0  0  0  0
 19 20  2  0  0  0  0
 19 21  1  0  0  0  0
 16 17  1  0  0  0  0
 16 18  1  0  0  0  0
 14 15  2  0  0  0  0
 14 16  1  0  0  0  0
 11 12  1  0  0  0  0
 11 13  1  0  0  0  0
 11 14  1  0  0  0  0
  9 10  1  0  0  0  0
  9 11  1  0  0  0  0
  9 19  1  0  0  0  0
  7  8  1  0  0  0  0
  7  9  1  0  0  0  0
 23 24  1  0  0  0  0
 23 25  1  0  0  0  0
 23 26  1  0  0  0  0
 21 22  1  0  0  0  0
 21 23  1  0  0  0  0
M  END
$$$$
default_name
  -OEChem-01062215323D

 26 25  0     1  0  0  0  0  0999 V2000
   -3.0232   -3.6924    1.0038 H   0  0  0  0  0  0  0  0  0  0  0  0
   -3.0082   -2.6684    0.6318 C   0  0  0  0  0  0  0  0  0  0  0  0
   -3.6332   -2.0414    1.2658 H   0  0  0  0  0  0  0  0  0  0  0  0
   -3.3762   -2.6444   -0.3912 H   0  0  0  0  0  0  0  0  0  0  0  0
   -1.5882   -2.1554    0.6658 C   0  0  0  0  0  0  0  0  0  0  0  0
   -0.6832   -2.8764    1.0638 O   0  0  0  0  0  0  0  0  0  0  0  0
   -1.3952   -0.9084    0.2428 N   0  0  0  0  0  0  0  0  0  0  0  0
   -2.1972   -0.3644   -0.0422 H   0  0  0  0  0  0  0  0  0  0  0  0
   -0.1122   -0.1994    0.2658 C   0  0  1  0  0  0  0  0  0  0  0  0
    0.1669    0.0472   -0.7618 H   0  0  0  0  0  0  0  0  0  0  0  0
   -0.2837    1.1120    1.0646 C   0  0  0  0  0  0  0  0  0  0  0  0
   -0.7727    0.8915    2.0128 H   0  0  0  0  0  0  0  0  0  0  0  0
    0.6974    1.5349    1.2755 H   0  0  0  0  0  0  0  0  0  0  0  0
   -1.1354    2.1569    0.3620 C   0  0  0  0  0  0  0  0  0  0  0  0
   -1.0445    2.3949   -0.8297 O   0  0  0  0  0  0  0  0  0  0  0  0
   -1.9962    2.8313    1.0850 N   0  0  0  0  0  0  0  0  0  0  0  0
   -2.5573    3.5025    0.5908 H   0  0  0  0  0  0  0  0  0  0  0  0
   -2.1036    2.6411    2.0634 H   0  0  0  0  0  0  0  0  0  0  0  0
    0.9844   -1.1144    0.8543 C   0  0  0  0  0  0  0  0  0  0  0  0
    2.1510   -0.9935    0.4803 O   0  0  0  0  0  0  0  0  0  0  0  0
    0.6150   -2.0273    1.7578 N   0  0  0  0  0  0  0  0  0  0  0  0
   -0.3778   -2.1098    1.9524 H   0  0  0  0  0  0  0  0  0  0  0  0
    1.5300   -2.9577    2.4166 C   0  0  0  0  0  0  0  0  0  0  0  0
    2.3222   -2.3998    2.9204 H   0  0  0  0  0  0  0  0  0  0  0  0
    0.9897   -3.5577    3.1501 H   0  0  0  0  0  0  0  0  0  0  0  0
    1.9831   -3.6168    1.6742 H   0  0  0  0  0  0  0  0  0  0  0  0
  5  6  2  0  0  0  0
  5  7  1  0  0  0  0
  2  3  1  0  0  0  0
  2  4  1  0  0  0  0
  2  5  1  0  0  0  0
  1  2  1  0  0  0  0
 19 20  2  0  0  0  0
 19 21  1  0  0  0  0
 16 17  1  0  0  0  0
 16 18  1  0  0  0  0
 14 15  2  0  0  0  0
 14 16  1  0  0  0  0
 11 12  1  0  0  0  0
 11 13  1  0  0  0  0
 11 14  1  0  0  0  0
  9 10  1  0  0  0  0
  9 11  1  0  0  0  0
  9 19  1  0  0  0  0
  7  8  1  0  0  0  0
  7  9  1  0  0  0  0
 23 24  1  0  0  0  0
 23 25  1  0  0  0  0
 23 26  1  0  0  0  0
 21 22  1  0  0  0  0
 21 23  1  0  0  0  0
M  END
$$$$
default_name
  -OEChem-01062215323D

 26 25  0     1  0  0  0  0  0999 V2000
   -3.0232   -3.6924    1.0038 H   0  0  0  0  0  0  0  0  0  0  0  0
   -3.0082   -2.6684    0.6318 C   0  0  0  0  0  0  0  0  0  0  0  0
   -3.6332   -2.0414    1.2658 H   0  0  0  0  0  0  0  0  0  0  0  0
   -3.3762   -2.6444   -0.3912 H   0  0  0  0  0  0  0  0  0  0  0  0
   -1.5882   -2.1554    0.6658 C   0  0  0  0  0  0  0  0  0  0  0  0
   -0.6832   -2.8764    1.0638 O   0  0  0  0  0  0  0  0  0  0  0  0
   -1.3952   -0.9084    0.2428 N   0  0  0  0  0  0  0  0  0  0  0  0
   -2.1972   -0.3644   -0.0422 H   0  0  0  0  0  0  0  0  0  0  0  0
   -0.1122   -0.1994    0.2658 C   0  0  1  0  0  0  0  0  0  0  0  0
    0.1669    0.0472   -0.7618 H   0  0  0  0  0  0  0  0  0  0  0  0
   -0.2837    1.1120    1.0646 C   0  0  0  0  0  0  0  0  0  0  0  0
   -0.7727    0.8915    2.0128 H   0  0  0  0  0  0  0  0  0  0  0  0
    0.6974    1.5349    1.2755 H   0  0  0  0  0  0  0  0  0  0  0  0
   -1.1354    2.1569    0.3620 C   0  0  0  0  0  0  0  0  0  0  0  0
   -1.0445    2.3949   -0.8297 O   0  0  0  0  0  0  0  0  0  0  0  0
   -1.9962    2.8313    1.0850 N   0  0  0  0  0  0  0  0  0  0  0  0
   -2.5573    3.5025    0.5908 H   0  0  0  0  0  0  0  0  0  0  0  0
   -2.1036    2.6411    2.0634 H   0  0  0  0  0  0  0  0  0  0  0  0
    0.9844   -1.1144    0.8543 C   0  0  0  0  0  0  0  0  0  0  0  0
    2.1715   -0.8263    0.7021 O   0  0  0  0  0  0  0  0  0  0  0  0
    0.5941   -2.2112    1.5107 N   0  0  0  0  0  0  0  0  0  0  0  0
   -0.4006   -2.4128    1.5238 H   0  0  0  0  0  0  0  0  0  0  0  0
    1.5038   -3.1700    2.1353 C   0  0  0  0  0  0  0  0  0  0  0  0
    2.1471   -2.6541    2.8514 H   0  0  0  0  0  0  0  0  0  0  0  0
    0.9347   -3.9427    2.6540 H   0  0  0  0  0  0  0  0  0  0  0  0
    2.1307   -3.6342    1.3721 H   0  0  0  0  0  0  0  0  0  0  0  0
  5  6  2  0  0  0  0
  5  7  1  0  0  0  0
  2  3  1  0  0  0  0
  2  4  1  0  0  0  0
  2  5  1  0  0  0  0
  1  2  1  0  0  0  0
 19 20  2  0  0  0  0
 19 21  1  0  0  0  0
 16 17  1  0  0  0  0
 16 18  1  0  0  0  0
 14 15  2  0  0  0  0
 14 16  1  0  0  0  0
 11 12  1  0  0  0  0
 11 13  1  0  0  0  0
 11 14  1  0  0  0  0
  9 10  1  0  0  0  0
  9 11  1  0  0  0  0
  9 19  1  0  0  0  0
  7  8  1  0  0  0  0
  7  9  1  0  0  0  0
 23 24  1  0  0  0  0
 23 25  1  0  0  0  0
 23 26  1  0  0  0  0
 21 22  1  0  0  0  0
 21 23  1  0  0  0  0
M  END
$$$$
default_name
  -OEChem-01062215323D

 26 25  0     1  0  0  0  0  0999 V2000
   -3.0232   -3.6924    1.0038 H   0  0  0  0  0  0  0  0  0  0  0  0
   -3.0082   -2.6684    0.6318 C   0  0  0  0  0  0  0  0  0  0  0  0
   -3.6332   -2.0414    1.2658 H   0  0  0  0  0  0  0  0  0  0  0  0
   -3.3762   -2.6444   -0.3912 H   0  0  0  0  0  0  0  0  0  0  0  0
   -1.5882   -2.1554    0.6658 C   0  0  0  0  0  0  0  0  0  0  0  0
   -0.6832   -2.8764    1.0638 O   0  0  0  0  0  0  0  0  0  0  0  0
   -1.3952   -0.9084    0.2428 N   0  0  0  0  0  0  0  0  0  0  0  0
   -2.1972   -0.3644   -0.0422 H   0  0  0  0  0  0  0  0  0  0  0  0
   -0.1122   -0.1994    0.2658 C   0  0  1  0  0  0  0  0  0  0  0  0
    0.1669    0.0472   -0.7618 H   0  0  0  0  0  0  0  0  0  0  0  0
   -0.2837    1.1120    1.0646 C   0  0  0  0  0  0  0  0  0  0  0  0
   -0.7727    0.8915    2.0128 H   0  0  0  0  0  0  0  0  0  0  0  0
    0.6974    1.5349    1.2755 H   0  0  0  0  0  0  0  0  0  0  0  0
   -1.1354    2.1569    0.3620 C   0  0  0  0  0  0  0  0  0  0  0  0
   -1.0445    2.3949   -0.8297 O   0  0  0  0  0  0  0  0  0  0  0  0
   -1.9962    2.8313    1.0850 N   0  0  0  0  0  0  0  0  0  0  0  0
   -2.5573    3.5025    0.5908 H   0  0  0  0  0  0  0  0  0  0  0  0
   -2.1036    2.6411    2.0634 H   0  0  0  0  0  0  0  0  0  0  0  0
    0.9844   -1.1144    0.8543 C   0  0  0  0  0  0  0  0  0  0  0  0
    2.1408   -0.7035    0.9502 O   0  0  0  0  0  0  0  0  0  0  0  0
    0.6300   -2.3455    1.2351 N   0  0  0  0  0  0  0  0  0  0  0  0
   -0.3271   -2.6289    1.0506 H   0  0  0  0  0  0  0  0  0  0  0  0
    1.5426   -3.3260    1.8205 C   0  0  0  0  0  0  0  0  0  0  0  0
    2.0135   -2.9044    2.7111 H   0  0  0  0  0  0  0  0  0  0  0  0
    0.9956   -4.2288    2.0956 H   0  0  0  0  0  0  0  0  0  0  0  0
    2.3212   -3.5810    1.0997 H   0  0  0  0  0  0  0  0  0  0  0  0
  5  6  2  0  0  0  0
  5  7  1  0  0  0  0
  2  3  1  0  0  0  0
  2  4  1  0  0  0  0
  2  5  1  0  0  0  0
  1  2  1  0  0  0  0
 19 20  2  0  0  0  0
 19 21  1  0  0  0  0
 16 17  1  0  0  0  0
 16 18  1  0  0  0  0
 14 15  2  0  0  0  0
 14 16  1  0  0  0  0
 11 12  1  0  0  0  0
 11 13  1  0  0  0  0
 11 14  1  0  0  0  0
  9 10  1  0  0  0  0
  9 11  1  0  0  0  0
  9 19  1  0  0  0  0
  7  8  1  0  0  0  0
  7  9  1  0  0  0  0
 23 24  1  0  0  0  0
 23 25  1  0  0  0  0
 23 26  1  0  0  0  0
 21 22  1  0  0  0  0
 21 23  1  0  0  0  0
M  END
$$$$
default_name
  -OEChem-01062215323D

 26 25  0     1  0  0  0  0  0999 V2000
   -3.0232   -3.6924    1.0038 H   0  0  0  0  0  0  0  0  0  0  0  0
   -3.0082   -2.6684    0.6318 C   0  0  0  0  0  0  0  0  0  0  0  0
   -3.6332   -2.0414    1.2658 H   0  0  0  0  0  0  0  0  0  0  0  0
   -3.3762   -2.6444   -0.3912 H   0  0  0  0  0  0  0  0  0  0  0  0
   -1.5882   -2.1554    0.6658 C   0  0  0  0  0  0  0  0  0  0  0  0
   -0.6832   -2.8764    1.0638 O   0  0  0  0  0  0  0  0  0  0  0  0
   -1.3952   -0.9084    0.2428 N   0  0  0  0  0  0  0  0  0  0  0  0
   -2.1972   -0.3644   -0.0422 H   0  0  0  0  0  0  0  0  0  0  0  0
   -0.1122   -0.1994    0.2658 C   0  0  1  0  0  0  0  0  0  0  0  0
    0.1669    0.0472   -0.7618 H   0  0  0  0  0  0  0  0  0  0  0  0
   -0.2837    1.1120    1.0646 C   0  0  0  0  0  0  0  0  0  0  0  0
   -0.7727    0.8915    2.0128 H   0  0  0  0  0  0  0  0  0  0  0  0
    0.6974    1.5349    1.2755 H   0  0  0  0  0  0  0  0  0  0  0  0
   -1.1354    2.1569    0.3620 C   0  0  0  0  0  0  0  0  0  0  0  0
   -1.0445    2.3949   -0.8297 O   0  0  0  0  0  0  0  0  0  0  0  0
   -1.9962    2.8313    1.0850 N   0  0  0  0  0  0  0  0  0  0  0  0
   -2.5573    3.5025    0.5908 H   0  0  0  0  0  0  0  0  0  0  0  0
   -2.1036    2.6411    2.0634 H   0  0  0  0  0  0  0  0  0  0  0  0
    0.9844   -1.1144    0.8543 C   0  0  0  0  0  0  0  0  0  0  0  0
    2.0610   -0.6335    1.2077 O   0  0  0  0  0  0  0  0  0  0  0  0
    0.7201   -2.4210    0.9497 N   0  0  0  0  0  0  0  0  0  0  0  0
   -0.1621   -2.7435    0.5651 H   0  0  0  0  0  0  0  0  0  0  0  0
    1.6436   -3.4150    1.4937 C   0  0  0  0  0  0  0  0  0  0  0  0
    1.9307   -3.1335    2.5092 H   0  0  0  0  0  0  0  0  0  0  0  0
    1.1683   -4.3966    1.5129 H   0  0  0  0  0  0  0  0  0  0  0  0
    2.5418   -3.4608    0.8756 H   0  0  0  0  0  0  0  0  0  0  0  0
  5  6  2  0  0  0  0
  5  7  1  0  0  0  0
  2  3  1  0  0  0  0
  2  4  1  0  0  0  0
  2  5  1  0  0  0  0
  1  2  1  0  0  0  0
 19 20  2  0  0  0  0
 19 21  1  0  0  0  0
 16 17  1  0  0  0  0
 16 18  1  0  0  0  0
 14 15  2  0  0  0  0
 14 16  1  0  0  0  0
 11 12  1  0  0  0  0
 11 13  1  0  0  0  0
 11 14  1  0  0  0  0
  9 10  1  0  0  0  0
  9 11  1  0  0  0  0
  9 19  1  0  0  0  0
  7  8  1  0  0  0  0
  7  9  1  0  0  0  0
 23 24  1  0  0  0  0
 23 25  1  0  0  0  0
 23 26  1  0  0  0  0
 21 22  1  0  0  0  0
 21 23  1  0  0  0  0
M  END
$$$$
default_name
  -OEChem-01062215323D

 26 25  0     1  0  0  0  0  0999 V2000
   -3.0232   -3.6924    1.0038 H   0  0  0  0  0  0  0  0  0  0  0  0
   -3.0082   -2.6684    0.6318 C   0  0  0  0  0  0  0  0  0  0  0  0
   -3.6332   -2.0414    1.2658 H   0  0  0  0  0  0  0  0  0  0  0  0
   -3.3762   -2.6444   -0.3912 H   0  0  0  0  0  0  0  0  0  0  0  0
   -1.5882   -2.1554    0.6658 C   0  0  0  0  0  0  0  0  0  0  0  0
   -0.6832   -2.8764    1.0638 O   0  0  0  0  0  0  0  0  0  0  0  0
   -1.3952   -0.9084    0.2428 N   0  0  0  0  0  0  0  0  0  0  0  0
   -2.1972   -0.3644   -0.0422 H   0  0  0  0  0  0  0  0  0  0  0  0
   -0.1122   -0.1994    0.2658 C   0  0  1  0  0  0  0  0  0  0  0  0
    0.1669    0.0472   -0.7618 H   0  0  0  0  0  0  0  0  0  0  0  0
   -0.2837    1.1120    1.0646 C   0  0  0  0  0  0  0  0  0  0  0  0
   -0.7727    0.8915    2.0128 H   0  0  0  0  0  0  0  0  0  0  0  0
    0.6974    1.5349    1.2755 H   0  0  0  0  0  0  0  0  0  0  0  0
   -1.1354    2.1569    0.3620 C   0  0  0  0  0  0  0  0  0  0  0  0
   -1.0445    2.3949   -0.8297 O   0  0  0  0  0  0  0  0  0  0  0  0
   -1.9962    2.8313    1.0850 N   0  0  0  0  0  0  0  0  0  0  0  0
   -2.5573    3.5025    0.5908 H   0  0  0  0  0  0  0  0  0  0  0  0
   -2.1036    2.6411    2.0634 H   0  0  0  0  0  0  0  0  0  0  0  0
    0.9844   -1.1144    0.8543 C   0  0  0  0  0  0  0  0  0  0  0  0
    1.9376   -0.6210    1.4571 O   0  0  0  0  0  0  0  0  0  0  0  0
    0.8584   -2.4326    0.6739 N   0  0  0  0  0  0  0  0  0  0  0  0
    0.0829   -2.7488    0.1004 H   0  0  0  0  0  0  0  0  0  0  0  0
    1.8002   -3.4309    1.1772 C   0  0  0  0  0  0  0  0  0  0  0  0
    1.9042   -3.3259    2.2593 H   0  0  0  0  0  0  0  0  0  0  0  0
    1.4409   -4.4346    0.9458 H   0  0  0  0  0  0  0  0  0  0  0  0
    2.7774   -3.2817    0.7150 H   0  0  0  0  0  0  0  0  0  0  0  0
  5  6  2  0  0  0  0
  5  7  1  0  0  0  0
  2  3  1  0  0  0  0
  2  4  1  0  0  0  0
  2  5  1  0  0  0  0
  1  2  1  0  0  0  0
 19 20  2  0  0  0  0
 19 21  1  0  0  0  0
 16 17  1  0  0  0  0
 16 18  1  0  0  0  0
 14 15  2  0  0  0  0
 14 16  1  0  0  0  0
 11 12  1  0  0  0  0
 11 13  1  0  0  0  0
 11 14  1  0  0  0  0
  9 10  1  0  0  0  0
  9 11  1  0  0  0  0
  9 19  1  0  0  0  0
  7  8  1  0  0  0  0
  7  9  1  0  0  0  0
 23 24  1  0  0  0  0
 23 25  1  0  0  0  0
 23 26  1  0  0  0  0
 21 22  1  0  0  0  0
 21 23  1  0  0  0  0
M  END
$$$$
default_name
  -OEChem-01062215323D

 26 25  0     1  0  0  0  0  0999 V2000
   -3.0232   -3.6924    1.0038 H   0  0  0  0  0  0  0  0  0  0  0  0
   -3.0082   -2.6684    0.6318 C   0  0  0  0  0  0  0  0  0  0  0  0
   -3.6332   -2.0414    1.2658 H   0  0  0  0  0  0  0  0  0  0  0  0
   -3.3762   -2.6444   -0.3912 H   0  0  0  0  0  0  0  0  0  0  0  0
   -1.5882   -2.1554    0.6658 C   0  0  0  0  0  0  0  0  0  0  0  0
   -0.6832   -2.8764    1.0638 O   0  0  0  0  0  0  0  0  0  0  0  0
   -1.3952   -0.9084    0.2428 N   0  0  0  0  0  0  0  0  0  0  0  0
   -2.1972   -0.3644   -0.0422 H   0  0  0  0  0  0  0  0  0  0  0  0
   -0.1122   -0.1994    0.2658 C   0  0  1  0  0  0  0  0  0  0  0  0
    0.1669    0.0472   -0.7618 H   0  0  0  0  0  0  0  0  0  0  0  0
   -0.2837    1.1120    1.0646 C   0  0  0  0  0  0  0  0  0  0  0  0
   -0.7727    0.8915    2.0128 H   0  0  0  0  0  0  0  0  0  0  0  0
    0.6974    1.5349    1.2755 H   0  0  0  0  0  0  0  0  0  0  0  0
   -1.1354    2.1569    0.3620 C   0  0  0  0  0  0  0  0  0  0  0  0
   -1.0445    2.3949   -0.8297 O   0  0  0  0  0  0  0  0  0  0  0  0
   -1.9962    2.8313    1.0850 N   0  0  0  0  0  0  0  0  0  0  0  0
   -2.5573    3.5025    0.5908 H   0  0  0  0  0  0  0  0  0  0  0  0
   -2.1036    2.6411    2.0634 H   0  0  0  0  0  0  0  0  0  0  0  0
    0.9844   -1.1144    0.8543 C   0  0  0  0  0  0  0  0  0  0  0  0
    1.7789   -0.6670    1.6813 O   0  0  0  0  0  0  0  0  0  0  0  0
    1.0354   -2.3796    0.4266 N   0  0  0  0  0  0  0  0  0  0  0  0
    0.3913   -2.6443   -0.3119 H   0  0  0  0  0  0  0  0  0  0  0  0
    2.0015   -3.3728    0.8926 C   0  0  0  0  0  0  0  0  0  0  0  0
    1.9360   -3.4685    1.9786 H   0  0  0  0  0  0  0  0  0  0  0  0
    1.7950   -4.3402    0.4328 H   0  0  0  0  0  0  0  0  0  0  0  0
    3.0119   -3.0560    0.6289 H   0  0  0  0  0  0  0  0  0  0  0  0
  5  6  2  0  0  0  0
  5  7  1  0  0  0  0
  2  3  1  0  0  0  0
  2  4  1  0  0  0  0
  2  5  1  0  0  0  0
  1  2  1  0  0  0  0
 19 20  2  0  0  0  0
 19 21  1  0  0  0  0
 16 17  1  0  0  0  0
 16 18  1  0  0  0  0
 14 15  2  0  0  0  0
 14 16  1  0  0  0  0
 11 12  1  0  0  0  0
 11 13  1  0  0  0  0
 11 14  1  0  0  0  0
  9 10  1  0  0  0  0
  9 11  1  0  0  0  0
  9 19  1  0  0  0  0
  7  8  1  0  0  0  0
  7  9  1  0  0  0  0
 23 24  1  0  0  0  0
 23 25  1  0  0  0  0
 23 26  1  0  0  0  0
 21 22  1  0  0  0  0
 21 23  1  0  0  0  0
M  END
$$$$
default_name
  -OEChem-01062215323D

 26 25  0     1  0  0  0  0  0999 V2000
   -3.0232   -3.6924    1.0038 H   0  0  0  0  0  0  0  0  0  0  0  0
   -3.0082   -2.6684    0.6318 C   0  0  0  0  0  0  0  0  0  0  0  0
   -3.6332   -2.0414    1.2658 H   0  0  0  0  0  0  0  0  0  0  0  0
   -3.3762   -2.6444   -0.3912 H   0  0  0  0  0  0  0  0  0  0  0  0
   -1.5882   -2.1554    0.6658 C   0  0  0  0  0  0  0  0  0  0  0  0
   -0.6832   -2.8764    1.0638 O   0  0  0  0  0  0  0  0  0  0  0  0
   -1.3952   -0.9084    0.2428 N   0  0  0  0  0  0  0  0  0  0  0  0
   -2.1972   -0.3644   -0.0422 H   0  0  0  0  0  0  0  0  0  0  0  0
   -0.1122   -0.1994    0.2658 C   0  0  1  0  0  0  0  0  0  0  0  0
    0.1669    0.0472   -0.7618 H   0  0  0  0  0  0  0  0  0  0  0  0
   -0.2837    1.1120    1.0646 C   0  0  0  0  0  0  0  0  0  0  0  0
   -0.7727    0.8915    2.0128 H   0  0  0  0  0  0  0  0  0  0  0  0
    0.6974    1.5349    1.2755 H   0  0  0  0  0  0  0  0  0  0  0  0
   -1.1354    2.1569    0.3620 C   0  0  0  0  0  0  0  0  0  0  0  0
   -1.0445    2.3949   -0.8297 O   0  0  0  0  0  0  0  0  0  0  0  0
   -1.9962    2.8313    1.0850 N   0  0  0  0  0  0  0  0  0  0  0  0
   -2.5573    3.5025    0.5908 H   0  0  0  0  0  0  0  0  0  0  0  0
   -2.1036    2.6411    2.0634 H   0  0  0  0  0  0  0  0  0  0  0  0
    0.9844   -1.1144    0.8543 C   0  0  0  0  0  0  0  0  0  0  0  0
    1.5958   -0.7683    1.8651 O   0  0  0  0  0  0  0  0  0  0  0  0
    1.2391   -2.2654    0.2246 N   0  0  0  0  0  0  0  0  0  0  0  0
    0.7422   -2.4372   -0.6437 H   0  0  0  0  0  0  0  0  0  0  0  0
    2.2338   -3.2444    0.6592 C   0  0  0  0  0  0  0  0  0  0  0  0
    2.0237   -3.5514    1.6860 H   0  0  0  0  0  0  0  0  0  0  0  0
    2.2063   -4.1199    0.0089 H   0  0  0  0  0  0  0  0  0  0  0  0
    3.2294   -2.7991    0.6232 H   0  0  0  0  0  0  0  0  0  0  0  0
  5  6  2  0  0  0  0
  5  7  1  0  0  0  0
  2  3  1  0  0  0  0
  2  4  1  0  0  0  0
  2  5  1  0  0  0  0
  1  2  1  0  0  0  0
 19 20  2  0  0  0  0
 19 21  1  0  0  0  0
 16 17  1  0  0  0  0
 16 18  1  0  0  0  0
 14 15  2  0  0  0  0
 14 16  1  0  0  0  0
 11 12  1  0  0  0  0
 11 13  1  0  0  0  0
 11 14  1  0  0  0  0
  9 10  1  0  0  0  0
  9 11  1  0  0  0  0
  9 19  1  0  0  0  0
  7  8  1  0  0  0  0
  7  9  1  0  0  0  0
 23 24  1  0  0  0  0
 23 25  1  0  0  0  0
 23 26  1  0  0  0  0
 21 22  1  0  0  0  0
 21 23  1  0  0  0  0
M  END
$$$$
default_name
  -OEChem-01062215323D

 26 25  0     1  0  0  0  0  0999 V2000
   -3.0232   -3.6924    1.0038 H   0  0  0  0  0  0  0  0  0  0  0  0
   -3.0082   -2.6684    0.6318 C   0  0  0  0  0  0  0  0  0  0  0  0
   -3.6332   -2.0414    1.2658 H   0  0  0  0  0  0  0  0  0  0  0  0
   -3.3762   -2.6444   -0.3912 H   0  0  0  0  0  0  0  0  0  0  0  0
   -1.5882   -2.1554    0.6658 C   0  0  0  0  0  0  0  0  0  0  0  0
   -0.6832   -2.8764    1.0638 O   0  0  0  0  0  0  0  0  0  0  0  0
   -1.3952   -0.9084    0.2428 N   0  0  0  0  0  0  0  0  0  0  0  0
   -2.1972   -0.3644   -0.0422 H   0  0  0  0  0  0  0  0  0  0  0  0
   -0.1122   -0.1994    0.2658 C   0  0  1  0  0  0  0  0  0  0  0  0
    0.1669    0.0472   -0.7618 H   0  0  0  0  0  0  0  0  0  0  0  0
   -0.2837    1.1120    1.0646 C   0  0  0  0  0  0  0  0  0  0  0  0
   -0.7727    0.8915    2.0128 H   0  0  0  0  0  0  0  0  0  0  0  0
    0.6974    1.5349    1.2755 H   0  0  0  0  0  0  0  0  0  0  0  0
   -1.1354    2.1569    0.3620 C   0  0  0  0  0  0  0  0  0  0  0  0
   -1.0445    2.3949   -0.8297 O   0  0  0  0  0  0  0  0  0  0  0  0
   -1.9962    2.8313    1.0850 N   0  0  0  0  0  0  0  0  0  0  0  0
   -2.5573    3.5025    0.5908 H   0  0  0  0  0  0  0  0  0  0  0  0
   -2.1036    2.6411    2.0634 H   0  0  0  0  0  0  0  0  0  0  0  0
    0.9844   -1.1144    0.8543 C   0  0  0  0  0  0  0  0  0  0  0  0
    1.4007   -0.9179    1.9960 O   0  0  0  0  0  0  0  0  0  0  0  0
    1.4555   -2.0980    0.0817 N   0  0  0  0  0  0  0  0  0  0  0  0
    1.1115   -2.1416   -0.8723 H   0  0  0  0  0  0  0  0  0  0  0  0
    2.4813   -3.0547    0.4929 C   0  0  0  0  0  0  0  0  0  0  0  0
    2.1615   -3.5691    1.4017 H   0  0  0  0  0  0  0  0  0  0  0  0
    2.6468   -3.7886   -0.2970 H   0  0  0  0  0  0  0  0  0  0  0  0
    3.4150   -2.5284    0.6982 H   0  0  0  0  0  0  0  0  0  0  0  0
  5  6  2  0  0  0  0
  5  7  1  0  0  0  0
  2  3  1  0  0  0  0
  2  4  1  0  0  0  0
  2  5  1  0  0  0  0
  1  2  1  0  0  0  0
 19 20  2  0  0  0  0
 19 21  1  0  0  0  0
 16 17  1  0  0  0  0
 16 18  1  0  0  0  0
 14 15  2  0  0  0  0
 14 16  1  0  0  0  0
 11 12  1  0  0  0  0
 11 13  1  0  0  0  0
 11 14  1  0  0  0  0
  9 10  1  0  0  0  0
  9 11  1  0  0  0  0
  9 19  1  0  0  0  0
  7  8  1  0  0  0  0
  7  9  1  0  0  0  0
 23 24  1  0  0  0  0
 23 25  1  0  0  0  0
 23 26  1  0  0  0  0
 21 22  1  0  0  0  0
 21 23  1  0  0  0  0
M  END
$$$$
default_name
  -OEChem-01062215323D

 26 25  0     1  0  0  0  0  0999 V2000
   -3.0232   -3.6924    1.0038 H   0  0  0  0  0  0  0  0  0  0  0  0
   -3.0082   -2.6684    0.6318 C   0  0  0  0  0  0  0  0  0  0  0  0
   -3.6332   -2.0414    1.2658 H   0  0  0  0  0  0  0  0  0  0  0  0
   -3.3762   -2.6444   -0.3912 H   0  0  0  0  0  0  0  0  0  0  0  0
   -1.5882   -2.1554    0.6658 C   0  0  0  0  0  0  0  0  0  0  0  0
   -0.6832   -2.8764    1.0638 O   0  0  0  0  0  0  0  0  0  0  0  0
   -1.3952   -0.9084    0.2428 N   0  0  0  0  0  0  0  0  0  0  0  0
   -2.1972   -0.3644   -0.0422 H   0  0  0  0  0  0  0  0  0  0  0  0
   -0.1122   -0.1994    0.2658 C   0  0  1  0  0  0  0  0  0  0  0  0
    0.1669    0.0472   -0.7618 H   0  0  0  0  0  0  0  0  0  0  0  0
   -0.2837    1.1120    1.0646 C   0  0  0  0  0  0  0  0  0  0  0  0
   -0.7727    0.8915    2.0128 H   0  0  0  0  0  0  0  0  0  0  0  0
    0.6974    1.5349    1.2755 H   0  0  0  0  0  0  0  0  0  0  0  0
   -1.1354    2.1569    0.3620 C   0  0  0  0  0  0  0  0  0  0  0  0
   -1.0445    2.3949   -0.8297 O   0  0  0  0  0  0  0  0  0  0  0  0
   -1.9962    2.8313    1.0850 N   0  0  0  0  0  0  0  0  0  0  0  0
   -2.5573    3.5025    0.5908 H   0  0  0  0  0  0  0  0  0  0  0  0
   -2.1036    2.6411    2.0634 H   0  0  0  0  0  0  0  0  0  0  0  0
    0.9844   -1.1144    0.8543 C   0  0  0  0  0  0  0  0  0  0  0  0
    1.2070   -1.1057    2.0650 O   0  0  0  0  0  0  0  0  0  0  0  0
    1.6699   -1.8886    0.0076 N   0  0  0  0  0  0  0  0  0  0  0  0
    1.4741   -1.7777   -0.9822 H   0  0  0  0  0  0  0  0  0  0  0  0
    2.7272   -2.8165    0.4052 C   0  0  0  0  0  0  0  0  0  0  0  0
    2.3400   -3.5204    1.1449 H   0  0  0  0  0  0  0  0  0  0  0  0
    3.0866   -3.3690   -0.4640 H   0  0  0  0  0  0  0  0  0  0  0  0
    3.5561   -2.2624    0.8489 H   0  0  0  0  0  0  0  0  0  0  0  0
  5  6  2  0  0  0  0
  5  7  1  0  0  0  0
  2  3  1  0  0  0  0
  2  4  1  0  0  0  0
  2  5  1  0  0  0  0
  1  2  1  0  0  0  0
 19 20  2  0  0  0  0
 19 21  1  0  0  0  0
 16 17  1  0  0  0  0
 16 18  1  0  0  0  0
 14 15  2  0  0  0  0
 14 16  1  0  0  0  0
 11 12  1  0  0  0  0
 11 13  1  0  0  0  0
 11 14  1  0  0  0  0
  9 10  1  0  0  0  0
  9 11  1  0  0  0  0
  9 19  1  0  0  0  0
  7  8  1  0  0  0  0
  7  9  1  0  0  0  0
 23 24  1  0  0  0  0
 23 25  1  0  0  0  0
 23 26  1  0  0  0  0
 21 22  1  0  0  0  0
 21 23  1  0  0  0  0
M  END
$$$$
default_name
  -OEChem-01062215323D

 26 25  0     1  0  0  0  0  0999 V2000
   -3.0232   -3.6924    1.0038 H   0  0  0  0  0  0  0  0  0  0  0  0
   -3.0082   -2.6684    0.6318 C   0  0  0  0  0  0  0  0  0  0  0  0
   -3.6332   -2.0414    1.2658 H   0  0  0  0  0  0  0  0  0  0  0  0
   -3.3762   -2.6444   -0.3912 H   0  0  0  0  0  0  0  0  0  0  0  0
   -1.5882   -2.1554    0.6658 C   0  0  0  0  0  0  0  0  0  0  0  0
   -0.6832   -2.8764    1.0638 O   0  0  0  0  0  0  0  0  0  0  0  0
   -1.3952   -0.9084    0.2428 N   0  0  0  0  0  0  0  0  0  0  0  0
   -2.1972   -0.3644   -0.0422 H   0  0  0  0  0  0  0  0  0  0  0  0
   -0.1122   -0.1994    0.2658 C   0  0  1  0  0  0  0  0  0  0  0  0
    0.1669    0.0472   -0.7618 H   0  0  0  0  0  0  0  0  0  0  0  0
   -0.2837    1.1120    1.0646 C   0  0  0  0  0  0  0  0  0  0  0  0
   -0.7727    0.8915    2.0128 H   0  0  0  0  0  0  0  0  0  0  0  0
    0.6974    1.5349    1.2755 H   0  0  0  0  0  0  0  0  0  0  0  0
   -1.1354    2.1569    0.3620 C   0  0  0  0  0  0  0  0  0  0  0  0
   -1.0445    2.3949   -0.8297 O   0  0  0  0  0  0  0  0  0  0  0  0
   -1.9962    2.8313    1.0850 N   0  0  0  0  0  0  0  0  0  0  0  0
   -2.5573    3.5025    0.5908 H   0  0  0  0  0  0  0  0  0  0  0  0
   -2.1036    2.6411    2.0634 H   0  0  0  0  0  0  0  0  0  0  0  0
    0.9844   -1.1144    0.8543 C   0  0  0  0  0  0  0  0  0  0  0  0
    1.0278   -1.3189    2.0674 O   0  0  0  0  0  0  0  0  0  0  0  0
    1.8678   -1.6517    0.0074 N   0  0  0  0  0  0  0  0  0  0  0  0
    1.8054   -1.3702   -0.9658 H   0  0  0  0  0  0  0  0  0  0  0  0
    2.9547   -2.5460    0.4019 C   0  0  0  0  0  0  0  0  0  0  0  0
    2.5469   -3.4086    0.9332 H   0  0  0  0  0  0  0  0  0  0  0  0
    3.4957   -2.8896   -0.4809 H   0  0  0  0  0  0  0  0  0  0  0  0
    3.6431   -2.0192    1.0649 H   0  0  0  0  0  0  0  0  0  0  0  0
  5  6  2  0  0  0  0
  5  7  1  0  0  0  0
  2  3  1  0  0  0  0
  2  4  1  0  0  0  0
  2  5  1  0  0  0  0
  1  2  1  0  0  0  0
 19 20  2  0  0  0  0
 19 21  1  0  0  0  0
 16 17  1  0  0  0  0
 16 18  1  0  0  0  0
 14 15  2  0  0  0  0
 14 16  1  0  0  0  0
 11 12  1  0  0  0  0
 11 13  1  0  0  0  0
 11 14  1  0  0  0  0
  9 10  1  0  0  0  0
  9 11  1  0  0  0  0
  9 19  1  0  0  0  0
  7  8  1  0  0  0  0
  7  9  1  0  0  0  0
 23 24  1  0  0  0  0
 23 25  1  0  0  0  0
 23 26  1  0  0  0  0
 21 22  1  0  0  0  0
 21 23  1  0  0  0  0
M  END
$$$$
default_name
  -OEChem-01062215323D

 26 25  0     1  0  0  0  0  0999 V2000
   -3.0232   -3.6924    1.0038 H   0  0  0  0  0  0  0  0  0  0  0  0
   -3.0082   -2.6684    0.6318 C   0  0  0  0  0  0  0  0  0  0  0  0
   -3.6332   -2.0414    1.2658 H   0  0  0  0  0  0  0  0  0  0  0  0
   -3.3762   -2.6444   -0.3912 H   0  0  0  0  0  0  0  0  0  0  0  0
   -1.5882   -2.1554    0.6658 C   0  0  0  0  0  0  0  0  0  0  0  0
   -0.6832   -2.8764    1.0638 O   0  0  0  0  0  0  0  0  0  0  0  0
   -1.3952   -0.9084    0.2428 N   0  0  0  0  0  0  0  0  0  0  0  0
   -2.1972   -0.3644   -0.0422 H   0  0  0  0  0  0  0  0  0  0  0  0
   -0.1122   -0.1994    0.2658 C   0  0  1  0  0  0  0  0  0  0  0  0
    0.1669    0.0472   -0.7618 H   0  0  0  0  0  0  0  0  0  0  0  0
   -0.2837    1.1120    1.0646 C   0  0  0  0  0  0  0  0  0  0  0  0
   -0.7727    0.8915    2.0128 H   0  0  0  0  0  0  0  0  0  0  0  0
    0.6974    1.5349    1.2755 H   0  0  0  0  0  0  0  0  0  0  0  0
   -1.1354    2.1569    0.3620 C   0  0  0  0  0  0  0  0  0  0  0  0
   -1.0445    2.3949   -0.8297 O   0  0  0  0  0  0  0  0  0  0  0  0
   -1.9962    2.8313    1.0850 N   0  0  0  0  0  0  0  0  0  0  0  0
   -2.5573    3.5025    0.5908 H   0  0  0  0  0  0  0  0  0  0  0  0
   -2.1036    2.6411    2.0634 H   0  0  0  0  0  0  0  0  0  0  0  0
    0.9844   -1.1144    0.8543 C   0  0  0  0  0  0  0  0  0  0  0  0
    0.8753   -1.5430    2.0031 O   0  0  0  0  0  0  0  0  0  0  0  0
    2.0355   -1.4032    0.0811 N   0  0  0  0  0  0  0  0  0  0  0  0
    2.0827   -0.9469   -0.8244 H   0  0  0  0  0  0  0  0  0  0  0  0
    3.1482   -2.2617    0.4833 C   0  0  0  0  0  0  0  0  0  0  0  0
    2.7682   -3.2413    0.7809 H   0  0  0  0  0  0  0  0  0  0  0  0
    3.8461   -2.3831   -0.3463 H   0  0  0  0  0  0  0  0  0  0  0  0
    3.6699   -1.8155    1.3316 H   0  0  0  0  0  0  0  0  0  0  0  0
  5  6  2  0  0  0  0
  5  7  1  0  0  0  0
  2  3  1  0  0  0  0
  2  4  1  0  0  0  0
  2  5  1  0  0  0  0
  1  2  1  0  0  0  0
 19 20  2  0  0  0  0
 19 21  1  0  0  0  0
 16 17  1  0  0  0  0
 16 18  1  0  0  0  0
 14 15  2  0  0  0  0
 14 16  1  0  0  0  0
 11 12  1  0  0  0  0
 11 13  1  0  0  0  0
 11 14  1  0  0  0  0
  9 10  1  0  0  0  0
  9 11  1  0  0  0  0
  9 19  1  0  0  0  0
  7  8  1  0  0  0  0
  7  9  1  0  0  0  0
 23 24  1  0  0  0  0
 23 25  1  0  0  0  0
 23 26  1  0  0  0  0
 21 22  1  0  0  0  0
 21 23  1  0  0  0  0
M  END
$$$$
default_name
  -OEChem-01062215323D

 26 25  0     1  0  0  0  0  0999 V2000
   -3.0232   -3.6924    1.0038 H   0  0  0  0  0  0  0  0  0  0  0  0
   -3.0082   -2.6684    0.6318 C   0  0  0  0  0  0  0  0  0  0  0  0
   -3.6332   -2.0414    1.2658 H   0  0  0  0  0  0  0  0  0  0  0  0
   -3.3762   -2.6444   -0.3912 H   0  0  0  0  0  0  0  0  0  0  0  0
   -1.5882   -2.1554    0.6658 C   0  0  0  0  0  0  0  0  0  0  0  0
   -0.6832   -2.8764    1.0638 O   0  0  0  0  0  0  0  0  0  0  0  0
   -1.3952   -0.9084    0.2428 N   0  0  0  0  0  0  0  0  0  0  0  0
   -2.1972   -0.3644   -0.0422 H   0  0  0  0  0  0  0  0  0  0  0  0
   -0.1122   -0.1994    0.2658 C   0  0  1  0  0  0  0  0  0  0  0  0
    0.1669    0.0472   -0.7618 H   0  0  0  0  0  0  0  0  0  0  0  0
   -0.2837    1.1120    1.0646 C   0  0  0  0  0  0  0  0  0  0  0  0
   -0.7727    0.8915    2.0128 H   0  0  0  0  0  0  0  0  0  0  0  0
    0.6974    1.5349    1.2755 H   0  0  0  0  0  0  0  0  0  0  0  0
   -1.1354    2.1569    0.3620 C   0  0  0  0  0  0  0  0  0  0  0  0
   -1.0445    2.3949   -0.8297 O   0  0  0  0  0  0  0  0  0  0  0  0
   -1.9962    2.8313    1.0850 N   0  0  0  0  0  0  0  0  0  0  0  0
   -2.5573    3.5025    0.5908 H   0  0  0  0  0  0  0  0  0  0  0  0
   -2.1036    2.6411    2.0634 H   0  0  0  0  0  0  0  0  0  0  0  0
    0.9844   -1.1144    0.8543 C   0  0  0  0  0  0  0  0  0  0  0  0
    0.7600   -1.7626    1.8765 O   0  0  0  0  0  0  0  0  0  0  0  0
    2.1618   -1.1602    0.2236 N   0  0  0  0  0  0  0  0  0  0  0  0
    2.2871   -0.5367   -0.5675 H   0  0  0  0  0  0  0  0  0  0  0  0
    3.2947   -1.9829    0.6438 C   0  0  0  0  0  0  0  0  0  0  0  0
    2.9888   -3.0299    0.6986 H   0  0  0  0  0  0  0  0  0  0  0  0
    4.1140   -1.8841   -0.0696 H   0  0  0  0  0  0  0  0  0  0  0  0
    3.6349   -1.6651    1.6308 H   0  0  0  0  0  0  0  0  0  0  0  0
  5  6  2  0  0  0  0
  5  7  1  0  0  0  0
  2  3  1  0  0  0  0
  2  4  1  0  0  0  0
  2  5  1  0  0  0  0
  1  2  1  0  0  0  0
 19 20  2  0  0  0  0
 19 21  1  0  0  0  0
 16 17  1  0  0  0  0
 16 18  1  0  0  0  0
 14 15  2  0  0  0  0
 14 16  1  0  0  0  0
 11 12  1  0  0  0  0
 11 13  1  0  0  0  0
 11 14  1  0  0  0  0
  9 10  1  0  0  0  0
  9 11  1  0  0  0  0
  9 19  1  0  0  0  0
  7  8  1  0  0  0  0
  7  9  1  0  0  0  0
 23 24  1  0  0  0  0
 23 25  1  0  0  0  0
 23 26  1  0  0  0  0
 21 22  1  0  0  0  0
 21 23  1  0  0  0  0
M  END
$$$$
default_name
  -OEChem-01062215323D

 26 25  0     1  0  0  0  0  0999 V2000
   -3.0232   -3.6924    1.0038 H   0  0  0  0  0  0  0  0  0  0  0  0
   -3.0082   -2.6684    0.6318 C   0  0  0  0  0  0  0  0  0  0  0  0
   -3.6332   -2.0414    1.2658 H   0  0  0  0  0  0  0  0  0  0  0  0
   -3.3762   -2.6444   -0.3912 H   0  0  0  0  0  0  0  0  0  0  0  0
   -1.5882   -2.1554    0.6658 C   0  0  0  0  0  0  0  0  0  0  0  0
   -0.6832   -2.8764    1.0638 O   0  0  0  0  0  0  0  0  0  0  0  0
   -1.3952   -0.9084    0.2428 N   0  0  0  0  0  0  0  0  0  0  0  0
   -2.1972   -0.3644   -0.0422 H   0  0  0  0  0  0  0  0  0  0  0  0
   -0.1122   -0.1994    0.2658 C   0  0  1  0  0  0  0  0  0  0  0  0
    0.1669    0.0472   -0.7618 H   0  0  0  0  0  0  0  0  0  0  0  0
   -0.2837    1.1120    1.0646 C   0  0  0  0  0  0  0  0  0  0  0  0
   -0.7727    0.8915    2.0128 H   0  0  0  0  0  0  0  0  0  0  0  0
    0.6974    1.5349    1.2755 H   0  0  0  0  0  0  0  0  0  0  0  0
   -1.1354    2.1569    0.3620 C   0  0  0  0  0  0  0  0  0  0  0  0
   -1.0445    2.3949   -0.8297 O   0  0  0  0  0  0  0  0  0  0  0  0
   -1.9962    2.8313    1.0850 N   0  0  0  0  0  0  0  0  0  0  0  0
   -2.5573    3.5025    0.5908 H   0  0  0  0  0  0  0  0  0  0  0  0
   -2.1036    2.6411    2.0634 H   0  0  0  0  0  0  0  0  0  0  0  0
    0.9844   -1.1144    0.8543 C   0  0  0  0  0  0  0  0  0  0  0  0
    0.6897   -1.9628    1.6961 O   0  0  0  0  0  0  0  0  0  0  0  0
    2.2380   -0.9393    0.4253 N   0  0  0  0  0  0  0  0  0  0  0  0
    2.4047   -0.1675   -0.2127 H   0  0  0  0  0  0  0  0  0  0  0  0
    3.3841   -1.7287    0.8725 C   0  0  0  0  0  0  0  0  0  0  0  0
    3.1937   -2.7888    0.6917 H   0  0  0  0  0  0  0  0  0  0  0  0
    4.2812   -1.4264    0.3305 H   0  0  0  0  0  0  0  0  0  0  0  0
    3.5404   -1.5782    1.9420 H   0  0  0  0  0  0  0  0  0  0  0  0
  5  6  2  0  0  0  0
  5  7  1  0  0  0  0
  2  3  1  0  0  0  0
  2  4  1  0  0  0  0
  2  5  1  0  0  0  0
  1  2  1  0  0  0  0
 19 20  2  0  0  0  0
 19 21  1  0  0  0  0
 16 17  1  0  0  0  0
 16 18  1  0  0  0  0
 14 15  2  0  0  0  0
 14 16  1  0  0  0  0
 11 12  1  0  0  0  0
 11 13  1  0  0  0  0
 11 14  1  0  0  0  0
  9 10  1  0  0  0  0
  9 11  1  0  0  0  0
  9 19  1  0  0  0  0
  7  8  1  0  0  0  0
  7  9  1  0  0  0  0
 23 24  1  0  0  0  0
 23 25  1  0  0  0  0
 23 26  1  0  0  0  0
 21 22  1  0  0  0  0
 21 23  1  0  0  0  0
M  END
$$$$
default_name
  -OEChem-01062215323D

 26 25  0     1  0  0  0  0  0999 V2000
   -3.0232   -3.6924    1.0038 H   0  0  0  0  0  0  0  0  0  0  0  0
   -3.0082   -2.6684    0.6318 C   0  0  0  0  0  0  0  0  0  0  0  0
   -3.6332   -2.0414    1.2658 H   0  0  0  0  0  0  0  0  0  0  0  0
   -3.3762   -2.6444   -0.3912 H   0  0  0  0  0  0  0  0  0  0  0  0
   -1.5882   -2.1554    0.6658 C   0  0  0  0  0  0  0  0  0  0  0  0
   -0.6832   -2.8764    1.0638 O   0  0  0  0  0  0  0  0  0  0  0  0
   -1.3952   -0.9084    0.2428 N   0  0  0  0  0  0  0  0  0  0  0  0
   -2.1972   -0.3644   -0.0422 H   0  0  0  0  0  0  0  0  0  0  0  0
   -0.1122   -0.1994    0.2658 C   0  0  1  0  0  0  0  0  0  0  0  0
    0.1669    0.0472   -0.7618 H   0  0  0  0  0  0  0  0  0  0  0  0
   -0.2837    1.1120    1.0646 C   0  0  0  0  0  0  0  0  0  0  0  0
   -0.7727    0.8915    2.0128 H   0  0  0  0  0  0  0  0  0  0  0  0
    0.6974    1.5349    1.2755 H   0  0  0  0  0  0  0  0  0  0  0  0
   -1.1354    2.1569    0.3620 C   0  0  0  0  0  0  0  0  0  0  0  0
   -1.0445    2.3949   -0.8297 O   0  0  0  0  0  0  0  0  0  0  0  0
   -1.9962    2.8313    1.0850 N   0  0  0  0  0  0  0  0  0  0  0  0
   -2.5573    3.5025    0.5908 H   0  0  0  0  0  0  0  0  0  0  0  0
   -2.1036    2.6411    2.0634 H   0  0  0  0  0  0  0  0  0  0  0  0
    0.9844   -1.1144    0.8543 C   0  0  0  0  0  0  0  0  0  0  0  0
    0.6692   -2.1301    1.4743 O   0  0  0  0  0  0  0  0  0  0  0  0
    2.2588   -0.7554    0.6723 N   0  0  0  0  0  0  0  0  0  0  0  0
    2.4275    0.1355    0.2159 H   0  0  0  0  0  0  0  0  0  0  0  0
    3.4102   -1.5164    1.1538 C   0  0  0  0  0  0  0  0  0  0  0  0
    3.3689   -2.5345    0.7607 H   0  0  0  0  0  0  0  0  0  0  0  0
    4.3362   -1.0414    0.8266 H   0  0  0  0  0  0  0  0  0  0  0  0
    3.3929   -1.5607    2.2441 H   0  0  0  0  0  0  0  0  0  0  0  0
  5  6  2  0  0  0  0
  5  7  1  0  0  0  0
  2  3  1  0  0  0  0
  2  4  1  0  0  0  0
  2  5  1  0  0  0  0
  1  2  1  0  0  0  0
 19 20  2  0  0  0  0
 19 21  1  0  0  0  0
 16 17  1  0  0  0  0
 16 18  1  0  0  0  0
 14 15  2  0  0  0  0
 14 16  1  0  0  0  0
 11 12  1  0  0  0  0
 11 13  1  0  0  0  0
 11 14  1  0  0  0  0
  9 10  1  0  0  0  0
  9 11  1  0  0  0  0
  9 19  1  0  0  0  0
  7  8  1  0  0  0  0
  7  9  1  0  0  0  0
 23 24  1  0  0  0  0
 23 25  1  0  0  0  0
 23 26  1  0  0  0  0
 21 22  1  0  0  0  0
 21 23  1  0  0  0  0
M  END
$$$$
default_name
  -OEChem-01062215323D

 26 25  0     1  0  0  0  0  0999 V2000
   -3.0232   -3.6924    1.0038 H   0  0  0  0  0  0  0  0  0  0  0  0
   -3.0082   -2.6684    0.6318 C   0  0  0  0  0  0  0  0  0  0  0  0
   -3.6332   -2.0414    1.2658 H   0  0  0  0  0  0  0  0  0  0  0  0
   -3.3762   -2.6444   -0.3912 H   0  0  0  0  0  0  0  0  0  0  0  0
   -1.5882   -2.1554    0.6658 C   0  0  0  0  0  0  0  0  0  0  0  0
   -0.6832   -2.8764    1.0638 O   0  0  0  0  0  0  0  0  0  0  0  0
   -1.3952   -0.9084    0.2428 N   0  0  0  0  0  0  0  0  0  0  0  0
   -2.1972   -0.3644   -0.0422 H   0  0  0  0  0  0  0  0  0  0  0  0
   -0.1122   -0.1994    0.2658 C   0  0  1  0  0  0  0  0  0  0  0  0
    0.0381    0.2784   -0.7057 H   0  0  0  0  0  0  0  0  0  0  0  0
   -0.1684    0.8938    1.3561 C   0  0  0  0  0  0  0  0  0  0  0  0
   -0.5366    0.4556    2.2830 H   0  0  0  0  0  0  0  0  0  0  0  0
    0.8358    1.2761    1.5334 H   0  0  0  0  0  0  0  0  0  0  0  0
   -1.0907    2.0548    1.0207 C   0  0  0  0  0  0  0  0  0  0  0  0
   -1.1478    2.5578   -0.0879 O   0  0  0  0  0  0  0  0  0  0  0  0
   -1.8469    2.5320    1.9792 N   0  0  0  0  0  0  0  0  0  0  0  0
   -2.4587    3.2872    1.7241 H   0  0  0  0  0  0  0  0  0  0  0  0
   -1.8324    2.1235    2.8946 H   0  0  0  0  0  0  0  0  0  0  0  0
    1.0401   -1.2033    0.4900 C   0  0  0  0  0  0  0  0  0  0  0  0
    0.7928   -2.4015    0.6266 O   0  0  0  0  0  0  0  0  0  0  0  0
    2.2857   -0.7212    0.5379 N   0  0  0  0  0  0  0  0  0  0  0  0
    2.3932    0.2871    0.4921 H   0  0  0  0  0  0  0  0  0  0  0  0
    3.4828   -1.5378    0.7300 C   0  0  0  0  0  0  0  0  0  0  0  0
    3.5318   -2.3067   -0.0442 H   0  0  0  0  0  0  0  0  0  0  0  0
    4.3751   -0.9129    0.6737 H   0  0  0  0  0  0  0  0  0  0  0  0
    3.4440   -2.0249    1.7057 H   0  0  0  0  0  0  0  0  0  0  0  0
  5  6  2  0  0  0  0
  5  7  1  0  0  0  0
  2  3  1  0  0  0  0
  2  4  1  0  0  0  0
  2  5  1  0  0  0  0
  1  2  1  0  0  0  0
 19 20  2  0  0  0  0
 19 21  1  0  0  0  0
 16 17  1  0  0  0  0
 16 18  1  0  0  0  0
 14 15  2  0  0  0  0
 14 16  1  0  0  0  0
 11 12  1  0  0  0  0
 11 13  1  0  0  0  0
 11 14  1  0  0  0  0
  9 10  1  0  0  0  0
  9 11  1  0  0  0  0
  9 19  1  0  0  0  0
  7  8  1  0  0  0  0
  7  9  1  0  0  0  0
 23 24  1  0  0  0  0
 23 25  1  0  0  0  0
 23 26  1  0  0  0  0
 21 22  1  0  0  0  0
 21 23  1  0  0  0  0
M  END
$$$$
default_name
  -OEChem-01062215323D

 26 25  0     1  0  0  0  0  0999 V2000
   -3.0232   -3.6924    1.0038 H   0  0  0  0  0  0  0  0  0  0  0  0
   -3.0082   -2.6684    0.6318 C   0  0  0  0  0  0  0  0  0  0  0  0
   -3.6332   -2.0414    1.2658 H   0  0  0  0  0  0  0  0  0  0  0  0
   -3.3762   -2.6444   -0.3912 H   0  0  0  0  0  0  0  0  0  0  0  0
   -1.5882   -2.1554    0.6658 C   0  0  0  0  0  0  0  0  0  0  0  0
   -0.6832   -2.8764    1.0638 O   0  0  0  0  0  0  0  0  0  0  0  0
   -1.3952   -0.9084    0.2428 N   0  0  0  0  0  0  0  0  0  0  0  0
   -2.1972   -0.3644   -0.0422 H   0  0  0  0  0  0  0  0  0  0  0  0
   -0.1122   -0.1994    0.2658 C   0  0  1  0  0  0  0  0  0  0  0  0
    0.0381    0.2784   -0.7057 H   0  0  0  0  0  0  0  0  0  0  0  0
   -0.1684    0.8938    1.3561 C   0  0  0  0  0  0  0  0  0  0  0  0
   -0.5366    0.4556    2.2830 H   0  0  0  0  0  0  0  0  0  0  0  0
    0.8358    1.2761    1.5334 H   0  0  0  0  0  0  0  0  0  0  0  0
   -1.0907    2.0548    1.0207 C   0  0  0  0  0  0  0  0  0  0  0  0
   -1.1478    2.5578   -0.0879 O   0  0  0  0  0  0  0  0  0  0  0  0
   -1.8469    2.5320    1.9792 N   0  0  0  0  0  0  0  0  0  0  0  0
   -2.4587    3.2872    1.7241 H   0  0  0  0  0  0  0  0  0  0  0  0
   -1.8324    2.1235    2.8946 H   0  0  0  0  0  0  0  0  0  0  0  0
    1.0401   -1.2033    0.4900 C   0  0  0  0  0  0  0  0  0  0  0  0
    0.8389   -2.4100    0.3521 O   0  0  0  0  0  0  0  0  0  0  0  0
    2.2329   -0.7139    0.8420 N   0  0  0  0  0  0  0  0  0  0  0  0
    2.2918    0.2858    1.0076 H   0  0  0  0  0  0  0  0  0  0  0  0
    3.4245   -1.5270    1.0784 C   0  0  0  0  0  0  0  0  0  0  0  0
    3.6417   -2.1277    0.1925 H   0  0  0  0  0  0  0  0  0  0  0  0
    4.2788   -0.8845    1.2961 H   0  0  0  0  0  0  0  0  0  0  0  0
    3.2520   -2.1968    1.9225 H   0  0  0  0  0  0  0  0  0  0  0  0
  5  6  2  0  0  0  0
  5  7  1  0  0  0  0
  2  3  1  0  0  0  0
  2  4  1  0  0  0  0
  2  5  1  0  0  0  0
  1  2  1  0  0  0  0
 19 20  2  0  0  0  0
 19 21  1  0  0  0  0
 16 17  1  0  0  0  0
 16 18  1  0  0  0  0
 14 15  2  0  0  0  0
 14 16  1  0  0  0  0
 11 12  1  0  0  0  0
 11 13  1  0  0  0  0
 11 14  1  0  0  0  0
  9 10  1  0  0  0  0
  9 11  1  0  0  0  0
  9 19  1  0  0  0  0
  7  8  1  0  0  0  0
  7  9  1  0  0  0  0
 23 24  1  0  0  0  0
 23 25  1  0  0  0  0
 23 26  1  0  0  0  0
 21 22  1  0  0  0  0
 21 23  1  0  0  0  0
M  END
$$$$
default_name
  -OEChem-01062215323D

 26 25  0     1  0  0  0  0  0999 V2000
   -3.0232   -3.6924    1.0038 H   0  0  0  0  0  0  0  0  0  0  0  0
   -3.0082   -2.6684    0.6318 C   0  0  0  0  0  0  0  0  0  0  0  0
   -3.6332   -2.0414    1.2658 H   0  0  0  0  0  0  0  0  0  0  0  0
   -3.3762   -2.6444   -0.3912 H   0  0  0  0  0  0  0  0  0  0  0  0
   -1.5882   -2.1554    0.6658 C   0  0  0  0  0  0  0  0  0  0  0  0
   -0.6832   -2.8764    1.0638 O   0  0  0  0  0  0  0  0  0  0  0  0
   -1.3952   -0.9084    0.2428 N   0  0  0  0  0  0  0  0  0  0  0  0
   -2.1972   -0.3644   -0.0422 H   0  0  0  0  0  0  0  0  0  0  0  0
   -0.1122   -0.1994    0.2658 C   0  0  1  0  0  0  0  0  0  0  0  0
    0.0381    0.2784   -0.7057 H   0  0  0  0  0  0  0  0  0  0  0  0
   -0.1684    0.8938    1.3561 C   0  0  0  0  0  0  0  0  0  0  0  0
   -0.5366    0.4556    2.2830 H   0  0  0  0  0  0  0  0  0  0  0  0
    0.8358    1.2761    1.5334 H   0  0  0  0  0  0  0  0  0  0  0  0
   -1.0907    2.0548    1.0207 C   0  0  0  0  0  0  0  0  0  0  0  0
   -1.1478    2.5578   -0.0879 O   0  0  0  0  0  0  0  0  0  0  0  0
   -1.8469    2.5320    1.9792 N   0  0  0  0  0  0  0  0  0  0  0  0
   -2.4587    3.2872    1.7241 H   0  0  0  0  0  0  0  0  0  0  0  0
   -1.8324    2.1235    2.8946 H   0  0  0  0  0  0  0  0  0  0  0  0
    1.0401   -1.2033    0.4900 C   0  0  0  0  0  0  0  0  0  0  0  0
    0.9298   -2.3634    0.0930 O   0  0  0  0  0  0  0  0  0  0  0  0
    2.1305   -0.7675    1.1282 N   0  0  0  0  0  0  0  0  0  0  0  0
    2.1072    0.1812    1.4883 H   0  0  0  0  0  0  0  0  0  0  0  0
    3.3091   -1.5859    1.4072 C   0  0  0  0  0  0  0  0  0  0  0  0
    3.7013   -1.9963    0.4742 H   0  0  0  0  0  0  0  0  0  0  0  0
    4.0800   -0.9809    1.8865 H   0  0  0  0  0  0  0  0  0  0  0  0
    3.0367   -2.4119    2.0663 H   0  0  0  0  0  0  0  0  0  0  0  0
  5  6  2  0  0  0  0
  5  7  1  0  0  0  0
  2  3  1  0  0  0  0
  2  4  1  0  0  0  0
  2  5  1  0  0  0  0
  1  2  1  0  0  0  0
 19 20  2  0  0  0  0
 19 21  1  0  0  0  0
 16 17  1  0  0  0  0
 16 18  1  0  0  0  0
 14 15  2  0  0  0  0
 14 16  1  0  0  0  0
 11 12  1  0  0  0  0
 11 13  1  0  0  0  0
 11 14  1  0  0  0  0
  9 10  1  0  0  0  0
  9 11  1  0  0  0  0
  9 19  1  0  0  0  0
  7  8  1  0  0  0  0
  7  9  1  0  0  0  0
 23 24  1  0  0  0  0
 23 25  1  0  0  0  0
 23 26  1  0  0  0  0
 21 22  1  0  0  0  0
 21 23  1  0  0  0  0
M  END
$$$$
default_name
  -OEChem-01062215323D

 26 25  0     1  0  0  0  0  0999 V2000
   -3.0232   -3.6924    1.0038 H   0  0  0  0  0  0  0  0  0  0  0  0
   -3.0082   -2.6684    0.6318 C   0  0  0  0  0  0  0  0  0  0  0  0
   -3.6332   -2.0414    1.2658 H   0  0  0  0  0  0  0  0  0  0  0  0
   -3.3762   -2.6444   -0.3912 H   0  0  0  0  0  0  0  0  0  0  0  0
   -1.5882   -2.1554    0.6658 C   0  0  0  0  0  0  0  0  0  0  0  0
   -0.6832   -2.8764    1.0638 O   0  0  0  0  0  0  0  0  0  0  0  0
   -1.3952   -0.9084    0.2428 N   0  0  0  0  0  0  0  0  0  0  0  0
   -2.1972   -0.3644   -0.0422 H   0  0  0  0  0  0  0  0  0  0  0  0
   -0.1122   -0.1994    0.2658 C   0  0  1  0  0  0  0  0  0  0  0  0
    0.0381    0.2784   -0.7057 H   0  0  0  0  0  0  0  0  0  0  0  0
   -0.1684    0.8938    1.3561 C   0  0  0  0  0  0  0  0  0  0  0  0
   -0.5366    0.4556    2.2830 H   0  0  0  0  0  0  0  0  0  0  0  0
    0.8358    1.2761    1.5334 H   0  0  0  0  0  0  0  0  0  0  0  0
   -1.0907    2.0548    1.0207 C   0  0  0  0  0  0  0  0  0  0  0  0
   -1.1478    2.5578   -0.0879 O   0  0  0  0  0  0  0  0  0  0  0  0
   -1.8469    2.5320    1.9792 N   0  0  0  0  0  0  0  0  0  0  0  0
   -2.4587    3.2872    1.7241 H   0  0  0  0  0  0  0  0  0  0  0  0
   -1.8324    2.1235    2.8946 H   0  0  0  0  0  0  0  0  0  0  0  0
    1.0401   -1.2033    0.4900 C   0  0  0  0  0  0  0  0  0  0  0  0
    1.0596   -2.2649   -0.1330 O   0  0  0  0  0  0  0  0  0  0  0  0
    1.9854   -0.8784    1.3771 N   0  0  0  0  0  0  0  0  0  0  0  0
    1.8519   -0.0195    1.9013 H   0  0  0  0  0  0  0  0  0  0  0  0
    3.1446   -1.7107    1.6941 C   0  0  0  0  0  0  0  0  0  0  0  0
    3.7066   -1.9216    0.7817 H   0  0  0  0  0  0  0  0  0  0  0  0
    3.7922   -1.1954    2.4048 H   0  0  0  0  0  0  0  0  0  0  0  0
    2.8125   -2.6555    2.1275 H   0  0  0  0  0  0  0  0  0  0  0  0
  5  6  2  0  0  0  0
  5  7  1  0  0  0  0
  2  3  1  0  0  0  0
  2  4  1  0  0  0  0
  2  5  1  0  0  0  0
  1  2  1  0  0  0  0
 19 20  2  0  0  0  0
 19 21  1  0  0  0  0
 16 17  1  0  0  0  0
 16 18  1  0  0  0  0
 14 15  2  0  0  0  0
 14 16  1  0  0  0  0
 11 12  1  0  0  0  0
 11 13  1  0  0  0  0
 11 14  1  0  0  0  0
  9 10  1  0  0  0  0
  9 11  1  0  0  0  0
  9 19  1  0  0  0  0
  7  8  1  0  0  0  0
  7  9  1  0  0  0  0
 23 24  1  0  0  0  0
 23 25  1  0  0  0  0
 23 26  1  0  0  0  0
 21 22  1  0  0  0  0
 21 23  1  0  0  0  0
M  END
$$$$
default_name
  -OEChem-01062215323D

 26 25  0     1  0  0  0  0  0999 V2000
   -3.0232   -3.6924    1.0038 H   0  0  0  0  0  0  0  0  0  0  0  0
   -3.0082   -2.6684    0.6318 C   0  0  0  0  0  0  0  0  0  0  0  0
   -3.6332   -2.0414    1.2658 H   0  0  0  0  0  0  0  0  0  0  0  0
   -3.3762   -2.6444   -0.3912 H   0  0  0  0  0  0  0  0  0  0  0  0
   -1.5882   -2.1554    0.6658 C   0  0  0  0  0  0  0  0  0  0  0  0
   -0.6832   -2.8764    1.0638 O   0  0  0  0  0  0  0  0  0  0  0  0
   -1.3952   -0.9084    0.2428 N   0  0  0  0  0  0  0  0  0  0  0  0
   -2.1972   -0.3644   -0.0422 H   0  0  0  0  0  0  0  0  0  0  0  0
   -0.1122   -0.1994    0.2658 C   0  0  1  0  0  0  0  0  0  0  0  0
    0.0381    0.2784   -0.7057 H   0  0  0  0  0  0  0  0  0  0  0  0
   -0.1684    0.8938    1.3561 C   0  0  0  0  0  0  0  0  0  0  0  0
   -0.5366    0.4556    2.2830 H   0  0  0  0  0  0  0  0  0  0  0  0
    0.8358    1.2761    1.5334 H   0  0  0  0  0  0  0  0  0  0  0  0
   -1.0907    2.0548    1.0207 C   0  0  0  0  0  0  0  0  0  0  0  0
   -1.1478    2.5578   -0.0879 O   0  0  0  0  0  0  0  0  0  0  0  0
   -1.8469    2.5320    1.9792 N   0  0  0  0  0  0  0  0  0  0  0  0
   -2.4587    3.2872    1.7241 H   0  0  0  0  0  0  0  0  0  0  0  0
   -1.8324    2.1235    2.8946 H   0  0  0  0  0  0  0  0  0  0  0  0
    1.0401   -1.2033    0.4900 C   0  0  0  0  0  0  0  0  0  0  0  0
    1.2192   -2.1214   -0.3104 O   0  0  0  0  0  0  0  0  0  0  0  0
    1.8076   -1.0391    1.5717 N   0  0  0  0  0  0  0  0  0  0  0  0
    1.5434   -0.3028    2.2185 H   0  0  0  0  0  0  0  0  0  0  0  0
    2.9421   -1.8927    1.9194 C   0  0  0  0  0  0  0  0  0  0  0  0
    3.6571   -1.9087    1.0940 H   0  0  0  0  0  0  0  0  0  0  0  0
    3.4352   -1.5135    2.8155 H   0  0  0  0  0  0  0  0  0  0  0  0
    2.5948   -2.9111    2.1019 H   0  0  0  0  0  0  0  0  0  0  0  0
  5  6  2  0  0  0  0
  5  7  1  0  0  0  0
  2  3  1  0  0  0  0
  2  4  1  0  0  0  0
  2  5  1  0  0  0  0
  1  2  1  0  0  0  0
 19 20  2  0  0  0  0
 19 21  1  0  0  0  0
 16 17  1  0  0  0  0
 16 18  1  0  0  0  0
 14 15  2  0  0  0  0
 14 16  1  0  0  0  0
 11 12  1  0  0  0  0
 11 13  1  0  0  0  0
 11 14  1  0  0  0  0
  9 10  1  0  0  0  0
  9 11  1  0  0  0  0
  9 19  1  0  0  0  0
  7  8  1  0  0  0  0
  7  9  1  0  0  0  0
 23 24  1  0  0  0  0
 23 25  1  0  0  0  0
 23 26  1  0  0  0  0
 21 22  1  0  0  0  0
 21 23  1  0  0  0  0
M  END
$$$$
default_name
  -OEChem-01062215323D

 26 25  0     1  0  0  0  0  0999 V2000
   -3.0232   -3.6924    1.0038 H   0  0  0  0  0  0  0  0  0  0  0  0
   -3.0082   -2.6684    0.6318 C   0  0  0  0  0  0  0  0  0  0  0  0
   -3.6332   -2.0414    1.2658 H   0  0  0  0  0  0  0  0  0  0  0  0
   -3.3762   -2.6444   -0.3912 H   0  0  0  0  0  0  0  0  0  0  0  0
   -1.5882   -2.1554    0.6658 C   0  0  0  0  0  0  0  0  0  0  0  0
   -0.6832   -2.8764    1.0638 O   0  0  0  0  0  0  0  0  0  0  0  0
   -1.3952   -0.9084    0.2428 N   0  0  0  0  0  0  0  0  0  0  0  0
   -2.1972   -0.3644   -0.0422 H   0  0  0  0  0  0  0  0  0  0  0  0
   -0.1122   -0.1994    0.2658 C   0  0  1  0  0  0  0  0  0  0  0  0
    0.0381    0.2784   -0.7057 H   0  0  0  0  0  0  0  0  0  0  0  0
   -0.1684    0.8938    1.3561 C   0  0  0  0  0  0  0  0  0  0  0  0
   -0.5366    0.4556    2.2830 H   0  0  0  0  0  0  0  0  0  0  0  0
    0.8358    1.2761    1.5334 H   0  0  0  0  0  0  0  0  0  0  0  0
   -1.0907    2.0548    1.0207 C   0  0  0  0  0  0  0  0  0  0  0  0
   -1.1478    2.5578   -0.0879 O   0  0  0  0  0  0  0  0  0  0  0  0
   -1.8469    2.5320    1.9792 N   0  0  0  0  0  0  0  0  0  0  0  0
   -2.4587    3.2872    1.7241 H   0  0  0  0  0  0  0  0  0  0  0  0
   -1.8324    2.1235    2.8946 H   0  0  0  0  0  0  0  0  0  0  0  0
    1.0401   -1.2033    0.4900 C   0  0  0  0  0  0  0  0  0  0  0  0
    1.3978   -1.9424   -0.4272 O   0  0  0  0  0  0  0  0  0  0  0  0
    1.6091   -1.2385    1.6988 N   0  0  0  0  0  0  0  0  0  0  0  0
    1.2027   -0.6492    2.4184 H   0  0  0  0  0  0  0  0  0  0  0  0
    2.7155   -2.1197    2.0678 C   0  0  0  0  0  0  0  0  0  0  0  0
    3.5563   -1.9583    1.3899 H   0  0  0  0  0  0  0  0  0  0  0  0
    3.0331   -1.9134    3.0908 H   0  0  0  0  0  0  0  0  0  0  0  0
    2.3984   -3.1612    1.9912 H   0  0  0  0  0  0  0  0  0  0  0  0
  5  6  2  0  0  0  0
  5  7  1  0  0  0  0
  2  3  1  0  0  0  0
  2  4  1  0  0  0  0
  2  5  1  0  0  0  0
  1  2  1  0  0  0  0
 19 20  2  0  0  0  0
 19 21  1  0  0  0  0
 16 17  1  0  0  0  0
 16 18  1  0  0  0  0
 14 15  2  0  0  0  0
 14 16  1  0  0  0  0
 11 12  1  0  0  0  0
 11 13  1  0  0  0  0
 11 14  1  0  0  0  0
  9 10  1  0  0  0  0
  9 11  1  0  0  0  0
  9 19  1  0  0  0  0
  7  8  1  0  0  0  0
  7  9  1  0  0  0  0
 23 24  1  0  0  0  0
 23 25  1  0  0  0  0
 23 26  1  0  0  0  0
 21 22  1  0  0  0  0
 21 23  1  0  0  0  0
M  END
$$$$
default_name
  -OEChem-01062215323D

 26 25  0     1  0  0  0  0  0999 V2000
   -3.0232   -3.6924    1.0038 H   0  0  0  0  0  0  0  0  0  0  0  0
   -3.0082   -2.6684    0.6318 C   0  0  0  0  0  0  0  0  0  0  0  0
   -3.6332   -2.0414    1.2658 H   0  0  0  0  0  0  0  0  0  0  0  0
   -3.3762   -2.6444   -0.3912 H   0  0  0  0  0  0  0  0  0  0  0  0
   -1.5882   -2.1554    0.6658 C   0  0  0  0  0  0  0  0  0  0  0  0
   -0.6832   -2.8764    1.0638 O   0  0  0  0  0  0  0  0  0  0  0  0
   -1.3952   -0.9084    0.2428 N   0  0  0  0  0  0  0  0  0  0  0  0
   -2.1972   -0.3644   -0.0422 H   0  0  0  0  0  0  0  0  0  0  0  0
   -0.1122   -0.1994    0.2658 C   0  0  1  0  0  0  0  0  0  0  0  0
    0.0381    0.2784   -0.7057 H   0  0  0  0  0  0  0  0  0  0  0  0
   -0.1684    0.8938    1.3561 C   0  0  0  0  0  0  0  0  0  0  0  0
   -0.5366    0.4556    2.2830 H   0  0  0  0  0  0  0  0  0  0  0  0
    0.8358    1.2761    1.5334 H   0  0  0  0  0  0  0  0  0  0  0  0
   -1.0907    2.0548    1.0207 C   0  0  0  0  0  0  0  0  0  0  0  0
   -1.1478    2.5578   -0.0879 O   0  0  0  0  0  0  0  0  0  0  0  0
   -1.8469    2.5320    1.9792 N   0  0  0  0  0  0  0  0  0  0  0  0
   -2.4587    3.2872    1.7241 H   0  0  0  0  0  0  0  0  0  0  0  0
   -1.8324    2.1235    2.8946 H   0  0  0  0  0  0  0  0  0  0  0  0
    1.0401   -1.2033    0.4900 C   0  0  0  0  0  0  0  0  0  0  0  0
    1.5833   -1.7403   -0.4754 O   0  0  0  0  0  0  0  0  0  0  0  0
    1.4035   -1.4631    1.7496 N   0  0  0  0  0  0  0  0  0  0  0  0
    0.8529   -1.0352    2.4872 H   0  0  0  0  0  0  0  0  0  0  0  0
    2.4801   -2.3761    2.1292 C   0  0  0  0  0  0  0  0  0  0  0  0
    3.4111   -2.0671    1.6491 H   0  0  0  0  0  0  0  0  0  0  0  0
    2.6135   -2.3680    3.2119 H   0  0  0  0  0  0  0  0  0  0  0  0
    2.2368   -3.3887    1.8030 H   0  0  0  0  0  0  0  0  0  0  0  0
  5  6  2  0  0  0  0
  5  7  1  0  0  0  0
  2  3  1  0  0  0  0
  2  4  1  0  0  0  0
  2  5  1  0  0  0  0
  1  2  1  0  0  0  0
 19 20  2  0  0  0  0
 19 21  1  0  0  0  0
 16 17  1  0  0  0  0
 16 18  1  0  0  0  0
 14 15  2  0  0  0  0
 14 16  1  0  0  0  0
 11 12  1  0  0  0  0
 11 13  1  0  0  0  0
 11 14  1  0  0  0  0
  9 10  1  0  0  0  0
  9 11  1  0  0  0  0
  9 19  1  0  0  0  0
  7  8  1  0  0  0  0
  7  9  1  0  0  0  0
 23 24  1  0  0  0  0
 23 25  1  0  0  0  0
 23 26  1  0  0  0  0
 21 22  1  0  0  0  0
 21 23  1  0  0  0  0
M  END
$$$$
default_name
  -OEChem-01062215323D

 26 25  0     1  0  0  0  0  0999 V2000
   -3.0232   -3.6924    1.0038 H   0  0  0  0  0  0  0  0  0  0  0  0
   -3.0082   -2.6684    0.6318 C   0  0  0  0  0  0  0  0  0  0  0  0
   -3.6332   -2.0414    1.2658 H   0  0  0  0  0  0  0  0  0  0  0  0
   -3.3762   -2.6444   -0.3912 H   0  0  0  0  0  0  0  0  0  0  0  0
   -1.5882   -2.1554    0.6658 C   0  0  0  0  0  0  0  0  0  0  0  0
   -0.6832   -2.8764    1.0638 O   0  0  0  0  0  0  0  0  0  0  0  0
   -1.3952   -0.9084    0.2428 N   0  0  0  0  0  0  0  0  0  0  0  0
   -2.1972   -0.3644   -0.0422 H   0  0  0  0  0  0  0  0  0  0  0  0
   -0.1122   -0.1994    0.2658 C   0  0  1  0  0  0  0  0  0  0  0  0
    0.0381    0.2784   -0.7057 H   0  0  0  0  0  0  0  0  0  0  0  0
   -0.1684    0.8938    1.3561 C   0  0  0  0  0  0  0  0  0  0  0  0
   -0.5366    0.4556    2.2830 H   0  0  0  0  0  0  0  0  0  0  0  0
    0.8358    1.2761    1.5334 H   0  0  0  0  0  0  0  0  0  0  0  0
   -1.0907    2.0548    1.0207 C   0  0  0  0  0  0  0  0  0  0  0  0
   -1.1478    2.5578   -0.0879 O   0  0  0  0  0  0  0  0  0  0  0  0
   -1.8469    2.5320    1.9792 N   0  0  0  0  0  0  0  0  0  0  0  0
   -2.4587    3.2872    1.7241 H   0  0  0  0  0  0  0  0  0  0  0  0
   -1.8324    2.1235    2.8946 H   0  0  0  0  0  0  0  0  0  0  0  0
    1.0401   -1.2033    0.4900 C   0  0  0  0  0  0  0  0  0  0  0  0
    1.7630   -1.5288   -0.4518 O   0  0  0  0  0  0  0  0  0  0  0  0
    1.2048   -1.6976    1.7208 N   0  0  0  0  0  0  0  0  0  0  0  0
    0.5181   -1.4345    2.4204 H   0  0  0  0  0  0  0  0  0  0  0  0
    2.2521   -2.6445    2.0995 C   0  0  0  0  0  0  0  0  0  0  0  0
    3.2313   -2.2277    1.8541 H   0  0  0  0  0  0  0  0  0  0  0  0
    2.2048   -2.8463    3.1705 H   0  0  0  0  0  0  0  0  0  0  0  0
    2.1209   -3.5782    1.5500 H   0  0  0  0  0  0  0  0  0  0  0  0
  5  6  2  0  0  0  0
  5  7  1  0  0  0  0
  2  3  1  0  0  0  0
  2  4  1  0  0  0  0
  2  5  1  0  0  0  0
  1  2  1  0  0  0  0
 19 20  2  0  0  0  0
 19 21  1  0  0  0  0
 16 17  1  0  0  0  0
 16 18  1  0  0  0  0
 14 15  2  0  0  0  0
 14 16  1  0  0  0  0
 11 12  1  0  0  0  0
 11 13  1  0  0  0  0
 11 14  1  0  0  0  0
  9 10  1  0  0  0  0
  9 11  1  0  0  0  0
  9 19  1  0  0  0  0
  7  8  1  0  0  0  0
  7  9  1  0  0  0  0
 23 24  1  0  0  0  0
 23 25  1  0  0  0  0
 23 26  1  0  0  0  0
 21 22  1  0  0  0  0
 21 23  1  0  0  0  0
M  END
$$$$
default_name
  -OEChem-01062215323D

 26 25  0     1  0  0  0  0  0999 V2000
   -3.0232   -3.6924    1.0038 H   0  0  0  0  0  0  0  0  0  0  0  0
   -3.0082   -2.6684    0.6318 C   0  0  0  0  0  0  0  0  0  0  0  0
   -3.6332   -2.0414    1.2658 H   0  0  0  0  0  0  0  0  0  0  0  0
   -3.3762   -2.6444   -0.3912 H   0  0  0  0  0  0  0  0  0  0  0  0
   -1.5882   -2.1554    0.6658 C   0  0  0  0  0  0  0  0  0  0  0  0
   -0.6832   -2.8764    1.0638 O   0  0  0  0  0  0  0  0  0  0  0  0
   -1.3952   -0.9084    0.2428 N   0  0  0  0  0  0  0  0  0  0  0  0
   -2.1972   -0.3644   -0.0422 H   0  0  0  0  0  0  0  0  0  0  0  0
   -0.1122   -0.1994    0.2658 C   0  0  1  0  0  0  0  0  0  0  0  0
    0.0381    0.2784   -0.7057 H   0  0  0  0  0  0  0  0  0  0  0  0
   -0.1684    0.8938    1.3561 C   0  0  0  0  0  0  0  0  0  0  0  0
   -0.5366    0.4556    2.2830 H   0  0  0  0  0  0  0  0  0  0  0  0
    0.8358    1.2761    1.5334 H   0  0  0  0  0  0  0  0  0  0  0  0
   -1.0907    2.0548    1.0207 C   0  0  0  0  0  0  0  0  0  0  0  0
   -1.1478    2.5578   -0.0879 O   0  0  0  0  0  0  0  0  0  0  0  0
   -1.8469    2.5320    1.9792 N   0  0  0  0  0  0  0  0  0  0  0  0
   -2.4587    3.2872    1.7241 H   0  0  0  0  0  0  0  0  0  0  0  0
   -1.8324    2.1235    2.8946 H   0  0  0  0  0  0  0  0  0  0  0  0
    1.0401   -1.2033    0.4900 C   0  0  0  0  0  0  0  0  0  0  0  0
    1.9246   -1.3224   -0.3579 O   0  0  0  0  0  0  0  0  0  0  0  0
    1.0266   -1.9260    1.6142 N   0  0  0  0  0  0  0  0  0  0  0  0
    0.2208   -1.8198    2.2224 H   0  0  0  0  0  0  0  0  0  0  0  0
    2.0469   -2.9066    1.9805 C   0  0  0  0  0  0  0  0  0  0  0  0
    3.0291   -2.4292    1.9908 H   0  0  0  0  0  0  0  0  0  0  0  0
    1.8350   -3.3156    2.9694 H   0  0  0  0  0  0  0  0  0  0  0  0
    2.0586   -3.7168    1.2495 H   0  0  0  0  0  0  0  0  0  0  0  0
  5  6  2  0  0  0  0
  5  7  1  0  0  0  0
  2  3  1  0  0  0  0
  2  4  1  0  0  0  0
  2  5  1  0  0  0  0
  1  2  1  0  0  0  0
 19 20  2  0  0  0  0
 19 21  1  0  0  0  0
 16 17  1  0  0  0  0
 16 18  1  0  0  0  0
 14 15  2  0  0  0  0
 14 16  1  0  0  0  0
 11 12  1  0  0  0  0
 11 13  1  0  0  0  0
 11 14  1  0  0  0  0
  9 10  1  0  0  0  0
  9 11  1  0  0  0  0
  9 19  1  0  0  0  0
  7  8  1  0  0  0  0
  7  9  1  0  0  0  0
 23 24  1  0  0  0  0
 23 25  1  0  0  0  0
 23 26  1  0  0  0  0
 21 22  1  0  0  0  0
 21 23  1  0  0  0  0
M  END
$$$$
default_name
  -OEChem-01062215323D

 26 25  0     1  0  0  0  0  0999 V2000
   -3.0232   -3.6924    1.0038 H   0  0  0  0  0  0  0  0  0  0  0  0
   -3.0082   -2.6684    0.6318 C   0  0  0  0  0  0  0  0  0  0  0  0
   -3.6332   -2.0414    1.2658 H   0  0  0  0  0  0  0  0  0  0  0  0
   -3.3762   -2.6444   -0.3912 H   0  0  0  0  0  0  0  0  0  0  0  0
   -1.5882   -2.1554    0.6658 C   0  0  0  0  0  0  0  0  0  0  0  0
   -0.6832   -2.8764    1.0638 O   0  0  0  0  0  0  0  0  0  0  0  0
   -1.3952   -0.9084    0.2428 N   0  0  0  0  0  0  0  0  0  0  0  0
   -2.1972   -0.3644   -0.0422 H   0  0  0  0  0  0  0  0  0  0  0  0
   -0.1122   -0.1994    0.2658 C   0  0  1  0  0  0  0  0  0  0  0  0
    0.0381    0.2784   -0.7057 H   0  0  0  0  0  0  0  0  0  0  0  0
   -0.1684    0.8938    1.3561 C   0  0  0  0  0  0  0  0  0  0  0  0
   -0.5366    0.4556    2.2830 H   0  0  0  0  0  0  0  0  0  0  0  0
    0.8358    1.2761    1.5334 H   0  0  0  0  0  0  0  0  0  0  0  0
   -1.0907    2.0548    1.0207 C   0  0  0  0  0  0  0  0  0  0  0  0
   -1.1478    2.5578   -0.0879 O   0  0  0  0  0  0  0  0  0  0  0  0
   -1.8469    2.5320    1.9792 N   0  0  0  0  0  0  0  0  0  0  0  0
   -2.4587    3.2872    1.7241 H   0  0  0  0  0  0  0  0  0  0  0  0
   -1.8324    2.1235    2.8946 H   0  0  0  0  0  0  0  0  0  0  0  0
    1.0401   -1.2033    0.4900 C   0  0  0  0  0  0  0  0  0  0  0  0
    2.0572   -1.1350   -0.2001 O   0  0  0  0  0  0  0  0  0  0  0  0
    0.8809   -2.1327    1.4372 N   0  0  0  0  0  0  0  0  0  0  0  0
   -0.0185   -2.1650    1.9067 H   0  0  0  0  0  0  0  0  0  0  0  0
    1.8785   -3.1444    1.7805 C   0  0  0  0  0  0  0  0  0  0  0  0
    2.8184   -2.6578    2.0499 H   0  0  0  0  0  0  0  0  0  0  0  0
    1.5293   -3.7440    2.6223 H   0  0  0  0  0  0  0  0  0  0  0  0
    2.0542   -3.7950    0.9221 H   0  0  0  0  0  0  0  0  0  0  0  0
  5  6  2  0  0  0  0
  5  7  1  0  0  0  0
  2  3  1  0  0  0  0
  2  4  1  0  0  0  0
  2  5  1  0  0  0  0
  1  2  1  0  0  0  0
 19 20  2  0  0  0  0
 19 21  1  0  0  0  0
 16 17  1  0  0  0  0
 16 18  1  0  0  0  0
 14 15  2  0  0  0  0
 14 16  1  0  0  0  0
 11 12  1  0  0  0  0
 11 13  1  0  0  0  0
 11 14  1  0  0  0  0
  9 10  1  0  0  0  0
  9 11  1  0  0  0  0
  9 19  1  0  0  0  0
  7  8  1  0  0  0  0
  7  9  1  0  0  0  0
 23 24  1  0  0  0  0
 23 25  1  0  0  0  0
 23 26  1  0  0  0  0
 21 22  1  0  0  0  0
 21 23  1  0  0  0  0
M  END
$$$$
default_name
  -OEChem-01062215323D

 26 25  0     1  0  0  0  0  0999 V2000
   -3.0232   -3.6924    1.0038 H   0  0  0  0  0  0  0  0  0  0  0  0
   -3.0082   -2.6684    0.6318 C   0  0  0  0  0  0  0  0  0  0  0  0
   -3.6332   -2.0414    1.2658 H   0  0  0  0  0  0  0  0  0  0  0  0
   -3.3762   -2.6444   -0.3912 H   0  0  0  0  0  0  0  0  0  0  0  0
   -1.5882   -2.1554    0.6658 C   0  0  0  0  0  0  0  0  0  0  0  0
   -0.6832   -2.8764    1.0638 O   0  0  0  0  0  0  0  0  0  0  0  0
   -1.3952   -0.9084    0.2428 N   0  0  0  0  0  0  0  0  0  0  0  0
   -2.1972   -0.3644   -0.0422 H   0  0  0  0  0  0  0  0  0  0  0  0
   -0.1122   -0.1994    0.2658 C   0  0  1  0  0  0  0  0  0  0  0  0
    0.0381    0.2784   -0.7057 H   0  0  0  0  0  0  0  0  0  0  0  0
   -0.1684    0.8938    1.3561 C   0  0  0  0  0  0  0  0  0  0  0  0
   -0.5366    0.4556    2.2830 H   0  0  0  0  0  0  0  0  0  0  0  0
    0.8358    1.2761    1.5334 H   0  0  0  0  0  0  0  0  0  0  0  0
   -1.0907    2.0548    1.0207 C   0  0  0  0  0  0  0  0  0  0  0  0
   -1.1478    2.5578   -0.0879 O   0  0  0  0  0  0  0  0  0  0  0  0
   -1.8469    2.5320    1.9792 N   0  0  0  0  0  0  0  0  0  0  0  0
   -2.4587    3.2872    1.7241 H   0  0  0  0  0  0  0  0  0  0  0  0
   -1.8324    2.1235    2.8946 H   0  0  0  0  0  0  0  0  0  0  0  0
    1.0401   -1.2033    0.4900 C   0  0  0  0  0  0  0  0  0  0  0  0
    2.1517   -0.9795    0.0107 O   0  0  0  0  0  0  0  0  0  0  0  0
    0.7777   -2.3037    1.2018 N   0  0  0  0  0  0  0  0  0  0  0  0
   -0.1836   -2.4464    1.4949 H   0  0  0  0  0  0  0  0  0  0  0  0
    1.7585   -3.3419    1.5131 C   0  0  0  0  0  0  0  0  0  0  0  0
    2.6135   -2.8979    2.0275 H   0  0  0  0  0  0  0  0  0  0  0  0
    1.3085   -4.1022    2.1529 H   0  0  0  0  0  0  0  0  0  0  0  0
    2.1079   -3.8075    0.5900 H   0  0  0  0  0  0  0  0  0  0  0  0
  5  6  2  0  0  0  0
  5  7  1  0  0  0  0
  2  3  1  0  0  0  0
  2  4  1  0  0  0  0
  2  5  1  0  0  0  0
  1  2  1  0  0  0  0
 19 20  2  0  0  0  0
 19 21  1  0  0  0  0
 16 17  1  0  0  0  0
 16 18  1  0  0  0  0
 14 15  2  0  0  0  0
 14 16  1  0  0  0  0
 11 12  1  0  0  0  0
 11 13  1  0  0  0  0
 11 14  1  0  0  0  0
  9 10  1  0  0  0  0
  9 11  1  0  0  0  0
  9 19  1  0  0  0  0
  7  8  1  0  0  0  0
  7  9  1  0  0  0  0
 23 24  1  0  0  0  0
 23 25  1  0  0  0  0
 23 26  1  0  0  0  0
 21 22  1  0  0  0  0
 21 23  1  0  0  0  0
M  END
$$$$
default_name
  -OEChem-01062215323D

 26 25  0     1  0  0  0  0  0999 V2000
   -3.0232   -3.6924    1.0038 H   0  0  0  0  0  0  0  0  0  0  0  0
   -3.0082   -2.6684    0.6318 C   0  0  0  0  0  0  0  0  0  0  0  0
   -3.6332   -2.0414    1.2658 H   0  0  0  0  0  0  0  0  0  0  0  0
   -3.3762   -2.6444   -0.3912 H   0  0  0  0  0  0  0  0  0  0  0  0
   -1.5882   -2.1554    0.6658 C   0  0  0  0  0  0  0  0  0  0  0  0
   -0.6832   -2.8764    1.0638 O   0  0  0  0  0  0  0  0  0  0  0  0
   -1.3952   -0.9084    0.2428 N   0  0  0  0  0  0  0  0  0  0  0  0
   -2.1972   -0.3644   -0.0422 H   0  0  0  0  0  0  0  0  0  0  0  0
   -0.1122   -0.1994    0.2658 C   0  0  1  0  0  0  0  0  0  0  0  0
    0.0381    0.2784   -0.7057 H   0  0  0  0  0  0  0  0  0  0  0  0
   -0.1684    0.8938    1.3561 C   0  0  0  0  0  0  0  0  0  0  0  0
   -0.5366    0.4556    2.2830 H   0  0  0  0  0  0  0  0  0  0  0  0
    0.8358    1.2761    1.5334 H   0  0  0  0  0  0  0  0  0  0  0  0
   -1.0907    2.0548    1.0207 C   0  0  0  0  0  0  0  0  0  0  0  0
   -1.1478    2.5578   -0.0879 O   0  0  0  0  0  0  0  0  0  0  0  0
   -1.8469    2.5320    1.9792 N   0  0  0  0  0  0  0  0  0  0  0  0
   -2.4587    3.2872    1.7241 H   0  0  0  0  0  0  0  0  0  0  0  0
   -1.8324    2.1235    2.8946 H   0  0  0  0  0  0  0  0  0  0  0  0
    1.0401   -1.2033    0.4900 C   0  0  0  0  0  0  0  0  0  0  0  0
    2.2016   -0.8664    0.2603 O   0  0  0  0  0  0  0  0  0  0  0  0
    0.7241   -2.4273    0.9240 N   0  0  0  0  0  0  0  0  0  0  0  0
   -0.2632   -2.6449    1.0150 H   0  0  0  0  0  0  0  0  0  0  0  0
    1.6950   -3.4855    1.1964 C   0  0  0  0  0  0  0  0  0  0  0  0
    2.4284   -3.1333    1.9250 H   0  0  0  0  0  0  0  0  0  0  0  0
    1.1876   -4.3659    1.5933 H   0  0  0  0  0  0  0  0  0  0  0  0
    2.2162   -3.7534    0.2758 H   0  0  0  0  0  0  0  0  0  0  0  0
  5  6  2  0  0  0  0
  5  7  1  0  0  0  0
  2  3  1  0  0  0  0
  2  4  1  0  0  0  0
  2  5  1  0  0  0  0
  1  2  1  0  0  0  0
 19 20  2  0  0  0  0
 19 21  1  0  0  0  0
 16 17  1  0  0  0  0
 16 18  1  0  0  0  0
 14 15  2  0  0  0  0
 14 16  1  0  0  0  0
 11 12  1  0  0  0  0
 11 13  1  0  0  0  0
 11 14  1  0  0  0  0
  9 10  1  0  0  0  0
  9 11  1  0  0  0  0
  9 19  1  0  0  0  0
  7  8  1  0  0  0  0
  7  9  1  0  0  0  0
 23 24  1  0  0  0  0
 23 25  1  0  0  0  0
 23 26  1  0  0  0  0
 21 22  1  0  0  0  0
 21 23  1  0  0  0  0
M  END
$$$$
default_name
  -OEChem-01062215323D

 26 25  0     1  0  0  0  0  0999 V2000
   -3.0232   -3.6924    1.0038 H   0  0  0  0  0  0  0  0  0  0  0  0
   -3.0082   -2.6684    0.6318 C   0  0  0  0  0  0  0  0  0  0  0  0
   -3.6332   -2.0414    1.2658 H   0  0  0  0  0  0  0  0  0  0  0  0
   -3.3762   -2.6444   -0.3912 H   0  0  0  0  0  0  0  0  0  0  0  0
   -1.5882   -2.1554    0.6658 C   0  0  0  0  0  0  0  0  0  0  0  0
   -0.6832   -2.8764    1.0638 O   0  0  0  0  0  0  0  0  0  0  0  0
   -1.3952   -0.9084    0.2428 N   0  0  0  0  0  0  0  0  0  0  0  0
   -2.1972   -0.3644   -0.0422 H   0  0  0  0  0  0  0  0  0  0  0  0
   -0.1122   -0.1994    0.2658 C   0  0  1  0  0  0  0  0  0  0  0  0
    0.0381    0.2784   -0.7057 H   0  0  0  0  0  0  0  0  0  0  0  0
   -0.1684    0.8938    1.3561 C   0  0  0  0  0  0  0  0  0  0  0  0
   -0.5366    0.4556    2.2830 H   0  0  0  0  0  0  0  0  0  0  0  0
    0.8358    1.2761    1.5334 H   0  0  0  0  0  0  0  0  0  0  0  0
   -1.0907    2.0548    1.0207 C   0  0  0  0  0  0  0  0  0  0  0  0
   -1.1478    2.5578   -0.0879 O   0  0  0  0  0  0  0  0  0  0  0  0
   -1.8469    2.5320    1.9792 N   0  0  0  0  0  0  0  0  0  0  0  0
   -2.4587    3.2872    1.7241 H   0  0  0  0  0  0  0  0  0  0  0  0
   -1.8324    2.1235    2.8946 H   0  0  0  0  0  0  0  0  0  0  0  0
    1.0401   -1.2033    0.4900 C   0  0  0  0  0  0  0  0  0  0  0  0
    2.2036   -0.8035    0.5317 O   0  0  0  0  0  0  0  0  0  0  0  0
    0.7236   -2.4950    0.6229 N   0  0  0  0  0  0  0  0  0  0  0  0
   -0.2519   -2.7470    0.4998 H   0  0  0  0  0  0  0  0  0  0  0  0
    1.6923   -3.5655    0.8522 C   0  0  0  0  0  0  0  0  0  0  0  0
    2.2757   -3.3477    1.7494 H   0  0  0  0  0  0  0  0  0  0  0  0
    1.1749   -4.5171    0.9814 H   0  0  0  0  0  0  0  0  0  0  0  0
    2.3716   -3.6364    0.0010 H   0  0  0  0  0  0  0  0  0  0  0  0
  5  6  2  0  0  0  0
  5  7  1  0  0  0  0
  2  3  1  0  0  0  0
  2  4  1  0  0  0  0
  2  5  1  0  0  0  0
  1  2  1  0  0  0  0
 19 20  2  0  0  0  0
 19 21  1  0  0  0  0
 16 17  1  0  0  0  0
 16 18  1  0  0  0  0
 14 15  2  0  0  0  0
 14 16  1  0  0  0  0
 11 12  1  0  0  0  0
 11 13  1  0  0  0  0
 11 14  1  0  0  0  0
  9 10  1  0  0  0  0
  9 11  1  0  0  0  0
  9 19  1  0  0  0  0
  7  8  1  0  0  0  0
  7  9  1  0  0  0  0
 23 24  1  0  0  0  0
 23 25  1  0  0  0  0
 23 26  1  0  0  0  0
 21 22  1  0  0  0  0
 21 23  1  0  0  0  0
M  END
$$$$
default_name
  -OEChem-01062215323D

 26 25  0     1  0  0  0  0  0999 V2000
   -3.0232   -3.6924    1.0038 H   0  0  0  0  0  0  0  0  0  0  0  0
   -3.0082   -2.6684    0.6318 C   0  0  0  0  0  0  0  0  0  0  0  0
   -3.6332   -2.0414    1.2658 H   0  0  0  0  0  0  0  0  0  0  0  0
   -3.3762   -2.6444   -0.3912 H   0  0  0  0  0  0  0  0  0  0  0  0
   -1.5882   -2.1554    0.6658 C   0  0  0  0  0  0  0  0  0  0  0  0
   -0.6832   -2.8764    1.0638 O   0  0  0  0  0  0  0  0  0  0  0  0
   -1.3952   -0.9084    0.2428 N   0  0  0  0  0  0  0  0  0  0  0  0
   -2.1972   -0.3644   -0.0422 H   0  0  0  0  0  0  0  0  0  0  0  0
   -0.1122   -0.1994    0.2658 C   0  0  1  0  0  0  0  0  0  0  0  0
    0.0381    0.2784   -0.7057 H   0  0  0  0  0  0  0  0  0  0  0  0
   -0.1684    0.8938    1.3561 C   0  0  0  0  0  0  0  0  0  0  0  0
   -0.5366    0.4556    2.2830 H   0  0  0  0  0  0  0  0  0  0  0  0
    0.8358    1.2761    1.5334 H   0  0  0  0  0  0  0  0  0  0  0  0
   -1.0907    2.0548    1.0207 C   0  0  0  0  0  0  0  0  0  0  0  0
   -1.1478    2.5578   -0.0879 O   0  0  0  0  0  0  0  0  0  0  0  0
   -1.8469    2.5320    1.9792 N   0  0  0  0  0  0  0  0  0  0  0  0
   -2.4587    3.2872    1.7241 H   0  0  0  0  0  0  0  0  0  0  0  0
   -1.8324    2.1235    2.8946 H   0  0  0  0  0  0  0  0  0  0  0  0
    1.0401   -1.2033    0.4900 C   0  0  0  0  0  0  0  0  0  0  0  0
    2.1575   -0.7951    0.8062 O   0  0  0  0  0  0  0  0  0  0  0  0
    0.7764   -2.5024    0.3188 N   0  0  0  0  0  0  0  0  0  0  0  0
   -0.1505   -2.7458   -0.0158 H   0  0  0  0  0  0  0  0  0  0  0  0
    1.7506   -3.5764    0.5038 C   0  0  0  0  0  0  0  0  0  0  0  0
    2.1658   -3.5267    1.5127 H   0  0  0  0  0  0  0  0  0  0  0  0
    1.2712   -4.5455    0.3590 H   0  0  0  0  0  0  0  0  0  0  0  0
    2.5635   -3.4645   -0.2157 H   0  0  0  0  0  0  0  0  0  0  0  0
  5  6  2  0  0  0  0
  5  7  1  0  0  0  0
  2  3  1  0  0  0  0
  2  4  1  0  0  0  0
  2  5  1  0  0  0  0
  1  2  1  0  0  0  0
 19 20  2  0  0  0  0
 19 21  1  0  0  0  0
 16 17  1  0  0  0  0
 16 18  1  0  0  0  0
 14 15  2  0  0  0  0
 14 16  1  0  0  0  0
 11 12  1  0  0  0  0
 11 13  1  0  0  0  0
 11 14  1  0  0  0  0
  9 10  1  0  0  0  0
  9 11  1  0  0  0  0
  9 19  1  0  0  0  0
  7  8  1  0  0  0  0
  7  9  1  0  0  0  0
 23 24  1  0  0  0  0
 23 25  1  0  0  0  0
 23 26  1  0  0  0  0
 21 22  1  0  0  0  0
 21 23  1  0  0  0  0
M  END
$$$$
default_name
  -OEChem-01062215323D

 26 25  0     1  0  0  0  0  0999 V2000
   -3.0232   -3.6924    1.0038 H   0  0  0  0  0  0  0  0  0  0  0  0
   -3.0082   -2.6684    0.6318 C   0  0  0  0  0  0  0  0  0  0  0  0
   -3.6332   -2.0414    1.2658 H   0  0  0  0  0  0  0  0  0  0  0  0
   -3.3762   -2.6444   -0.3912 H   0  0  0  0  0  0  0  0  0  0  0  0
   -1.5882   -2.1554    0.6658 C   0  0  0  0  0  0  0  0  0  0  0  0
   -0.6832   -2.8764    1.0638 O   0  0  0  0  0  0  0  0  0  0  0  0
   -1.3952   -0.9084    0.2428 N   0  0  0  0  0  0  0  0  0  0  0  0
   -2.1972   -0.3644   -0.0422 H   0  0  0  0  0  0  0  0  0  0  0  0
   -0.1122   -0.1994    0.2658 C   0  0  1  0  0  0  0  0  0  0  0  0
    0.0381    0.2784   -0.7057 H   0  0  0  0  0  0  0  0  0  0  0  0
   -0.1684    0.8938    1.3561 C   0  0  0  0  0  0  0  0  0  0  0  0
   -0.5366    0.4556    2.2830 H   0  0  0  0  0  0  0  0  0  0  0  0
    0.8358    1.2761    1.5334 H   0  0  0  0  0  0  0  0  0  0  0  0
   -1.0907    2.0548    1.0207 C   0  0  0  0  0  0  0  0  0  0  0  0
   -1.1478    2.5578   -0.0879 O   0  0  0  0  0  0  0  0  0  0  0  0
   -1.8469    2.5320    1.9792 N   0  0  0  0  0  0  0  0  0  0  0  0
   -2.4587    3.2872    1.7241 H   0  0  0  0  0  0  0  0  0  0  0  0
   -1.8324    2.1235    2.8946 H   0  0  0  0  0  0  0  0  0  0  0  0
    1.0401   -1.2033    0.4900 C   0  0  0  0  0  0  0  0  0  0  0  0
    2.0665   -0.8417    1.0653 O   0  0  0  0  0  0  0  0  0  0  0  0
    0.8788   -2.4487    0.0325 N   0  0  0  0  0  0  0  0  0  0  0  0
    0.0341   -2.6412   -0.4964 H   0  0  0  0  0  0  0  0  0  0  0  0
    1.8659   -3.5174    0.1749 C   0  0  0  0  0  0  0  0  0  0  0  0
    2.1062   -3.6581    1.2310 H   0  0  0  0  0  0  0  0  0  0  0  0
    1.4701   -4.4492   -0.2314 H   0  0  0  0  0  0  0  0  0  0  0  0
    2.7789   -3.2495   -0.3596 H   0  0  0  0  0  0  0  0  0  0  0  0
  5  6  2  0  0  0  0
  5  7  1  0  0  0  0
  2  3  1  0  0  0  0
  2  4  1  0  0  0  0
  2  5  1  0  0  0  0
  1  2  1  0  0  0  0
 19 20  2  0  0  0  0
 19 21  1  0  0  0  0
 16 17  1  0  0  0  0
 16 18  1  0  0  0  0
 14 15  2  0  0  0  0
 14 16  1  0  0  0  0
 11 12  1  0  0  0  0
 11 13  1  0  0  0  0
 11 14  1  0  0  0  0
  9 10  1  0  0  0  0
  9 11  1  0  0  0  0
  9 19  1  0  0  0  0
  7  8  1  0  0  0  0
  7  9  1  0  0  0  0
 23 24  1  0  0  0  0
 23 25  1  0  0  0  0
 23 26  1  0  0  0  0
 21 22  1  0  0  0  0
 21 23  1  0  0  0  0
M  END
$$$$
default_name
  -OEChem-01062215323D

 26 25  0     1  0  0  0  0  0999 V2000
   -3.0232   -3.6924    1.0038 H   0  0  0  0  0  0  0  0  0  0  0  0
   -3.0082   -2.6684    0.6318 C   0  0  0  0  0  0  0  0  0  0  0  0
   -3.6332   -2.0414    1.2658 H   0  0  0  0  0  0  0  0  0  0  0  0
   -3.3762   -2.6444   -0.3912 H   0  0  0  0  0  0  0  0  0  0  0  0
   -1.5882   -2.1554    0.6658 C   0  0  0  0  0  0  0  0  0  0  0  0
   -0.6832   -2.8764    1.0638 O   0  0  0  0  0  0  0  0  0  0  0  0
   -1.3952   -0.9084    0.2428 N   0  0  0  0  0  0  0  0  0  0  0  0
   -2.1972   -0.3644   -0.0422 H   0  0  0  0  0  0  0  0  0  0  0  0
   -0.1122   -0.1994    0.2658 C   0  0  1  0  0  0  0  0  0  0  0  0
    0.0381    0.2784   -0.7057 H   0  0  0  0  0  0  0  0  0  0  0  0
   -0.1684    0.8938    1.3561 C   0  0  0  0  0  0  0  0  0  0  0  0
   -0.5366    0.4556    2.2830 H   0  0  0  0  0  0  0  0  0  0  0  0
    0.8358    1.2761    1.5334 H   0  0  0  0  0  0  0  0  0  0  0  0
   -1.0907    2.0548    1.0207 C   0  0  0  0  0  0  0  0  0  0  0  0
   -1.1478    2.5578   -0.0879 O   0  0  0  0  0  0  0  0  0  0  0  0
   -1.8469    2.5320    1.9792 N   0  0  0  0  0  0  0  0  0  0  0  0
   -2.4587    3.2872    1.7241 H   0  0  0  0  0  0  0  0  0  0  0  0
   -1.8324    2.1235    2.8946 H   0  0  0  0  0  0  0  0  0  0  0  0
    1.0401   -1.2033    0.4900 C   0  0  0  0  0  0  0  0  0  0  0  0
    1.9368   -0.9401    1.2912 O   0  0  0  0  0  0  0  0  0  0  0  0
    1.0239   -2.3378   -0.2164 N   0  0  0  0  0  0  0  0  0  0  0  0
    0.2894   -2.4405   -0.9094 H   0  0  0  0  0  0  0  0  0  0  0  0
    2.0305   -3.3927   -0.1119 C   0  0  0  0  0  0  0  0  0  0  0  0
    2.1009   -3.7328    0.9235 H   0  0  0  0  0  0  0  0  0  0  0  0
    1.7578   -4.2347   -0.7497 H   0  0  0  0  0  0  0  0  0  0  0  0
    3.0030   -3.0058   -0.4208 H   0  0  0  0  0  0  0  0  0  0  0  0
  5  6  2  0  0  0  0
  5  7  1  0  0  0  0
  2  3  1  0  0  0  0
  2  4  1  0  0  0  0
  2  5  1  0  0  0  0
  1  2  1  0  0  0  0
 19 20  2  0  0  0  0
 19 21  1  0  0  0  0
 16 17  1  0  0  0  0
 16 18  1  0  0  0  0
 14 15  2  0  0  0  0
 14 16  1  0  0  0  0
 11 12  1  0  0  0  0
 11 13  1  0  0  0  0
 11 14  1  0  0  0  0
  9 10  1  0  0  0  0
  9 11  1  0  0  0  0
  9 19  1  0  0  0  0
  7  8  1  0  0  0  0
  7  9  1  0  0  0  0
 23 24  1  0  0  0  0
 23 25  1  0  0  0  0
 23 26  1  0  0  0  0
 21 22  1  0  0  0  0
 21 23  1  0  0  0  0
M  END
$$$$
default_name
  -OEChem-01062215323D

 26 25  0     1  0  0  0  0  0999 V2000
   -3.0232   -3.6924    1.0038 H   0  0  0  0  0  0  0  0  0  0  0  0
   -3.0082   -2.6684    0.6318 C   0  0  0  0  0  0  0  0  0  0  0  0
   -3.6332   -2.0414    1.2658 H   0  0  0  0  0  0  0  0  0  0  0  0
   -3.3762   -2.6444   -0.3912 H   0  0  0  0  0  0  0  0  0  0  0  0
   -1.5882   -2.1554    0.6658 C   0  0  0  0  0  0  0  0  0  0  0  0
   -0.6832   -2.8764    1.0638 O   0  0  0  0  0  0  0  0  0  0  0  0
   -1.3952   -0.9084    0.2428 N   0  0  0  0  0  0  0  0  0  0  0  0
   -2.1972   -0.3644   -0.0422 H   0  0  0  0  0  0  0  0  0  0  0  0
   -0.1122   -0.1994    0.2658 C   0  0  1  0  0  0  0  0  0  0  0  0
    0.0381    0.2784   -0.7057 H   0  0  0  0  0  0  0  0  0  0  0  0
   -0.1684    0.8938    1.3561 C   0  0  0  0  0  0  0  0  0  0  0  0
   -0.5366    0.4556    2.2830 H   0  0  0  0  0  0  0  0  0  0  0  0
    0.8358    1.2761    1.5334 H   0  0  0  0  0  0  0  0  0  0  0  0
   -1.0907    2.0548    1.0207 C   0  0  0  0  0  0  0  0  0  0  0  0
   -1.1478    2.5578   -0.0879 O   0  0  0  0  0  0  0  0  0  0  0  0
   -1.8469    2.5320    1.9792 N   0  0  0  0  0  0  0  0  0  0  0  0
   -2.4587    3.2872    1.7241 H   0  0  0  0  0  0  0  0  0  0  0  0
   -1.8324    2.1235    2.8946 H   0  0  0  0  0  0  0  0  0  0  0  0
    1.0401   -1.2033    0.4900 C   0  0  0  0  0  0  0  0  0  0  0  0
    1.7772   -1.0837    1.4686 O   0  0  0  0  0  0  0  0  0  0  0  0
    1.2017   -2.1772   -0.4110 N   0  0  0  0  0  0  0  0  0  0  0  0
    0.5979   -2.1572   -1.2267 H   0  0  0  0  0  0  0  0  0  0  0  0
    2.2329   -3.2106   -0.3373 C   0  0  0  0  0  0  0  0  0  0  0  0
    2.1504   -3.7458    0.6112 H   0  0  0  0  0  0  0  0  0  0  0  0
    2.1149   -3.9166   -1.1604 H   0  0  0  0  0  0  0  0  0  0  0  0
    3.2207   -2.7503   -0.3952 H   0  0  0  0  0  0  0  0  0  0  0  0
  5  6  2  0  0  0  0
  5  7  1  0  0  0  0
  2  3  1  0  0  0  0
  2  4  1  0  0  0  0
  2  5  1  0  0  0  0
  1  2  1  0  0  0  0
 19 20  2  0  0  0  0
 19 21  1  0  0  0  0
 16 17  1  0  0  0  0
 16 18  1  0  0  0  0
 14 15  2  0  0  0  0
 14 16  1  0  0  0  0
 11 12  1  0  0  0  0
 11 13  1  0  0  0  0
 11 14  1  0  0  0  0
  9 10  1  0  0  0  0
  9 11  1  0  0  0  0
  9 19  1  0  0  0  0
  7  8  1  0  0  0  0
  7  9  1  0  0  0  0
 23 24  1  0  0  0  0
 23 25  1  0  0  0  0
 23 26  1  0  0  0  0
 21 22  1  0  0  0  0
 21 23  1  0  0  0  0
M  END
$$$$
default_name
  -OEChem-01062215323D

 26 25  0     1  0  0  0  0  0999 V2000
   -3.0232   -3.6924    1.0038 H   0  0  0  0  0  0  0  0  0  0  0  0
   -3.0082   -2.6684    0.6318 C   0  0  0  0  0  0  0  0  0  0  0  0
   -3.6332   -2.0414    1.2658 H   0  0  0  0  0  0  0  0  0  0  0  0
   -3.3762   -2.6444   -0.3912 H   0  0  0  0  0  0  0  0  0  0  0  0
   -1.5882   -2.1554    0.6658 C   0  0  0  0  0  0  0  0  0  0  0  0
   -0.6832   -2.8764    1.0638 O   0  0  0  0  0  0  0  0  0  0  0  0
   -1.3952   -0.9084    0.2428 N   0  0  0  0  0  0  0  0  0  0  0  0
   -2.1972   -0.3644   -0.0422 H   0  0  0  0  0  0  0  0  0  0  0  0
   -0.1122   -0.1994    0.2658 C   0  0  1  0  0  0  0  0  0  0  0  0
    0.0381    0.2784   -0.7057 H   0  0  0  0  0  0  0  0  0  0  0  0
   -0.1684    0.8938    1.3561 C   0  0  0  0  0  0  0  0  0  0  0  0
   -0.5366    0.4556    2.2830 H   0  0  0  0  0  0  0  0  0  0  0  0
    0.8358    1.2761    1.5334 H   0  0  0  0  0  0  0  0  0  0  0  0
   -1.0907    2.0548    1.0207 C   0  0  0  0  0  0  0  0  0  0  0  0
   -1.1478    2.5578   -0.0879 O   0  0  0  0  0  0  0  0  0  0  0  0
   -1.8469    2.5320    1.9792 N   0  0  0  0  0  0  0  0  0  0  0  0
   -2.4587    3.2872    1.7241 H   0  0  0  0  0  0  0  0  0  0  0  0
   -1.8324    2.1235    2.8946 H   0  0  0  0  0  0  0  0  0  0  0  0
    1.0401   -1.2033    0.4900 C   0  0  0  0  0  0  0  0  0  0  0  0
    1.5986   -1.2626    1.5854 O   0  0  0  0  0  0  0  0  0  0  0  0
    1.4002   -1.9778   -0.5380 N   0  0  0  0  0  0  0  0  0  0  0  0
    0.9386   -1.8108   -1.4265 H   0  0  0  0  0  0  0  0  0  0  0  0
    2.4596   -2.9836   -0.4857 C   0  0  0  0  0  0  0  0  0  0  0  0
    2.2512   -3.6961    0.3153 H   0  0  0  0  0  0  0  0  0  0  0  0
    2.5169   -3.5166   -1.4357 H   0  0  0  0  0  0  0  0  0  0  0  0
    3.4171   -2.5002   -0.2845 H   0  0  0  0  0  0  0  0  0  0  0  0
  5  6  2  0  0  0  0
  5  7  1  0  0  0  0
  2  3  1  0  0  0  0
  2  4  1  0  0  0  0
  2  5  1  0  0  0  0
  1  2  1  0  0  0  0
 19 20  2  0  0  0  0
 19 21  1  0  0  0  0
 16 17  1  0  0  0  0
 16 18  1  0  0  0  0
 14 15  2  0  0  0  0
 14 16  1  0  0  0  0
 11 12  1  0  0  0  0
 11 13  1  0  0  0  0
 11 14  1  0  0  0  0
  9 10  1  0  0  0  0
  9 11  1  0  0  0  0
  9 19  1  0  0  0  0
  7  8  1  0  0  0  0
  7  9  1  0  0  0  0
 23 24  1  0  0  0  0
 23 25  1  0  0  0  0
 23 26  1  0  0  0  0
 21 22  1  0  0  0  0
 21 23  1  0  0  0  0
M  END
$$$$
default_name
  -OEChem-01062215323D

 26 25  0     1  0  0  0  0  0999 V2000
   -3.0232   -3.6924    1.0038 H   0  0  0  0  0  0  0  0  0  0  0  0
   -3.0082   -2.6684    0.6318 C   0  0  0  0  0  0  0  0  0  0  0  0
   -3.6332   -2.0414    1.2658 H   0  0  0  0  0  0  0  0  0  0  0  0
   -3.3762   -2.6444   -0.3912 H   0  0  0  0  0  0  0  0  0  0  0  0
   -1.5882   -2.1554    0.6658 C   0  0  0  0  0  0  0  0  0  0  0  0
   -0.6832   -2.8764    1.0638 O   0  0  0  0  0  0  0  0  0  0  0  0
   -1.3952   -0.9084    0.2428 N   0  0  0  0  0  0  0  0  0  0  0  0
   -2.1972   -0.3644   -0.0422 H   0  0  0  0  0  0  0  0  0  0  0  0
   -0.1122   -0.1994    0.2658 C   0  0  1  0  0  0  0  0  0  0  0  0
    0.0381    0.2784   -0.7057 H   0  0  0  0  0  0  0  0  0  0  0  0
   -0.1684    0.8938    1.3561 C   0  0  0  0  0  0  0  0  0  0  0  0
   -0.5366    0.4556    2.2830 H   0  0  0  0  0  0  0  0  0  0  0  0
    0.8358    1.2761    1.5334 H   0  0  0  0  0  0  0  0  0  0  0  0
   -1.0907    2.0548    1.0207 C   0  0  0  0  0  0  0  0  0  0  0  0
   -1.1478    2.5578   -0.0879 O   0  0  0  0  0  0  0  0  0  0  0  0
   -1.8469    2.5320    1.9792 N   0  0  0  0  0  0  0  0  0  0  0  0
   -2.4587    3.2872    1.7241 H   0  0  0  0  0  0  0  0  0  0  0  0
   -1.8324    2.1235    2.8946 H   0  0  0  0  0  0  0  0  0  0  0  0
    1.0401   -1.2033    0.4900 C   0  0  0  0  0  0  0  0  0  0  0  0
    1.4131   -1.4647    1.6337 O   0  0  0  0  0  0  0  0  0  0  0  0
    1.6058   -1.7532   -0.5889 N   0  0  0  0  0  0  0  0  0  0  0  0
    1.2883   -1.4248   -1.4954 H   0  0  0  0  0  0  0  0  0  0  0  0
    2.6950   -2.7272   -0.5471 C   0  0  0  0  0  0  0  0  0  0  0  0
    2.3964   -3.5873    0.0561 H   0  0  0  0  0  0  0  0  0  0  0  0
    2.9366   -3.0620   -1.5568 H   0  0  0  0  0  0  0  0  0  0  0  0
    3.5787   -2.2727   -0.0962 H   0  0  0  0  0  0  0  0  0  0  0  0
  5  6  2  0  0  0  0
  5  7  1  0  0  0  0
  2  3  1  0  0  0  0
  2  4  1  0  0  0  0
  2  5  1  0  0  0  0
  1  2  1  0  0  0  0
 19 20  2  0  0  0  0
 19 21  1  0  0  0  0
 16 17  1  0  0  0  0
 16 18  1  0  0  0  0
 14 15  2  0  0  0  0
 14 16  1  0  0  0  0
 11 12  1  0  0  0  0
 11 13  1  0  0  0  0
 11 14  1  0  0  0  0
  9 10  1  0  0  0  0
  9 11  1  0  0  0  0
  9 19  1  0  0  0  0
  7  8  1  0  0  0  0
  7  9  1  0  0  0  0
 23 24  1  0  0  0  0
 23 25  1  0  0  0  0
 23 26  1  0  0  0  0
 21 22  1  0  0  0  0
 21 23  1  0  0  0  0
M  END
$$$$
default_name
  -OEChem-01062215323D

 26 25  0     1  0  0  0  0  0999 V2000
   -3.0232   -3.6924    1.0038 H   0  0  0  0  0  0  0  0  0  0  0  0
   -3.0082   -2.6684    0.6318 C   0  0  0  0  0  0  0  0  0  0  0  0
   -3.6332   -2.0414    1.2658 H   0  0  0  0  0  0  0  0  0  0  0  0
   -3.3762   -2.6444   -0.3912 H   0  0  0  0  0  0  0  0  0  0  0  0
   -1.5882   -2.1554    0.6658 C   0  0  0  0  0  0  0  0  0  0  0  0
   -0.6832   -2.8764    1.0638 O   0  0  0  0  0  0  0  0  0  0  0  0
   -1.3952   -0.9084    0.2428 N   0  0  0  0  0  0  0  0  0  0  0  0
   -2.1972   -0.3644   -0.0422 H   0  0  0  0  0  0  0  0  0  0  0  0
   -0.1122   -0.1994    0.2658 C   0  0  1  0  0  0  0  0  0  0  0  0
    0.0381    0.2784   -0.7057 H   0  0  0  0  0  0  0  0  0  0  0  0
   -0.1684    0.8938    1.3561 C   0  0  0  0  0  0  0  0  0  0  0  0
   -0.5366    0.4556    2.2830 H   0  0  0  0  0  0  0  0  0  0  0  0
    0.8358    1.2761    1.5334 H   0  0  0  0  0  0  0  0  0  0  0  0
   -1.0907    2.0548    1.0207 C   0  0  0  0  0  0  0  0  0  0  0  0
   -1.1478    2.5578   -0.0879 O   0  0  0  0  0  0  0  0  0  0  0  0
   -1.8469    2.5320    1.9792 N   0  0  0  0  0  0  0  0  0  0  0  0
   -2.4587    3.2872    1.7241 H   0  0  0  0  0  0  0  0  0  0  0  0
   -1.8324    2.1235    2.8946 H   0  0  0  0  0  0  0  0  0  0  0  0
    1.0401   -1.2033    0.4900 C   0  0  0  0  0  0  0  0  0  0  0  0
    1.2334   -1.6762    1.6100 O   0  0  0  0  0  0  0  0  0  0  0  0
    1.8045   -1.5187   -0.5600 N   0  0  0  0  0  0  0  0  0  0  0  0
    1.6232   -1.0255   -1.4285 H   0  0  0  0  0  0  0  0  0  0  0  0
    2.9230   -2.4588   -0.5173 C   0  0  0  0  0  0  0  0  0  0  0  0
    2.5763   -3.4267   -0.1489 H   0  0  0  0  0  0  0  0  0  0  0  0
    3.3452   -2.5838   -1.5154 H   0  0  0  0  0  0  0  0  0  0  0  0
    3.6946   -2.0831    0.1568 H   0  0  0  0  0  0  0  0  0  0  0  0
  5  6  2  0  0  0  0
  5  7  1  0  0  0  0
  2  3  1  0  0  0  0
  2  4  1  0  0  0  0
  2  5  1  0  0  0  0
  1  2  1  0  0  0  0
 19 20  2  0  0  0  0
 19 21  1  0  0  0  0
 16 17  1  0  0  0  0
 16 18  1  0  0  0  0
 14 15  2  0  0  0  0
 14 16  1  0  0  0  0
 11 12  1  0  0  0  0
 11 13  1  0  0  0  0
 11 14  1  0  0  0  0
  9 10  1  0  0  0  0
  9 11  1  0  0  0  0
  9 19  1  0  0  0  0
  7  8  1  0  0  0  0
  7  9  1  0  0  0  0
 23 24  1  0  0  0  0
 23 25  1  0  0  0  0
 23 26  1  0  0  0  0
 21 22  1  0  0  0  0
 21 23  1  0  0  0  0
M  END
$$$$
default_name
  -OEChem-01062215323D

 26 25  0     1  0  0  0  0  0999 V2000
   -3.0232   -3.6924    1.0038 H   0  0  0  0  0  0  0  0  0  0  0  0
   -3.0082   -2.6684    0.6318 C   0  0  0  0  0  0  0  0  0  0  0  0
   -3.6332   -2.0414    1.2658 H   0  0  0  0  0  0  0  0  0  0  0  0
   -3.3762   -2.6444   -0.3912 H   0  0  0  0  0  0  0  0  0  0  0  0
   -1.5882   -2.1554    0.6658 C   0  0  0  0  0  0  0  0  0  0  0  0
   -0.6832   -2.8764    1.0638 O   0  0  0  0  0  0  0  0  0  0  0  0
   -1.3952   -0.9084    0.2428 N   0  0  0  0  0  0  0  0  0  0  0  0
   -2.1972   -0.3644   -0.0422 H   0  0  0  0  0  0  0  0  0  0  0  0
   -0.1122   -0.1994    0.2658 C   0  0  1  0  0  0  0  0  0  0  0  0
    0.0381    0.2784   -0.7057 H   0  0  0  0  0  0  0  0  0  0  0  0
   -0.1684    0.8938    1.3561 C   0  0  0  0  0  0  0  0  0  0  0  0
   -0.5366    0.4556    2.2830 H   0  0  0  0  0  0  0  0  0  0  0  0
    0.8358    1.2761    1.5334 H   0  0  0  0  0  0  0  0  0  0  0  0
   -1.0907    2.0548    1.0207 C   0  0  0  0  0  0  0  0  0  0  0  0
   -1.1478    2.5578   -0.0879 O   0  0  0  0  0  0  0  0  0  0  0  0
   -1.8469    2.5320    1.9792 N   0  0  0  0  0  0  0  0  0  0  0  0
   -2.4587    3.2872    1.7241 H   0  0  0  0  0  0  0  0  0  0  0  0
   -1.8324    2.1235    2.8946 H   0  0  0  0  0  0  0  0  0  0  0  0
    1.0401   -1.2033    0.4900 C   0  0  0  0  0  0  0  0  0  0  0  0
    1.0718   -1.8827    1.5161 O   0  0  0  0  0  0  0  0  0  0  0  0
    1.9827   -1.2903   -0.4534 N   0  0  0  0  0  0  0  0  0  0  0  0
    1.9205   -0.6402   -1.2305 H   0  0  0  0  0  0  0  0  0  0  0  0
    3.1282   -2.1968   -0.3984 C   0  0  0  0  0  0  0  0  0  0  0  0
    2.7784   -3.2252   -0.2856 H   0  0  0  0  0  0  0  0  0  0  0  0
    3.7150   -2.1145   -1.3143 H   0  0  0  0  0  0  0  0  0  0  0  0
    3.7569   -1.9446    0.4572 H   0  0  0  0  0  0  0  0  0  0  0  0
  5  6  2  0  0  0  0
  5  7  1  0  0  0  0
  2  3  1  0  0  0  0
  2  4  1  0  0  0  0
  2  5  1  0  0  0  0
  1  2  1  0  0  0  0
 19 20  2  0  0  0  0
 19 21  1  0  0  0  0
 16 17  1  0  0  0  0
 16 18  1  0  0  0  0
 14 15  2  0  0  0  0
 14 16  1  0  0  0  0
 11 12  1  0  0  0  0
 11 13  1  0  0  0  0
 11 14  1  0  0  0  0
  9 10  1  0  0  0  0
  9 11  1  0  0  0  0
  9 19  1  0  0  0  0
  7  8  1  0  0  0  0
  7  9  1  0  0  0  0
 23 24  1  0  0  0  0
 23 25  1  0  0  0  0
 23 26  1  0  0  0  0
 21 22  1  0  0  0  0
 21 23  1  0  0  0  0
M  END
$$$$
default_name
  -OEChem-01062215323D

 26 25  0     1  0  0  0  0  0999 V2000
   -3.0232   -3.6924    1.0038 H   0  0  0  0  0  0  0  0  0  0  0  0
   -3.0082   -2.6684    0.6318 C   0  0  0  0  0  0  0  0  0  0  0  0
   -3.6332   -2.0414    1.2658 H   0  0  0  0  0  0  0  0  0  0  0  0
   -3.3762   -2.6444   -0.3912 H   0  0  0  0  0  0  0  0  0  0  0  0
   -1.5882   -2.1554    0.6658 C   0  0  0  0  0  0  0  0  0  0  0  0
   -0.6832   -2.8764    1.0638 O   0  0  0  0  0  0  0  0  0  0  0  0
   -1.3952   -0.9084    0.2428 N   0  0  0  0  0  0  0  0  0  0  0  0
   -2.1972   -0.3644   -0.0422 H   0  0  0  0  0  0  0  0  0  0  0  0
   -0.1122   -0.1994    0.2658 C   0  0  1  0  0  0  0  0  0  0  0  0
    0.0381    0.2784   -0.7057 H   0  0  0  0  0  0  0  0  0  0  0  0
   -0.1684    0.8938    1.3561 C   0  0  0  0  0  0  0  0  0  0  0  0
   -0.5366    0.4556    2.2830 H   0  0  0  0  0  0  0  0  0  0  0  0
    0.8358    1.2761    1.5334 H   0  0  0  0  0  0  0  0  0  0  0  0
   -1.0907    2.0548    1.0207 C   0  0  0  0  0  0  0  0  0  0  0  0
   -1.1478    2.5578   -0.0879 O   0  0  0  0  0  0  0  0  0  0  0  0
   -1.8469    2.5320    1.9792 N   0  0  0  0  0  0  0  0  0  0  0  0
   -2.4587    3.2872    1.7241 H   0  0  0  0  0  0  0  0  0  0  0  0
   -1.8324    2.1235    2.8946 H   0  0  0  0  0  0  0  0  0  0  0  0
    1.0401   -1.2033    0.4900 C   0  0  0  0  0  0  0  0  0  0  0  0
    0.9392   -2.0701    1.3584 O   0  0  0  0  0  0  0  0  0  0  0  0
    2.1284   -1.0836   -0.2764 N   0  0  0  0  0  0  0  0  0  0  0  0
    2.1598   -0.2950   -0.9148 H   0  0  0  0  0  0  0  0  0  0  0  0
    3.2965   -1.9589   -0.1984 C   0  0  0  0  0  0  0  0  0  0  0  0
    2.9891   -2.9966   -0.3447 H   0  0  0  0  0  0  0  0  0  0  0  0
    4.0207   -1.6861   -0.9672 H   0  0  0  0  0  0  0  0  0  0  0  0
    3.7614   -1.8664    0.7846 H   0  0  0  0  0  0  0  0  0  0  0  0
  5  6  2  0  0  0  0
  5  7  1  0  0  0  0
  2  3  1  0  0  0  0
  2  4  1  0  0  0  0
  2  5  1  0  0  0  0
  1  2  1  0  0  0  0
 19 20  2  0  0  0  0
 19 21  1  0  0  0  0
 16 17  1  0  0  0  0
 16 18  1  0  0  0  0
 14 15  2  0  0  0  0
 14 16  1  0  0  0  0
 11 12  1  0  0  0  0
 11 13  1  0  0  0  0
 11 14  1  0  0  0  0
  9 10  1  0  0  0  0
  9 11  1  0  0  0  0
  9 19  1  0  0  0  0
  7  8  1  0  0  0  0
  7  9  1  0  0  0  0
 23 24  1  0  0  0  0
 23 25  1  0  0  0  0
 23 26  1  0  0  0  0
 21 22  1  0  0  0  0
 21 23  1  0  0  0  0
M  END
$$$$
default_name
  -OEChem-01062215323D

 26 25  0     1  0  0  0  0  0999 V2000
   -3.0232   -3.6924    1.0038 H   0  0  0  0  0  0  0  0  0  0  0  0
   -3.0082   -2.6684    0.6318 C   0  0  0  0  0  0  0  0  0  0  0  0
   -3.6332   -2.0414    1.2658 H   0  0  0  0  0  0  0  0  0  0  0  0
   -3.3762   -2.6444   -0.3912 H   0  0  0  0  0  0  0  0  0  0  0  0
   -1.5882   -2.1554    0.6658 C   0  0  0  0  0  0  0  0  0  0  0  0
   -0.6832   -2.8764    1.0638 O   0  0  0  0  0  0  0  0  0  0  0  0
   -1.3952   -0.9084    0.2428 N   0  0  0  0  0  0  0  0  0  0  0  0
   -2.1972   -0.3644   -0.0422 H   0  0  0  0  0  0  0  0  0  0  0  0
   -0.1122   -0.1994    0.2658 C   0  0  1  0  0  0  0  0  0  0  0  0
    0.0381    0.2784   -0.7057 H   0  0  0  0  0  0  0  0  0  0  0  0
   -0.1684    0.8938    1.3561 C   0  0  0  0  0  0  0  0  0  0  0  0
   -0.5366    0.4556    2.2830 H   0  0  0  0  0  0  0  0  0  0  0  0
    0.8358    1.2761    1.5334 H   0  0  0  0  0  0  0  0  0  0  0  0
   -1.0907    2.0548    1.0207 C   0  0  0  0  0  0  0  0  0  0  0  0
   -1.1478    2.5578   -0.0879 O   0  0  0  0  0  0  0  0  0  0  0  0
   -1.8469    2.5320    1.9792 N   0  0  0  0  0  0  0  0  0  0  0  0
   -2.4587    3.2872    1.7241 H   0  0  0  0  0  0  0  0  0  0  0  0
   -1.8324    2.1235    2.8946 H   0  0  0  0  0  0  0  0  0  0  0  0
    1.0401   -1.2033    0.4900 C   0  0  0  0  0  0  0  0  0  0  0  0
    0.8447   -2.2256    1.1475 O   0  0  0  0  0  0  0  0  0  0  0  0
    2.2316   -0.9126   -0.0410 N   0  0  0  0  0  0  0  0  0  0  0  0
    2.3249   -0.0136   -0.5030 H   0  0  0  0  0  0  0  0  0  0  0  0
    3.4165   -1.7614    0.0691 C   0  0  0  0  0  0  0  0  0  0  0  0
    3.1940   -2.7565   -0.3223 H   0  0  0  0  0  0  0  0  0  0  0  0
    4.2416   -1.3278   -0.4978 H   0  0  0  0  0  0  0  0  0  0  0  0
    3.7076   -1.8539    1.1168 H   0  0  0  0  0  0  0  0  0  0  0  0
  5  6  2  0  0  0  0
  5  7  1  0  0  0  0
  2  3  1  0  0  0  0
  2  4  1  0  0  0  0
  2  5  1  0  0  0  0
  1  2  1  0  0  0  0
 19 20  2  0  0  0  0
 19 21  1  0  0  0  0
 16 17  1  0  0  0  0
 16 18  1  0  0  0  0
 14 15  2  0  0  0  0
 14 16  1  0  0  0  0
 11 12  1  0  0  0  0
 11 13  1  0  0  0  0
 11 14  1  0  0  0  0
  9 10  1  0  0  0  0
  9 11  1  0  0  0  0
  9 19  1  0  0  0  0
  7  8  1  0  0  0  0
  7  9  1  0  0  0  0
 23 24  1  0  0  0  0
 23 25  1  0  0  0  0
 23 26  1  0  0  0  0
 21 22  1  0  0  0  0
 21 23  1  0  0  0  0
M  END
$$$$
default_name
  -OEChem-01062215323D

 26 25  0     1  0  0  0  0  0999 V2000
   -3.0232   -3.6924    1.0038 H   0  0  0  0  0  0  0  0  0  0  0  0
   -3.0082   -2.6684    0.6318 C   0  0  0  0  0  0  0  0  0  0  0  0
   -3.6332   -2.0414    1.2658 H   0  0  0  0  0  0  0  0  0  0  0  0
   -3.3762   -2.6444   -0.3912 H   0  0  0  0  0  0  0  0  0  0  0  0
   -1.5882   -2.1554    0.6658 C   0  0  0  0  0  0  0  0  0  0  0  0
   -0.6832   -2.8764    1.0638 O   0  0  0  0  0  0  0  0  0  0  0  0
   -1.3952   -0.9084    0.2428 N   0  0  0  0  0  0  0  0  0  0  0  0
   -2.1972   -0.3644   -0.0422 H   0  0  0  0  0  0  0  0  0  0  0  0
   -0.1122   -0.1994    0.2658 C   0  0  1  0  0  0  0  0  0  0  0  0
    0.0381    0.2784   -0.7057 H   0  0  0  0  0  0  0  0  0  0  0  0
   -0.1684    0.8938    1.3561 C   0  0  0  0  0  0  0  0  0  0  0  0
   -0.5366    0.4556    2.2830 H   0  0  0  0  0  0  0  0  0  0  0  0
    0.8358    1.2761    1.5334 H   0  0  0  0  0  0  0  0  0  0  0  0
   -1.0907    2.0548    1.0207 C   0  0  0  0  0  0  0  0  0  0  0  0
   -1.1478    2.5578   -0.0879 O   0  0  0  0  0  0  0  0  0  0  0  0
   -1.8469    2.5320    1.9792 N   0  0  0  0  0  0  0  0  0  0  0  0
   -2.4587    3.2872    1.7241 H   0  0  0  0  0  0  0  0  0  0  0  0
   -1.8324    2.1235    2.8946 H   0  0  0  0  0  0  0  0  0  0  0  0
    1.0401   -1.2033    0.4900 C   0  0  0  0  0  0  0  0  0  0  0  0
    0.7948   -2.3386    0.8979 O   0  0  0  0  0  0  0  0  0  0  0  0
    2.2852   -0.7890    0.2367 N   0  0  0  0  0  0  0  0  0  0  0  0
    2.4045    0.1849   -0.0231 H   0  0  0  0  0  0  0  0  0  0  0  0
    3.4801   -1.6178    0.3857 C   0  0  0  0  0  0  0  0  0  0  0  0
    3.3791   -2.5211   -0.2198 H   0  0  0  0  0  0  0  0  0  0  0  0
    4.3624   -1.0641    0.0618 H   0  0  0  0  0  0  0  0  0  0  0  0
    3.5994   -1.9080    1.4309 H   0  0  0  0  0  0  0  0  0  0  0  0
  5  6  2  0  0  0  0
  5  7  1  0  0  0  0
  2  3  1  0  0  0  0
  2  4  1  0  0  0  0
  2  5  1  0  0  0  0
  1  2  1  0  0  0  0
 19 20  2  0  0  0  0
 19 21  1  0  0  0  0
 16 17  1  0  0  0  0
 16 18  1  0  0  0  0
 14 15  2  0  0  0  0
 14 16  1  0  0  0  0
 11 12  1  0  0  0  0
 11 13  1  0  0  0  0
 11 14  1  0  0  0  0
  9 10  1  0  0  0  0
  9 11  1  0  0  0  0
  9 19  1  0  0  0  0
  7  8  1  0  0  0  0
  7  9  1  0  0  0  0
 23 24  1  0  0  0  0
 23 25  1  0  0  0  0
 23 26  1  0  0  0  0
 21 22  1  0  0  0  0
 21 23  1  0  0  0  0
M  END
$$$$
default_name
  -OEChem-01062215323D

 26 25  0     1  0  0  0  0  0999 V2000
   -3.0232   -3.6924    1.0038 H   0  0  0  0  0  0  0  0  0  0  0  0
   -3.0082   -2.6684    0.6318 C   0  0  0  0  0  0  0  0  0  0  0  0
   -3.6332   -2.0414    1.2658 H   0  0  0  0  0  0  0  0  0  0  0  0
   -3.3762   -2.6444   -0.3912 H   0  0  0  0  0  0  0  0  0  0  0  0
   -1.5882   -2.1554    0.6658 C   0  0  0  0  0  0  0  0  0  0  0  0
   -0.6832   -2.8764    1.0638 O   0  0  0  0  0  0  0  0  0  0  0  0
   -1.3952   -0.9084    0.2428 N   0  0  0  0  0  0  0  0  0  0  0  0
   -2.1972   -0.3644   -0.0422 H   0  0  0  0  0  0  0  0  0  0  0  0
   -0.1122   -0.1994    0.2658 C   0  0  1  0  0  0  0  0  0  0  0  0
   -0.0802    0.4885   -0.5830 H   0  0  0  0  0  0  0  0  0  0  0  0
   -0.0196    0.6176    1.5739 C   0  0  0  0  0  0  0  0  0  0  0  0
   -0.2730   -0.0258    2.4157 H   0  0  0  0  0  0  0  0  0  0  0  0
    1.0028    0.9684    1.7066 H   0  0  0  0  0  0  0  0  0  0  0  0
   -0.9647    1.8070    1.6281 C   0  0  0  0  0  0  0  0  0  0  0  0
   -1.1554    2.5467    0.6785 O   0  0  0  0  0  0  0  0  0  0  0  0
   -1.5895    2.0410    2.7566 N   0  0  0  0  0  0  0  0  0  0  0  0
   -2.2206    2.8228    2.7576 H   0  0  0  0  0  0  0  0  0  0  0  0
   -1.4643    1.4363    3.5463 H   0  0  0  0  0  0  0  0  0  0  0  0
    1.0486   -1.2066    0.1110 C   0  0  0  0  0  0  0  0  0  0  0  0
    0.8081   -2.4089    0.0021 O   0  0  0  0  0  0  0  0  0  0  0  0
    2.2953   -0.7249    0.1113 N   0  0  0  0  0  0  0  0  0  0  0  0
    2.4067    0.2695    0.2823 H   0  0  0  0  0  0  0  0  0  0  0  0
    3.4985   -1.5415   -0.0377 C   0  0  0  0  0  0  0  0  0  0  0  0
    3.4419   -2.1142   -0.9659 H   0  0  0  0  0  0  0  0  0  0  0  0
    4.3832   -0.9036   -0.0615 H   0  0  0  0  0  0  0  0  0  0  0  0
    3.5776   -2.2373    0.7993 H   0  0  0  0  0  0  0  0  0  0  0  0
  5  6  2  0  0  0  0
  5  7  1  0  0  0  0
  2  3  1  0  0  0  0
  2  4  1  0  0  0  0
  2  5  1  0  0  0  0
  1  2  1  0  0  0  0
 19 20  2  0  0  0  0
 19 21  1  0  0  0  0
 16 17  1  0  0  0  0
 16 18  1  0  0  0  0
 14 15  2  0  0  0  0
 14 16  1  0  0  0  0
 11 12  1  0  0  0  0
 11 13  1  0  0  0  0
 11 14  1  0  0  0  0
  9 10  1  0  0  0  0
  9 11  1  0  0  0  0
  9 19  1  0  0  0  0
  7  8  1  0  0  0  0
  7  9  1  0  0  0  0
 23 24  1  0  0  0  0
 23 25  1  0  0  0  0
 23 26  1  0  0  0  0
 21 22  1  0  0  0  0
 21 23  1  0  0  0  0
M  END
$$$$
default_name
  -OEChem-01062215323D

 26 25  0     1  0  0  0  0  0999 V2000
   -3.0232   -3.6924    1.0038 H   0  0  0  0  0  0  0  0  0  0  0  0
   -3.0082   -2.6684    0.6318 C   0  0  0  0  0  0  0  0  0  0  0  0
   -3.6332   -2.0414    1.2658 H   0  0  0  0  0  0  0  0  0  0  0  0
   -3.3762   -2.6444   -0.3912 H   0  0  0  0  0  0  0  0  0  0  0  0
   -1.5882   -2.1554    0.6658 C   0  0  0  0  0  0  0  0  0  0  0  0
   -0.6832   -2.8764    1.0638 O   0  0  0  0  0  0  0  0  0  0  0  0
   -1.3952   -0.9084    0.2428 N   0  0  0  0  0  0  0  0  0  0  0  0
   -2.1972   -0.3644   -0.0422 H   0  0  0  0  0  0  0  0  0  0  0  0
   -0.1122   -0.1994    0.2658 C   0  0  1  0  0  0  0  0  0  0  0  0
   -0.0802    0.4885   -0.5830 H   0  0  0  0  0  0  0  0  0  0  0  0
   -0.0196    0.6176    1.5739 C   0  0  0  0  0  0  0  0  0  0  0  0
   -0.2730   -0.0258    2.4157 H   0  0  0  0  0  0  0  0  0  0  0  0
    1.0028    0.9684    1.7066 H   0  0  0  0  0  0  0  0  0  0  0  0
   -0.9647    1.8070    1.6281 C   0  0  0  0  0  0  0  0  0  0  0  0
   -1.1554    2.5467    0.6785 O   0  0  0  0  0  0  0  0  0  0  0  0
   -1.5895    2.0410    2.7566 N   0  0  0  0  0  0  0  0  0  0  0  0
   -2.2206    2.8228    2.7576 H   0  0  0  0  0  0  0  0  0  0  0  0
   -1.4643    1.4363    3.5463 H   0  0  0  0  0  0  0  0  0  0  0  0
    1.0486   -1.2066    0.1110 C   0  0  0  0  0  0  0  0  0  0  0  0
    0.8192   -2.3542   -0.2708 O   0  0  0  0  0  0  0  0  0  0  0  0
    2.2812   -0.7875    0.4132 N   0  0  0  0  0  0  0  0  0  0  0  0
    2.3708    0.1497    0.7926 H   0  0  0  0  0  0  0  0  0  0  0  0
    3.4846   -1.6108    0.3086 C   0  0  0  0  0  0  0  0  0  0  0  0
    3.5826   -1.9914   -0.7103 H   0  0  0  0  0  0  0  0  0  0  0  0
    4.3661   -1.0186    0.5581 H   0  0  0  0  0  0  0  0  0  0  0  0
    3.4126   -2.4573    0.9936 H   0  0  0  0  0  0  0  0  0  0  0  0
  5  6  2  0  0  0  0
  5  7  1  0  0  0  0
  2  3  1  0  0  0  0
  2  4  1  0  0  0  0
  2  5  1  0  0  0  0
  1  2  1  0  0  0  0
 19 20  2  0  0  0  0
 19 21  1  0  0  0  0
 16 17  1  0  0  0  0
 16 18  1  0  0  0  0
 14 15  2  0  0  0  0
 14 16  1  0  0  0  0
 11 12  1  0  0  0  0
 11 13  1  0  0  0  0
 11 14  1  0  0  0  0
  9 10  1  0  0  0  0
  9 11  1  0  0  0  0
  9 19  1  0  0  0  0
  7  8  1  0  0  0  0
  7  9  1  0  0  0  0
 23 24  1  0  0  0  0
 23 25  1  0  0  0  0
 23 26  1  0  0  0  0
 21 22  1  0  0  0  0
 21 23  1  0  0  0  0
M  END
$$$$
default_name
  -OEChem-01062215323D

 26 25  0     1  0  0  0  0  0999 V2000
   -3.0232   -3.6924    1.0038 H   0  0  0  0  0  0  0  0  0  0  0  0
   -3.0082   -2.6684    0.6318 C   0  0  0  0  0  0  0  0  0  0  0  0
   -3.6332   -2.0414    1.2658 H   0  0  0  0  0  0  0  0  0  0  0  0
   -3.3762   -2.6444   -0.3912 H   0  0  0  0  0  0  0  0  0  0  0  0
   -1.5882   -2.1554    0.6658 C   0  0  0  0  0  0  0  0  0  0  0  0
   -0.6832   -2.8764    1.0638 O   0  0  0  0  0  0  0  0  0  0  0  0
   -1.3952   -0.9084    0.2428 N   0  0  0  0  0  0  0  0  0  0  0  0
   -2.1972   -0.3644   -0.0422 H   0  0  0  0  0  0  0  0  0  0  0  0
   -0.1122   -0.1994    0.2658 C   0  0  1  0  0  0  0  0  0  0  0  0
   -0.0802    0.4885   -0.5830 H   0  0  0  0  0  0  0  0  0  0  0  0
   -0.0196    0.6176    1.5739 C   0  0  0  0  0  0  0  0  0  0  0  0
   -0.2730   -0.0258    2.4157 H   0  0  0  0  0  0  0  0  0  0  0  0
    1.0028    0.9684    1.7066 H   0  0  0  0  0  0  0  0  0  0  0  0
   -0.9647    1.8070    1.6281 C   0  0  0  0  0  0  0  0  0  0  0  0
   -1.1554    2.5467    0.6785 O   0  0  0  0  0  0  0  0  0  0  0  0
   -1.5895    2.0410    2.7566 N   0  0  0  0  0  0  0  0  0  0  0  0
   -2.2206    2.8228    2.7576 H   0  0  0  0  0  0  0  0  0  0  0  0
   -1.4643    1.4363    3.5463 H   0  0  0  0  0  0  0  0  0  0  0  0
    1.0486   -1.2066    0.1110 C   0  0  0  0  0  0  0  0  0  0  0  0
    0.8774   -2.2485   -0.5218 O   0  0  0  0  0  0  0  0  0  0  0  0
    2.2150   -0.9064    0.6903 N   0  0  0  0  0  0  0  0  0  0  0  0
    2.2470   -0.0643    1.2562 H   0  0  0  0  0  0  0  0  0  0  0  0
    3.4109   -1.7447    0.6273 C   0  0  0  0  0  0  0  0  0  0  0  0
    3.6785   -1.9261   -0.4159 H   0  0  0  0  0  0  0  0  0  0  0  0
    4.2421   -1.2497    1.1313 H   0  0  0  0  0  0  0  0  0  0  0  0
    3.2148   -2.7033    1.1106 H   0  0  0  0  0  0  0  0  0  0  0  0
  5  6  2  0  0  0  0
  5  7  1  0  0  0  0
  2  3  1  0  0  0  0
  2  4  1  0  0  0  0
  2  5  1  0  0  0  0
  1  2  1  0  0  0  0
 19 20  2  0  0  0  0
 19 21  1  0  0  0  0
 16 17  1  0  0  0  0
 16 18  1  0  0  0  0
 14 15  2  0  0  0  0
 14 16  1  0  0  0  0
 11 12  1  0  0  0  0
 11 13  1  0  0  0  0
 11 14  1  0  0  0  0
  9 10  1  0  0  0  0
  9 11  1  0  0  0  0
  9 19  1  0  0  0  0
  7  8  1  0  0  0  0
  7  9  1  0  0  0  0
 23 24  1  0  0  0  0
 23 25  1  0  0  0  0
 23 26  1  0  0  0  0
 21 22  1  0  0  0  0
 21 23  1  0  0  0  0
M  END
$$$$
default_name
  -OEChem-01062215323D

 26 25  0     1  0  0  0  0  0999 V2000
   -3.0232   -3.6924    1.0038 H   0  0  0  0  0  0  0  0  0  0  0  0
   -3.0082   -2.6684    0.6318 C   0  0  0  0  0  0  0  0  0  0  0  0
   -3.6332   -2.0414    1.2658 H   0  0  0  0  0  0  0  0  0  0  0  0
   -3.3762   -2.6444   -0.3912 H   0  0  0  0  0  0  0  0  0  0  0  0
   -1.5882   -2.1554    0.6658 C   0  0  0  0  0  0  0  0  0  0  0  0
   -0.6832   -2.8764    1.0638 O   0  0  0  0  0  0  0  0  0  0  0  0
   -1.3952   -0.9084    0.2428 N   0  0  0  0  0  0  0  0  0  0  0  0
   -2.1972   -0.3644   -0.0422 H   0  0  0  0  0  0  0  0  0  0  0  0
   -0.1122   -0.1994    0.2658 C   0  0  1  0  0  0  0  0  0  0  0  0
   -0.0802    0.4885   -0.5830 H   0  0  0  0  0  0  0  0  0  0  0  0
   -0.0196    0.6176    1.5739 C   0  0  0  0  0  0  0  0  0  0  0  0
   -0.2730   -0.0258    2.4157 H   0  0  0  0  0  0  0  0  0  0  0  0
    1.0028    0.9684    1.7066 H   0  0  0  0  0  0  0  0  0  0  0  0
   -0.9647    1.8070    1.6281 C   0  0  0  0  0  0  0  0  0  0  0  0
   -1.1554    2.5467    0.6785 O   0  0  0  0  0  0  0  0  0  0  0  0
   -1.5895    2.0410    2.7566 N   0  0  0  0  0  0  0  0  0  0  0  0
   -2.2206    2.8228    2.7576 H   0  0  0  0  0  0  0  0  0  0  0  0
   -1.4643    1.4363    3.5463 H   0  0  0  0  0  0  0  0  0  0  0  0
    1.0486   -1.2066    0.1110 C   0  0  0  0  0  0  0  0  0  0  0  0
    0.9787   -2.0991   -0.7339 O   0  0  0  0  0  0  0  0  0  0  0  0
    2.1013   -1.0734    0.9237 N   0  0  0  0  0  0  0  0  0  0  0  0
    2.0436   -0.3580    1.6414 H   0  0  0  0  0  0  0  0  0  0  0  0
    3.2824   -1.9342    0.8966 C   0  0  0  0  0  0  0  0  0  0  0  0
    3.7231   -1.9228   -0.1026 H   0  0  0  0  0  0  0  0  0  0  0  0
    4.0195   -1.5812    1.6192 H   0  0  0  0  0  0  0  0  0  0  0  0
    2.9976   -2.9586    1.1425 H   0  0  0  0  0  0  0  0  0  0  0  0
  5  6  2  0  0  0  0
  5  7  1  0  0  0  0
  2  3  1  0  0  0  0
  2  4  1  0  0  0  0
  2  5  1  0  0  0  0
  1  2  1  0  0  0  0
 19 20  2  0  0  0  0
 19 21  1  0  0  0  0
 16 17  1  0  0  0  0
 16 18  1  0  0  0  0
 14 15  2  0  0  0  0
 14 16  1  0  0  0  0
 11 12  1  0  0  0  0
 11 13  1  0  0  0  0
 11 14  1  0  0  0  0
  9 10  1  0  0  0  0
  9 11  1  0  0  0  0
  9 19  1  0  0  0  0
  7  8  1  0  0  0  0
  7  9  1  0  0  0  0
 23 24  1  0  0  0  0
 23 25  1  0  0  0  0
 23 26  1  0  0  0  0
 21 22  1  0  0  0  0
 21 23  1  0  0  0  0
M  END
$$$$
default_name
  -OEChem-01062215323D

 26 25  0     1  0  0  0  0  0999 V2000
   -3.0232   -3.6924    1.0038 H   0  0  0  0  0  0  0  0  0  0  0  0
   -3.0082   -2.6684    0.6318 C   0  0  0  0  0  0  0  0  0  0  0  0
   -3.6332   -2.0414    1.2658 H   0  0  0  0  0  0  0  0  0  0  0  0
   -3.3762   -2.6444   -0.3912 H   0  0  0  0  0  0  0  0  0  0  0  0
   -1.5882   -2.1554    0.6658 C   0  0  0  0  0  0  0  0  0  0  0  0
   -0.6832   -2.8764    1.0638 O   0  0  0  0  0  0  0  0  0  0  0  0
   -1.3952   -0.9084    0.2428 N   0  0  0  0  0  0  0  0  0  0  0  0
   -2.1972   -0.3644   -0.0422 H   0  0  0  0  0  0  0  0  0  0  0  0
   -0.1122   -0.1994    0.2658 C   0  0  1  0  0  0  0  0  0  0  0  0
   -0.0802    0.4885   -0.5830 H   0  0  0  0  0  0  0  0  0  0  0  0
   -0.0196    0.6176    1.5739 C   0  0  0  0  0  0  0  0  0  0  0  0
   -0.2730   -0.0258    2.4157 H   0  0  0  0  0  0  0  0  0  0  0  0
    1.0028    0.9684    1.7066 H   0  0  0  0  0  0  0  0  0  0  0  0
   -0.9647    1.8070    1.6281 C   0  0  0  0  0  0  0  0  0  0  0  0
   -1.1554    2.5467    0.6785 O   0  0  0  0  0  0  0  0  0  0  0  0
   -1.5895    2.0410    2.7566 N   0  0  0  0  0  0  0  0  0  0  0  0
   -2.2206    2.8228    2.7576 H   0  0  0  0  0  0  0  0  0  0  0  0
   -1.4643    1.4363    3.5463 H   0  0  0  0  0  0  0  0  0  0  0  0
    1.0486   -1.2066    0.1110 C   0  0  0  0  0  0  0  0  0  0  0  0
    1.1163   -1.9162   -0.8926 O   0  0  0  0  0  0  0  0  0  0  0  0
    1.9476   -1.2771    1.0974 N   0  0  0  0  0  0  0  0  0  0  0  0
    1.7744   -0.7113    1.9221 H   0  0  0  0  0  0  0  0  0  0  0  0
    3.1080   -2.1662    1.0982 C   0  0  0  0  0  0  0  0  0  0  0  0
    3.7134   -1.9817    0.2082 H   0  0  0  0  0  0  0  0  0  0  0  0
    3.7136   -1.9905    1.9883 H   0  0  0  0  0  0  0  0  0  0  0  0
    2.7758   -3.2057    1.0869 H   0  0  0  0  0  0  0  0  0  0  0  0
  5  6  2  0  0  0  0
  5  7  1  0  0  0  0
  2  3  1  0  0  0  0
  2  4  1  0  0  0  0
  2  5  1  0  0  0  0
  1  2  1  0  0  0  0
 19 20  2  0  0  0  0
 19 21  1  0  0  0  0
 16 17  1  0  0  0  0
 16 18  1  0  0  0  0
 14 15  2  0  0  0  0
 14 16  1  0  0  0  0
 11 12  1  0  0  0  0
 11 13  1  0  0  0  0
 11 14  1  0  0  0  0
  9 10  1  0  0  0  0
  9 11  1  0  0  0  0
  9 19  1  0  0  0  0
  7  8  1  0  0  0  0
  7  9  1  0  0  0  0
 23 24  1  0  0  0  0
 23 25  1  0  0  0  0
 23 26  1  0  0  0  0
 21 22  1  0  0  0  0
 21 23  1  0  0  0  0
M  END
$$$$
default_name
  -OEChem-01062215323D

 26 25  0     1  0  0  0  0  0999 V2000
   -3.0232   -3.6924    1.0038 H   0  0  0  0  0  0  0  0  0  0  0  0
   -3.0082   -2.6684    0.6318 C   0  0  0  0  0  0  0  0  0  0  0  0
   -3.6332   -2.0414    1.2658 H   0  0  0  0  0  0  0  0  0  0  0  0
   -3.3762   -2.6444   -0.3912 H   0  0  0  0  0  0  0  0  0  0  0  0
   -1.5882   -2.1554    0.6658 C   0  0  0  0  0  0  0  0  0  0  0  0
   -0.6832   -2.8764    1.0638 O   0  0  0  0  0  0  0  0  0  0  0  0
   -1.3952   -0.9084    0.2428 N   0  0  0  0  0  0  0  0  0  0  0  0
   -2.1972   -0.3644   -0.0422 H   0  0  0  0  0  0  0  0  0  0  0  0
   -0.1122   -0.1994    0.2658 C   0  0  1  0  0  0  0  0  0  0  0  0
   -0.0802    0.4885   -0.5830 H   0  0  0  0  0  0  0  0  0  0  0  0
   -0.0196    0.6176    1.5739 C   0  0  0  0  0  0  0  0  0  0  0  0
   -0.2730   -0.0258    2.4157 H   0  0  0  0  0  0  0  0  0  0  0  0
    1.0028    0.9684    1.7066 H   0  0  0  0  0  0  0  0  0  0  0  0
   -0.9647    1.8070    1.6281 C   0  0  0  0  0  0  0  0  0  0  0  0
   -1.1554    2.5467    0.6785 O   0  0  0  0  0  0  0  0  0  0  0  0
   -1.5895    2.0410    2.7566 N   0  0  0  0  0  0  0  0  0  0  0  0
   -2.2206    2.8228    2.7576 H   0  0  0  0  0  0  0  0  0  0  0  0
   -1.4643    1.4363    3.5463 H   0  0  0  0  0  0  0  0  0  0  0  0
    1.0486   -1.2066    0.1110 C   0  0  0  0  0  0  0  0  0  0  0  0
    1.2807   -1.7122   -0.9871 O   0  0  0  0  0  0  0  0  0  0  0  0
    1.7647   -1.5038    1.1997 N   0  0  0  0  0  0  0  0  0  0  0  0
    1.4580   -1.1002    2.0791 H   0  0  0  0  0  0  0  0  0  0  0  0
    2.8994   -2.4250    1.2184 C   0  0  0  0  0  0  0  0  0  0  0  0
    3.6501   -2.0989    0.4953 H   0  0  0  0  0  0  0  0  0  0  0  0
    3.3452   -2.4497    2.2137 H   0  0  0  0  0  0  0  0  0  0  0  0
    2.5645   -3.4278    0.9477 H   0  0  0  0  0  0  0  0  0  0  0  0
  5  6  2  0  0  0  0
  5  7  1  0  0  0  0
  2  3  1  0  0  0  0
  2  4  1  0  0  0  0
  2  5  1  0  0  0  0
  1  2  1  0  0  0  0
 19 20  2  0  0  0  0
 19 21  1  0  0  0  0
 16 17  1  0  0  0  0
 16 18  1  0  0  0  0
 14 15  2  0  0  0  0
 14 16  1  0  0  0  0
 11 12  1  0  0  0  0
 11 13  1  0  0  0  0
 11 14  1  0  0  0  0
  9 10  1  0  0  0  0
  9 11  1  0  0  0  0
  9 19  1  0  0  0  0
  7  8  1  0  0  0  0
  7  9  1  0  0  0  0
 23 24  1  0  0  0  0
 23 25  1  0  0  0  0
 23 26  1  0  0  0  0
 21 22  1  0  0  0  0
 21 23  1  0  0  0  0
M  END
$$$$
default_name
  -OEChem-01062215323D

 26 25  0     1  0  0  0  0  0999 V2000
   -3.0232   -3.6924    1.0038 H   0  0  0  0  0  0  0  0  0  0  0  0
   -3.0082   -2.6684    0.6318 C   0  0  0  0  0  0  0  0  0  0  0  0
   -3.6332   -2.0414    1.2658 H   0  0  0  0  0  0  0  0  0  0  0  0
   -3.3762   -2.6444   -0.3912 H   0  0  0  0  0  0  0  0  0  0  0  0
   -1.5882   -2.1554    0.6658 C   0  0  0  0  0  0  0  0  0  0  0  0
   -0.6832   -2.8764    1.0638 O   0  0  0  0  0  0  0  0  0  0  0  0
   -1.3952   -0.9084    0.2428 N   0  0  0  0  0  0  0  0  0  0  0  0
   -2.1972   -0.3644   -0.0422 H   0  0  0  0  0  0  0  0  0  0  0  0
   -0.1122   -0.1994    0.2658 C   0  0  1  0  0  0  0  0  0  0  0  0
   -0.0802    0.4885   -0.5830 H   0  0  0  0  0  0  0  0  0  0  0  0
   -0.0196    0.6176    1.5739 C   0  0  0  0  0  0  0  0  0  0  0  0
   -0.2730   -0.0258    2.4157 H   0  0  0  0  0  0  0  0  0  0  0  0
    1.0028    0.9684    1.7066 H   0  0  0  0  0  0  0  0  0  0  0  0
   -0.9647    1.8070    1.6281 C   0  0  0  0  0  0  0  0  0  0  0  0
   -1.1554    2.5467    0.6785 O   0  0  0  0  0  0  0  0  0  0  0  0
   -1.5895    2.0410    2.7566 N   0  0  0  0  0  0  0  0  0  0  0  0
   -2.2206    2.8228    2.7576 H   0  0  0  0  0  0  0  0  0  0  0  0
   -1.4643    1.4363    3.5463 H   0  0  0  0  0  0  0  0  0  0  0  0
    1.0486   -1.2066    0.1110 C   0  0  0  0  0  0  0  0  0  0  0  0
    1.4607   -1.5011   -1.0110 O   0  0  0  0  0  0  0  0  0  0  0  0
    1.5648   -1.7378    1.2235 N   0  0  0  0  0  0  0  0  0  0  0  0
    1.1157   -1.4981    2.1017 H   0  0  0  0  0  0  0  0  0  0  0  0
    2.6710   -2.6930    1.2489 C   0  0  0  0  0  0  0  0  0  0  0  0
    3.5374   -2.2662    0.7391 H   0  0  0  0  0  0  0  0  0  0  0  0
    2.9394   -2.9276    2.2799 H   0  0  0  0  0  0  0  0  0  0  0  0
    2.3781   -3.6098    0.7345 H   0  0  0  0  0  0  0  0  0  0  0  0
  5  6  2  0  0  0  0
  5  7  1  0  0  0  0
  2  3  1  0  0  0  0
  2  4  1  0  0  0  0
  2  5  1  0  0  0  0
  1  2  1  0  0  0  0
 19 20  2  0  0  0  0
 19 21  1  0  0  0  0
 16 17  1  0  0  0  0
 16 18  1  0  0  0  0
 14 15  2  0  0  0  0
 14 16  1  0  0  0  0
 11 12  1  0  0  0  0
 11 13  1  0  0  0  0
 11 14  1  0  0  0  0
  9 10  1  0  0  0  0
  9 11  1  0  0  0  0
  9 19  1  0  0  0  0
  7  8  1  0  0  0  0
  7  9  1  0  0  0  0
 23 24  1  0  0  0  0
 23 25  1  0  0  0  0
 23 26  1  0  0  0  0
 21 22  1  0  0  0  0
 21 23  1  0  0  0  0
M  END
$$$$
default_name
  -OEChem-01062215323D

 26 25  0     1  0  0  0  0  0999 V2000
   -3.0232   -3.6924    1.0038 H   0  0  0  0  0  0  0  0  0  0  0  0
   -3.0082   -2.6684    0.6318 C   0  0  0  0  0  0  0  0  0  0  0  0
   -3.6332   -2.0414    1.2658 H   0  0  0  0  0  0  0  0  0  0  0  0
   -3.3762   -2.6444   -0.3912 H   0  0  0  0  0  0  0  0  0  0  0  0
   -1.5882   -2.1554    0.6658 C   0  0  0  0  0  0  0  0  0  0  0  0
   -0.6832   -2.8764    1.0638 O   0  0  0  0  0  0  0  0  0  0  0  0
   -1.3952   -0.9084    0.2428 N   0  0  0  0  0  0  0  0  0  0  0  0
   -2.1972   -0.3644   -0.0422 H   0  0  0  0  0  0  0  0  0  0  0  0
   -0.1122   -0.1994    0.2658 C   0  0  1  0  0  0  0  0  0  0  0  0
   -0.0802    0.4885   -0.5830 H   0  0  0  0  0  0  0  0  0  0  0  0
   -0.0196    0.6176    1.5739 C   0  0  0  0  0  0  0  0  0  0  0  0
   -0.2730   -0.0258    2.4157 H   0  0  0  0  0  0  0  0  0  0  0  0
    1.0028    0.9684    1.7066 H   0  0  0  0  0  0  0  0  0  0  0  0
   -0.9647    1.8070    1.6281 C   0  0  0  0  0  0  0  0  0  0  0  0
   -1.1554    2.5467    0.6785 O   0  0  0  0  0  0  0  0  0  0  0  0
   -1.5895    2.0410    2.7566 N   0  0  0  0  0  0  0  0  0  0  0  0
   -2.2206    2.8228    2.7576 H   0  0  0  0  0  0  0  0  0  0  0  0
   -1.4643    1.4363    3.5463 H   0  0  0  0  0  0  0  0  0  0  0  0
    1.0486   -1.2066    0.1110 C   0  0  0  0  0  0  0  0  0  0  0  0
    1.6441   -1.2971   -0.9626 O   0  0  0  0  0  0  0  0  0  0  0  0
    1.3616   -1.9633    1.1672 N   0  0  0  0  0  0  0  0  0  0  0  0
    0.7709   -1.8780    1.9883 H   0  0  0  0  0  0  0  0  0  0  0  0
    2.4382   -2.9518    1.1877 C   0  0  0  0  0  0  0  0  0  0  0  0
    3.3831   -2.4723    0.9231 H   0  0  0  0  0  0  0  0  0  0  0  0
    2.5238   -3.3915    2.1824 H   0  0  0  0  0  0  0  0  0  0  0  0
    2.2294   -3.7393    0.4616 H   0  0  0  0  0  0  0  0  0  0  0  0
  5  6  2  0  0  0  0
  5  7  1  0  0  0  0
  2  3  1  0  0  0  0
  2  4  1  0  0  0  0
  2  5  1  0  0  0  0
  1  2  1  0  0  0  0
 19 20  2  0  0  0  0
 19 21  1  0  0  0  0
 16 17  1  0  0  0  0
 16 18  1  0  0  0  0
 14 15  2  0  0  0  0
 14 16  1  0  0  0  0
 11 12  1  0  0  0  0
 11 13  1  0  0  0  0
 11 14  1  0  0  0  0
  9 10  1  0  0  0  0
  9 11  1  0  0  0  0
  9 19  1  0  0  0  0
  7  8  1  0  0  0  0
  7  9  1  0  0  0  0
 23 24  1  0  0  0  0
 23 25  1  0  0  0  0
 23 26  1  0  0  0  0
 21 22  1  0  0  0  0
 21 23  1  0  0  0  0
M  END
$$$$
default_name
  -OEChem-01062215323D

 26 25  0     1  0  0  0  0  0999 V2000
   -3.0232   -3.6924    1.0038 H   0  0  0  0  0  0  0  0  0  0  0  0
   -3.0082   -2.6684    0.6318 C   0  0  0  0  0  0  0  0  0  0  0  0
   -3.6332   -2.0414    1.2658 H   0  0  0  0  0  0  0  0  0  0  0  0
   -3.3762   -2.6444   -0.3912 H   0  0  0  0  0  0  0  0  0  0  0  0
   -1.5882   -2.1554    0.6658 C   0  0  0  0  0  0  0  0  0  0  0  0
   -0.6832   -2.8764    1.0638 O   0  0  0  0  0  0  0  0  0  0  0  0
   -1.3952   -0.9084    0.2428 N   0  0  0  0  0  0  0  0  0  0  0  0
   -2.1972   -0.3644   -0.0422 H   0  0  0  0  0  0  0  0  0  0  0  0
   -0.1122   -0.1994    0.2658 C   0  0  1  0  0  0  0  0  0  0  0  0
   -0.0802    0.4885   -0.5830 H   0  0  0  0  0  0  0  0  0  0  0  0
   -0.0196    0.6176    1.5739 C   0  0  0  0  0  0  0  0  0  0  0  0
   -0.2730   -0.0258    2.4157 H   0  0  0  0  0  0  0  0  0  0  0  0
    1.0028    0.9684    1.7066 H   0  0  0  0  0  0  0  0  0  0  0  0
   -0.9647    1.8070    1.6281 C   0  0  0  0  0  0  0  0  0  0  0  0
   -1.1554    2.5467    0.6785 O   0  0  0  0  0  0  0  0  0  0  0  0
   -1.5895    2.0410    2.7566 N   0  0  0  0  0  0  0  0  0  0  0  0
   -2.2206    2.8228    2.7576 H   0  0  0  0  0  0  0  0  0  0  0  0
   -1.4643    1.4363    3.5463 H   0  0  0  0  0  0  0  0  0  0  0  0
    1.0486   -1.2066    0.1110 C   0  0  0  0  0  0  0  0  0  0  0  0
    1.8184   -1.1143   -0.8453 O   0  0  0  0  0  0  0  0  0  0  0  0
    1.1690   -2.1649    1.0347 N   0  0  0  0  0  0  0  0  0  0  0  0
    0.4472   -2.2140    1.7467 H   0  0  0  0  0  0  0  0  0  0  0  0
    2.2170   -3.1839    1.0390 C   0  0  0  0  0  0  0  0  0  0  0  0
    3.1977   -2.7032    1.0347 H   0  0  0  0  0  0  0  0  0  0  0  0
    2.1269   -3.8099    1.9278 H   0  0  0  0  0  0  0  0  0  0  0  0
    2.1284   -3.8074    0.1477 H   0  0  0  0  0  0  0  0  0  0  0  0
  5  6  2  0  0  0  0
  5  7  1  0  0  0  0
  2  3  1  0  0  0  0
  2  4  1  0  0  0  0
  2  5  1  0  0  0  0
  1  2  1  0  0  0  0
 19 20  2  0  0  0  0
 19 21  1  0  0  0  0
 16 17  1  0  0  0  0
 16 18  1  0  0  0  0
 14 15  2  0  0  0  0
 14 16  1  0  0  0  0
 11 12  1  0  0  0  0
 11 13  1  0  0  0  0
 11 14  1  0  0  0  0
  9 10  1  0  0  0  0
  9 11  1  0  0  0  0
  9 19  1  0  0  0  0
  7  8  1  0  0  0  0
  7  9  1  0  0  0  0
 23 24  1  0  0  0  0
 23 25  1  0  0  0  0
 23 26  1  0  0  0  0
 21 22  1  0  0  0  0
 21 23  1  0  0  0  0
M  END
$$$$
default_name
  -OEChem-01062215323D

 26 25  0     1  0  0  0  0  0999 V2000
   -3.0232   -3.6924    1.0038 H   0  0  0  0  0  0  0  0  0  0  0  0
   -3.0082   -2.6684    0.6318 C   0  0  0  0  0  0  0  0  0  0  0  0
   -3.6332   -2.0414    1.2658 H   0  0  0  0  0  0  0  0  0  0  0  0
   -3.3762   -2.6444   -0.3912 H   0  0  0  0  0  0  0  0  0  0  0  0
   -1.5882   -2.1554    0.6658 C   0  0  0  0  0  0  0  0  0  0  0  0
   -0.6832   -2.8764    1.0638 O   0  0  0  0  0  0  0  0  0  0  0  0
   -1.3952   -0.9084    0.2428 N   0  0  0  0  0  0  0  0  0  0  0  0
   -2.1972   -0.3644   -0.0422 H   0  0  0  0  0  0  0  0  0  0  0  0
   -0.1122   -0.1994    0.2658 C   0  0  1  0  0  0  0  0  0  0  0  0
   -0.0802    0.4885   -0.5830 H   0  0  0  0  0  0  0  0  0  0  0  0
   -0.0196    0.6176    1.5739 C   0  0  0  0  0  0  0  0  0  0  0  0
   -0.2730   -0.0258    2.4157 H   0  0  0  0  0  0  0  0  0  0  0  0
    1.0028    0.9684    1.7066 H   0  0  0  0  0  0  0  0  0  0  0  0
   -0.9647    1.8070    1.6281 C   0  0  0  0  0  0  0  0  0  0  0  0
   -1.1554    2.5467    0.6785 O   0  0  0  0  0  0  0  0  0  0  0  0
   -1.5895    2.0410    2.7566 N   0  0  0  0  0  0  0  0  0  0  0  0
   -2.2206    2.8228    2.7576 H   0  0  0  0  0  0  0  0  0  0  0  0
   -1.4643    1.4363    3.5463 H   0  0  0  0  0  0  0  0  0  0  0  0
    1.0486   -1.2066    0.1110 C   0  0  0  0  0  0  0  0  0  0  0  0
    1.9716   -0.9651   -0.6669 O   0  0  0  0  0  0  0  0  0  0  0  0
    1.0001   -2.3289    0.8350 N   0  0  0  0  0  0  0  0  0  0  0  0
    0.1666   -2.4832    1.3934 H   0  0  0  0  0  0  0  0  0  0  0  0
    2.0224   -3.3735    0.8128 C   0  0  0  0  0  0  0  0  0  0  0  0
    2.9937   -2.9431    1.0662 H   0  0  0  0  0  0  0  0  0  0  0  0
    1.7756   -4.1542    1.5336 H   0  0  0  0  0  0  0  0  0  0  0  0
    2.0821   -3.8096   -0.1857 H   0  0  0  0  0  0  0  0  0  0  0  0
  5  6  2  0  0  0  0
  5  7  1  0  0  0  0
  2  3  1  0  0  0  0
  2  4  1  0  0  0  0
  2  5  1  0  0  0  0
  1  2  1  0  0  0  0
 19 20  2  0  0  0  0
 19 21  1  0  0  0  0
 16 17  1  0  0  0  0
 16 18  1  0  0  0  0
 14 15  2  0  0  0  0
 14 16  1  0  0  0  0
 11 12  1  0  0  0  0
 11 13  1  0  0  0  0
 11 14  1  0  0  0  0
  9 10  1  0  0  0  0
  9 11  1  0  0  0  0
  9 19  1  0  0  0  0
  7  8  1  0  0  0  0
  7  9  1  0  0  0  0
 23 24  1  0  0  0  0
 23 25  1  0  0  0  0
 23 26  1  0  0  0  0
 21 22  1  0  0  0  0
 21 23  1  0  0  0  0
M  END
$$$$
default_name
  -OEChem-01062215323D

 26 25  0     1  0  0  0  0  0999 V2000
   -3.0232   -3.6924    1.0038 H   0  0  0  0  0  0  0  0  0  0  0  0
   -3.0082   -2.6684    0.6318 C   0  0  0  0  0  0  0  0  0  0  0  0
   -3.6332   -2.0414    1.2658 H   0  0  0  0  0  0  0  0  0  0  0  0
   -3.3762   -2.6444   -0.3912 H   0  0  0  0  0  0  0  0  0  0  0  0
   -1.5882   -2.1554    0.6658 C   0  0  0  0  0  0  0  0  0  0  0  0
   -0.6832   -2.8764    1.0638 O   0  0  0  0  0  0  0  0  0  0  0  0
   -1.3952   -0.9084    0.2428 N   0  0  0  0  0  0  0  0  0  0  0  0
   -2.1972   -0.3644   -0.0422 H   0  0  0  0  0  0  0  0  0  0  0  0
   -0.1122   -0.1994    0.2658 C   0  0  1  0  0  0  0  0  0  0  0  0
   -0.0802    0.4885   -0.5830 H   0  0  0  0  0  0  0  0  0  0  0  0
   -0.0196    0.6176    1.5739 C   0  0  0  0  0  0  0  0  0  0  0  0
   -0.2730   -0.0258    2.4157 H   0  0  0  0  0  0  0  0  0  0  0  0
    1.0028    0.9684    1.7066 H   0  0  0  0  0  0  0  0  0  0  0  0
   -0.9647    1.8070    1.6281 C   0  0  0  0  0  0  0  0  0  0  0  0
   -1.1554    2.5467    0.6785 O   0  0  0  0  0  0  0  0  0  0  0  0
   -1.5895    2.0410    2.7566 N   0  0  0  0  0  0  0  0  0  0  0  0
   -2.2206    2.8228    2.7576 H   0  0  0  0  0  0  0  0  0  0  0  0
   -1.4643    1.4363    3.5463 H   0  0  0  0  0  0  0  0  0  0  0  0
    1.0486   -1.2066    0.1110 C   0  0  0  0  0  0  0  0  0  0  0  0
    2.0935   -0.8596   -0.4398 O   0  0  0  0  0  0  0  0  0  0  0  0
    0.8664   -2.4441    0.5818 N   0  0  0  0  0  0  0  0  0  0  0  0
   -0.0519   -2.6671    0.9524 H   0  0  0  0  0  0  0  0  0  0  0  0
    1.8677   -3.5075    0.5247 C   0  0  0  0  0  0  0  0  0  0  0  0
    2.7852   -3.1757    1.0156 H   0  0  0  0  0  0  0  0  0  0  0  0
    1.4938   -4.4010    1.0265 H   0  0  0  0  0  0  0  0  0  0  0  0
    2.0936   -3.7456   -0.5161 H   0  0  0  0  0  0  0  0  0  0  0  0
  5  6  2  0  0  0  0
  5  7  1  0  0  0  0
  2  3  1  0  0  0  0
  2  4  1  0  0  0  0
  2  5  1  0  0  0  0
  1  2  1  0  0  0  0
 19 20  2  0  0  0  0
 19 21  1  0  0  0  0
 16 17  1  0  0  0  0
 16 18  1  0  0  0  0
 14 15  2  0  0  0  0
 14 16  1  0  0  0  0
 11 12  1  0  0  0  0
 11 13  1  0  0  0  0
 11 14  1  0  0  0  0
  9 10  1  0  0  0  0
  9 11  1  0  0  0  0
  9 19  1  0  0  0  0
  7  8  1  0  0  0  0
  7  9  1  0  0  0  0
 23 24  1  0  0  0  0
 23 25  1  0  0  0  0
 23 26  1  0  0  0  0
 21 22  1  0  0  0  0
 21 23  1  0  0  0  0
M  END
$$$$
default_name
  -OEChem-01062215323D

 26 25  0     1  0  0  0  0  0999 V2000
   -3.0232   -3.6924    1.0038 H   0  0  0  0  0  0  0  0  0  0  0  0
   -3.0082   -2.6684    0.6318 C   0  0  0  0  0  0  0  0  0  0  0  0
   -3.6332   -2.0414    1.2658 H   0  0  0  0  0  0  0  0  0  0  0  0
   -3.3762   -2.6444   -0.3912 H   0  0  0  0  0  0  0  0  0  0  0  0
   -1.5882   -2.1554    0.6658 C   0  0  0  0  0  0  0  0  0  0  0  0
   -0.6832   -2.8764    1.0638 O   0  0  0  0  0  0  0  0  0  0  0  0
   -1.3952   -0.9084    0.2428 N   0  0  0  0  0  0  0  0  0  0  0  0
   -2.1972   -0.3644   -0.0422 H   0  0  0  0  0  0  0  0  0  0  0  0
   -0.1122   -0.1994    0.2658 C   0  0  1  0  0  0  0  0  0  0  0  0
   -0.0802    0.4885   -0.5830 H   0  0  0  0  0  0  0  0  0  0  0  0
   -0.0196    0.6176    1.5739 C   0  0  0  0  0  0  0  0  0  0  0  0
   -0.2730   -0.0258    2.4157 H   0  0  0  0  0  0  0  0  0  0  0  0
    1.0028    0.9684    1.7066 H   0  0  0  0  0  0  0  0  0  0  0  0
   -0.9647    1.8070    1.6281 C   0  0  0  0  0  0  0  0  0  0  0  0
   -1.1554    2.5467    0.6785 O   0  0  0  0  0  0  0  0  0  0  0  0
   -1.5895    2.0410    2.7566 N   0  0  0  0  0  0  0  0  0  0  0  0
   -2.2206    2.8228    2.7576 H   0  0  0  0  0  0  0  0  0  0  0  0
   -1.4643    1.4363    3.5463 H   0  0  0  0  0  0  0  0  0  0  0  0
    1.0486   -1.2066    0.1110 C   0  0  0  0  0  0  0  0  0  0  0  0
    2.1755   -0.8050   -0.1793 O   0  0  0  0  0  0  0  0  0  0  0  0
    0.7770   -2.5026    0.2921 N   0  0  0  0  0  0  0  0  0  0  0  0
   -0.1932   -2.7534    0.4538 H   0  0  0  0  0  0  0  0  0  0  0  0
    1.7634   -3.5769    0.1942 C   0  0  0  0  0  0  0  0  0  0  0  0
    2.5862   -3.3851    0.8863 H   0  0  0  0  0  0  0  0  0  0  0  0
    1.3008   -4.5335    0.4411 H   0  0  0  0  0  0  0  0  0  0  0  0
    2.1620   -3.6199   -0.8208 H   0  0  0  0  0  0  0  0  0  0  0  0
  5  6  2  0  0  0  0
  5  7  1  0  0  0  0
  2  3  1  0  0  0  0
  2  4  1  0  0  0  0
  2  5  1  0  0  0  0
  1  2  1  0  0  0  0
 19 20  2  0  0  0  0
 19 21  1  0  0  0  0
 16 17  1  0  0  0  0
 16 18  1  0  0  0  0
 14 15  2  0  0  0  0
 14 16  1  0  0  0  0
 11 12  1  0  0  0  0
 11 13  1  0  0  0  0
 11 14  1  0  0  0  0
  9 10  1  0  0  0  0
  9 11  1  0  0  0  0
  9 19  1  0  0  0  0
  7  8  1  0  0  0  0
  7  9  1  0  0  0  0
 23 24  1  0  0  0  0
 23 25  1  0  0  0  0
 23 26  1  0  0  0  0
 21 22  1  0  0  0  0
 21 23  1  0  0  0  0
M  END
$$$$
default_name
  -OEChem-01062215323D

 26 25  0     1  0  0  0  0  0999 V2000
   -3.0232   -3.6924    1.0038 H   0  0  0  0  0  0  0  0  0  0  0  0
   -3.0082   -2.6684    0.6318 C   0  0  0  0  0  0  0  0  0  0  0  0
   -3.6332   -2.0414    1.2658 H   0  0  0  0  0  0  0  0  0  0  0  0
   -3.3762   -2.6444   -0.3912 H   0  0  0  0  0  0  0  0  0  0  0  0
   -1.5882   -2.1554    0.6658 C   0  0  0  0  0  0  0  0  0  0  0  0
   -0.6832   -2.8764    1.0638 O   0  0  0  0  0  0  0  0  0  0  0  0
   -1.3952   -0.9084    0.2428 N   0  0  0  0  0  0  0  0  0  0  0  0
   -2.1972   -0.3644   -0.0422 H   0  0  0  0  0  0  0  0  0  0  0  0
   -0.1122   -0.1994    0.2658 C   0  0  1  0  0  0  0  0  0  0  0  0
   -0.0802    0.4885   -0.5830 H   0  0  0  0  0  0  0  0  0  0  0  0
   -0.0196    0.6176    1.5739 C   0  0  0  0  0  0  0  0  0  0  0  0
   -0.2730   -0.0258    2.4157 H   0  0  0  0  0  0  0  0  0  0  0  0
    1.0028    0.9684    1.7066 H   0  0  0  0  0  0  0  0  0  0  0  0
   -0.9647    1.8070    1.6281 C   0  0  0  0  0  0  0  0  0  0  0  0
   -1.1554    2.5467    0.6785 O   0  0  0  0  0  0  0  0  0  0  0  0
   -1.5895    2.0410    2.7566 N   0  0  0  0  0  0  0  0  0  0  0  0
   -2.2206    2.8228    2.7576 H   0  0  0  0  0  0  0  0  0  0  0  0
   -1.4643    1.4363    3.5463 H   0  0  0  0  0  0  0  0  0  0  0  0
    1.0486   -1.2066    0.1110 C   0  0  0  0  0  0  0  0  0  0  0  0
    2.2123   -0.8051    0.0968 O   0  0  0  0  0  0  0  0  0  0  0  0
    0.7380   -2.5004   -0.0141 N   0  0  0  0  0  0  0  0  0  0  0  0
   -0.2478   -2.7360   -0.0685 H   0  0  0  0  0  0  0  0  0  0  0  0
    1.7167   -3.5769   -0.1561 C   0  0  0  0  0  0  0  0  0  0  0  0
    2.4105   -3.5571    0.6871 H   0  0  0  0  0  0  0  0  0  0  0  0
    1.2098   -4.5425   -0.1826 H   0  0  0  0  0  0  0  0  0  0  0  0
    2.2829   -3.4409   -1.0791 H   0  0  0  0  0  0  0  0  0  0  0  0
  5  6  2  0  0  0  0
  5  7  1  0  0  0  0
  2  3  1  0  0  0  0
  2  4  1  0  0  0  0
  2  5  1  0  0  0  0
  1  2  1  0  0  0  0
 19 20  2  0  0  0  0
 19 21  1  0  0  0  0
 16 17  1  0  0  0  0
 16 18  1  0  0  0  0
 14 15  2  0  0  0  0
 14 16  1  0  0  0  0
 11 12  1  0  0  0  0
 11 13  1  0  0  0  0
 11 14  1  0  0  0  0
  9 10  1  0  0  0  0
  9 11  1  0  0  0  0
  9 19  1  0  0  0  0
  7  8  1  0  0  0  0
  7  9  1  0  0  0  0
 23 24  1  0  0  0  0
 23 25  1  0  0  0  0
 23 26  1  0  0  0  0
 21 22  1  0  0  0  0
 21 23  1  0  0  0  0
M  END
$$$$
default_name
  -OEChem-01062215323D

 26 25  0     1  0  0  0  0  0999 V2000
   -3.0232   -3.6924    1.0038 H   0  0  0  0  0  0  0  0  0  0  0  0
   -3.0082   -2.6684    0.6318 C   0  0  0  0  0  0  0  0  0  0  0  0
   -3.6332   -2.0414    1.2658 H   0  0  0  0  0  0  0  0  0  0  0  0
   -3.3762   -2.6444   -0.3912 H   0  0  0  0  0  0  0  0  0  0  0  0
   -1.5882   -2.1554    0.6658 C   0  0  0  0  0  0  0  0  0  0  0  0
   -0.6832   -2.8764    1.0638 O   0  0  0  0  0  0  0  0  0  0  0  0
   -1.3952   -0.9084    0.2428 N   0  0  0  0  0  0  0  0  0  0  0  0
   -2.1972   -0.3644   -0.0422 H   0  0  0  0  0  0  0  0  0  0  0  0
   -0.1122   -0.1994    0.2658 C   0  0  1  0  0  0  0  0  0  0  0  0
   -0.0802    0.4885   -0.5830 H   0  0  0  0  0  0  0  0  0  0  0  0
   -0.0196    0.6176    1.5739 C   0  0  0  0  0  0  0  0  0  0  0  0
   -0.2730   -0.0258    2.4157 H   0  0  0  0  0  0  0  0  0  0  0  0
    1.0028    0.9684    1.7066 H   0  0  0  0  0  0  0  0  0  0  0  0
   -0.9647    1.8070    1.6281 C   0  0  0  0  0  0  0  0  0  0  0  0
   -1.1554    2.5467    0.6785 O   0  0  0  0  0  0  0  0  0  0  0  0
   -1.5895    2.0410    2.7566 N   0  0  0  0  0  0  0  0  0  0  0  0
   -2.2206    2.8228    2.7576 H   0  0  0  0  0  0  0  0  0  0  0  0
   -1.4643    1.4363    3.5463 H   0  0  0  0  0  0  0  0  0  0  0  0
    1.0486   -1.2066    0.1110 C   0  0  0  0  0  0  0  0  0  0  0  0
    2.2012   -0.8598    0.3697 O   0  0  0  0  0  0  0  0  0  0  0  0
    0.7521   -2.4378   -0.3160 N   0  0  0  0  0  0  0  0  0  0  0  0
   -0.2120   -2.6163   -0.5788 H   0  0  0  0  0  0  0  0  0  0  0  0
    1.7306   -3.5076   -0.5024 C   0  0  0  0  0  0  0  0  0  0  0  0
    2.2698   -3.6799    0.4316 H   0  0  0  0  0  0  0  0  0  0  0  0
    1.2269   -4.4276   -0.8022 H   0  0  0  0  0  0  0  0  0  0  0  0
    2.4478   -3.2209   -1.2734 H   0  0  0  0  0  0  0  0  0  0  0  0
  5  6  2  0  0  0  0
  5  7  1  0  0  0  0
  2  3  1  0  0  0  0
  2  4  1  0  0  0  0
  2  5  1  0  0  0  0
  1  2  1  0  0  0  0
 19 20  2  0  0  0  0
 19 21  1  0  0  0  0
 16 17  1  0  0  0  0
 16 18  1  0  0  0  0
 14 15  2  0  0  0  0
 14 16  1  0  0  0  0
 11 12  1  0  0  0  0
 11 13  1  0  0  0  0
 11 14  1  0  0  0  0
  9 10  1  0  0  0  0
  9 11  1  0  0  0  0
  9 19  1  0  0  0  0
  7  8  1  0  0  0  0
  7  9  1  0  0  0  0
 23 24  1  0  0  0  0
 23 25  1  0  0  0  0
 23 26  1  0  0  0  0
 21 22  1  0  0  0  0
 21 23  1  0  0  0  0
M  END
$$$$
default_name
  -OEChem-01062215323D

 26 25  0     1  0  0  0  0  0999 V2000
   -3.0232   -3.6924    1.0038 H   0  0  0  0  0  0  0  0  0  0  0  0
   -3.0082   -2.6684    0.6318 C   0  0  0  0  0  0  0  0  0  0  0  0
   -3.6332   -2.0414    1.2658 H   0  0  0  0  0  0  0  0  0  0  0  0
   -3.3762   -2.6444   -0.3912 H   0  0  0  0  0  0  0  0  0  0  0  0
   -1.5882   -2.1554    0.6658 C   0  0  0  0  0  0  0  0  0  0  0  0
   -0.6832   -2.8764    1.0638 O   0  0  0  0  0  0  0  0  0  0  0  0
   -1.3952   -0.9084    0.2428 N   0  0  0  0  0  0  0  0  0  0  0  0
   -2.1972   -0.3644   -0.0422 H   0  0  0  0  0  0  0  0  0  0  0  0
   -0.1122   -0.1994    0.2658 C   0  0  1  0  0  0  0  0  0  0  0  0
   -0.0802    0.4885   -0.5830 H   0  0  0  0  0  0  0  0  0  0  0  0
   -0.0196    0.6176    1.5739 C   0  0  0  0  0  0  0  0  0  0  0  0
   -0.2730   -0.0258    2.4157 H   0  0  0  0  0  0  0  0  0  0  0  0
    1.0028    0.9684    1.7066 H   0  0  0  0  0  0  0  0  0  0  0  0
   -0.9647    1.8070    1.6281 C   0  0  0  0  0  0  0  0  0  0  0  0
   -1.1554    2.5467    0.6785 O   0  0  0  0  0  0  0  0  0  0  0  0
   -1.5895    2.0410    2.7566 N   0  0  0  0  0  0  0  0  0  0  0  0
   -2.2206    2.8228    2.7576 H   0  0  0  0  0  0  0  0  0  0  0  0
   -1.4643    1.4363    3.5463 H   0  0  0  0  0  0  0  0  0  0  0  0
    1.0486   -1.2066    0.1110 C   0  0  0  0  0  0  0  0  0  0  0  0
    2.1430   -0.9655    0.6207 O   0  0  0  0  0  0  0  0  0  0  0  0
    0.8183   -2.3189   -0.5932 N   0  0  0  0  0  0  0  0  0  0  0  0
   -0.0881   -2.4023   -1.0424 H   0  0  0  0  0  0  0  0  0  0  0  0
    1.8044   -3.3737   -0.8211 C   0  0  0  0  0  0  0  0  0  0  0  0
    2.1739   -3.7451    0.1372 H   0  0  0  0  0  0  0  0  0  0  0  0
    1.3509   -4.1965   -1.3755 H   0  0  0  0  0  0  0  0  0  0  0  0
    2.6456   -2.9749   -1.3904 H   0  0  0  0  0  0  0  0  0  0  0  0
  5  6  2  0  0  0  0
  5  7  1  0  0  0  0
  2  3  1  0  0  0  0
  2  4  1  0  0  0  0
  2  5  1  0  0  0  0
  1  2  1  0  0  0  0
 19 20  2  0  0  0  0
 19 21  1  0  0  0  0
 16 17  1  0  0  0  0
 16 18  1  0  0  0  0
 14 15  2  0  0  0  0
 14 16  1  0  0  0  0
 11 12  1  0  0  0  0
 11 13  1  0  0  0  0
 11 14  1  0  0  0  0
  9 10  1  0  0  0  0
  9 11  1  0  0  0  0
  9 19  1  0  0  0  0
  7  8  1  0  0  0  0
  7  9  1  0  0  0  0
 23 24  1  0  0  0  0
 23 25  1  0  0  0  0
 23 26  1  0  0  0  0
 21 22  1  0  0  0  0
 21 23  1  0  0  0  0
M  END
$$$$
default_name
  -OEChem-01062215323D

 26 25  0     1  0  0  0  0  0999 V2000
   -3.0232   -3.6924    1.0038 H   0  0  0  0  0  0  0  0  0  0  0  0
   -3.0082   -2.6684    0.6318 C   0  0  0  0  0  0  0  0  0  0  0  0
   -3.6332   -2.0414    1.2658 H   0  0  0  0  0  0  0  0  0  0  0  0
   -3.3762   -2.6444   -0.3912 H   0  0  0  0  0  0  0  0  0  0  0  0
   -1.5882   -2.1554    0.6658 C   0  0  0  0  0  0  0  0  0  0  0  0
   -0.6832   -2.8764    1.0638 O   0  0  0  0  0  0  0  0  0  0  0  0
   -1.3952   -0.9084    0.2428 N   0  0  0  0  0  0  0  0  0  0  0  0
   -2.1972   -0.3644   -0.0422 H   0  0  0  0  0  0  0  0  0  0  0  0
   -0.1122   -0.1994    0.2658 C   0  0  1  0  0  0  0  0  0  0  0  0
   -0.0802    0.4885   -0.5830 H   0  0  0  0  0  0  0  0  0  0  0  0
   -0.0196    0.6176    1.5739 C   0  0  0  0  0  0  0  0  0  0  0  0
   -0.2730   -0.0258    2.4157 H   0  0  0  0  0  0  0  0  0  0  0  0
    1.0028    0.9684    1.7066 H   0  0  0  0  0  0  0  0  0  0  0  0
   -0.9647    1.8070    1.6281 C   0  0  0  0  0  0  0  0  0  0  0  0
   -1.1554    2.5467    0.6785 O   0  0  0  0  0  0  0  0  0  0  0  0
   -1.5895    2.0410    2.7566 N   0  0  0  0  0  0  0  0  0  0  0  0
   -2.2206    2.8228    2.7576 H   0  0  0  0  0  0  0  0  0  0  0  0
   -1.4643    1.4363    3.5463 H   0  0  0  0  0  0  0  0  0  0  0  0
    1.0486   -1.2066    0.1110 C   0  0  0  0  0  0  0  0  0  0  0  0
    2.0416   -1.1149    0.8328 O   0  0  0  0  0  0  0  0  0  0  0  0
    0.9321   -2.1519   -0.8265 N   0  0  0  0  0  0  0  0  0  0  0  0
    0.1153   -2.1086   -1.4276 H   0  0  0  0  0  0  0  0  0  0  0  0
    1.9328   -3.1842   -1.0904 C   0  0  0  0  0  0  0  0  0  0  0  0
    2.1293   -3.7484   -0.1761 H   0  0  0  0  0  0  0  0  0  0  0  0
    1.5735   -3.8650   -1.8633 H   0  0  0  0  0  0  0  0  0  0  0  0
    2.8629   -2.7197   -1.4223 H   0  0  0  0  0  0  0  0  0  0  0  0
  5  6  2  0  0  0  0
  5  7  1  0  0  0  0
  2  3  1  0  0  0  0
  2  4  1  0  0  0  0
  2  5  1  0  0  0  0
  1  2  1  0  0  0  0
 19 20  2  0  0  0  0
 19 21  1  0  0  0  0
 16 17  1  0  0  0  0
 16 18  1  0  0  0  0
 14 15  2  0  0  0  0
 14 16  1  0  0  0  0
 11 12  1  0  0  0  0
 11 13  1  0  0  0  0
 11 14  1  0  0  0  0
  9 10  1  0  0  0  0
  9 11  1  0  0  0  0
  9 19  1  0  0  0  0
  7  8  1  0  0  0  0
  7  9  1  0  0  0  0
 23 24  1  0  0  0  0
 23 25  1  0  0  0  0
 23 26  1  0  0  0  0
 21 22  1  0  0  0  0
 21 23  1  0  0  0  0
M  END
$$$$
default_name
  -OEChem-01062215323D

 26 25  0     1  0  0  0  0  0999 V2000
   -3.0232   -3.6924    1.0038 H   0  0  0  0  0  0  0  0  0  0  0  0
   -3.0082   -2.6684    0.6318 C   0  0  0  0  0  0  0  0  0  0  0  0
   -3.6332   -2.0414    1.2658 H   0  0  0  0  0  0  0  0  0  0  0  0
   -3.3762   -2.6444   -0.3912 H   0  0  0  0  0  0  0  0  0  0  0  0
   -1.5882   -2.1554    0.6658 C   0  0  0  0  0  0  0  0  0  0  0  0
   -0.6832   -2.8764    1.0638 O   0  0  0  0  0  0  0  0  0  0  0  0
   -1.3952   -0.9084    0.2428 N   0  0  0  0  0  0  0  0  0  0  0  0
   -2.1972   -0.3644   -0.0422 H   0  0  0  0  0  0  0  0  0  0  0  0
   -0.1122   -0.1994    0.2658 C   0  0  1  0  0  0  0  0  0  0  0  0
   -0.0802    0.4885   -0.5830 H   0  0  0  0  0  0  0  0  0  0  0  0
   -0.0196    0.6176    1.5739 C   0  0  0  0  0  0  0  0  0  0  0  0
   -0.2730   -0.0258    2.4157 H   0  0  0  0  0  0  0  0  0  0  0  0
    1.0028    0.9684    1.7066 H   0  0  0  0  0  0  0  0  0  0  0  0
   -0.9647    1.8070    1.6281 C   0  0  0  0  0  0  0  0  0  0  0  0
   -1.1554    2.5467    0.6785 O   0  0  0  0  0  0  0  0  0  0  0  0
   -1.5895    2.0410    2.7566 N   0  0  0  0  0  0  0  0  0  0  0  0
   -2.2206    2.8228    2.7576 H   0  0  0  0  0  0  0  0  0  0  0  0
   -1.4643    1.4363    3.5463 H   0  0  0  0  0  0  0  0  0  0  0  0
    1.0486   -1.2066    0.1110 C   0  0  0  0  0  0  0  0  0  0  0  0
    1.9041   -1.2978    0.9915 O   0  0  0  0  0  0  0  0  0  0  0  0
    1.0857   -1.9482   -1.0003 N   0  0  0  0  0  0  0  0  0  0  0  0
    0.3844   -1.7553   -1.7083 H   0  0  0  0  0  0  0  0  0  0  0  0
    2.1073   -2.9522   -1.2920 C   0  0  0  0  0  0  0  0  0  0  0  0
    2.1390   -3.6895   -0.4869 H   0  0  0  0  0  0  0  0  0  0  0  0
    1.8794   -3.4557   -2.2325 H   0  0  0  0  0  0  0  0  0  0  0  0
    3.0847   -2.4726   -1.3667 H   0  0  0  0  0  0  0  0  0  0  0  0
  5  6  2  0  0  0  0
  5  7  1  0  0  0  0
  2  3  1  0  0  0  0
  2  4  1  0  0  0  0
  2  5  1  0  0  0  0
  1  2  1  0  0  0  0
 19 20  2  0  0  0  0
 19 21  1  0  0  0  0
 16 17  1  0  0  0  0
 16 18  1  0  0  0  0
 14 15  2  0  0  0  0
 14 16  1  0  0  0  0
 11 12  1  0  0  0  0
 11 13  1  0  0  0  0
 11 14  1  0  0  0  0
  9 10  1  0  0  0  0
  9 11  1  0  0  0  0
  9 19  1  0  0  0  0
  7  8  1  0  0  0  0
  7  9  1  0  0  0  0
 23 24  1  0  0  0  0
 23 25  1  0  0  0  0
 23 26  1  0  0  0  0
 21 22  1  0  0  0  0
 21 23  1  0  0  0  0
M  END
$$$$
default_name
  -OEChem-01062215323D

 26 25  0     1  0  0  0  0  0999 V2000
   -3.0232   -3.6924    1.0038 H   0  0  0  0  0  0  0  0  0  0  0  0
   -3.0082   -2.6684    0.6318 C   0  0  0  0  0  0  0  0  0  0  0  0
   -3.6332   -2.0414    1.2658 H   0  0  0  0  0  0  0  0  0  0  0  0
   -3.3762   -2.6444   -0.3912 H   0  0  0  0  0  0  0  0  0  0  0  0
   -1.5882   -2.1554    0.6658 C   0  0  0  0  0  0  0  0  0  0  0  0
   -0.6832   -2.8764    1.0638 O   0  0  0  0  0  0  0  0  0  0  0  0
   -1.3952   -0.9084    0.2428 N   0  0  0  0  0  0  0  0  0  0  0  0
   -2.1972   -0.3644   -0.0422 H   0  0  0  0  0  0  0  0  0  0  0  0
   -0.1122   -0.1994    0.2658 C   0  0  1  0  0  0  0  0  0  0  0  0
   -0.0802    0.4885   -0.5830 H   0  0  0  0  0  0  0  0  0  0  0  0
   -0.0196    0.6176    1.5739 C   0  0  0  0  0  0  0  0  0  0  0  0
   -0.2730   -0.0258    2.4157 H   0  0  0  0  0  0  0  0  0  0  0  0
    1.0028    0.9684    1.7066 H   0  0  0  0  0  0  0  0  0  0  0  0
   -0.9647    1.8070    1.6281 C   0  0  0  0  0  0  0  0  0  0  0  0
   -1.1554    2.5467    0.6785 O   0  0  0  0  0  0  0  0  0  0  0  0
   -1.5895    2.0410    2.7566 N   0  0  0  0  0  0  0  0  0  0  0  0
   -2.2206    2.8228    2.7576 H   0  0  0  0  0  0  0  0  0  0  0  0
   -1.4643    1.4363    3.5463 H   0  0  0  0  0  0  0  0  0  0  0  0
    1.0486   -1.2066    0.1110 C   0  0  0  0  0  0  0  0  0  0  0  0
    1.7397   -1.5018    1.0860 O   0  0  0  0  0  0  0  0  0  0  0  0
    1.2687   -1.7215   -1.1025 N   0  0  0  0  0  0  0  0  0  0  0  0
    0.7009   -1.3664   -1.8653 H   0  0  0  0  0  0  0  0  0  0  0  0
    2.3158   -2.6934   -1.4121 C   0  0  0  0  0  0  0  0  0  0  0  0
    2.2023   -3.5724   -0.7740 H   0  0  0  0  0  0  0  0  0  0  0  0
    2.2478   -2.9965   -2.4579 H   0  0  0  0  0  0  0  0  0  0  0  0
    3.2960   -2.2504   -1.2276 H   0  0  0  0  0  0  0  0  0  0  0  0
  5  6  2  0  0  0  0
  5  7  1  0  0  0  0
  2  3  1  0  0  0  0
  2  4  1  0  0  0  0
  2  5  1  0  0  0  0
  1  2  1  0  0  0  0
 19 20  2  0  0  0  0
 19 21  1  0  0  0  0
 16 17  1  0  0  0  0
 16 18  1  0  0  0  0
 14 15  2  0  0  0  0
 14 16  1  0  0  0  0
 11 12  1  0  0  0  0
 11 13  1  0  0  0  0
 11 14  1  0  0  0  0
  9 10  1  0  0  0  0
  9 11  1  0  0  0  0
  9 19  1  0  0  0  0
  7  8  1  0  0  0  0
  7  9  1  0  0  0  0
 23 24  1  0  0  0  0
 23 25  1  0  0  0  0
 23 26  1  0  0  0  0
 21 22  1  0  0  0  0
 21 23  1  0  0  0  0
M  END
$$$$
default_name
  -OEChem-01062215323D

 26 25  0     1  0  0  0  0  0999 V2000
   -3.0232   -3.6924    1.0038 H   0  0  0  0  0  0  0  0  0  0  0  0
   -3.0082   -2.6684    0.6318 C   0  0  0  0  0  0  0  0  0  0  0  0
   -3.6332   -2.0414    1.2658 H   0  0  0  0  0  0  0  0  0  0  0  0
   -3.3762   -2.6444   -0.3912 H   0  0  0  0  0  0  0  0  0  0  0  0
   -1.5882   -2.1554    0.6658 C   0  0  0  0  0  0  0  0  0  0  0  0
   -0.6832   -2.8764    1.0638 O   0  0  0  0  0  0  0  0  0  0  0  0
   -1.3952   -0.9084    0.2428 N   0  0  0  0  0  0  0  0  0  0  0  0
   -2.1972   -0.3644   -0.0422 H   0  0  0  0  0  0  0  0  0  0  0  0
   -0.1122   -0.1994    0.2658 C   0  0  1  0  0  0  0  0  0  0  0  0
   -0.0802    0.4885   -0.5830 H   0  0  0  0  0  0  0  0  0  0  0  0
   -0.0196    0.6176    1.5739 C   0  0  0  0  0  0  0  0  0  0  0  0
   -0.2730   -0.0258    2.4157 H   0  0  0  0  0  0  0  0  0  0  0  0
    1.0028    0.9684    1.7066 H   0  0  0  0  0  0  0  0  0  0  0  0
   -0.9647    1.8070    1.6281 C   0  0  0  0  0  0  0  0  0  0  0  0
   -1.1554    2.5467    0.6785 O   0  0  0  0  0  0  0  0  0  0  0  0
   -1.5895    2.0410    2.7566 N   0  0  0  0  0  0  0  0  0  0  0  0
   -2.2206    2.8228    2.7576 H   0  0  0  0  0  0  0  0  0  0  0  0
   -1.4643    1.4363    3.5463 H   0  0  0  0  0  0  0  0  0  0  0  0
    1.0486   -1.2066    0.1110 C   0  0  0  0  0  0  0  0  0  0  0  0
    1.5597   -1.7130    1.1099 O   0  0  0  0  0  0  0  0  0  0  0  0
    1.4686   -1.4875   -1.1263 N   0  0  0  0  0  0  0  0  0  0  0  0
    1.0432   -0.9685   -1.8879 H   0  0  0  0  0  0  0  0  0  0  0  0
    2.5442   -2.4254   -1.4427 C   0  0  0  0  0  0  0  0  0  0  0  0
    2.3150   -3.4051   -1.0178 H   0  0  0  0  0  0  0  0  0  0  0  0
    2.6536   -2.5186   -2.5240 H   0  0  0  0  0  0  0  0  0  0  0  0
    3.4823   -2.0684   -1.0143 H   0  0  0  0  0  0  0  0  0  0  0  0
  5  6  2  0  0  0  0
  5  7  1  0  0  0  0
  2  3  1  0  0  0  0
  2  4  1  0  0  0  0
  2  5  1  0  0  0  0
  1  2  1  0  0  0  0
 19 20  2  0  0  0  0
 19 21  1  0  0  0  0
 16 17  1  0  0  0  0
 16 18  1  0  0  0  0
 14 15  2  0  0  0  0
 14 16  1  0  0  0  0
 11 12  1  0  0  0  0
 11 13  1  0  0  0  0
 11 14  1  0  0  0  0
  9 10  1  0  0  0  0
  9 11  1  0  0  0  0
  9 19  1  0  0  0  0
  7  8  1  0  0  0  0
  7  9  1  0  0  0  0
 23 24  1  0  0  0  0
 23 25  1  0  0  0  0
 23 26  1  0  0  0  0
 21 22  1  0  0  0  0
 21 23  1  0  0  0  0
M  END
$$$$
default_name
  -OEChem-01062215323D

 26 25  0     1  0  0  0  0  0999 V2000
   -3.0232   -3.6924    1.0038 H   0  0  0  0  0  0  0  0  0  0  0  0
   -3.0082   -2.6684    0.6318 C   0  0  0  0  0  0  0  0  0  0  0  0
   -3.6332   -2.0414    1.2658 H   0  0  0  0  0  0  0  0  0  0  0  0
   -3.3762   -2.6444   -0.3912 H   0  0  0  0  0  0  0  0  0  0  0  0
   -1.5882   -2.1554    0.6658 C   0  0  0  0  0  0  0  0  0  0  0  0
   -0.6832   -2.8764    1.0638 O   0  0  0  0  0  0  0  0  0  0  0  0
   -1.3952   -0.9084    0.2428 N   0  0  0  0  0  0  0  0  0  0  0  0
   -2.1972   -0.3644   -0.0422 H   0  0  0  0  0  0  0  0  0  0  0  0
   -0.1122   -0.1994    0.2658 C   0  0  1  0  0  0  0  0  0  0  0  0
   -0.0802    0.4885   -0.5830 H   0  0  0  0  0  0  0  0  0  0  0  0
   -0.0196    0.6176    1.5739 C   0  0  0  0  0  0  0  0  0  0  0  0
   -0.2730   -0.0258    2.4157 H   0  0  0  0  0  0  0  0  0  0  0  0
    1.0028    0.9684    1.7066 H   0  0  0  0  0  0  0  0  0  0  0  0
   -0.9647    1.8070    1.6281 C   0  0  0  0  0  0  0  0  0  0  0  0
   -1.1554    2.5467    0.6785 O   0  0  0  0  0  0  0  0  0  0  0  0
   -1.5895    2.0410    2.7566 N   0  0  0  0  0  0  0  0  0  0  0  0
   -2.2206    2.8228    2.7576 H   0  0  0  0  0  0  0  0  0  0  0  0
   -1.4643    1.4363    3.5463 H   0  0  0  0  0  0  0  0  0  0  0  0
    1.0486   -1.2066    0.1110 C   0  0  0  0  0  0  0  0  0  0  0  0
    1.3763   -1.9169    1.0615 O   0  0  0  0  0  0  0  0  0  0  0  0
    1.6717   -1.2620   -1.0701 N   0  0  0  0  0  0  0  0  0  0  0  0
    1.3880   -0.5886   -1.7745 H   0  0  0  0  0  0  0  0  0  0  0  0
    2.7770   -2.1666   -1.3815 C   0  0  0  0  0  0  0  0  0  0  0  0
    2.4693   -3.1989   -1.2018 H   0  0  0  0  0  0  0  0  0  0  0  0
    3.0692   -2.0546   -2.4265 H   0  0  0  0  0  0  0  0  0  0  0  0
    3.6311   -1.9389   -0.7414 H   0  0  0  0  0  0  0  0  0  0  0  0
  5  6  2  0  0  0  0
  5  7  1  0  0  0  0
  2  3  1  0  0  0  0
  2  4  1  0  0  0  0
  2  5  1  0  0  0  0
  1  2  1  0  0  0  0
 19 20  2  0  0  0  0
 19 21  1  0  0  0  0
 16 17  1  0  0  0  0
 16 18  1  0  0  0  0
 14 15  2  0  0  0  0
 14 16  1  0  0  0  0
 11 12  1  0  0  0  0
 11 13  1  0  0  0  0
 11 14  1  0  0  0  0
  9 10  1  0  0  0  0
  9 11  1  0  0  0  0
  9 19  1  0  0  0  0
  7  8  1  0  0  0  0
  7  9  1  0  0  0  0
 23 24  1  0  0  0  0
 23 25  1  0  0  0  0
 23 26  1  0  0  0  0
 21 22  1  0  0  0  0
 21 23  1  0  0  0  0
M  END
$$$$
default_name
  -OEChem-01062215323D

 26 25  0     1  0  0  0  0  0999 V2000
   -3.0232   -3.6924    1.0038 H   0  0  0  0  0  0  0  0  0  0  0  0
   -3.0082   -2.6684    0.6318 C   0  0  0  0  0  0  0  0  0  0  0  0
   -3.6332   -2.0414    1.2658 H   0  0  0  0  0  0  0  0  0  0  0  0
   -3.3762   -2.6444   -0.3912 H   0  0  0  0  0  0  0  0  0  0  0  0
   -1.5882   -2.1554    0.6658 C   0  0  0  0  0  0  0  0  0  0  0  0
   -0.6832   -2.8764    1.0638 O   0  0  0  0  0  0  0  0  0  0  0  0
   -1.3952   -0.9084    0.2428 N   0  0  0  0  0  0  0  0  0  0  0  0
   -2.1972   -0.3644   -0.0422 H   0  0  0  0  0  0  0  0  0  0  0  0
   -0.1122   -0.1994    0.2658 C   0  0  1  0  0  0  0  0  0  0  0  0
   -0.0802    0.4885   -0.5830 H   0  0  0  0  0  0  0  0  0  0  0  0
   -0.0196    0.6176    1.5739 C   0  0  0  0  0  0  0  0  0  0  0  0
   -0.2730   -0.0258    2.4157 H   0  0  0  0  0  0  0  0  0  0  0  0
    1.0028    0.9684    1.7066 H   0  0  0  0  0  0  0  0  0  0  0  0
   -0.9647    1.8070    1.6281 C   0  0  0  0  0  0  0  0  0  0  0  0
   -1.1554    2.5467    0.6785 O   0  0  0  0  0  0  0  0  0  0  0  0
   -1.5895    2.0410    2.7566 N   0  0  0  0  0  0  0  0  0  0  0  0
   -2.2206    2.8228    2.7576 H   0  0  0  0  0  0  0  0  0  0  0  0
   -1.4643    1.4363    3.5463 H   0  0  0  0  0  0  0  0  0  0  0  0
    1.0486   -1.2066    0.1110 C   0  0  0  0  0  0  0  0  0  0  0  0
    1.2020   -2.0997    0.9442 O   0  0  0  0  0  0  0  0  0  0  0  0
    1.8643   -1.0604   -0.9376 N   0  0  0  0  0  0  0  0  0  0  0  0
    1.7117   -0.2526   -1.5329 H   0  0  0  0  0  0  0  0  0  0  0  0
    2.9982   -1.9345   -1.2328 C   0  0  0  0  0  0  0  0  0  0  0  0
    2.6547   -2.9681   -1.3134 H   0  0  0  0  0  0  0  0  0  0  0  0
    3.4661   -1.6363   -2.1720 H   0  0  0  0  0  0  0  0  0  0  0  0
    3.7320   -1.8708   -0.4275 H   0  0  0  0  0  0  0  0  0  0  0  0
  5  6  2  0  0  0  0
  5  7  1  0  0  0  0
  2  3  1  0  0  0  0
  2  4  1  0  0  0  0
  2  5  1  0  0  0  0
  1  2  1  0  0  0  0
 19 20  2  0  0  0  0
 19 21  1  0  0  0  0
 16 17  1  0  0  0  0
 16 18  1  0  0  0  0
 14 15  2  0  0  0  0
 14 16  1  0  0  0  0
 11 12  1  0  0  0  0
 11 13  1  0  0  0  0
 11 14  1  0  0  0  0
  9 10  1  0  0  0  0
  9 11  1  0  0  0  0
  9 19  1  0  0  0  0
  7  8  1  0  0  0  0
  7  9  1  0  0  0  0
 23 24  1  0  0  0  0
 23 25  1  0  0  0  0
 23 26  1  0  0  0  0
 21 22  1  0  0  0  0
 21 23  1  0  0  0  0
M  END
$$$$
default_name
  -OEChem-01062215323D

 26 25  0     1  0  0  0  0  0999 V2000
   -3.0232   -3.6924    1.0038 H   0  0  0  0  0  0  0  0  0  0  0  0
   -3.0082   -2.6684    0.6318 C   0  0  0  0  0  0  0  0  0  0  0  0
   -3.6332   -2.0414    1.2658 H   0  0  0  0  0  0  0  0  0  0  0  0
   -3.3762   -2.6444   -0.3912 H   0  0  0  0  0  0  0  0  0  0  0  0
   -1.5882   -2.1554    0.6658 C   0  0  0  0  0  0  0  0  0  0  0  0
   -0.6832   -2.8764    1.0638 O   0  0  0  0  0  0  0  0  0  0  0  0
   -1.3952   -0.9084    0.2428 N   0  0  0  0  0  0  0  0  0  0  0  0
   -2.1972   -0.3644   -0.0422 H   0  0  0  0  0  0  0  0  0  0  0  0
   -0.1122   -0.1994    0.2658 C   0  0  1  0  0  0  0  0  0  0  0  0
   -0.0802    0.4885   -0.5830 H   0  0  0  0  0  0  0  0  0  0  0  0
   -0.0196    0.6176    1.5739 C   0  0  0  0  0  0  0  0  0  0  0  0
   -0.2730   -0.0258    2.4157 H   0  0  0  0  0  0  0  0  0  0  0  0
    1.0028    0.9684    1.7066 H   0  0  0  0  0  0  0  0  0  0  0  0
   -0.9647    1.8070    1.6281 C   0  0  0  0  0  0  0  0  0  0  0  0
   -1.1554    2.5467    0.6785 O   0  0  0  0  0  0  0  0  0  0  0  0
   -1.5895    2.0410    2.7566 N   0  0  0  0  0  0  0  0  0  0  0  0
   -2.2206    2.8228    2.7576 H   0  0  0  0  0  0  0  0  0  0  0  0
   -1.4643    1.4363    3.5463 H   0  0  0  0  0  0  0  0  0  0  0  0
    1.0486   -1.2066    0.1110 C   0  0  0  0  0  0  0  0  0  0  0  0
    1.0487   -2.2490    0.7658 O   0  0  0  0  0  0  0  0  0  0  0  0
    2.0332   -0.8964   -0.7379 N   0  0  0  0  0  0  0  0  0  0  0  0
    1.9923    0.0166   -1.1796 H   0  0  0  0  0  0  0  0  0  0  0  0
    3.1928   -1.7449   -1.0066 C   0  0  0  0  0  0  0  0  0  0  0  0
    2.8587   -2.7281   -1.3450 H   0  0  0  0  0  0  0  0  0  0  0  0
    3.8174   -1.2919   -1.7777 H   0  0  0  0  0  0  0  0  0  0  0  0
    3.7784   -1.8686   -0.0941 H   0  0  0  0  0  0  0  0  0  0  0  0
  5  6  2  0  0  0  0
  5  7  1  0  0  0  0
  2  3  1  0  0  0  0
  2  4  1  0  0  0  0
  2  5  1  0  0  0  0
  1  2  1  0  0  0  0
 19 20  2  0  0  0  0
 19 21  1  0  0  0  0
 16 17  1  0  0  0  0
 16 18  1  0  0  0  0
 14 15  2  0  0  0  0
 14 16  1  0  0  0  0
 11 12  1  0  0  0  0
 11 13  1  0  0  0  0
 11 14  1  0  0  0  0
  9 10  1  0  0  0  0
  9 11  1  0  0  0  0
  9 19  1  0  0  0  0
  7  8  1  0  0  0  0
  7  9  1  0  0  0  0
 23 24  1  0  0  0  0
 23 25  1  0  0  0  0
 23 26  1  0  0  0  0
 21 22  1  0  0  0  0
 21 23  1  0  0  0  0
M  END
$$$$
default_name
  -OEChem-01062215323D

 26 25  0     1  0  0  0  0  0999 V2000
   -3.0232   -3.6924    1.0038 H   0  0  0  0  0  0  0  0  0  0  0  0
   -3.0082   -2.6684    0.6318 C   0  0  0  0  0  0  0  0  0  0  0  0
   -3.6332   -2.0414    1.2658 H   0  0  0  0  0  0  0  0  0  0  0  0
   -3.3762   -2.6444   -0.3912 H   0  0  0  0  0  0  0  0  0  0  0  0
   -1.5882   -2.1554    0.6658 C   0  0  0  0  0  0  0  0  0  0  0  0
   -0.6832   -2.8764    1.0638 O   0  0  0  0  0  0  0  0  0  0  0  0
   -1.3952   -0.9084    0.2428 N   0  0  0  0  0  0  0  0  0  0  0  0
   -2.1972   -0.3644   -0.0422 H   0  0  0  0  0  0  0  0  0  0  0  0
   -0.1122   -0.1994    0.2658 C   0  0  1  0  0  0  0  0  0  0  0  0
   -0.0802    0.4885   -0.5830 H   0  0  0  0  0  0  0  0  0  0  0  0
   -0.0196    0.6176    1.5739 C   0  0  0  0  0  0  0  0  0  0  0  0
   -0.2730   -0.0258    2.4157 H   0  0  0  0  0  0  0  0  0  0  0  0
    1.0028    0.9684    1.7066 H   0  0  0  0  0  0  0  0  0  0  0  0
   -0.9647    1.8070    1.6281 C   0  0  0  0  0  0  0  0  0  0  0  0
   -1.1554    2.5467    0.6785 O   0  0  0  0  0  0  0  0  0  0  0  0
   -1.5895    2.0410    2.7566 N   0  0  0  0  0  0  0  0  0  0  0  0
   -2.2206    2.8228    2.7576 H   0  0  0  0  0  0  0  0  0  0  0  0
   -1.4643    1.4363    3.5463 H   0  0  0  0  0  0  0  0  0  0  0  0
    1.0486   -1.2066    0.1110 C   0  0  0  0  0  0  0  0  0  0  0  0
    0.9269   -2.3545    0.5387 O   0  0  0  0  0  0  0  0  0  0  0  0
    2.1669   -0.7812   -0.4846 N   0  0  0  0  0  0  0  0  0  0  0  0
    2.2108    0.2005   -0.7386 H   0  0  0  0  0  0  0  0  0  0  0  0
    3.3475   -1.6109   -0.7185 C   0  0  0  0  0  0  0  0  0  0  0  0
    3.0672   -2.4956   -1.2944 H   0  0  0  0  0  0  0  0  0  0  0  0
    4.0992   -1.0452   -1.2706 H   0  0  0  0  0  0  0  0  0  0  0  0
    3.7669   -1.9326    0.2363 H   0  0  0  0  0  0  0  0  0  0  0  0
  5  6  2  0  0  0  0
  5  7  1  0  0  0  0
  2  3  1  0  0  0  0
  2  4  1  0  0  0  0
  2  5  1  0  0  0  0
  1  2  1  0  0  0  0
 19 20  2  0  0  0  0
 19 21  1  0  0  0  0
 16 17  1  0  0  0  0
 16 18  1  0  0  0  0
 14 15  2  0  0  0  0
 14 16  1  0  0  0  0
 11 12  1  0  0  0  0
 11 13  1  0  0  0  0
 11 14  1  0  0  0  0
  9 10  1  0  0  0  0
  9 11  1  0  0  0  0
  9 19  1  0  0  0  0
  7  8  1  0  0  0  0
  7  9  1  0  0  0  0
 23 24  1  0  0  0  0
 23 25  1  0  0  0  0
 23 26  1  0  0  0  0
 21 22  1  0  0  0  0
 21 23  1  0  0  0  0
M  END
$$$$
default_name
  -OEChem-01062215323D

 26 25  0     1  0  0  0  0  0999 V2000
   -3.0232   -3.6924    1.0038 H   0  0  0  0  0  0  0  0  0  0  0  0
   -3.0082   -2.6684    0.6318 C   0  0  0  0  0  0  0  0  0  0  0  0
   -3.6332   -2.0414    1.2658 H   0  0  0  0  0  0  0  0  0  0  0  0
   -3.3762   -2.6444   -0.3912 H   0  0  0  0  0  0  0  0  0  0  0  0
   -1.5882   -2.1554    0.6658 C   0  0  0  0  0  0  0  0  0  0  0  0
   -0.6832   -2.8764    1.0638 O   0  0  0  0  0  0  0  0  0  0  0  0
   -1.3952   -0.9084    0.2428 N   0  0  0  0  0  0  0  0  0  0  0  0
   -2.1972   -0.3644   -0.0422 H   0  0  0  0  0  0  0  0  0  0  0  0
   -0.1122   -0.1994    0.2658 C   0  0  1  0  0  0  0  0  0  0  0  0
   -0.0802    0.4885   -0.5830 H   0  0  0  0  0  0  0  0  0  0  0  0
   -0.0196    0.6176    1.5739 C   0  0  0  0  0  0  0  0  0  0  0  0
   -0.2730   -0.0258    2.4157 H   0  0  0  0  0  0  0  0  0  0  0  0
    1.0028    0.9684    1.7066 H   0  0  0  0  0  0  0  0  0  0  0  0
   -0.9647    1.8070    1.6281 C   0  0  0  0  0  0  0  0  0  0  0  0
   -1.1554    2.5467    0.6785 O   0  0  0  0  0  0  0  0  0  0  0  0
   -1.5895    2.0410    2.7566 N   0  0  0  0  0  0  0  0  0  0  0  0
   -2.2206    2.8228    2.7576 H   0  0  0  0  0  0  0  0  0  0  0  0
   -1.4643    1.4363    3.5463 H   0  0  0  0  0  0  0  0  0  0  0  0
    1.0486   -1.2066    0.1110 C   0  0  0  0  0  0  0  0  0  0  0  0
    0.8448   -2.4090    0.2782 O   0  0  0  0  0  0  0  0  0  0  0  0
    2.2563   -0.7227   -0.1949 N   0  0  0  0  0  0  0  0  0  0  0  0
    2.3521    0.2868   -0.2400 H   0  0  0  0  0  0  0  0  0  0  0  0
    3.4518   -1.5415   -0.3880 C   0  0  0  0  0  0  0  0  0  0  0  0
    3.2662   -2.2861   -1.1651 H   0  0  0  0  0  0  0  0  0  0  0  0
    4.2922   -0.9127   -0.6853 H   0  0  0  0  0  0  0  0  0  0  0  0
    3.6984   -2.0584    0.5410 H   0  0  0  0  0  0  0  0  0  0  0  0
  5  6  2  0  0  0  0
  5  7  1  0  0  0  0
  2  3  1  0  0  0  0
  2  4  1  0  0  0  0
  2  5  1  0  0  0  0
  1  2  1  0  0  0  0
 19 20  2  0  0  0  0
 19 21  1  0  0  0  0
 16 17  1  0  0  0  0
 16 18  1  0  0  0  0
 14 15  2  0  0  0  0
 14 16  1  0  0  0  0
 11 12  1  0  0  0  0
 11 13  1  0  0  0  0
 11 14  1  0  0  0  0
  9 10  1  0  0  0  0
  9 11  1  0  0  0  0
  9 19  1  0  0  0  0
  7  8  1  0  0  0  0
  7  9  1  0  0  0  0
 23 24  1  0  0  0  0
 23 25  1  0  0  0  0
 23 26  1  0  0  0  0
 21 22  1  0  0  0  0
 21 23  1  0  0  0  0
M  END
$$$$
default_name
  -OEChem-01062215323D

 26 25  0     1  0  0  0  0  0999 V2000
   -3.0232   -3.6924    1.0038 H   0  0  0  0  0  0  0  0  0  0  0  0
   -3.0082   -2.6684    0.6318 C   0  0  0  0  0  0  0  0  0  0  0  0
   -3.6332   -2.0414    1.2658 H   0  0  0  0  0  0  0  0  0  0  0  0
   -3.3762   -2.6444   -0.3912 H   0  0  0  0  0  0  0  0  0  0  0  0
   -1.5882   -2.1554    0.6658 C   0  0  0  0  0  0  0  0  0  0  0  0
   -0.6832   -2.8764    1.0638 O   0  0  0  0  0  0  0  0  0  0  0  0
   -1.3952   -0.9084    0.2428 N   0  0  0  0  0  0  0  0  0  0  0  0
   -2.1972   -0.3644   -0.0422 H   0  0  0  0  0  0  0  0  0  0  0  0
   -0.1122   -0.1994    0.2658 C   0  0  1  0  0  0  0  0  0  0  0  0
   -0.1800    0.6632   -0.4021 H   0  0  0  0  0  0  0  0  0  0  0  0
    0.1525    0.3020    1.7030 C   0  0  0  0  0  0  0  0  0  0  0  0
    0.0002   -0.5197    2.4019 H   0  0  0  0  0  0  0  0  0  0  0  0
    1.1870    0.6325    1.7833 H   0  0  0  0  0  0  0  0  0  0  0  0
   -0.7660    1.4307    2.1430 C   0  0  0  0  0  0  0  0  0  0  0  0
   -1.0668    2.3624    1.4173 O   0  0  0  0  0  0  0  0  0  0  0  0
   -1.2415    1.3917    3.3640 N   0  0  0  0  0  0  0  0  0  0  0  0
   -1.8594    2.1412    3.6210 H   0  0  0  0  0  0  0  0  0  0  0  0
   -1.0245    0.6264    3.9741 H   0  0  0  0  0  0  0  0  0  0  0  0
    1.0095   -1.1238   -0.2569 C   0  0  0  0  0  0  0  0  0  0  0  0
    0.7447   -2.2746   -0.6047 O   0  0  0  0  0  0  0  0  0  0  0  0
    2.2512   -0.6317   -0.3028 N   0  0  0  0  0  0  0  0  0  0  0  0
    2.3935    0.3000    0.0739 H   0  0  0  0  0  0  0  0  0  0  0  0
    3.4177   -1.3710   -0.7819 C   0  0  0  0  0  0  0  0  0  0  0  0
    3.2390   -1.7198   -1.8013 H   0  0  0  0  0  0  0  0  0  0  0  0
    4.2989   -0.7281   -0.7707 H   0  0  0  0  0  0  0  0  0  0  0  0
    3.5941   -2.2366   -0.1412 H   0  0  0  0  0  0  0  0  0  0  0  0
  5  6  2  0  0  0  0
  5  7  1  0  0  0  0
  2  3  1  0  0  0  0
  2  4  1  0  0  0  0
  2  5  1  0  0  0  0
  1  2  1  0  0  0  0
 19 20  2  0  0  0  0
 19 21  1  0  0  0  0
 16 17  1  0  0  0  0
 16 18  1  0  0  0  0
 14 15  2  0  0  0  0
 14 16  1  0  0  0  0
 11 12  1  0  0  0  0
 11 13  1  0  0  0  0
 11 14  1  0  0  0  0
  9 10  1  0  0  0  0
  9 11  1  0  0  0  0
  9 19  1  0  0  0  0
  7  8  1  0  0  0  0
  7  9  1  0  0  0  0
 23 24  1  0  0  0  0
 23 25  1  0  0  0  0
 23 26  1  0  0  0  0
 21 22  1  0  0  0  0
 21 23  1  0  0  0  0
M  END
$$$$
default_name
  -OEChem-01062215323D

 26 25  0     1  0  0  0  0  0999 V2000
   -3.0232   -3.6924    1.0038 H   0  0  0  0  0  0  0  0  0  0  0  0
   -3.0082   -2.6684    0.6318 C   0  0  0  0  0  0  0  0  0  0  0  0
   -3.6332   -2.0414    1.2658 H   0  0  0  0  0  0  0  0  0  0  0  0
   -3.3762   -2.6444   -0.3912 H   0  0  0  0  0  0  0  0  0  0  0  0
   -1.5882   -2.1554    0.6658 C   0  0  0  0  0  0  0  0  0  0  0  0
   -0.6832   -2.8764    1.0638 O   0  0  0  0  0  0  0  0  0  0  0  0
   -1.3952   -0.9084    0.2428 N   0  0  0  0  0  0  0  0  0  0  0  0
   -2.1972   -0.3644   -0.0422 H   0  0  0  0  0  0  0  0  0  0  0  0
   -0.1122   -0.1994    0.2658 C   0  0  1  0  0  0  0  0  0  0  0  0
   -0.1800    0.6632   -0.4021 H   0  0  0  0  0  0  0  0  0  0  0  0
    0.1525    0.3020    1.7030 C   0  0  0  0  0  0  0  0  0  0  0  0
    0.0002   -0.5197    2.4019 H   0  0  0  0  0  0  0  0  0  0  0  0
    1.1870    0.6325    1.7833 H   0  0  0  0  0  0  0  0  0  0  0  0
   -0.7660    1.4307    2.1430 C   0  0  0  0  0  0  0  0  0  0  0  0
   -1.0668    2.3624    1.4173 O   0  0  0  0  0  0  0  0  0  0  0  0
   -1.2415    1.3917    3.3640 N   0  0  0  0  0  0  0  0  0  0  0  0
   -1.8594    2.1412    3.6210 H   0  0  0  0  0  0  0  0  0  0  0  0
   -1.0245    0.6264    3.9741 H   0  0  0  0  0  0  0  0  0  0  0  0
    1.0095   -1.1238   -0.2569 C   0  0  0  0  0  0  0  0  0  0  0  0
    0.7220   -2.1593   -0.8573 O   0  0  0  0  0  0  0  0  0  0  0  0
    2.2746   -0.7613   -0.0236 N   0  0  0  0  0  0  0  0  0  0  0  0
    2.4208    0.0673    0.5442 H   0  0  0  0  0  0  0  0  0  0  0  0
    3.4466   -1.5171   -0.4614 C   0  0  0  0  0  0  0  0  0  0  0  0
    3.4119   -1.6555   -1.5442 H   0  0  0  0  0  0  0  0  0  0  0  0
    4.3586   -0.9805   -0.1961 H   0  0  0  0  0  0  0  0  0  0  0  0
    3.4526   -2.4979    0.0172 H   0  0  0  0  0  0  0  0  0  0  0  0
  5  6  2  0  0  0  0
  5  7  1  0  0  0  0
  2  3  1  0  0  0  0
  2  4  1  0  0  0  0
  2  5  1  0  0  0  0
  1  2  1  0  0  0  0
 19 20  2  0  0  0  0
 19 21  1  0  0  0  0
 16 17  1  0  0  0  0
 16 18  1  0  0  0  0
 14 15  2  0  0  0  0
 14 16  1  0  0  0  0
 11 12  1  0  0  0  0
 11 13  1  0  0  0  0
 11 14  1  0  0  0  0
  9 10  1  0  0  0  0
  9 11  1  0  0  0  0
  9 19  1  0  0  0  0
  7  8  1  0  0  0  0
  7  9  1  0  0  0  0
 23 24  1  0  0  0  0
 23 25  1  0  0  0  0
 23 26  1  0  0  0  0
 21 22  1  0  0  0  0
 21 23  1  0  0  0  0
M  END
$$$$
default_name
  -OEChem-01062215323D

 26 25  0     1  0  0  0  0  0999 V2000
   -3.0232   -3.6924    1.0038 H   0  0  0  0  0  0  0  0  0  0  0  0
   -3.0082   -2.6684    0.6318 C   0  0  0  0  0  0  0  0  0  0  0  0
   -3.6332   -2.0414    1.2658 H   0  0  0  0  0  0  0  0  0  0  0  0
   -3.3762   -2.6444   -0.3912 H   0  0  0  0  0  0  0  0  0  0  0  0
   -1.5882   -2.1554    0.6658 C   0  0  0  0  0  0  0  0  0  0  0  0
   -0.6832   -2.8764    1.0638 O   0  0  0  0  0  0  0  0  0  0  0  0
   -1.3952   -0.9084    0.2428 N   0  0  0  0  0  0  0  0  0  0  0  0
   -2.1972   -0.3644   -0.0422 H   0  0  0  0  0  0  0  0  0  0  0  0
   -0.1122   -0.1994    0.2658 C   0  0  1  0  0  0  0  0  0  0  0  0
   -0.1800    0.6632   -0.4021 H   0  0  0  0  0  0  0  0  0  0  0  0
    0.1525    0.3020    1.7030 C   0  0  0  0  0  0  0  0  0  0  0  0
    0.0002   -0.5197    2.4019 H   0  0  0  0  0  0  0  0  0  0  0  0
    1.1870    0.6325    1.7833 H   0  0  0  0  0  0  0  0  0  0  0  0
   -0.7660    1.4307    2.1430 C   0  0  0  0  0  0  0  0  0  0  0  0
   -1.0668    2.3624    1.4173 O   0  0  0  0  0  0  0  0  0  0  0  0
   -1.2415    1.3917    3.3640 N   0  0  0  0  0  0  0  0  0  0  0  0
   -1.8594    2.1412    3.6210 H   0  0  0  0  0  0  0  0  0  0  0  0
   -1.0245    0.6264    3.9741 H   0  0  0  0  0  0  0  0  0  0  0  0
    1.0095   -1.1238   -0.2569 C   0  0  0  0  0  0  0  0  0  0  0  0
    0.7493   -1.9986   -1.0830 O   0  0  0  0  0  0  0  0  0  0  0  0
    2.2425   -0.9410    0.2253 N   0  0  0  0  0  0  0  0  0  0  0  0
    2.3540   -0.2483    0.9589 H   0  0  0  0  0  0  0  0  0  0  0  0
    3.4122   -1.7210   -0.1748 C   0  0  0  0  0  0  0  0  0  0  0  0
    3.5447   -1.6567   -1.2569 H   0  0  0  0  0  0  0  0  0  0  0  0
    4.3052   -1.3376    0.3207 H   0  0  0  0  0  0  0  0  0  0  0  0
    3.2685   -2.7676    0.0992 H   0  0  0  0  0  0  0  0  0  0  0  0
  5  6  2  0  0  0  0
  5  7  1  0  0  0  0
  2  3  1  0  0  0  0
  2  4  1  0  0  0  0
  2  5  1  0  0  0  0
  1  2  1  0  0  0  0
 19 20  2  0  0  0  0
 19 21  1  0  0  0  0
 16 17  1  0  0  0  0
 16 18  1  0  0  0  0
 14 15  2  0  0  0  0
 14 16  1  0  0  0  0
 11 12  1  0  0  0  0
 11 13  1  0  0  0  0
 11 14  1  0  0  0  0
  9 10  1  0  0  0  0
  9 11  1  0  0  0  0
  9 19  1  0  0  0  0
  7  8  1  0  0  0  0
  7  9  1  0  0  0  0
 23 24  1  0  0  0  0
 23 25  1  0  0  0  0
 23 26  1  0  0  0  0
 21 22  1  0  0  0  0
 21 23  1  0  0  0  0
M  END
$$$$
default_name
  -OEChem-01062215323D

 26 25  0     1  0  0  0  0  0999 V2000
   -3.0232   -3.6924    1.0038 H   0  0  0  0  0  0  0  0  0  0  0  0
   -3.0082   -2.6684    0.6318 C   0  0  0  0  0  0  0  0  0  0  0  0
   -3.6332   -2.0414    1.2658 H   0  0  0  0  0  0  0  0  0  0  0  0
   -3.3762   -2.6444   -0.3912 H   0  0  0  0  0  0  0  0  0  0  0  0
   -1.5882   -2.1554    0.6658 C   0  0  0  0  0  0  0  0  0  0  0  0
   -0.6832   -2.8764    1.0638 O   0  0  0  0  0  0  0  0  0  0  0  0
   -1.3952   -0.9084    0.2428 N   0  0  0  0  0  0  0  0  0  0  0  0
   -2.1972   -0.3644   -0.0422 H   0  0  0  0  0  0  0  0  0  0  0  0
   -0.1122   -0.1994    0.2658 C   0  0  1  0  0  0  0  0  0  0  0  0
   -0.1800    0.6632   -0.4021 H   0  0  0  0  0  0  0  0  0  0  0  0
    0.1525    0.3020    1.7030 C   0  0  0  0  0  0  0  0  0  0  0  0
    0.0002   -0.5197    2.4019 H   0  0  0  0  0  0  0  0  0  0  0  0
    1.1870    0.6325    1.7833 H   0  0  0  0  0  0  0  0  0  0  0  0
   -0.7660    1.4307    2.1430 C   0  0  0  0  0  0  0  0  0  0  0  0
   -1.0668    2.3624    1.4173 O   0  0  0  0  0  0  0  0  0  0  0  0
   -1.2415    1.3917    3.3640 N   0  0  0  0  0  0  0  0  0  0  0  0
   -1.8594    2.1412    3.6210 H   0  0  0  0  0  0  0  0  0  0  0  0
   -1.0245    0.6264    3.9741 H   0  0  0  0  0  0  0  0  0  0  0  0
    1.0095   -1.1238   -0.2569 C   0  0  0  0  0  0  0  0  0  0  0  0
    0.8247   -1.8032   -1.2667 O   0  0  0  0  0  0  0  0  0  0  0  0
    2.1572   -1.1585    0.4271 N   0  0  0  0  0  0  0  0  0  0  0  0
    2.1976   -0.6252    1.2898 H   0  0  0  0  0  0  0  0  0  0  0  0
    3.3166   -1.9689    0.0584 C   0  0  0  0  0  0  0  0  0  0  0  0
    3.6283   -1.7236   -0.9591 H   0  0  0  0  0  0  0  0  0  0  0  0
    4.1422   -1.7749    0.7445 H   0  0  0  0  0  0  0  0  0  0  0  0
    3.0543   -3.0274    0.0991 H   0  0  0  0  0  0  0  0  0  0  0  0
  5  6  2  0  0  0  0
  5  7  1  0  0  0  0
  2  3  1  0  0  0  0
  2  4  1  0  0  0  0
  2  5  1  0  0  0  0
  1  2  1  0  0  0  0
 19 20  2  0  0  0  0
 19 21  1  0  0  0  0
 16 17  1  0  0  0  0
 16 18  1  0  0  0  0
 14 15  2  0  0  0  0
 14 16  1  0  0  0  0
 11 12  1  0  0  0  0
 11 13  1  0  0  0  0
 11 14  1  0  0  0  0
  9 10  1  0  0  0  0
  9 11  1  0  0  0  0
  9 19  1  0  0  0  0
  7  8  1  0  0  0  0
  7  9  1  0  0  0  0
 23 24  1  0  0  0  0
 23 25  1  0  0  0  0
 23 26  1  0  0  0  0
 21 22  1  0  0  0  0
 21 23  1  0  0  0  0
M  END
$$$$
default_name
  -OEChem-01062215323D

 26 25  0     1  0  0  0  0  0999 V2000
   -3.0232   -3.6924    1.0038 H   0  0  0  0  0  0  0  0  0  0  0  0
   -3.0082   -2.6684    0.6318 C   0  0  0  0  0  0  0  0  0  0  0  0
   -3.6332   -2.0414    1.2658 H   0  0  0  0  0  0  0  0  0  0  0  0
   -3.3762   -2.6444   -0.3912 H   0  0  0  0  0  0  0  0  0  0  0  0
   -1.5882   -2.1554    0.6658 C   0  0  0  0  0  0  0  0  0  0  0  0
   -0.6832   -2.8764    1.0638 O   0  0  0  0  0  0  0  0  0  0  0  0
   -1.3952   -0.9084    0.2428 N   0  0  0  0  0  0  0  0  0  0  0  0
   -2.1972   -0.3644   -0.0422 H   0  0  0  0  0  0  0  0  0  0  0  0
   -0.1122   -0.1994    0.2658 C   0  0  1  0  0  0  0  0  0  0  0  0
   -0.1800    0.6632   -0.4021 H   0  0  0  0  0  0  0  0  0  0  0  0
    0.1525    0.3020    1.7030 C   0  0  0  0  0  0  0  0  0  0  0  0
    0.0002   -0.5197    2.4019 H   0  0  0  0  0  0  0  0  0  0  0  0
    1.1870    0.6325    1.7833 H   0  0  0  0  0  0  0  0  0  0  0  0
   -0.7660    1.4307    2.1430 C   0  0  0  0  0  0  0  0  0  0  0  0
   -1.0668    2.3624    1.4173 O   0  0  0  0  0  0  0  0  0  0  0  0
   -1.2415    1.3917    3.3640 N   0  0  0  0  0  0  0  0  0  0  0  0
   -1.8594    2.1412    3.6210 H   0  0  0  0  0  0  0  0  0  0  0  0
   -1.0245    0.6264    3.9741 H   0  0  0  0  0  0  0  0  0  0  0  0
    1.0095   -1.1238   -0.2569 C   0  0  0  0  0  0  0  0  0  0  0  0
    0.9431   -1.5866   -1.3957 O   0  0  0  0  0  0  0  0  0  0  0  0
    2.0245   -1.3991    0.5679 N   0  0  0  0  0  0  0  0  0  0  0  0
    1.9622   -1.0378    1.5144 H   0  0  0  0  0  0  0  0  0  0  0  0
    3.1665   -2.2437    0.2223 C   0  0  0  0  0  0  0  0  0  0  0  0
    3.6572   -1.8515   -0.6711 H   0  0  0  0  0  0  0  0  0  0  0  0
    3.8809   -2.2627    1.0464 H   0  0  0  0  0  0  0  0  0  0  0  0
    2.8248   -3.2596    0.0171 H   0  0  0  0  0  0  0  0  0  0  0  0
  5  6  2  0  0  0  0
  5  7  1  0  0  0  0
  2  3  1  0  0  0  0
  2  4  1  0  0  0  0
  2  5  1  0  0  0  0
  1  2  1  0  0  0  0
 19 20  2  0  0  0  0
 19 21  1  0  0  0  0
 16 17  1  0  0  0  0
 16 18  1  0  0  0  0
 14 15  2  0  0  0  0
 14 16  1  0  0  0  0
 11 12  1  0  0  0  0
 11 13  1  0  0  0  0
 11 14  1  0  0  0  0
  9 10  1  0  0  0  0
  9 11  1  0  0  0  0
  9 19  1  0  0  0  0
  7  8  1  0  0  0  0
  7  9  1  0  0  0  0
 23 24  1  0  0  0  0
 23 25  1  0  0  0  0
 23 26  1  0  0  0  0
 21 22  1  0  0  0  0
 21 23  1  0  0  0  0
M  END
$$$$
default_name
  -OEChem-01062215323D

 26 25  0     1  0  0  0  0  0999 V2000
   -3.0232   -3.6924    1.0038 H   0  0  0  0  0  0  0  0  0  0  0  0
   -3.0082   -2.6684    0.6318 C   0  0  0  0  0  0  0  0  0  0  0  0
   -3.6332   -2.0414    1.2658 H   0  0  0  0  0  0  0  0  0  0  0  0
   -3.3762   -2.6444   -0.3912 H   0  0  0  0  0  0  0  0  0  0  0  0
   -1.5882   -2.1554    0.6658 C   0  0  0  0  0  0  0  0  0  0  0  0
   -0.6832   -2.8764    1.0638 O   0  0  0  0  0  0  0  0  0  0  0  0
   -1.3952   -0.9084    0.2428 N   0  0  0  0  0  0  0  0  0  0  0  0
   -2.1972   -0.3644   -0.0422 H   0  0  0  0  0  0  0  0  0  0  0  0
   -0.1122   -0.1994    0.2658 C   0  0  1  0  0  0  0  0  0  0  0  0
   -0.1800    0.6632   -0.4021 H   0  0  0  0  0  0  0  0  0  0  0  0
    0.1525    0.3020    1.7030 C   0  0  0  0  0  0  0  0  0  0  0  0
    0.0002   -0.5197    2.4019 H   0  0  0  0  0  0  0  0  0  0  0  0
    1.1870    0.6325    1.7833 H   0  0  0  0  0  0  0  0  0  0  0  0
   -0.7660    1.4307    2.1430 C   0  0  0  0  0  0  0  0  0  0  0  0
   -1.0668    2.3624    1.4173 O   0  0  0  0  0  0  0  0  0  0  0  0
   -1.2415    1.3917    3.3640 N   0  0  0  0  0  0  0  0  0  0  0  0
   -1.8594    2.1412    3.6210 H   0  0  0  0  0  0  0  0  0  0  0  0
   -1.0245    0.6264    3.9741 H   0  0  0  0  0  0  0  0  0  0  0  0
    1.0095   -1.1238   -0.2569 C   0  0  0  0  0  0  0  0  0  0  0  0
    1.0965   -1.3635   -1.4612 O   0  0  0  0  0  0  0  0  0  0  0  0
    1.8535   -1.6463    0.6381 N   0  0  0  0  0  0  0  0  0  0  0  0
    1.6639   -1.4579    1.6173 H   0  0  0  0  0  0  0  0  0  0  0  0
    2.9720   -2.5268    0.3057 C   0  0  0  0  0  0  0  0  0  0  0  0
    3.6292   -2.0316   -0.4124 H   0  0  0  0  0  0  0  0  0  0  0  0
    3.5390   -2.7678    1.2059 H   0  0  0  0  0  0  0  0  0  0  0  0
    2.5954   -3.4483   -0.1414 H   0  0  0  0  0  0  0  0  0  0  0  0
  5  6  2  0  0  0  0
  5  7  1  0  0  0  0
  2  3  1  0  0  0  0
  2  4  1  0  0  0  0
  2  5  1  0  0  0  0
  1  2  1  0  0  0  0
 19 20  2  0  0  0  0
 19 21  1  0  0  0  0
 16 17  1  0  0  0  0
 16 18  1  0  0  0  0
 14 15  2  0  0  0  0
 14 16  1  0  0  0  0
 11 12  1  0  0  0  0
 11 13  1  0  0  0  0
 11 14  1  0  0  0  0
  9 10  1  0  0  0  0
  9 11  1  0  0  0  0
  9 19  1  0  0  0  0
  7  8  1  0  0  0  0
  7  9  1  0  0  0  0
 23 24  1  0  0  0  0
 23 25  1  0  0  0  0
 23 26  1  0  0  0  0
 21 22  1  0  0  0  0
 21 23  1  0  0  0  0
M  END
$$$$
default_name
  -OEChem-01062215323D

 26 25  0     1  0  0  0  0  0999 V2000
   -3.0232   -3.6924    1.0038 H   0  0  0  0  0  0  0  0  0  0  0  0
   -3.0082   -2.6684    0.6318 C   0  0  0  0  0  0  0  0  0  0  0  0
   -3.6332   -2.0414    1.2658 H   0  0  0  0  0  0  0  0  0  0  0  0
   -3.3762   -2.6444   -0.3912 H   0  0  0  0  0  0  0  0  0  0  0  0
   -1.5882   -2.1554    0.6658 C   0  0  0  0  0  0  0  0  0  0  0  0
   -0.6832   -2.8764    1.0638 O   0  0  0  0  0  0  0  0  0  0  0  0
   -1.3952   -0.9084    0.2428 N   0  0  0  0  0  0  0  0  0  0  0  0
   -2.1972   -0.3644   -0.0422 H   0  0  0  0  0  0  0  0  0  0  0  0
   -0.1122   -0.1994    0.2658 C   0  0  1  0  0  0  0  0  0  0  0  0
   -0.1800    0.6632   -0.4021 H   0  0  0  0  0  0  0  0  0  0  0  0
    0.1525    0.3020    1.7030 C   0  0  0  0  0  0  0  0  0  0  0  0
    0.0002   -0.5197    2.4019 H   0  0  0  0  0  0  0  0  0  0  0  0
    1.1870    0.6325    1.7833 H   0  0  0  0  0  0  0  0  0  0  0  0
   -0.7660    1.4307    2.1430 C   0  0  0  0  0  0  0  0  0  0  0  0
   -1.0668    2.3624    1.4173 O   0  0  0  0  0  0  0  0  0  0  0  0
   -1.2415    1.3917    3.3640 N   0  0  0  0  0  0  0  0  0  0  0  0
   -1.8594    2.1412    3.6210 H   0  0  0  0  0  0  0  0  0  0  0  0
   -1.0245    0.6264    3.9741 H   0  0  0  0  0  0  0  0  0  0  0  0
    1.0095   -1.1238   -0.2569 C   0  0  0  0  0  0  0  0  0  0  0  0
    1.2742   -1.1491   -1.4588 O   0  0  0  0  0  0  0  0  0  0  0  0
    1.6558   -1.8833    0.6329 N   0  0  0  0  0  0  0  0  0  0  0  0
    1.3231   -1.8569    1.5915 H   0  0  0  0  0  0  0  0  0  0  0  0
    2.7465   -2.7989    0.3029 C   0  0  0  0  0  0  0  0  0  0  0  0
    3.5464   -2.2518   -0.2008 H   0  0  0  0  0  0  0  0  0  0  0  0
    3.1398   -3.2556    1.2121 H   0  0  0  0  0  0  0  0  0  0  0  0
    2.3818   -3.5808   -0.3654 H   0  0  0  0  0  0  0  0  0  0  0  0
  5  6  2  0  0  0  0
  5  7  1  0  0  0  0
  2  3  1  0  0  0  0
  2  4  1  0  0  0  0
  2  5  1  0  0  0  0
  1  2  1  0  0  0  0
 19 20  2  0  0  0  0
 19 21  1  0  0  0  0
 16 17  1  0  0  0  0
 16 18  1  0  0  0  0
 14 15  2  0  0  0  0
 14 16  1  0  0  0  0
 11 12  1  0  0  0  0
 11 13  1  0  0  0  0
 11 14  1  0  0  0  0
  9 10  1  0  0  0  0
  9 11  1  0  0  0  0
  9 19  1  0  0  0  0
  7  8  1  0  0  0  0
  7  9  1  0  0  0  0
 23 24  1  0  0  0  0
 23 25  1  0  0  0  0
 23 26  1  0  0  0  0
 21 22  1  0  0  0  0
 21 23  1  0  0  0  0
M  END
$$$$
default_name
  -OEChem-01062215323D

 26 25  0     1  0  0  0  0  0999 V2000
   -3.0232   -3.6924    1.0038 H   0  0  0  0  0  0  0  0  0  0  0  0
   -3.0082   -2.6684    0.6318 C   0  0  0  0  0  0  0  0  0  0  0  0
   -3.6332   -2.0414    1.2658 H   0  0  0  0  0  0  0  0  0  0  0  0
   -3.3762   -2.6444   -0.3912 H   0  0  0  0  0  0  0  0  0  0  0  0
   -1.5882   -2.1554    0.6658 C   0  0  0  0  0  0  0  0  0  0  0  0
   -0.6832   -2.8764    1.0638 O   0  0  0  0  0  0  0  0  0  0  0  0
   -1.3952   -0.9084    0.2428 N   0  0  0  0  0  0  0  0  0  0  0  0
   -2.1972   -0.3644   -0.0422 H   0  0  0  0  0  0  0  0  0  0  0  0
   -0.1122   -0.1994    0.2658 C   0  0  1  0  0  0  0  0  0  0  0  0
   -0.1800    0.6632   -0.4021 H   0  0  0  0  0  0  0  0  0  0  0  0
    0.1525    0.3020    1.7030 C   0  0  0  0  0  0  0  0  0  0  0  0
    0.0002   -0.5197    2.4019 H   0  0  0  0  0  0  0  0  0  0  0  0
    1.1870    0.6325    1.7833 H   0  0  0  0  0  0  0  0  0  0  0  0
   -0.7660    1.4307    2.1430 C   0  0  0  0  0  0  0  0  0  0  0  0
   -1.0668    2.3624    1.4173 O   0  0  0  0  0  0  0  0  0  0  0  0
   -1.2415    1.3917    3.3640 N   0  0  0  0  0  0  0  0  0  0  0  0
   -1.8594    2.1412    3.6210 H   0  0  0  0  0  0  0  0  0  0  0  0
   -1.0245    0.6264    3.9741 H   0  0  0  0  0  0  0  0  0  0  0  0
    1.0095   -1.1238   -0.2569 C   0  0  0  0  0  0  0  0  0  0  0  0
    1.4644   -0.9581   -1.3887 O   0  0  0  0  0  0  0  0  0  0  0  0
    1.4448   -2.0940    0.5528 N   0  0  0  0  0  0  0  0  0  0  0  0
    0.9629   -2.2076    1.4389 H   0  0  0  0  0  0  0  0  0  0  0  0
    2.5052   -3.0414    0.2141 C   0  0  0  0  0  0  0  0  0  0  0  0
    3.4143   -2.4971   -0.0506 H   0  0  0  0  0  0  0  0  0  0  0  0
    2.7105   -3.6931    1.0645 H   0  0  0  0  0  0  0  0  0  0  0  0
    2.1986   -3.6479   -0.6398 H   0  0  0  0  0  0  0  0  0  0  0  0
  5  6  2  0  0  0  0
  5  7  1  0  0  0  0
  2  3  1  0  0  0  0
  2  4  1  0  0  0  0
  2  5  1  0  0  0  0
  1  2  1  0  0  0  0
 19 20  2  0  0  0  0
 19 21  1  0  0  0  0
 16 17  1  0  0  0  0
 16 18  1  0  0  0  0
 14 15  2  0  0  0  0
 14 16  1  0  0  0  0
 11 12  1  0  0  0  0
 11 13  1  0  0  0  0
 11 14  1  0  0  0  0
  9 10  1  0  0  0  0
  9 11  1  0  0  0  0
  9 19  1  0  0  0  0
  7  8  1  0  0  0  0
  7  9  1  0  0  0  0
 23 24  1  0  0  0  0
 23 25  1  0  0  0  0
 23 26  1  0  0  0  0
 21 22  1  0  0  0  0
 21 23  1  0  0  0  0
M  END
$$$$
default_name
  -OEChem-01062215323D

 26 25  0     1  0  0  0  0  0999 V2000
   -3.0232   -3.6924    1.0038 H   0  0  0  0  0  0  0  0  0  0  0  0
   -3.0082   -2.6684    0.6318 C   0  0  0  0  0  0  0  0  0  0  0  0
   -3.6332   -2.0414    1.2658 H   0  0  0  0  0  0  0  0  0  0  0  0
   -3.3762   -2.6444   -0.3912 H   0  0  0  0  0  0  0  0  0  0  0  0
   -1.5882   -2.1554    0.6658 C   0  0  0  0  0  0  0  0  0  0  0  0
   -0.6832   -2.8764    1.0638 O   0  0  0  0  0  0  0  0  0  0  0  0
   -1.3952   -0.9084    0.2428 N   0  0  0  0  0  0  0  0  0  0  0  0
   -2.1972   -0.3644   -0.0422 H   0  0  0  0  0  0  0  0  0  0  0  0
   -0.1122   -0.1994    0.2658 C   0  0  1  0  0  0  0  0  0  0  0  0
   -0.1800    0.6632   -0.4021 H   0  0  0  0  0  0  0  0  0  0  0  0
    0.1525    0.3020    1.7030 C   0  0  0  0  0  0  0  0  0  0  0  0
    0.0002   -0.5197    2.4019 H   0  0  0  0  0  0  0  0  0  0  0  0
    1.1870    0.6325    1.7833 H   0  0  0  0  0  0  0  0  0  0  0  0
   -0.7660    1.4307    2.1430 C   0  0  0  0  0  0  0  0  0  0  0  0
   -1.0668    2.3624    1.4173 O   0  0  0  0  0  0  0  0  0  0  0  0
   -1.2415    1.3917    3.3640 N   0  0  0  0  0  0  0  0  0  0  0  0
   -1.8594    2.1412    3.6210 H   0  0  0  0  0  0  0  0  0  0  0  0
   -1.0245    0.6264    3.9741 H   0  0  0  0  0  0  0  0  0  0  0  0
    1.0095   -1.1238   -0.2569 C   0  0  0  0  0  0  0  0  0  0  0  0
    1.6539   -0.8034   -1.2556 O   0  0  0  0  0  0  0  0  0  0  0  0
    1.2350   -2.2639    0.4031 N   0  0  0  0  0  0  0  0  0  0  0  0
    0.6079   -2.4861    1.1697 H   0  0  0  0  0  0  0  0  0  0  0  0
    2.2647   -3.2379    0.0454 C   0  0  0  0  0  0  0  0  0  0  0  0
    3.2419   -2.7506    0.0280 H   0  0  0  0  0  0  0  0  0  0  0  0
    2.2804   -4.0503    0.7733 H   0  0  0  0  0  0  0  0  0  0  0  0
    2.0583   -3.6451   -0.9458 H   0  0  0  0  0  0  0  0  0  0  0  0
  5  6  2  0  0  0  0
  5  7  1  0  0  0  0
  2  3  1  0  0  0  0
  2  4  1  0  0  0  0
  2  5  1  0  0  0  0
  1  2  1  0  0  0  0
 19 20  2  0  0  0  0
 19 21  1  0  0  0  0
 16 17  1  0  0  0  0
 16 18  1  0  0  0  0
 14 15  2  0  0  0  0
 14 16  1  0  0  0  0
 11 12  1  0  0  0  0
 11 13  1  0  0  0  0
 11 14  1  0  0  0  0
  9 10  1  0  0  0  0
  9 11  1  0  0  0  0
  9 19  1  0  0  0  0
  7  8  1  0  0  0  0
  7  9  1  0  0  0  0
 23 24  1  0  0  0  0
 23 25  1  0  0  0  0
 23 26  1  0  0  0  0
 21 22  1  0  0  0  0
 21 23  1  0  0  0  0
M  END
$$$$
default_name
  -OEChem-01062215323D

 26 25  0     1  0  0  0  0  0999 V2000
   -3.0232   -3.6924    1.0038 H   0  0  0  0  0  0  0  0  0  0  0  0
   -3.0082   -2.6684    0.6318 C   0  0  0  0  0  0  0  0  0  0  0  0
   -3.6332   -2.0414    1.2658 H   0  0  0  0  0  0  0  0  0  0  0  0
   -3.3762   -2.6444   -0.3912 H   0  0  0  0  0  0  0  0  0  0  0  0
   -1.5882   -2.1554    0.6658 C   0  0  0  0  0  0  0  0  0  0  0  0
   -0.6832   -2.8764    1.0638 O   0  0  0  0  0  0  0  0  0  0  0  0
   -1.3952   -0.9084    0.2428 N   0  0  0  0  0  0  0  0  0  0  0  0
   -2.1972   -0.3644   -0.0422 H   0  0  0  0  0  0  0  0  0  0  0  0
   -0.1122   -0.1994    0.2658 C   0  0  1  0  0  0  0  0  0  0  0  0
   -0.1800    0.6632   -0.4021 H   0  0  0  0  0  0  0  0  0  0  0  0
    0.1525    0.3020    1.7030 C   0  0  0  0  0  0  0  0  0  0  0  0
    0.0002   -0.5197    2.4019 H   0  0  0  0  0  0  0  0  0  0  0  0
    1.1870    0.6325    1.7833 H   0  0  0  0  0  0  0  0  0  0  0  0
   -0.7660    1.4307    2.1430 C   0  0  0  0  0  0  0  0  0  0  0  0
   -1.0668    2.3624    1.4173 O   0  0  0  0  0  0  0  0  0  0  0  0
   -1.2415    1.3917    3.3640 N   0  0  0  0  0  0  0  0  0  0  0  0
   -1.8594    2.1412    3.6210 H   0  0  0  0  0  0  0  0  0  0  0  0
   -1.0245    0.6264    3.9741 H   0  0  0  0  0  0  0  0  0  0  0  0
    1.0095   -1.1238   -0.2569 C   0  0  0  0  0  0  0  0  0  0  0  0
    1.8299   -0.6955   -1.0686 O   0  0  0  0  0  0  0  0  0  0  0  0
    1.0407   -2.3815    0.1941 N   0  0  0  0  0  0  0  0  0  0  0  0
    0.2823   -2.6735    0.8024 H   0  0  0  0  0  0  0  0  0  0  0  0
    2.0413   -3.3749   -0.1917 C   0  0  0  0  0  0  0  0  0  0  0  0
    3.0411   -2.9952    0.0295 H   0  0  0  0  0  0  0  0  0  0  0  0
    1.8788   -4.3029    0.3582 H   0  0  0  0  0  0  0  0  0  0  0  0
    1.9704   -3.5726   -1.2626 H   0  0  0  0  0  0  0  0  0  0  0  0
  5  6  2  0  0  0  0
  5  7  1  0  0  0  0
  2  3  1  0  0  0  0
  2  4  1  0  0  0  0
  2  5  1  0  0  0  0
  1  2  1  0  0  0  0
 19 20  2  0  0  0  0
 19 21  1  0  0  0  0
 16 17  1  0  0  0  0
 16 18  1  0  0  0  0
 14 15  2  0  0  0  0
 14 16  1  0  0  0  0
 11 12  1  0  0  0  0
 11 13  1  0  0  0  0
 11 14  1  0  0  0  0
  9 10  1  0  0  0  0
  9 11  1  0  0  0  0
  9 19  1  0  0  0  0
  7  8  1  0  0  0  0
  7  9  1  0  0  0  0
 23 24  1  0  0  0  0
 23 25  1  0  0  0  0
 23 26  1  0  0  0  0
 21 22  1  0  0  0  0
 21 23  1  0  0  0  0
M  END
$$$$
default_name
  -OEChem-01062215323D

 26 25  0     1  0  0  0  0  0999 V2000
   -3.0232   -3.6924    1.0038 H   0  0  0  0  0  0  0  0  0  0  0  0
   -3.0082   -2.6684    0.6318 C   0  0  0  0  0  0  0  0  0  0  0  0
   -3.6332   -2.0414    1.2658 H   0  0  0  0  0  0  0  0  0  0  0  0
   -3.3762   -2.6444   -0.3912 H   0  0  0  0  0  0  0  0  0  0  0  0
   -1.5882   -2.1554    0.6658 C   0  0  0  0  0  0  0  0  0  0  0  0
   -0.6832   -2.8764    1.0638 O   0  0  0  0  0  0  0  0  0  0  0  0
   -1.3952   -0.9084    0.2428 N   0  0  0  0  0  0  0  0  0  0  0  0
   -2.1972   -0.3644   -0.0422 H   0  0  0  0  0  0  0  0  0  0  0  0
   -0.1122   -0.1994    0.2658 C   0  0  1  0  0  0  0  0  0  0  0  0
   -0.1800    0.6632   -0.4021 H   0  0  0  0  0  0  0  0  0  0  0  0
    0.1525    0.3020    1.7030 C   0  0  0  0  0  0  0  0  0  0  0  0
    0.0002   -0.5197    2.4019 H   0  0  0  0  0  0  0  0  0  0  0  0
    1.1870    0.6325    1.7833 H   0  0  0  0  0  0  0  0  0  0  0  0
   -0.7660    1.4307    2.1430 C   0  0  0  0  0  0  0  0  0  0  0  0
   -1.0668    2.3624    1.4173 O   0  0  0  0  0  0  0  0  0  0  0  0
   -1.2415    1.3917    3.3640 N   0  0  0  0  0  0  0  0  0  0  0  0
   -1.8594    2.1412    3.6210 H   0  0  0  0  0  0  0  0  0  0  0  0
   -1.0245    0.6264    3.9741 H   0  0  0  0  0  0  0  0  0  0  0  0
    1.0095   -1.1238   -0.2569 C   0  0  0  0  0  0  0  0  0  0  0  0
    1.9804   -0.6419   -0.8405 O   0  0  0  0  0  0  0  0  0  0  0  0
    0.8750   -2.4389   -0.0600 N   0  0  0  0  0  0  0  0  0  0  0  0
    0.0083   -2.7569    0.3619 H   0  0  0  0  0  0  0  0  0  0  0  0
    1.8502   -3.4431   -0.4812 C   0  0  0  0  0  0  0  0  0  0  0  0
    2.8254   -3.2141   -0.0461 H   0  0  0  0  0  0  0  0  0  0  0  0
    1.5330   -4.4338   -0.1525 H   0  0  0  0  0  0  0  0  0  0  0  0
    1.9410   -3.4354   -1.5687 H   0  0  0  0  0  0  0  0  0  0  0  0
  5  6  2  0  0  0  0
  5  7  1  0  0  0  0
  2  3  1  0  0  0  0
  2  4  1  0  0  0  0
  2  5  1  0  0  0  0
  1  2  1  0  0  0  0
 19 20  2  0  0  0  0
 19 21  1  0  0  0  0
 16 17  1  0  0  0  0
 16 18  1  0  0  0  0
 14 15  2  0  0  0  0
 14 16  1  0  0  0  0
 11 12  1  0  0  0  0
 11 13  1  0  0  0  0
 11 14  1  0  0  0  0
  9 10  1  0  0  0  0
  9 11  1  0  0  0  0
  9 19  1  0  0  0  0
  7  8  1  0  0  0  0
  7  9  1  0  0  0  0
 23 24  1  0  0  0  0
 23 25  1  0  0  0  0
 23 26  1  0  0  0  0
 21 22  1  0  0  0  0
 21 23  1  0  0  0  0
M  END
$$$$
default_name
  -OEChem-01062215323D

 26 25  0     1  0  0  0  0  0999 V2000
   -3.0232   -3.6924    1.0038 H   0  0  0  0  0  0  0  0  0  0  0  0
   -3.0082   -2.6684    0.6318 C   0  0  0  0  0  0  0  0  0  0  0  0
   -3.6332   -2.0414    1.2658 H   0  0  0  0  0  0  0  0  0  0  0  0
   -3.3762   -2.6444   -0.3912 H   0  0  0  0  0  0  0  0  0  0  0  0
   -1.5882   -2.1554    0.6658 C   0  0  0  0  0  0  0  0  0  0  0  0
   -0.6832   -2.8764    1.0638 O   0  0  0  0  0  0  0  0  0  0  0  0
   -1.3952   -0.9084    0.2428 N   0  0  0  0  0  0  0  0  0  0  0  0
   -2.1972   -0.3644   -0.0422 H   0  0  0  0  0  0  0  0  0  0  0  0
   -0.1122   -0.1994    0.2658 C   0  0  1  0  0  0  0  0  0  0  0  0
   -0.1800    0.6632   -0.4021 H   0  0  0  0  0  0  0  0  0  0  0  0
    0.1525    0.3020    1.7030 C   0  0  0  0  0  0  0  0  0  0  0  0
    0.0002   -0.5197    2.4019 H   0  0  0  0  0  0  0  0  0  0  0  0
    1.1870    0.6325    1.7833 H   0  0  0  0  0  0  0  0  0  0  0  0
   -0.7660    1.4307    2.1430 C   0  0  0  0  0  0  0  0  0  0  0  0
   -1.0668    2.3624    1.4173 O   0  0  0  0  0  0  0  0  0  0  0  0
   -1.2415    1.3917    3.3640 N   0  0  0  0  0  0  0  0  0  0  0  0
   -1.8594    2.1412    3.6210 H   0  0  0  0  0  0  0  0  0  0  0  0
   -1.0245    0.6264    3.9741 H   0  0  0  0  0  0  0  0  0  0  0  0
    1.0095   -1.1238   -0.2569 C   0  0  0  0  0  0  0  0  0  0  0  0
    2.0951   -0.6462   -0.5867 O   0  0  0  0  0  0  0  0  0  0  0  0
    0.7494   -2.4320   -0.3419 N   0  0  0  0  0  0  0  0  0  0  0  0
   -0.1954   -2.7307   -0.1217 H   0  0  0  0  0  0  0  0  0  0  0  0
    1.7045   -3.4379   -0.8031 C   0  0  0  0  0  0  0  0  0  0  0  0
    2.6097   -3.3925   -0.1937 H   0  0  0  0  0  0  0  0  0  0  0  0
    1.2667   -4.4339   -0.7239 H   0  0  0  0  0  0  0  0  0  0  0  0
    1.9719   -3.2427   -1.8430 H   0  0  0  0  0  0  0  0  0  0  0  0
  5  6  2  0  0  0  0
  5  7  1  0  0  0  0
  2  3  1  0  0  0  0
  2  4  1  0  0  0  0
  2  5  1  0  0  0  0
  1  2  1  0  0  0  0
 19 20  2  0  0  0  0
 19 21  1  0  0  0  0
 16 17  1  0  0  0  0
 16 18  1  0  0  0  0
 14 15  2  0  0  0  0
 14 16  1  0  0  0  0
 11 12  1  0  0  0  0
 11 13  1  0  0  0  0
 11 14  1  0  0  0  0
  9 10  1  0  0  0  0
  9 11  1  0  0  0  0
  9 19  1  0  0  0  0
  7  8  1  0  0  0  0
  7  9  1  0  0  0  0
 23 24  1  0  0  0  0
 23 25  1  0  0  0  0
 23 26  1  0  0  0  0
 21 22  1  0  0  0  0
 21 23  1  0  0  0  0
M  END
$$$$
default_name
  -OEChem-01062215323D

 26 25  0     1  0  0  0  0  0999 V2000
   -3.0232   -3.6924    1.0038 H   0  0  0  0  0  0  0  0  0  0  0  0
   -3.0082   -2.6684    0.6318 C   0  0  0  0  0  0  0  0  0  0  0  0
   -3.6332   -2.0414    1.2658 H   0  0  0  0  0  0  0  0  0  0  0  0
   -3.3762   -2.6444   -0.3912 H   0  0  0  0  0  0  0  0  0  0  0  0
   -1.5882   -2.1554    0.6658 C   0  0  0  0  0  0  0  0  0  0  0  0
   -0.6832   -2.8764    1.0638 O   0  0  0  0  0  0  0  0  0  0  0  0
   -1.3952   -0.9084    0.2428 N   0  0  0  0  0  0  0  0  0  0  0  0
   -2.1972   -0.3644   -0.0422 H   0  0  0  0  0  0  0  0  0  0  0  0
   -0.1122   -0.1994    0.2658 C   0  0  1  0  0  0  0  0  0  0  0  0
   -0.1800    0.6632   -0.4021 H   0  0  0  0  0  0  0  0  0  0  0  0
    0.1525    0.3020    1.7030 C   0  0  0  0  0  0  0  0  0  0  0  0
    0.0002   -0.5197    2.4019 H   0  0  0  0  0  0  0  0  0  0  0  0
    1.1870    0.6325    1.7833 H   0  0  0  0  0  0  0  0  0  0  0  0
   -0.7660    1.4307    2.1430 C   0  0  0  0  0  0  0  0  0  0  0  0
   -1.0668    2.3624    1.4173 O   0  0  0  0  0  0  0  0  0  0  0  0
   -1.2415    1.3917    3.3640 N   0  0  0  0  0  0  0  0  0  0  0  0
   -1.8594    2.1412    3.6210 H   0  0  0  0  0  0  0  0  0  0  0  0
   -1.0245    0.6264    3.9741 H   0  0  0  0  0  0  0  0  0  0  0  0
    1.0095   -1.1238   -0.2569 C   0  0  0  0  0  0  0  0  0  0  0  0
    2.1662   -0.7081   -0.3246 O   0  0  0  0  0  0  0  0  0  0  0  0
    0.6722   -2.3613   -0.6324 N   0  0  0  0  0  0  0  0  0  0  0  0
   -0.3150   -2.5967   -0.6154 H   0  0  0  0  0  0  0  0  0  0  0  0
    1.6141   -3.3595   -1.1357 C   0  0  0  0  0  0  0  0  0  0  0  0
    2.4085   -3.5181   -0.4032 H   0  0  0  0  0  0  0  0  0  0  0  0
    1.0979   -4.3033   -1.3170 H   0  0  0  0  0  0  0  0  0  0  0  0
    2.0612   -3.0077   -2.0670 H   0  0  0  0  0  0  0  0  0  0  0  0
  5  6  2  0  0  0  0
  5  7  1  0  0  0  0
  2  3  1  0  0  0  0
  2  4  1  0  0  0  0
  2  5  1  0  0  0  0
  1  2  1  0  0  0  0
 19 20  2  0  0  0  0
 19 21  1  0  0  0  0
 16 17  1  0  0  0  0
 16 18  1  0  0  0  0
 14 15  2  0  0  0  0
 14 16  1  0  0  0  0
 11 12  1  0  0  0  0
 11 13  1  0  0  0  0
 11 14  1  0  0  0  0
  9 10  1  0  0  0  0
  9 11  1  0  0  0  0
  9 19  1  0  0  0  0
  7  8  1  0  0  0  0
  7  9  1  0  0  0  0
 23 24  1  0  0  0  0
 23 25  1  0  0  0  0
 23 26  1  0  0  0  0
 21 22  1  0  0  0  0
 21 23  1  0  0  0  0
M  END
$$$$
default_name
  -OEChem-01062215323D

 26 25  0     1  0  0  0  0  0999 V2000
   -3.0232   -3.6924    1.0038 H   0  0  0  0  0  0  0  0  0  0  0  0
   -3.0082   -2.6684    0.6318 C   0  0  0  0  0  0  0  0  0  0  0  0
   -3.6332   -2.0414    1.2658 H   0  0  0  0  0  0  0  0  0  0  0  0
   -3.3762   -2.6444   -0.3912 H   0  0  0  0  0  0  0  0  0  0  0  0
   -1.5882   -2.1554    0.6658 C   0  0  0  0  0  0  0  0  0  0  0  0
   -0.6832   -2.8764    1.0638 O   0  0  0  0  0  0  0  0  0  0  0  0
   -1.3952   -0.9084    0.2428 N   0  0  0  0  0  0  0  0  0  0  0  0
   -2.1972   -0.3644   -0.0422 H   0  0  0  0  0  0  0  0  0  0  0  0
   -0.1122   -0.1994    0.2658 C   0  0  1  0  0  0  0  0  0  0  0  0
   -0.1800    0.6632   -0.4021 H   0  0  0  0  0  0  0  0  0  0  0  0
    0.1525    0.3020    1.7030 C   0  0  0  0  0  0  0  0  0  0  0  0
    0.0002   -0.5197    2.4019 H   0  0  0  0  0  0  0  0  0  0  0  0
    1.1870    0.6325    1.7833 H   0  0  0  0  0  0  0  0  0  0  0  0
   -0.7660    1.4307    2.1430 C   0  0  0  0  0  0  0  0  0  0  0  0
   -1.0668    2.3624    1.4173 O   0  0  0  0  0  0  0  0  0  0  0  0
   -1.2415    1.3917    3.3640 N   0  0  0  0  0  0  0  0  0  0  0  0
   -1.8594    2.1412    3.6210 H   0  0  0  0  0  0  0  0  0  0  0  0
   -1.0245    0.6264    3.9741 H   0  0  0  0  0  0  0  0  0  0  0  0
    1.0095   -1.1238   -0.2569 C   0  0  0  0  0  0  0  0  0  0  0  0
    2.1889   -0.8233   -0.0721 O   0  0  0  0  0  0  0  0  0  0  0  0
    0.6489   -2.2317   -0.9116 N   0  0  0  0  0  0  0  0  0  0  0  0
   -0.3423   -2.3640   -1.0857 H   0  0  0  0  0  0  0  0  0  0  0  0
    1.5852   -3.2134   -1.4562 C   0  0  0  0  0  0  0  0  0  0  0  0
    2.2356   -3.5825   -0.6603 H   0  0  0  0  0  0  0  0  0  0  0  0
    1.0382   -4.0508   -1.8916 H   0  0  0  0  0  0  0  0  0  0  0  0
    2.2027   -2.7465   -2.2254 H   0  0  0  0  0  0  0  0  0  0  0  0
  5  6  2  0  0  0  0
  5  7  1  0  0  0  0
  2  3  1  0  0  0  0
  2  4  1  0  0  0  0
  2  5  1  0  0  0  0
  1  2  1  0  0  0  0
 19 20  2  0  0  0  0
 19 21  1  0  0  0  0
 16 17  1  0  0  0  0
 16 18  1  0  0  0  0
 14 15  2  0  0  0  0
 14 16  1  0  0  0  0
 11 12  1  0  0  0  0
 11 13  1  0  0  0  0
 11 14  1  0  0  0  0
  9 10  1  0  0  0  0
  9 11  1  0  0  0  0
  9 19  1  0  0  0  0
  7  8  1  0  0  0  0
  7  9  1  0  0  0  0
 23 24  1  0  0  0  0
 23 25  1  0  0  0  0
 23 26  1  0  0  0  0
 21 22  1  0  0  0  0
 21 23  1  0  0  0  0
M  END
$$$$
default_name
  -OEChem-01062215323D

 26 25  0     1  0  0  0  0  0999 V2000
   -3.0232   -3.6924    1.0038 H   0  0  0  0  0  0  0  0  0  0  0  0
   -3.0082   -2.6684    0.6318 C   0  0  0  0  0  0  0  0  0  0  0  0
   -3.6332   -2.0414    1.2658 H   0  0  0  0  0  0  0  0  0  0  0  0
   -3.3762   -2.6444   -0.3912 H   0  0  0  0  0  0  0  0  0  0  0  0
   -1.5882   -2.1554    0.6658 C   0  0  0  0  0  0  0  0  0  0  0  0
   -0.6832   -2.8764    1.0638 O   0  0  0  0  0  0  0  0  0  0  0  0
   -1.3952   -0.9084    0.2428 N   0  0  0  0  0  0  0  0  0  0  0  0
   -2.1972   -0.3644   -0.0422 H   0  0  0  0  0  0  0  0  0  0  0  0
   -0.1122   -0.1994    0.2658 C   0  0  1  0  0  0  0  0  0  0  0  0
   -0.1800    0.6632   -0.4021 H   0  0  0  0  0  0  0  0  0  0  0  0
    0.1525    0.3020    1.7030 C   0  0  0  0  0  0  0  0  0  0  0  0
    0.0002   -0.5197    2.4019 H   0  0  0  0  0  0  0  0  0  0  0  0
    1.1870    0.6325    1.7833 H   0  0  0  0  0  0  0  0  0  0  0  0
   -0.7660    1.4307    2.1430 C   0  0  0  0  0  0  0  0  0  0  0  0
   -1.0668    2.3624    1.4173 O   0  0  0  0  0  0  0  0  0  0  0  0
   -1.2415    1.3917    3.3640 N   0  0  0  0  0  0  0  0  0  0  0  0
   -1.8594    2.1412    3.6210 H   0  0  0  0  0  0  0  0  0  0  0  0
   -1.0245    0.6264    3.9741 H   0  0  0  0  0  0  0  0  0  0  0  0
    1.0095   -1.1238   -0.2569 C   0  0  0  0  0  0  0  0  0  0  0  0
    2.1616   -0.9841    0.1537 O   0  0  0  0  0  0  0  0  0  0  0  0
    0.6810   -2.0521   -1.1606 N   0  0  0  0  0  0  0  0  0  0  0  0
   -0.2755   -2.0484   -1.5004 H   0  0  0  0  0  0  0  0  0  0  0  0
    1.6196   -3.0095   -1.7428 C   0  0  0  0  0  0  0  0  0  0  0  0
    2.1028   -3.5812   -0.9476 H   0  0  0  0  0  0  0  0  0  0  0  0
    1.0917   -3.6938   -2.4084 H   0  0  0  0  0  0  0  0  0  0  0  0
    2.3868   -2.4768   -2.3073 H   0  0  0  0  0  0  0  0  0  0  0  0
  5  6  2  0  0  0  0
  5  7  1  0  0  0  0
  2  3  1  0  0  0  0
  2  4  1  0  0  0  0
  2  5  1  0  0  0  0
  1  2  1  0  0  0  0
 19 20  2  0  0  0  0
 19 21  1  0  0  0  0
 16 17  1  0  0  0  0
 16 18  1  0  0  0  0
 14 15  2  0  0  0  0
 14 16  1  0  0  0  0
 11 12  1  0  0  0  0
 11 13  1  0  0  0  0
 11 14  1  0  0  0  0
  9 10  1  0  0  0  0
  9 11  1  0  0  0  0
  9 19  1  0  0  0  0
  7  8  1  0  0  0  0
  7  9  1  0  0  0  0
 23 24  1  0  0  0  0
 23 25  1  0  0  0  0
 23 26  1  0  0  0  0
 21 22  1  0  0  0  0
 21 23  1  0  0  0  0
M  END
$$$$
default_name
  -OEChem-01062215323D

 26 25  0     1  0  0  0  0  0999 V2000
   -3.0232   -3.6924    1.0038 H   0  0  0  0  0  0  0  0  0  0  0  0
   -3.0082   -2.6684    0.6318 C   0  0  0  0  0  0  0  0  0  0  0  0
   -3.6332   -2.0414    1.2658 H   0  0  0  0  0  0  0  0  0  0  0  0
   -3.3762   -2.6444   -0.3912 H   0  0  0  0  0  0  0  0  0  0  0  0
   -1.5882   -2.1554    0.6658 C   0  0  0  0  0  0  0  0  0  0  0  0
   -0.6832   -2.8764    1.0638 O   0  0  0  0  0  0  0  0  0  0  0  0
   -1.3952   -0.9084    0.2428 N   0  0  0  0  0  0  0  0  0  0  0  0
   -2.1972   -0.3644   -0.0422 H   0  0  0  0  0  0  0  0  0  0  0  0
   -0.1122   -0.1994    0.2658 C   0  0  1  0  0  0  0  0  0  0  0  0
   -0.1800    0.6632   -0.4021 H   0  0  0  0  0  0  0  0  0  0  0  0
    0.1525    0.3020    1.7030 C   0  0  0  0  0  0  0  0  0  0  0  0
    0.0002   -0.5197    2.4019 H   0  0  0  0  0  0  0  0  0  0  0  0
    1.1870    0.6325    1.7833 H   0  0  0  0  0  0  0  0  0  0  0  0
   -0.7660    1.4307    2.1430 C   0  0  0  0  0  0  0  0  0  0  0  0
   -1.0668    2.3624    1.4173 O   0  0  0  0  0  0  0  0  0  0  0  0
   -1.2415    1.3917    3.3640 N   0  0  0  0  0  0  0  0  0  0  0  0
   -1.8594    2.1412    3.6210 H   0  0  0  0  0  0  0  0  0  0  0  0
   -1.0245    0.6264    3.9741 H   0  0  0  0  0  0  0  0  0  0  0  0
    1.0095   -1.1238   -0.2569 C   0  0  0  0  0  0  0  0  0  0  0  0
    2.0862   -1.1795    0.3373 O   0  0  0  0  0  0  0  0  0  0  0  0
    0.7663   -1.8345   -1.3623 N   0  0  0  0  0  0  0  0  0  0  0  0
   -0.1190   -1.6715   -1.8313 H   0  0  0  0  0  0  0  0  0  0  0  0
    1.7152   -2.7617   -1.9760 C   0  0  0  0  0  0  0  0  0  0  0  0
    2.0191   -3.5144   -1.2454 H   0  0  0  0  0  0  0  0  0  0  0  0
    1.2546   -3.2565   -2.8322 H   0  0  0  0  0  0  0  0  0  0  0  0
    2.6009   -2.2170   -2.3073 H   0  0  0  0  0  0  0  0  0  0  0  0
  5  6  2  0  0  0  0
  5  7  1  0  0  0  0
  2  3  1  0  0  0  0
  2  4  1  0  0  0  0
  2  5  1  0  0  0  0
  1  2  1  0  0  0  0
 19 20  2  0  0  0  0
 19 21  1  0  0  0  0
 16 17  1  0  0  0  0
 16 18  1  0  0  0  0
 14 15  2  0  0  0  0
 14 16  1  0  0  0  0
 11 12  1  0  0  0  0
 11 13  1  0  0  0  0
 11 14  1  0  0  0  0
  9 10  1  0  0  0  0
  9 11  1  0  0  0  0
  9 19  1  0  0  0  0
  7  8  1  0  0  0  0
  7  9  1  0  0  0  0
 23 24  1  0  0  0  0
 23 25  1  0  0  0  0
 23 26  1  0  0  0  0
 21 22  1  0  0  0  0
 21 23  1  0  0  0  0
M  END
$$$$
default_name
  -OEChem-01062215323D

 26 25  0     1  0  0  0  0  0999 V2000
   -3.0232   -3.6924    1.0038 H   0  0  0  0  0  0  0  0  0  0  0  0
   -3.0082   -2.6684    0.6318 C   0  0  0  0  0  0  0  0  0  0  0  0
   -3.6332   -2.0414    1.2658 H   0  0  0  0  0  0  0  0  0  0  0  0
   -3.3762   -2.6444   -0.3912 H   0  0  0  0  0  0  0  0  0  0  0  0
   -1.5882   -2.1554    0.6658 C   0  0  0  0  0  0  0  0  0  0  0  0
   -0.6832   -2.8764    1.0638 O   0  0  0  0  0  0  0  0  0  0  0  0
   -1.3952   -0.9084    0.2428 N   0  0  0  0  0  0  0  0  0  0  0  0
   -2.1972   -0.3644   -0.0422 H   0  0  0  0  0  0  0  0  0  0  0  0
   -0.1122   -0.1994    0.2658 C   0  0  1  0  0  0  0  0  0  0  0  0
   -0.1800    0.6632   -0.4021 H   0  0  0  0  0  0  0  0  0  0  0  0
    0.1525    0.3020    1.7030 C   0  0  0  0  0  0  0  0  0  0  0  0
    0.0002   -0.5197    2.4019 H   0  0  0  0  0  0  0  0  0  0  0  0
    1.1870    0.6325    1.7833 H   0  0  0  0  0  0  0  0  0  0  0  0
   -0.7660    1.4307    2.1430 C   0  0  0  0  0  0  0  0  0  0  0  0
   -1.0668    2.3624    1.4173 O   0  0  0  0  0  0  0  0  0  0  0  0
   -1.2415    1.3917    3.3640 N   0  0  0  0  0  0  0  0  0  0  0  0
   -1.8594    2.1412    3.6210 H   0  0  0  0  0  0  0  0  0  0  0  0
   -1.0245    0.6264    3.9741 H   0  0  0  0  0  0  0  0  0  0  0  0
    1.0095   -1.1238   -0.2569 C   0  0  0  0  0  0  0  0  0  0  0  0
    1.9678   -1.3961    0.4663 O   0  0  0  0  0  0  0  0  0  0  0  0
    0.8990   -1.5939   -1.5031 N   0  0  0  0  0  0  0  0  0  0  0  0
    0.1163   -1.2589   -2.0558 H   0  0  0  0  0  0  0  0  0  0  0  0
    1.8653   -2.4869   -2.1399 C   0  0  0  0  0  0  0  0  0  0  0  0
    1.9903   -3.3865   -1.5334 H   0  0  0  0  0  0  0  0  0  0  0  0
    1.5159   -2.7687   -3.1342 H   0  0  0  0  0  0  0  0  0  0  0  0
    2.8305   -1.9848   -2.2252 H   0  0  0  0  0  0  0  0  0  0  0  0
  5  6  2  0  0  0  0
  5  7  1  0  0  0  0
  2  3  1  0  0  0  0
  2  4  1  0  0  0  0
  2  5  1  0  0  0  0
  1  2  1  0  0  0  0
 19 20  2  0  0  0  0
 19 21  1  0  0  0  0
 16 17  1  0  0  0  0
 16 18  1  0  0  0  0
 14 15  2  0  0  0  0
 14 16  1  0  0  0  0
 11 12  1  0  0  0  0
 11 13  1  0  0  0  0
 11 14  1  0  0  0  0
  9 10  1  0  0  0  0
  9 11  1  0  0  0  0
  9 19  1  0  0  0  0
  7  8  1  0  0  0  0
  7  9  1  0  0  0  0
 23 24  1  0  0  0  0
 23 25  1  0  0  0  0
 23 26  1  0  0  0  0
 21 22  1  0  0  0  0
 21 23  1  0  0  0  0
M  END
$$$$
default_name
  -OEChem-01062215323D

 26 25  0     1  0  0  0  0  0999 V2000
   -3.0232   -3.6924    1.0038 H   0  0  0  0  0  0  0  0  0  0  0  0
   -3.0082   -2.6684    0.6318 C   0  0  0  0  0  0  0  0  0  0  0  0
   -3.6332   -2.0414    1.2658 H   0  0  0  0  0  0  0  0  0  0  0  0
   -3.3762   -2.6444   -0.3912 H   0  0  0  0  0  0  0  0  0  0  0  0
   -1.5882   -2.1554    0.6658 C   0  0  0  0  0  0  0  0  0  0  0  0
   -0.6832   -2.8764    1.0638 O   0  0  0  0  0  0  0  0  0  0  0  0
   -1.3952   -0.9084    0.2428 N   0  0  0  0  0  0  0  0  0  0  0  0
   -2.1972   -0.3644   -0.0422 H   0  0  0  0  0  0  0  0  0  0  0  0
   -0.1122   -0.1994    0.2658 C   0  0  1  0  0  0  0  0  0  0  0  0
   -0.1800    0.6632   -0.4021 H   0  0  0  0  0  0  0  0  0  0  0  0
    0.1525    0.3020    1.7030 C   0  0  0  0  0  0  0  0  0  0  0  0
    0.0002   -0.5197    2.4019 H   0  0  0  0  0  0  0  0  0  0  0  0
    1.1870    0.6325    1.7833 H   0  0  0  0  0  0  0  0  0  0  0  0
   -0.7660    1.4307    2.1430 C   0  0  0  0  0  0  0  0  0  0  0  0
   -1.0668    2.3624    1.4173 O   0  0  0  0  0  0  0  0  0  0  0  0
   -1.2415    1.3917    3.3640 N   0  0  0  0  0  0  0  0  0  0  0  0
   -1.8594    2.1412    3.6210 H   0  0  0  0  0  0  0  0  0  0  0  0
   -1.0245    0.6264    3.9741 H   0  0  0  0  0  0  0  0  0  0  0  0
    1.0095   -1.1238   -0.2569 C   0  0  0  0  0  0  0  0  0  0  0  0
    1.8145   -1.6192    0.5318 O   0  0  0  0  0  0  0  0  0  0  0  0
    1.0700   -1.3467   -1.5733 N   0  0  0  0  0  0  0  0  0  0  0  0
    0.4146   -0.8388   -2.1587 H   0  0  0  0  0  0  0  0  0  0  0  0
    2.0598   -2.2038   -2.2233 C   0  0  0  0  0  0  0  0  0  0  0  0
    2.0183   -3.2063   -1.7921 H   0  0  0  0  0  0  0  0  0  0  0  0
    1.8578   -2.2636   -3.2936 H   0  0  0  0  0  0  0  0  0  0  0  0
    3.0599   -1.7960   -2.0668 H   0  0  0  0  0  0  0  0  0  0  0  0
  5  6  2  0  0  0  0
  5  7  1  0  0  0  0
  2  3  1  0  0  0  0
  2  4  1  0  0  0  0
  2  5  1  0  0  0  0
  1  2  1  0  0  0  0
 19 20  2  0  0  0  0
 19 21  1  0  0  0  0
 16 17  1  0  0  0  0
 16 18  1  0  0  0  0
 14 15  2  0  0  0  0
 14 16  1  0  0  0  0
 11 12  1  0  0  0  0
 11 13  1  0  0  0  0
 11 14  1  0  0  0  0
  9 10  1  0  0  0  0
  9 11  1  0  0  0  0
  9 19  1  0  0  0  0
  7  8  1  0  0  0  0
  7  9  1  0  0  0  0
 23 24  1  0  0  0  0
 23 25  1  0  0  0  0
 23 26  1  0  0  0  0
 21 22  1  0  0  0  0
 21 23  1  0  0  0  0
M  END
$$$$
default_name
  -OEChem-01062215323D

 26 25  0     1  0  0  0  0  0999 V2000
   -3.0232   -3.6924    1.0038 H   0  0  0  0  0  0  0  0  0  0  0  0
   -3.0082   -2.6684    0.6318 C   0  0  0  0  0  0  0  0  0  0  0  0
   -3.6332   -2.0414    1.2658 H   0  0  0  0  0  0  0  0  0  0  0  0
   -3.3762   -2.6444   -0.3912 H   0  0  0  0  0  0  0  0  0  0  0  0
   -1.5882   -2.1554    0.6658 C   0  0  0  0  0  0  0  0  0  0  0  0
   -0.6832   -2.8764    1.0638 O   0  0  0  0  0  0  0  0  0  0  0  0
   -1.3952   -0.9084    0.2428 N   0  0  0  0  0  0  0  0  0  0  0  0
   -2.1972   -0.3644   -0.0422 H   0  0  0  0  0  0  0  0  0  0  0  0
   -0.1122   -0.1994    0.2658 C   0  0  1  0  0  0  0  0  0  0  0  0
   -0.1800    0.6632   -0.4021 H   0  0  0  0  0  0  0  0  0  0  0  0
    0.1525    0.3020    1.7030 C   0  0  0  0  0  0  0  0  0  0  0  0
    0.0002   -0.5197    2.4019 H   0  0  0  0  0  0  0  0  0  0  0  0
    1.1870    0.6325    1.7833 H   0  0  0  0  0  0  0  0  0  0  0  0
   -0.7660    1.4307    2.1430 C   0  0  0  0  0  0  0  0  0  0  0  0
   -1.0668    2.3624    1.4173 O   0  0  0  0  0  0  0  0  0  0  0  0
   -1.2415    1.3917    3.3640 N   0  0  0  0  0  0  0  0  0  0  0  0
   -1.8594    2.1412    3.6210 H   0  0  0  0  0  0  0  0  0  0  0  0
   -1.0245    0.6264    3.9741 H   0  0  0  0  0  0  0  0  0  0  0  0
    1.0095   -1.1238   -0.2569 C   0  0  0  0  0  0  0  0  0  0  0  0
    1.6367   -1.8335    0.5295 O   0  0  0  0  0  0  0  0  0  0  0  0
    1.2677   -1.1097   -1.5681 N   0  0  0  0  0  0  0  0  0  0  0  0
    0.7554   -0.4398   -2.1330 H   0  0  0  0  0  0  0  0  0  0  0  0
    2.2853   -1.9317   -2.2205 C   0  0  0  0  0  0  0  0  0  0  0  0
    2.1011   -2.9861   -2.0037 H   0  0  0  0  0  0  0  0  0  0  0  0
    2.2570   -1.7757   -3.2998 H   0  0  0  0  0  0  0  0  0  0  0  0
    3.2734   -1.6636   -1.8427 H   0  0  0  0  0  0  0  0  0  0  0  0
  5  6  2  0  0  0  0
  5  7  1  0  0  0  0
  2  3  1  0  0  0  0
  2  4  1  0  0  0  0
  2  5  1  0  0  0  0
  1  2  1  0  0  0  0
 19 20  2  0  0  0  0
 19 21  1  0  0  0  0
 16 17  1  0  0  0  0
 16 18  1  0  0  0  0
 14 15  2  0  0  0  0
 14 16  1  0  0  0  0
 11 12  1  0  0  0  0
 11 13  1  0  0  0  0
 11 14  1  0  0  0  0
  9 10  1  0  0  0  0
  9 11  1  0  0  0  0
  9 19  1  0  0  0  0
  7  8  1  0  0  0  0
  7  9  1  0  0  0  0
 23 24  1  0  0  0  0
 23 25  1  0  0  0  0
 23 26  1  0  0  0  0
 21 22  1  0  0  0  0
 21 23  1  0  0  0  0
M  END
$$$$
default_name
  -OEChem-01062215323D

 26 25  0     1  0  0  0  0  0999 V2000
   -3.0232   -3.6924    1.0038 H   0  0  0  0  0  0  0  0  0  0  0  0
   -3.0082   -2.6684    0.6318 C   0  0  0  0  0  0  0  0  0  0  0  0
   -3.6332   -2.0414    1.2658 H   0  0  0  0  0  0  0  0  0  0  0  0
   -3.3762   -2.6444   -0.3912 H   0  0  0  0  0  0  0  0  0  0  0  0
   -1.5882   -2.1554    0.6658 C   0  0  0  0  0  0  0  0  0  0  0  0
   -0.6832   -2.8764    1.0638 O   0  0  0  0  0  0  0  0  0  0  0  0
   -1.3952   -0.9084    0.2428 N   0  0  0  0  0  0  0  0  0  0  0  0
   -2.1972   -0.3644   -0.0422 H   0  0  0  0  0  0  0  0  0  0  0  0
   -0.1122   -0.1994    0.2658 C   0  0  1  0  0  0  0  0  0  0  0  0
   -0.1800    0.6632   -0.4021 H   0  0  0  0  0  0  0  0  0  0  0  0
    0.1525    0.3020    1.7030 C   0  0  0  0  0  0  0  0  0  0  0  0
    0.0002   -0.5197    2.4019 H   0  0  0  0  0  0  0  0  0  0  0  0
    1.1870    0.6325    1.7833 H   0  0  0  0  0  0  0  0  0  0  0  0
   -0.7660    1.4307    2.1430 C   0  0  0  0  0  0  0  0  0  0  0  0
   -1.0668    2.3624    1.4173 O   0  0  0  0  0  0  0  0  0  0  0  0
   -1.2415    1.3917    3.3640 N   0  0  0  0  0  0  0  0  0  0  0  0
   -1.8594    2.1412    3.6210 H   0  0  0  0  0  0  0  0  0  0  0  0
   -1.0245    0.6264    3.9741 H   0  0  0  0  0  0  0  0  0  0  0  0
    1.0095   -1.1238   -0.2569 C   0  0  0  0  0  0  0  0  0  0  0  0
    1.4466   -2.0246    0.4593 O   0  0  0  0  0  0  0  0  0  0  0  0
    1.4787   -0.8991   -1.4880 N   0  0  0  0  0  0  0  0  0  0  0  0
    1.1156   -0.0891   -1.9803 H   0  0  0  0  0  0  0  0  0  0  0  0
    2.5266   -1.6891   -2.1317 C   0  0  0  0  0  0  0  0  0  0  0  0
    2.2332   -2.7409   -2.1539 H   0  0  0  0  0  0  0  0  0  0  0  0
    2.6863   -1.3383   -3.1522 H   0  0  0  0  0  0  0  0  0  0  0  0
    3.4566   -1.5965   -1.5683 H   0  0  0  0  0  0  0  0  0  0  0  0
  5  6  2  0  0  0  0
  5  7  1  0  0  0  0
  2  3  1  0  0  0  0
  2  4  1  0  0  0  0
  2  5  1  0  0  0  0
  1  2  1  0  0  0  0
 19 20  2  0  0  0  0
 19 21  1  0  0  0  0
 16 17  1  0  0  0  0
 16 18  1  0  0  0  0
 14 15  2  0  0  0  0
 14 16  1  0  0  0  0
 11 12  1  0  0  0  0
 11 13  1  0  0  0  0
 11 14  1  0  0  0  0
  9 10  1  0  0  0  0
  9 11  1  0  0  0  0
  9 19  1  0  0  0  0
  7  8  1  0  0  0  0
  7  9  1  0  0  0  0
 23 24  1  0  0  0  0
 23 25  1  0  0  0  0
 23 26  1  0  0  0  0
 21 22  1  0  0  0  0
 21 23  1  0  0  0  0
M  END
$$$$
default_name
  -OEChem-01062215323D

 26 25  0     1  0  0  0  0  0999 V2000
   -3.0232   -3.6924    1.0038 H   0  0  0  0  0  0  0  0  0  0  0  0
   -3.0082   -2.6684    0.6318 C   0  0  0  0  0  0  0  0  0  0  0  0
   -3.6332   -2.0414    1.2658 H   0  0  0  0  0  0  0  0  0  0  0  0
   -3.3762   -2.6444   -0.3912 H   0  0  0  0  0  0  0  0  0  0  0  0
   -1.5882   -2.1554    0.6658 C   0  0  0  0  0  0  0  0  0  0  0  0
   -0.6832   -2.8764    1.0638 O   0  0  0  0  0  0  0  0  0  0  0  0
   -1.3952   -0.9084    0.2428 N   0  0  0  0  0  0  0  0  0  0  0  0
   -2.1972   -0.3644   -0.0422 H   0  0  0  0  0  0  0  0  0  0  0  0
   -0.1122   -0.1994    0.2658 C   0  0  1  0  0  0  0  0  0  0  0  0
   -0.1800    0.6632   -0.4021 H   0  0  0  0  0  0  0  0  0  0  0  0
    0.1525    0.3020    1.7030 C   0  0  0  0  0  0  0  0  0  0  0  0
    0.0002   -0.5197    2.4019 H   0  0  0  0  0  0  0  0  0  0  0  0
    1.1870    0.6325    1.7833 H   0  0  0  0  0  0  0  0  0  0  0  0
   -0.7660    1.4307    2.1430 C   0  0  0  0  0  0  0  0  0  0  0  0
   -1.0668    2.3624    1.4173 O   0  0  0  0  0  0  0  0  0  0  0  0
   -1.2415    1.3917    3.3640 N   0  0  0  0  0  0  0  0  0  0  0  0
   -1.8594    2.1412    3.6210 H   0  0  0  0  0  0  0  0  0  0  0  0
   -1.0245    0.6264    3.9741 H   0  0  0  0  0  0  0  0  0  0  0  0
    1.0095   -1.1238   -0.2569 C   0  0  0  0  0  0  0  0  0  0  0  0
    1.2570   -2.1793    0.3263 O   0  0  0  0  0  0  0  0  0  0  0  0
    1.6885   -0.7291   -1.3383 N   0  0  0  0  0  0  0  0  0  0  0  0
    1.4706    0.1895   -1.7112 H   0  0  0  0  0  0  0  0  0  0  0  0
    2.7671   -1.4926   -1.9630 C   0  0  0  0  0  0  0  0  0  0  0  0
    2.4056   -2.4874   -2.2325 H   0  0  0  0  0  0  0  0  0  0  0  0
    3.1164   -0.9811   -2.8610 H   0  0  0  0  0  0  0  0  0  0  0  0
    3.5969   -1.5992   -1.2623 H   0  0  0  0  0  0  0  0  0  0  0  0
  5  6  2  0  0  0  0
  5  7  1  0  0  0  0
  2  3  1  0  0  0  0
  2  4  1  0  0  0  0
  2  5  1  0  0  0  0
  1  2  1  0  0  0  0
 19 20  2  0  0  0  0
 19 21  1  0  0  0  0
 16 17  1  0  0  0  0
 16 18  1  0  0  0  0
 14 15  2  0  0  0  0
 14 16  1  0  0  0  0
 11 12  1  0  0  0  0
 11 13  1  0  0  0  0
 11 14  1  0  0  0  0
  9 10  1  0  0  0  0
  9 11  1  0  0  0  0
  9 19  1  0  0  0  0
  7  8  1  0  0  0  0
  7  9  1  0  0  0  0
 23 24  1  0  0  0  0
 23 25  1  0  0  0  0
 23 26  1  0  0  0  0
 21 22  1  0  0  0  0
 21 23  1  0  0  0  0
M  END
$$$$
default_name
  -OEChem-01062215323D

 26 25  0     1  0  0  0  0  0999 V2000
   -3.0232   -3.6924    1.0038 H   0  0  0  0  0  0  0  0  0  0  0  0
   -3.0082   -2.6684    0.6318 C   0  0  0  0  0  0  0  0  0  0  0  0
   -3.6332   -2.0414    1.2658 H   0  0  0  0  0  0  0  0  0  0  0  0
   -3.3762   -2.6444   -0.3912 H   0  0  0  0  0  0  0  0  0  0  0  0
   -1.5882   -2.1554    0.6658 C   0  0  0  0  0  0  0  0  0  0  0  0
   -0.6832   -2.8764    1.0638 O   0  0  0  0  0  0  0  0  0  0  0  0
   -1.3952   -0.9084    0.2428 N   0  0  0  0  0  0  0  0  0  0  0  0
   -2.1972   -0.3644   -0.0422 H   0  0  0  0  0  0  0  0  0  0  0  0
   -0.1122   -0.1994    0.2658 C   0  0  1  0  0  0  0  0  0  0  0  0
   -0.1800    0.6632   -0.4021 H   0  0  0  0  0  0  0  0  0  0  0  0
    0.1525    0.3020    1.7030 C   0  0  0  0  0  0  0  0  0  0  0  0
    0.0002   -0.5197    2.4019 H   0  0  0  0  0  0  0  0  0  0  0  0
    1.1870    0.6325    1.7833 H   0  0  0  0  0  0  0  0  0  0  0  0
   -0.7660    1.4307    2.1430 C   0  0  0  0  0  0  0  0  0  0  0  0
   -1.0668    2.3624    1.4173 O   0  0  0  0  0  0  0  0  0  0  0  0
   -1.2415    1.3917    3.3640 N   0  0  0  0  0  0  0  0  0  0  0  0
   -1.8594    2.1412    3.6210 H   0  0  0  0  0  0  0  0  0  0  0  0
   -1.0245    0.6264    3.9741 H   0  0  0  0  0  0  0  0  0  0  0  0
    1.0095   -1.1238   -0.2569 C   0  0  0  0  0  0  0  0  0  0  0  0
    1.0810   -2.2872    0.1393 O   0  0  0  0  0  0  0  0  0  0  0  0
    1.8828   -0.6115   -1.1293 N   0  0  0  0  0  0  0  0  0  0  0  0
    1.7962    0.3768   -1.3438 H   0  0  0  0  0  0  0  0  0  0  0  0
    2.9905   -1.3556   -1.7259 C   0  0  0  0  0  0  0  0  0  0  0  0
    2.6064   -2.2428   -2.2340 H   0  0  0  0  0  0  0  0  0  0  0  0
    3.5180   -0.7285   -2.4459 H   0  0  0  0  0  0  0  0  0  0  0  0
    3.6848   -1.6717   -0.9455 H   0  0  0  0  0  0  0  0  0  0  0  0
  5  6  2  0  0  0  0
  5  7  1  0  0  0  0
  2  3  1  0  0  0  0
  2  4  1  0  0  0  0
  2  5  1  0  0  0  0
  1  2  1  0  0  0  0
 19 20  2  0  0  0  0
 19 21  1  0  0  0  0
 16 17  1  0  0  0  0
 16 18  1  0  0  0  0
 14 15  2  0  0  0  0
 14 16  1  0  0  0  0
 11 12  1  0  0  0  0
 11 13  1  0  0  0  0
 11 14  1  0  0  0  0
  9 10  1  0  0  0  0
  9 11  1  0  0  0  0
  9 19  1  0  0  0  0
  7  8  1  0  0  0  0
  7  9  1  0  0  0  0
 23 24  1  0  0  0  0
 23 25  1  0  0  0  0
 23 26  1  0  0  0  0
 21 22  1  0  0  0  0
 21 23  1  0  0  0  0
M  END
$$$$
default_name
  -OEChem-01062215323D

 26 25  0     1  0  0  0  0  0999 V2000
   -3.0232   -3.6924    1.0038 H   0  0  0  0  0  0  0  0  0  0  0  0
   -3.0082   -2.6684    0.6318 C   0  0  0  0  0  0  0  0  0  0  0  0
   -3.6332   -2.0414    1.2658 H   0  0  0  0  0  0  0  0  0  0  0  0
   -3.3762   -2.6444   -0.3912 H   0  0  0  0  0  0  0  0  0  0  0  0
   -1.5882   -2.1554    0.6658 C   0  0  0  0  0  0  0  0  0  0  0  0
   -0.6832   -2.8764    1.0638 O   0  0  0  0  0  0  0  0  0  0  0  0
   -1.3952   -0.9084    0.2428 N   0  0  0  0  0  0  0  0  0  0  0  0
   -2.1972   -0.3644   -0.0422 H   0  0  0  0  0  0  0  0  0  0  0  0
   -0.1122   -0.1994    0.2658 C   0  0  1  0  0  0  0  0  0  0  0  0
   -0.1800    0.6632   -0.4021 H   0  0  0  0  0  0  0  0  0  0  0  0
    0.1525    0.3020    1.7030 C   0  0  0  0  0  0  0  0  0  0  0  0
    0.0002   -0.5197    2.4019 H   0  0  0  0  0  0  0  0  0  0  0  0
    1.1870    0.6325    1.7833 H   0  0  0  0  0  0  0  0  0  0  0  0
   -0.7660    1.4307    2.1430 C   0  0  0  0  0  0  0  0  0  0  0  0
   -1.0668    2.3624    1.4173 O   0  0  0  0  0  0  0  0  0  0  0  0
   -1.2415    1.3917    3.3640 N   0  0  0  0  0  0  0  0  0  0  0  0
   -1.8594    2.1412    3.6210 H   0  0  0  0  0  0  0  0  0  0  0  0
   -1.0245    0.6264    3.9741 H   0  0  0  0  0  0  0  0  0  0  0  0
    1.0095   -1.1238   -0.2569 C   0  0  0  0  0  0  0  0  0  0  0  0
    0.9306   -2.3408   -0.0889 O   0  0  0  0  0  0  0  0  0  0  0  0
    2.0485   -0.5542   -0.8752 N   0  0  0  0  0  0  0  0  0  0  0  0
    2.0702    0.4603   -0.9034 H   0  0  0  0  0  0  0  0  0  0  0  0
    3.1816   -1.2874   -1.4365 C   0  0  0  0  0  0  0  0  0  0  0  0
    2.8221   -2.0239   -2.1584 H   0  0  0  0  0  0  0  0  0  0  0  0
    3.8638   -0.5976   -1.9352 H   0  0  0  0  0  0  0  0  0  0  0  0
    3.7143   -1.8090   -0.6395 H   0  0  0  0  0  0  0  0  0  0  0  0
  5  6  2  0  0  0  0
  5  7  1  0  0  0  0
  2  3  1  0  0  0  0
  2  4  1  0  0  0  0
  2  5  1  0  0  0  0
  1  2  1  0  0  0  0
 19 20  2  0  0  0  0
 19 21  1  0  0  0  0
 16 17  1  0  0  0  0
 16 18  1  0  0  0  0
 14 15  2  0  0  0  0
 14 16  1  0  0  0  0
 11 12  1  0  0  0  0
 11 13  1  0  0  0  0
 11 14  1  0  0  0  0
  9 10  1  0  0  0  0
  9 11  1  0  0  0  0
  9 19  1  0  0  0  0
  7  8  1  0  0  0  0
  7  9  1  0  0  0  0
 23 24  1  0  0  0  0
 23 25  1  0  0  0  0
 23 26  1  0  0  0  0
 21 22  1  0  0  0  0
 21 23  1  0  0  0  0
M  END
$$$$
default_name
  -OEChem-01062215323D

 26 25  0     1  0  0  0  0  0999 V2000
   -3.0232   -3.6924    1.0038 H   0  0  0  0  0  0  0  0  0  0  0  0
   -3.0082   -2.6684    0.6318 C   0  0  0  0  0  0  0  0  0  0  0  0
   -3.6332   -2.0414    1.2658 H   0  0  0  0  0  0  0  0  0  0  0  0
   -3.3762   -2.6444   -0.3912 H   0  0  0  0  0  0  0  0  0  0  0  0
   -1.5882   -2.1554    0.6658 C   0  0  0  0  0  0  0  0  0  0  0  0
   -0.6832   -2.8764    1.0638 O   0  0  0  0  0  0  0  0  0  0  0  0
   -1.3952   -0.9084    0.2428 N   0  0  0  0  0  0  0  0  0  0  0  0
   -2.1972   -0.3644   -0.0422 H   0  0  0  0  0  0  0  0  0  0  0  0
   -0.1122   -0.1994    0.2658 C   0  0  1  0  0  0  0  0  0  0  0  0
   -0.1800    0.6632   -0.4021 H   0  0  0  0  0  0  0  0  0  0  0  0
    0.1525    0.3020    1.7030 C   0  0  0  0  0  0  0  0  0  0  0  0
    0.0002   -0.5197    2.4019 H   0  0  0  0  0  0  0  0  0  0  0  0
    1.1870    0.6325    1.7833 H   0  0  0  0  0  0  0  0  0  0  0  0
   -0.7660    1.4307    2.1430 C   0  0  0  0  0  0  0  0  0  0  0  0
   -1.0668    2.3624    1.4173 O   0  0  0  0  0  0  0  0  0  0  0  0
   -1.2415    1.3917    3.3640 N   0  0  0  0  0  0  0  0  0  0  0  0
   -1.8594    2.1412    3.6210 H   0  0  0  0  0  0  0  0  0  0  0  0
   -1.0245    0.6264    3.9741 H   0  0  0  0  0  0  0  0  0  0  0  0
    1.0095   -1.1238   -0.2569 C   0  0  0  0  0  0  0  0  0  0  0  0
    0.8158   -2.3365   -0.3426 O   0  0  0  0  0  0  0  0  0  0  0  0
    2.1741   -0.5610   -0.5933 N   0  0  0  0  0  0  0  0  0  0  0  0
    2.2739    0.4341   -0.4198 H   0  0  0  0  0  0  0  0  0  0  0  0
    3.3273   -1.2927   -1.1145 C   0  0  0  0  0  0  0  0  0  0  0  0
    3.0378   -1.8455   -2.0108 H   0  0  0  0  0  0  0  0  0  0  0  0
    4.1301   -0.5975   -1.3639 H   0  0  0  0  0  0  0  0  0  0  0  0
    3.6833   -2.0017   -0.3651 H   0  0  0  0  0  0  0  0  0  0  0  0
  5  6  2  0  0  0  0
  5  7  1  0  0  0  0
  2  3  1  0  0  0  0
  2  4  1  0  0  0  0
  2  5  1  0  0  0  0
  1  2  1  0  0  0  0
 19 20  2  0  0  0  0
 19 21  1  0  0  0  0
 16 17  1  0  0  0  0
 16 18  1  0  0  0  0
 14 15  2  0  0  0  0
 14 16  1  0  0  0  0
 11 12  1  0  0  0  0
 11 13  1  0  0  0  0
 11 14  1  0  0  0  0
  9 10  1  0  0  0  0
  9 11  1  0  0  0  0
  9 19  1  0  0  0  0
  7  8  1  0  0  0  0
  7  9  1  0  0  0  0
 23 24  1  0  0  0  0
 23 25  1  0  0  0  0
 23 26  1  0  0  0  0
 21 22  1  0  0  0  0
 21 23  1  0  0  0  0
M  END
$$$$
default_name
  -OEChem-01062215323D

 26 25  0     1  0  0  0  0  0999 V2000
   -3.0232   -3.6924    1.0038 H   0  0  0  0  0  0  0  0  0  0  0  0
   -3.0082   -2.6684    0.6318 C   0  0  0  0  0  0  0  0  0  0  0  0
   -3.6332   -2.0414    1.2658 H   0  0  0  0  0  0  0  0  0  0  0  0
   -3.3762   -2.6444   -0.3912 H   0  0  0  0  0  0  0  0  0  0  0  0
   -1.5882   -2.1554    0.6658 C   0  0  0  0  0  0  0  0  0  0  0  0
   -0.6832   -2.8764    1.0638 O   0  0  0  0  0  0  0  0  0  0  0  0
   -1.3952   -0.9084    0.2428 N   0  0  0  0  0  0  0  0  0  0  0  0
   -2.1972   -0.3644   -0.0422 H   0  0  0  0  0  0  0  0  0  0  0  0
   -0.1122   -0.1994    0.2658 C   0  0  1  0  0  0  0  0  0  0  0  0
   -0.2544    0.7905   -0.1753 H   0  0  0  0  0  0  0  0  0  0  0  0
    0.3361   -0.0313    1.7348 C   0  0  0  0  0  0  0  0  0  0  0  0
    0.2644   -0.9925    2.2425 H   0  0  0  0  0  0  0  0  0  0  0  0
    1.3759    0.2915    1.7582 H   0  0  0  0  0  0  0  0  0  0  0  0
   -0.5080    0.9513    2.5302 C   0  0  0  0  0  0  0  0  0  0  0  0
   -0.8880    2.0173    2.0780 O   0  0  0  0  0  0  0  0  0  0  0  0
   -0.8268    0.6283    3.7600 N   0  0  0  0  0  0  0  0  0  0  0  0
   -1.3997    1.2888    4.2553 H   0  0  0  0  0  0  0  0  0  0  0  0
   -0.5427   -0.2510    4.1488 H   0  0  0  0  0  0  0  0  0  0  0  0
    0.9253   -0.9607   -0.5886 C   0  0  0  0  0  0  0  0  0  0  0  0
    0.6070   -2.0076   -1.1525 O   0  0  0  0  0  0  0  0  0  0  0  0
    2.1565   -0.4481   -0.6762 N   0  0  0  0  0  0  0  0  0  0  0  0
    2.3546    0.3767   -0.1187 H   0  0  0  0  0  0  0  0  0  0  0  0
    3.2458   -1.0382   -1.4521 C   0  0  0  0  0  0  0  0  0  0  0  0
    2.9368   -1.1505   -2.4936 H   0  0  0  0  0  0  0  0  0  0  0  0
    4.1280   -0.3983   -1.4053 H   0  0  0  0  0  0  0  0  0  0  0  0
    3.4923   -2.0229   -1.0514 H   0  0  0  0  0  0  0  0  0  0  0  0
  5  6  2  0  0  0  0
  5  7  1  0  0  0  0
  2  3  1  0  0  0  0
  2  4  1  0  0  0  0
  2  5  1  0  0  0  0
  1  2  1  0  0  0  0
 19 20  2  0  0  0  0
 19 21  1  0  0  0  0
 16 17  1  0  0  0  0
 16 18  1  0  0  0  0
 14 15  2  0  0  0  0
 14 16  1  0  0  0  0
 11 12  1  0  0  0  0
 11 13  1  0  0  0  0
 11 14  1  0  0  0  0
  9 10  1  0  0  0  0
  9 11  1  0  0  0  0
  9 19  1  0  0  0  0
  7  8  1  0  0  0  0
  7  9  1  0  0  0  0
 23 24  1  0  0  0  0
 23 25  1  0  0  0  0
 23 26  1  0  0  0  0
 21 22  1  0  0  0  0
 21 23  1  0  0  0  0
M  END
$$$$
default_name
  -OEChem-01062215323D

 26 25  0     1  0  0  0  0  0999 V2000
   -3.0232   -3.6924    1.0038 H   0  0  0  0  0  0  0  0  0  0  0  0
   -3.0082   -2.6684    0.6318 C   0  0  0  0  0  0  0  0  0  0  0  0
   -3.6332   -2.0414    1.2658 H   0  0  0  0  0  0  0  0  0  0  0  0
   -3.3762   -2.6444   -0.3912 H   0  0  0  0  0  0  0  0  0  0  0  0
   -1.5882   -2.1554    0.6658 C   0  0  0  0  0  0  0  0  0  0  0  0
   -0.6832   -2.8764    1.0638 O   0  0  0  0  0  0  0  0  0  0  0  0
   -1.3952   -0.9084    0.2428 N   0  0  0  0  0  0  0  0  0  0  0  0
   -2.1972   -0.3644   -0.0422 H   0  0  0  0  0  0  0  0  0  0  0  0
   -0.1122   -0.1994    0.2658 C   0  0  1  0  0  0  0  0  0  0  0  0
   -0.2544    0.7905   -0.1753 H   0  0  0  0  0  0  0  0  0  0  0  0
    0.3361   -0.0313    1.7348 C   0  0  0  0  0  0  0  0  0  0  0  0
    0.2644   -0.9925    2.2425 H   0  0  0  0  0  0  0  0  0  0  0  0
    1.3759    0.2915    1.7582 H   0  0  0  0  0  0  0  0  0  0  0  0
   -0.5080    0.9513    2.5302 C   0  0  0  0  0  0  0  0  0  0  0  0
   -0.8880    2.0173    2.0780 O   0  0  0  0  0  0  0  0  0  0  0  0
   -0.8268    0.6283    3.7600 N   0  0  0  0  0  0  0  0  0  0  0  0
   -1.3997    1.2888    4.2553 H   0  0  0  0  0  0  0  0  0  0  0  0
   -0.5427   -0.2510    4.1488 H   0  0  0  0  0  0  0  0  0  0  0  0
    0.9253   -0.9607   -0.5886 C   0  0  0  0  0  0  0  0  0  0  0  0
    0.5540   -1.8387   -1.3675 O   0  0  0  0  0  0  0  0  0  0  0  0
    2.2133   -0.6370   -0.4388 N   0  0  0  0  0  0  0  0  0  0  0  0
    2.4384    0.0442    0.2793 H   0  0  0  0  0  0  0  0  0  0  0  0
    3.3132   -1.2524   -1.1792 C   0  0  0  0  0  0  0  0  0  0  0  0
    3.1413   -1.1428   -2.2522 H   0  0  0  0  0  0  0  0  0  0  0  0
    4.2568   -0.7730   -0.9150 H   0  0  0  0  0  0  0  0  0  0  0  0
    3.3691   -2.3158   -0.9401 H   0  0  0  0  0  0  0  0  0  0  0  0
  5  6  2  0  0  0  0
  5  7  1  0  0  0  0
  2  3  1  0  0  0  0
  2  4  1  0  0  0  0
  2  5  1  0  0  0  0
  1  2  1  0  0  0  0
 19 20  2  0  0  0  0
 19 21  1  0  0  0  0
 16 17  1  0  0  0  0
 16 18  1  0  0  0  0
 14 15  2  0  0  0  0
 14 16  1  0  0  0  0
 11 12  1  0  0  0  0
 11 13  1  0  0  0  0
 11 14  1  0  0  0  0
  9 10  1  0  0  0  0
  9 11  1  0  0  0  0
  9 19  1  0  0  0  0
  7  8  1  0  0  0  0
  7  9  1  0  0  0  0
 23 24  1  0  0  0  0
 23 25  1  0  0  0  0
 23 26  1  0  0  0  0
 21 22  1  0  0  0  0
 21 23  1  0  0  0  0
M  END
$$$$
default_name
  -OEChem-01062215323D

 26 25  0     1  0  0  0  0  0999 V2000
   -3.0232   -3.6924    1.0038 H   0  0  0  0  0  0  0  0  0  0  0  0
   -3.0082   -2.6684    0.6318 C   0  0  0  0  0  0  0  0  0  0  0  0
   -3.6332   -2.0414    1.2658 H   0  0  0  0  0  0  0  0  0  0  0  0
   -3.3762   -2.6444   -0.3912 H   0  0  0  0  0  0  0  0  0  0  0  0
   -1.5882   -2.1554    0.6658 C   0  0  0  0  0  0  0  0  0  0  0  0
   -0.6832   -2.8764    1.0638 O   0  0  0  0  0  0  0  0  0  0  0  0
   -1.3952   -0.9084    0.2428 N   0  0  0  0  0  0  0  0  0  0  0  0
   -2.1972   -0.3644   -0.0422 H   0  0  0  0  0  0  0  0  0  0  0  0
   -0.1122   -0.1994    0.2658 C   0  0  1  0  0  0  0  0  0  0  0  0
   -0.2544    0.7905   -0.1753 H   0  0  0  0  0  0  0  0  0  0  0  0
    0.3361   -0.0313    1.7348 C   0  0  0  0  0  0  0  0  0  0  0  0
    0.2644   -0.9925    2.2425 H   0  0  0  0  0  0  0  0  0  0  0  0
    1.3759    0.2915    1.7582 H   0  0  0  0  0  0  0  0  0  0  0  0
   -0.5080    0.9513    2.5302 C   0  0  0  0  0  0  0  0  0  0  0  0
   -0.8880    2.0173    2.0780 O   0  0  0  0  0  0  0  0  0  0  0  0
   -0.8268    0.6283    3.7600 N   0  0  0  0  0  0  0  0  0  0  0  0
   -1.3997    1.2888    4.2553 H   0  0  0  0  0  0  0  0  0  0  0  0
   -0.5427   -0.2510    4.1488 H   0  0  0  0  0  0  0  0  0  0  0  0
    0.9253   -0.9607   -0.5886 C   0  0  0  0  0  0  0  0  0  0  0  0
    0.5543   -1.6305   -1.5525 O   0  0  0  0  0  0  0  0  0  0  0  0
    2.2109   -0.8689   -0.2351 N   0  0  0  0  0  0  0  0  0  0  0  0
    2.4209   -0.3582    0.6167 H   0  0  0  0  0  0  0  0  0  0  0  0
    3.3129   -1.5165   -0.9443 C   0  0  0  0  0  0  0  0  0  0  0  0
    3.3091   -1.2066   -1.9915 H   0  0  0  0  0  0  0  0  0  0  0  0
    4.2650   -1.2386   -0.4901 H   0  0  0  0  0  0  0  0  0  0  0  0
    3.1940   -2.6004   -0.8991 H   0  0  0  0  0  0  0  0  0  0  0  0
  5  6  2  0  0  0  0
  5  7  1  0  0  0  0
  2  3  1  0  0  0  0
  2  4  1  0  0  0  0
  2  5  1  0  0  0  0
  1  2  1  0  0  0  0
 19 20  2  0  0  0  0
 19 21  1  0  0  0  0
 16 17  1  0  0  0  0
 16 18  1  0  0  0  0
 14 15  2  0  0  0  0
 14 16  1  0  0  0  0
 11 12  1  0  0  0  0
 11 13  1  0  0  0  0
 11 14  1  0  0  0  0
  9 10  1  0  0  0  0
  9 11  1  0  0  0  0
  9 19  1  0  0  0  0
  7  8  1  0  0  0  0
  7  9  1  0  0  0  0
 23 24  1  0  0  0  0
 23 25  1  0  0  0  0
 23 26  1  0  0  0  0
 21 22  1  0  0  0  0
 21 23  1  0  0  0  0
M  END
$$$$
default_name
  -OEChem-01062215323D

 26 25  0     1  0  0  0  0  0999 V2000
   -3.0232   -3.6924    1.0038 H   0  0  0  0  0  0  0  0  0  0  0  0
   -3.0082   -2.6684    0.6318 C   0  0  0  0  0  0  0  0  0  0  0  0
   -3.6332   -2.0414    1.2658 H   0  0  0  0  0  0  0  0  0  0  0  0
   -3.3762   -2.6444   -0.3912 H   0  0  0  0  0  0  0  0  0  0  0  0
   -1.5882   -2.1554    0.6658 C   0  0  0  0  0  0  0  0  0  0  0  0
   -0.6832   -2.8764    1.0638 O   0  0  0  0  0  0  0  0  0  0  0  0
   -1.3952   -0.9084    0.2428 N   0  0  0  0  0  0  0  0  0  0  0  0
   -2.1972   -0.3644   -0.0422 H   0  0  0  0  0  0  0  0  0  0  0  0
   -0.1122   -0.1994    0.2658 C   0  0  1  0  0  0  0  0  0  0  0  0
   -0.2544    0.7905   -0.1753 H   0  0  0  0  0  0  0  0  0  0  0  0
    0.3361   -0.0313    1.7348 C   0  0  0  0  0  0  0  0  0  0  0  0
    0.2644   -0.9925    2.2425 H   0  0  0  0  0  0  0  0  0  0  0  0
    1.3759    0.2915    1.7582 H   0  0  0  0  0  0  0  0  0  0  0  0
   -0.5080    0.9513    2.5302 C   0  0  0  0  0  0  0  0  0  0  0  0
   -0.8880    2.0173    2.0780 O   0  0  0  0  0  0  0  0  0  0  0  0
   -0.8268    0.6283    3.7600 N   0  0  0  0  0  0  0  0  0  0  0  0
   -1.3997    1.2888    4.2553 H   0  0  0  0  0  0  0  0  0  0  0  0
   -0.5427   -0.2510    4.1488 H   0  0  0  0  0  0  0  0  0  0  0  0
    0.9253   -0.9607   -0.5886 C   0  0  0  0  0  0  0  0  0  0  0  0
    0.6081   -1.3973   -1.6950 O   0  0  0  0  0  0  0  0  0  0  0  0
    2.1494   -1.1280   -0.0789 N   0  0  0  0  0  0  0  0  0  0  0  0
    2.3034   -0.8031    0.8703 H   0  0  0  0  0  0  0  0  0  0  0  0
    3.2449   -1.8124   -0.7633 C   0  0  0  0  0  0  0  0  0  0  0  0
    3.4288   -1.3375   -1.7295 H   0  0  0  0  0  0  0  0  0  0  0  0
    4.1521   -1.7635   -0.1596 H   0  0  0  0  0  0  0  0  0  0  0  0
    2.9788   -2.8573   -0.9314 H   0  0  0  0  0  0  0  0  0  0  0  0
  5  6  2  0  0  0  0
  5  7  1  0  0  0  0
  2  3  1  0  0  0  0
  2  4  1  0  0  0  0
  2  5  1  0  0  0  0
  1  2  1  0  0  0  0
 19 20  2  0  0  0  0
 19 21  1  0  0  0  0
 16 17  1  0  0  0  0
 16 18  1  0  0  0  0
 14 15  2  0  0  0  0
 14 16  1  0  0  0  0
 11 12  1  0  0  0  0
 11 13  1  0  0  0  0
 11 14  1  0  0  0  0
  9 10  1  0  0  0  0
  9 11  1  0  0  0  0
  9 19  1  0  0  0  0
  7  8  1  0  0  0  0
  7  9  1  0  0  0  0
 23 24  1  0  0  0  0
 23 25  1  0  0  0  0
 23 26  1  0  0  0  0
 21 22  1  0  0  0  0
 21 23  1  0  0  0  0
M  END
$$$$
default_name
  -OEChem-01062215323D

 26 25  0     1  0  0  0  0  0999 V2000
   -3.0232   -3.6924    1.0038 H   0  0  0  0  0  0  0  0  0  0  0  0
   -3.0082   -2.6684    0.6318 C   0  0  0  0  0  0  0  0  0  0  0  0
   -3.6332   -2.0414    1.2658 H   0  0  0  0  0  0  0  0  0  0  0  0
   -3.3762   -2.6444   -0.3912 H   0  0  0  0  0  0  0  0  0  0  0  0
   -1.5882   -2.1554    0.6658 C   0  0  0  0  0  0  0  0  0  0  0  0
   -0.6832   -2.8764    1.0638 O   0  0  0  0  0  0  0  0  0  0  0  0
   -1.3952   -0.9084    0.2428 N   0  0  0  0  0  0  0  0  0  0  0  0
   -2.1972   -0.3644   -0.0422 H   0  0  0  0  0  0  0  0  0  0  0  0
   -0.1122   -0.1994    0.2658 C   0  0  1  0  0  0  0  0  0  0  0  0
   -0.2544    0.7905   -0.1753 H   0  0  0  0  0  0  0  0  0  0  0  0
    0.3361   -0.0313    1.7348 C   0  0  0  0  0  0  0  0  0  0  0  0
    0.2644   -0.9925    2.2425 H   0  0  0  0  0  0  0  0  0  0  0  0
    1.3759    0.2915    1.7582 H   0  0  0  0  0  0  0  0  0  0  0  0
   -0.5080    0.9513    2.5302 C   0  0  0  0  0  0  0  0  0  0  0  0
   -0.8880    2.0173    2.0780 O   0  0  0  0  0  0  0  0  0  0  0  0
   -0.8268    0.6283    3.7600 N   0  0  0  0  0  0  0  0  0  0  0  0
   -1.3997    1.2888    4.2553 H   0  0  0  0  0  0  0  0  0  0  0  0
   -0.5427   -0.2510    4.1488 H   0  0  0  0  0  0  0  0  0  0  0  0
    0.9253   -0.9607   -0.5886 C   0  0  0  0  0  0  0  0  0  0  0  0
    0.7116   -1.1550   -1.7852 O   0  0  0  0  0  0  0  0  0  0  0  0
    2.0330   -1.3966    0.0191 N   0  0  0  0  0  0  0  0  0  0  0  0
    2.0938   -1.2600    1.0230 H   0  0  0  0  0  0  0  0  0  0  0  0
    3.1137   -2.1199   -0.6486 C   0  0  0  0  0  0  0  0  0  0  0  0
    3.4923   -1.5267   -1.4839 H   0  0  0  0  0  0  0  0  0  0  0  0
    3.9258   -2.3117    0.0540 H   0  0  0  0  0  0  0  0  0  0  0  0
    2.7384   -3.0691   -1.0346 H   0  0  0  0  0  0  0  0  0  0  0  0
  5  6  2  0  0  0  0
  5  7  1  0  0  0  0
  2  3  1  0  0  0  0
  2  4  1  0  0  0  0
  2  5  1  0  0  0  0
  1  2  1  0  0  0  0
 19 20  2  0  0  0  0
 19 21  1  0  0  0  0
 16 17  1  0  0  0  0
 16 18  1  0  0  0  0
 14 15  2  0  0  0  0
 14 16  1  0  0  0  0
 11 12  1  0  0  0  0
 11 13  1  0  0  0  0
 11 14  1  0  0  0  0
  9 10  1  0  0  0  0
  9 11  1  0  0  0  0
  9 19  1  0  0  0  0
  7  8  1  0  0  0  0
  7  9  1  0  0  0  0
 23 24  1  0  0  0  0
 23 25  1  0  0  0  0
 23 26  1  0  0  0  0
 21 22  1  0  0  0  0
 21 23  1  0  0  0  0
M  END
$$$$
default_name
  -OEChem-01062215323D

 26 25  0     1  0  0  0  0  0999 V2000
   -3.0232   -3.6924    1.0038 H   0  0  0  0  0  0  0  0  0  0  0  0
   -3.0082   -2.6684    0.6318 C   0  0  0  0  0  0  0  0  0  0  0  0
   -3.6332   -2.0414    1.2658 H   0  0  0  0  0  0  0  0  0  0  0  0
   -3.3762   -2.6444   -0.3912 H   0  0  0  0  0  0  0  0  0  0  0  0
   -1.5882   -2.1554    0.6658 C   0  0  0  0  0  0  0  0  0  0  0  0
   -0.6832   -2.8764    1.0638 O   0  0  0  0  0  0  0  0  0  0  0  0
   -1.3952   -0.9084    0.2428 N   0  0  0  0  0  0  0  0  0  0  0  0
   -2.1972   -0.3644   -0.0422 H   0  0  0  0  0  0  0  0  0  0  0  0
   -0.1122   -0.1994    0.2658 C   0  0  1  0  0  0  0  0  0  0  0  0
   -0.2544    0.7905   -0.1753 H   0  0  0  0  0  0  0  0  0  0  0  0
    0.3361   -0.0313    1.7348 C   0  0  0  0  0  0  0  0  0  0  0  0
    0.2644   -0.9925    2.2425 H   0  0  0  0  0  0  0  0  0  0  0  0
    1.3759    0.2915    1.7582 H   0  0  0  0  0  0  0  0  0  0  0  0
   -0.5080    0.9513    2.5302 C   0  0  0  0  0  0  0  0  0  0  0  0
   -0.8880    2.0173    2.0780 O   0  0  0  0  0  0  0  0  0  0  0  0
   -0.8268    0.6283    3.7600 N   0  0  0  0  0  0  0  0  0  0  0  0
   -1.3997    1.2888    4.2553 H   0  0  0  0  0  0  0  0  0  0  0  0
   -0.5427   -0.2510    4.1488 H   0  0  0  0  0  0  0  0  0  0  0  0
    0.9253   -0.9607   -0.5886 C   0  0  0  0  0  0  0  0  0  0  0  0
    0.8578   -0.9201   -1.8171 O   0  0  0  0  0  0  0  0  0  0  0  0
    1.8696   -1.6564    0.0521 N   0  0  0  0  0  0  0  0  0  0  0  0
    1.8065   -1.6980    1.0644 H   0  0  0  0  0  0  0  0  0  0  0  0
    2.9283   -2.4180   -0.6081 C   0  0  0  0  0  0  0  0  0  0  0  0
    3.4952   -1.7612   -1.2714 H   0  0  0  0  0  0  0  0  0  0  0  0
    3.6014   -2.8459    0.1362 H   0  0  0  0  0  0  0  0  0  0  0  0
    2.4890   -3.2214   -1.2019 H   0  0  0  0  0  0  0  0  0  0  0  0
  5  6  2  0  0  0  0
  5  7  1  0  0  0  0
  2  3  1  0  0  0  0
  2  4  1  0  0  0  0
  2  5  1  0  0  0  0
  1  2  1  0  0  0  0
 19 20  2  0  0  0  0
 19 21  1  0  0  0  0
 16 17  1  0  0  0  0
 16 18  1  0  0  0  0
 14 15  2  0  0  0  0
 14 16  1  0  0  0  0
 11 12  1  0  0  0  0
 11 13  1  0  0  0  0
 11 14  1  0  0  0  0
  9 10  1  0  0  0  0
  9 11  1  0  0  0  0
  9 19  1  0  0  0  0
  7  8  1  0  0  0  0
  7  9  1  0  0  0  0
 23 24  1  0  0  0  0
 23 25  1  0  0  0  0
 23 26  1  0  0  0  0
 21 22  1  0  0  0  0
 21 23  1  0  0  0  0
M  END
$$$$
default_name
  -OEChem-01062215323D

 26 25  0     1  0  0  0  0  0999 V2000
   -3.0232   -3.6924    1.0038 H   0  0  0  0  0  0  0  0  0  0  0  0
   -3.0082   -2.6684    0.6318 C   0  0  0  0  0  0  0  0  0  0  0  0
   -3.6332   -2.0414    1.2658 H   0  0  0  0  0  0  0  0  0  0  0  0
   -3.3762   -2.6444   -0.3912 H   0  0  0  0  0  0  0  0  0  0  0  0
   -1.5882   -2.1554    0.6658 C   0  0  0  0  0  0  0  0  0  0  0  0
   -0.6832   -2.8764    1.0638 O   0  0  0  0  0  0  0  0  0  0  0  0
   -1.3952   -0.9084    0.2428 N   0  0  0  0  0  0  0  0  0  0  0  0
   -2.1972   -0.3644   -0.0422 H   0  0  0  0  0  0  0  0  0  0  0  0
   -0.1122   -0.1994    0.2658 C   0  0  1  0  0  0  0  0  0  0  0  0
   -0.2544    0.7905   -0.1753 H   0  0  0  0  0  0  0  0  0  0  0  0
    0.3361   -0.0313    1.7348 C   0  0  0  0  0  0  0  0  0  0  0  0
    0.2644   -0.9925    2.2425 H   0  0  0  0  0  0  0  0  0  0  0  0
    1.3759    0.2915    1.7582 H   0  0  0  0  0  0  0  0  0  0  0  0
   -0.5080    0.9513    2.5302 C   0  0  0  0  0  0  0  0  0  0  0  0
   -0.8880    2.0173    2.0780 O   0  0  0  0  0  0  0  0  0  0  0  0
   -0.8268    0.6283    3.7600 N   0  0  0  0  0  0  0  0  0  0  0  0
   -1.3997    1.2888    4.2553 H   0  0  0  0  0  0  0  0  0  0  0  0
   -0.5427   -0.2510    4.1488 H   0  0  0  0  0  0  0  0  0  0  0  0
    0.9253   -0.9607   -0.5886 C   0  0  0  0  0  0  0  0  0  0  0  0
    1.0367   -0.7085   -1.7883 O   0  0  0  0  0  0  0  0  0  0  0  0
    1.6703   -1.8897    0.0181 N   0  0  0  0  0  0  0  0  0  0  0  0
    1.4610   -2.0870    0.9915 H   0  0  0  0  0  0  0  0  0  0  0  0
    2.7014   -2.6866   -0.6443 C   0  0  0  0  0  0  0  0  0  0  0  0
    3.4373   -2.0251   -1.1065 H   0  0  0  0  0  0  0  0  0  0  0  0
    3.2011   -3.3299    0.0813 H   0  0  0  0  0  0  0  0  0  0  0  0
    2.2476   -3.3036   -1.4217 H   0  0  0  0  0  0  0  0  0  0  0  0
  5  6  2  0  0  0  0
  5  7  1  0  0  0  0
  2  3  1  0  0  0  0
  2  4  1  0  0  0  0
  2  5  1  0  0  0  0
  1  2  1  0  0  0  0
 19 20  2  0  0  0  0
 19 21  1  0  0  0  0
 16 17  1  0  0  0  0
 16 18  1  0  0  0  0
 14 15  2  0  0  0  0
 14 16  1  0  0  0  0
 11 12  1  0  0  0  0
 11 13  1  0  0  0  0
 11 14  1  0  0  0  0
  9 10  1  0  0  0  0
  9 11  1  0  0  0  0
  9 19  1  0  0  0  0
  7  8  1  0  0  0  0
  7  9  1  0  0  0  0
 23 24  1  0  0  0  0
 23 25  1  0  0  0  0
 23 26  1  0  0  0  0
 21 22  1  0  0  0  0
 21 23  1  0  0  0  0
M  END
$$$$
default_name
  -OEChem-01062215323D

 26 25  0     1  0  0  0  0  0999 V2000
   -3.0232   -3.6924    1.0038 H   0  0  0  0  0  0  0  0  0  0  0  0
   -3.0082   -2.6684    0.6318 C   0  0  0  0  0  0  0  0  0  0  0  0
   -3.6332   -2.0414    1.2658 H   0  0  0  0  0  0  0  0  0  0  0  0
   -3.3762   -2.6444   -0.3912 H   0  0  0  0  0  0  0  0  0  0  0  0
   -1.5882   -2.1554    0.6658 C   0  0  0  0  0  0  0  0  0  0  0  0
   -0.6832   -2.8764    1.0638 O   0  0  0  0  0  0  0  0  0  0  0  0
   -1.3952   -0.9084    0.2428 N   0  0  0  0  0  0  0  0  0  0  0  0
   -2.1972   -0.3644   -0.0422 H   0  0  0  0  0  0  0  0  0  0  0  0
   -0.1122   -0.1994    0.2658 C   0  0  1  0  0  0  0  0  0  0  0  0
   -0.2544    0.7905   -0.1753 H   0  0  0  0  0  0  0  0  0  0  0  0
    0.3361   -0.0313    1.7348 C   0  0  0  0  0  0  0  0  0  0  0  0
    0.2644   -0.9925    2.2425 H   0  0  0  0  0  0  0  0  0  0  0  0
    1.3759    0.2915    1.7582 H   0  0  0  0  0  0  0  0  0  0  0  0
   -0.5080    0.9513    2.5302 C   0  0  0  0  0  0  0  0  0  0  0  0
   -0.8880    2.0173    2.0780 O   0  0  0  0  0  0  0  0  0  0  0  0
   -0.8268    0.6283    3.7600 N   0  0  0  0  0  0  0  0  0  0  0  0
   -1.3997    1.2888    4.2553 H   0  0  0  0  0  0  0  0  0  0  0  0
   -0.5427   -0.2510    4.1488 H   0  0  0  0  0  0  0  0  0  0  0  0
    0.9253   -0.9607   -0.5886 C   0  0  0  0  0  0  0  0  0  0  0  0
    1.2361   -0.5348   -1.7010 O   0  0  0  0  0  0  0  0  0  0  0  0
    1.4488   -2.0807   -0.0808 N   0  0  0  0  0  0  0  0  0  0  0  0
    1.0809   -2.4007    0.8094 H   0  0  0  0  0  0  0  0  0  0  0  0
    2.4484   -2.9072   -0.7550 C   0  0  0  0  0  0  0  0  0  0  0  0
    3.3226   -2.3003   -1.0006 H   0  0  0  0  0  0  0  0  0  0  0  0
    2.7522   -3.7304   -0.1069 H   0  0  0  0  0  0  0  0  0  0  0  0
    2.0307   -3.3103   -1.6791 H   0  0  0  0  0  0  0  0  0  0  0  0
  5  6  2  0  0  0  0
  5  7  1  0  0  0  0
  2  3  1  0  0  0  0
  2  4  1  0  0  0  0
  2  5  1  0  0  0  0
  1  2  1  0  0  0  0
 19 20  2  0  0  0  0
 19 21  1  0  0  0  0
 16 17  1  0  0  0  0
 16 18  1  0  0  0  0
 14 15  2  0  0  0  0
 14 16  1  0  0  0  0
 11 12  1  0  0  0  0
 11 13  1  0  0  0  0
 11 14  1  0  0  0  0
  9 10  1  0  0  0  0
  9 11  1  0  0  0  0
  9 19  1  0  0  0  0
  7  8  1  0  0  0  0
  7  9  1  0  0  0  0
 23 24  1  0  0  0  0
 23 25  1  0  0  0  0
 23 26  1  0  0  0  0
 21 22  1  0  0  0  0
 21 23  1  0  0  0  0
M  END
$$$$
default_name
  -OEChem-01062215323D

 26 25  0     1  0  0  0  0  0999 V2000
   -3.0232   -3.6924    1.0038 H   0  0  0  0  0  0  0  0  0  0  0  0
   -3.0082   -2.6684    0.6318 C   0  0  0  0  0  0  0  0  0  0  0  0
   -3.6332   -2.0414    1.2658 H   0  0  0  0  0  0  0  0  0  0  0  0
   -3.3762   -2.6444   -0.3912 H   0  0  0  0  0  0  0  0  0  0  0  0
   -1.5882   -2.1554    0.6658 C   0  0  0  0  0  0  0  0  0  0  0  0
   -0.6832   -2.8764    1.0638 O   0  0  0  0  0  0  0  0  0  0  0  0
   -1.3952   -0.9084    0.2428 N   0  0  0  0  0  0  0  0  0  0  0  0
   -2.1972   -0.3644   -0.0422 H   0  0  0  0  0  0  0  0  0  0  0  0
   -0.1122   -0.1994    0.2658 C   0  0  1  0  0  0  0  0  0  0  0  0
   -0.2544    0.7905   -0.1753 H   0  0  0  0  0  0  0  0  0  0  0  0
    0.3361   -0.0313    1.7348 C   0  0  0  0  0  0  0  0  0  0  0  0
    0.2644   -0.9925    2.2425 H   0  0  0  0  0  0  0  0  0  0  0  0
    1.3759    0.2915    1.7582 H   0  0  0  0  0  0  0  0  0  0  0  0
   -0.5080    0.9513    2.5302 C   0  0  0  0  0  0  0  0  0  0  0  0
   -0.8880    2.0173    2.0780 O   0  0  0  0  0  0  0  0  0  0  0  0
   -0.8268    0.6283    3.7600 N   0  0  0  0  0  0  0  0  0  0  0  0
   -1.3997    1.2888    4.2553 H   0  0  0  0  0  0  0  0  0  0  0  0
   -0.5427   -0.2510    4.1488 H   0  0  0  0  0  0  0  0  0  0  0  0
    0.9253   -0.9607   -0.5886 C   0  0  0  0  0  0  0  0  0  0  0  0
    1.4424   -0.4107   -1.5610 O   0  0  0  0  0  0  0  0  0  0  0  0
    1.2201   -2.2162   -0.2378 N   0  0  0  0  0  0  0  0  0  0  0  0
    0.6920   -2.6176    0.5305 H   0  0  0  0  0  0  0  0  0  0  0  0
    2.1865   -3.0648   -0.9325 C   0  0  0  0  0  0  0  0  0  0  0  0
    3.1588   -2.5682   -0.9607 H   0  0  0  0  0  0  0  0  0  0  0  0
    2.2852   -4.0204   -0.4156 H   0  0  0  0  0  0  0  0  0  0  0  0
    1.8531   -3.2409   -1.9566 H   0  0  0  0  0  0  0  0  0  0  0  0
  5  6  2  0  0  0  0
  5  7  1  0  0  0  0
  2  3  1  0  0  0  0
  2  4  1  0  0  0  0
  2  5  1  0  0  0  0
  1  2  1  0  0  0  0
 19 20  2  0  0  0  0
 19 21  1  0  0  0  0
 16 17  1  0  0  0  0
 16 18  1  0  0  0  0
 14 15  2  0  0  0  0
 14 16  1  0  0  0  0
 11 12  1  0  0  0  0
 11 13  1  0  0  0  0
 11 14  1  0  0  0  0
  9 10  1  0  0  0  0
  9 11  1  0  0  0  0
  9 19  1  0  0  0  0
  7  8  1  0  0  0  0
  7  9  1  0  0  0  0
 23 24  1  0  0  0  0
 23 25  1  0  0  0  0
 23 26  1  0  0  0  0
 21 22  1  0  0  0  0
 21 23  1  0  0  0  0
M  END
$$$$
default_name
  -OEChem-01062215323D

 26 25  0     1  0  0  0  0  0999 V2000
   -3.0232   -3.6924    1.0038 H   0  0  0  0  0  0  0  0  0  0  0  0
   -3.0082   -2.6684    0.6318 C   0  0  0  0  0  0  0  0  0  0  0  0
   -3.6332   -2.0414    1.2658 H   0  0  0  0  0  0  0  0  0  0  0  0
   -3.3762   -2.6444   -0.3912 H   0  0  0  0  0  0  0  0  0  0  0  0
   -1.5882   -2.1554    0.6658 C   0  0  0  0  0  0  0  0  0  0  0  0
   -0.6832   -2.8764    1.0638 O   0  0  0  0  0  0  0  0  0  0  0  0
   -1.3952   -0.9084    0.2428 N   0  0  0  0  0  0  0  0  0  0  0  0
   -2.1972   -0.3644   -0.0422 H   0  0  0  0  0  0  0  0  0  0  0  0
   -0.1122   -0.1994    0.2658 C   0  0  1  0  0  0  0  0  0  0  0  0
   -0.2544    0.7905   -0.1753 H   0  0  0  0  0  0  0  0  0  0  0  0
    0.3361   -0.0313    1.7348 C   0  0  0  0  0  0  0  0  0  0  0  0
    0.2644   -0.9925    2.2425 H   0  0  0  0  0  0  0  0  0  0  0  0
    1.3759    0.2915    1.7582 H   0  0  0  0  0  0  0  0  0  0  0  0
   -0.5080    0.9513    2.5302 C   0  0  0  0  0  0  0  0  0  0  0  0
   -0.8880    2.0173    2.0780 O   0  0  0  0  0  0  0  0  0  0  0  0
   -0.8268    0.6283    3.7600 N   0  0  0  0  0  0  0  0  0  0  0  0
   -1.3997    1.2888    4.2553 H   0  0  0  0  0  0  0  0  0  0  0  0
   -0.5427   -0.2510    4.1488 H   0  0  0  0  0  0  0  0  0  0  0  0
    0.9253   -0.9607   -0.5886 C   0  0  0  0  0  0  0  0  0  0  0  0
    1.6416   -0.3448   -1.3778 O   0  0  0  0  0  0  0  0  0  0  0  0
    0.9999   -2.2870   -0.4421 N   0  0  0  0  0  0  0  0  0  0  0  0
    0.3210   -2.7230    0.1738 H   0  0  0  0  0  0  0  0  0  0  0  0
    1.9337   -3.1487   -1.1648 C   0  0  0  0  0  0  0  0  0  0  0  0
    2.9573   -2.8104   -0.9897 H   0  0  0  0  0  0  0  0  0  0  0  0
    1.8320   -4.1799   -0.8238 H   0  0  0  0  0  0  0  0  0  0  0  0
    1.7269   -3.1003   -2.2352 H   0  0  0  0  0  0  0  0  0  0  0  0
  5  6  2  0  0  0  0
  5  7  1  0  0  0  0
  2  3  1  0  0  0  0
  2  4  1  0  0  0  0
  2  5  1  0  0  0  0
  1  2  1  0  0  0  0
 19 20  2  0  0  0  0
 19 21  1  0  0  0  0
 16 17  1  0  0  0  0
 16 18  1  0  0  0  0
 14 15  2  0  0  0  0
 14 16  1  0  0  0  0
 11 12  1  0  0  0  0
 11 13  1  0  0  0  0
 11 14  1  0  0  0  0
  9 10  1  0  0  0  0
  9 11  1  0  0  0  0
  9 19  1  0  0  0  0
  7  8  1  0  0  0  0
  7  9  1  0  0  0  0
 23 24  1  0  0  0  0
 23 25  1  0  0  0  0
 23 26  1  0  0  0  0
 21 22  1  0  0  0  0
 21 23  1  0  0  0  0
M  END
$$$$
default_name
  -OEChem-01062215323D

 26 25  0     1  0  0  0  0  0999 V2000
   -3.0232   -3.6924    1.0038 H   0  0  0  0  0  0  0  0  0  0  0  0
   -3.0082   -2.6684    0.6318 C   0  0  0  0  0  0  0  0  0  0  0  0
   -3.6332   -2.0414    1.2658 H   0  0  0  0  0  0  0  0  0  0  0  0
   -3.3762   -2.6444   -0.3912 H   0  0  0  0  0  0  0  0  0  0  0  0
   -1.5882   -2.1554    0.6658 C   0  0  0  0  0  0  0  0  0  0  0  0
   -0.6832   -2.8764    1.0638 O   0  0  0  0  0  0  0  0  0  0  0  0
   -1.3952   -0.9084    0.2428 N   0  0  0  0  0  0  0  0  0  0  0  0
   -2.1972   -0.3644   -0.0422 H   0  0  0  0  0  0  0  0  0  0  0  0
   -0.1122   -0.1994    0.2658 C   0  0  1  0  0  0  0  0  0  0  0  0
   -0.2544    0.7905   -0.1753 H   0  0  0  0  0  0  0  0  0  0  0  0
    0.3361   -0.0313    1.7348 C   0  0  0  0  0  0  0  0  0  0  0  0
    0.2644   -0.9925    2.2425 H   0  0  0  0  0  0  0  0  0  0  0  0
    1.3759    0.2915    1.7582 H   0  0  0  0  0  0  0  0  0  0  0  0
   -0.5080    0.9513    2.5302 C   0  0  0  0  0  0  0  0  0  0  0  0
   -0.8880    2.0173    2.0780 O   0  0  0  0  0  0  0  0  0  0  0  0
   -0.8268    0.6283    3.7600 N   0  0  0  0  0  0  0  0  0  0  0  0
   -1.3997    1.2888    4.2553 H   0  0  0  0  0  0  0  0  0  0  0  0
   -0.5427   -0.2510    4.1488 H   0  0  0  0  0  0  0  0  0  0  0  0
    0.9253   -0.9607   -0.5886 C   0  0  0  0  0  0  0  0  0  0  0  0
    1.8201   -0.3414   -1.1641 O   0  0  0  0  0  0  0  0  0  0  0  0
    0.8030   -2.2884   -0.6799 N   0  0  0  0  0  0  0  0  0  0  0  0
   -0.0070   -2.7097   -0.2364 H   0  0  0  0  0  0  0  0  0  0  0  0
    1.7071   -3.1532   -1.4360 C   0  0  0  0  0  0  0  0  0  0  0  0
    2.7316   -3.0105   -1.0854 H   0  0  0  0  0  0  0  0  0  0  0  0
    1.4235   -4.1982   -1.3036 H   0  0  0  0  0  0  0  0  0  0  0  0
    1.6606   -2.8979   -2.4960 H   0  0  0  0  0  0  0  0  0  0  0  0
  5  6  2  0  0  0  0
  5  7  1  0  0  0  0
  2  3  1  0  0  0  0
  2  4  1  0  0  0  0
  2  5  1  0  0  0  0
  1  2  1  0  0  0  0
 19 20  2  0  0  0  0
 19 21  1  0  0  0  0
 16 17  1  0  0  0  0
 16 18  1  0  0  0  0
 14 15  2  0  0  0  0
 14 16  1  0  0  0  0
 11 12  1  0  0  0  0
 11 13  1  0  0  0  0
 11 14  1  0  0  0  0
  9 10  1  0  0  0  0
  9 11  1  0  0  0  0
  9 19  1  0  0  0  0
  7  8  1  0  0  0  0
  7  9  1  0  0  0  0
 23 24  1  0  0  0  0
 23 25  1  0  0  0  0
 23 26  1  0  0  0  0
 21 22  1  0  0  0  0
 21 23  1  0  0  0  0
M  END
$$$$
default_name
  -OEChem-01062215323D

 26 25  0     1  0  0  0  0  0999 V2000
   -3.0232   -3.6924    1.0038 H   0  0  0  0  0  0  0  0  0  0  0  0
   -3.0082   -2.6684    0.6318 C   0  0  0  0  0  0  0  0  0  0  0  0
   -3.6332   -2.0414    1.2658 H   0  0  0  0  0  0  0  0  0  0  0  0
   -3.3762   -2.6444   -0.3912 H   0  0  0  0  0  0  0  0  0  0  0  0
   -1.5882   -2.1554    0.6658 C   0  0  0  0  0  0  0  0  0  0  0  0
   -0.6832   -2.8764    1.0638 O   0  0  0  0  0  0  0  0  0  0  0  0
   -1.3952   -0.9084    0.2428 N   0  0  0  0  0  0  0  0  0  0  0  0
   -2.1972   -0.3644   -0.0422 H   0  0  0  0  0  0  0  0  0  0  0  0
   -0.1122   -0.1994    0.2658 C   0  0  1  0  0  0  0  0  0  0  0  0
   -0.2544    0.7905   -0.1753 H   0  0  0  0  0  0  0  0  0  0  0  0
    0.3361   -0.0313    1.7348 C   0  0  0  0  0  0  0  0  0  0  0  0
    0.2644   -0.9925    2.2425 H   0  0  0  0  0  0  0  0  0  0  0  0
    1.3759    0.2915    1.7582 H   0  0  0  0  0  0  0  0  0  0  0  0
   -0.5080    0.9513    2.5302 C   0  0  0  0  0  0  0  0  0  0  0  0
   -0.8880    2.0173    2.0780 O   0  0  0  0  0  0  0  0  0  0  0  0
   -0.8268    0.6283    3.7600 N   0  0  0  0  0  0  0  0  0  0  0  0
   -1.3997    1.2888    4.2553 H   0  0  0  0  0  0  0  0  0  0  0  0
   -0.5427   -0.2510    4.1488 H   0  0  0  0  0  0  0  0  0  0  0  0
    0.9253   -0.9607   -0.5886 C   0  0  0  0  0  0  0  0  0  0  0  0
    1.9658   -0.4009   -0.9342 O   0  0  0  0  0  0  0  0  0  0  0  0
    0.6430   -2.2203   -0.9349 N   0  0  0  0  0  0  0  0  0  0  0  0
   -0.2696   -2.5785   -0.6721 H   0  0  0  0  0  0  0  0  0  0  0  0
    1.5222   -3.0779   -1.7276 C   0  0  0  0  0  0  0  0  0  0  0  0
    2.4971   -3.1548   -1.2415 H   0  0  0  0  0  0  0  0  0  0  0  0
    1.0875   -4.0739   -1.8223 H   0  0  0  0  0  0  0  0  0  0  0  0
    1.6588   -2.6476   -2.7212 H   0  0  0  0  0  0  0  0  0  0  0  0
  5  6  2  0  0  0  0
  5  7  1  0  0  0  0
  2  3  1  0  0  0  0
  2  4  1  0  0  0  0
  2  5  1  0  0  0  0
  1  2  1  0  0  0  0
 19 20  2  0  0  0  0
 19 21  1  0  0  0  0
 16 17  1  0  0  0  0
 16 18  1  0  0  0  0
 14 15  2  0  0  0  0
 14 16  1  0  0  0  0
 11 12  1  0  0  0  0
 11 13  1  0  0  0  0
 11 14  1  0  0  0  0
  9 10  1  0  0  0  0
  9 11  1  0  0  0  0
  9 19  1  0  0  0  0
  7  8  1  0  0  0  0
  7  9  1  0  0  0  0
 23 24  1  0  0  0  0
 23 25  1  0  0  0  0
 23 26  1  0  0  0  0
 21 22  1  0  0  0  0
 21 23  1  0  0  0  0
M  END
$$$$
default_name
  -OEChem-01062215323D

 26 25  0     1  0  0  0  0  0999 V2000
   -3.0232   -3.6924    1.0038 H   0  0  0  0  0  0  0  0  0  0  0  0
   -3.0082   -2.6684    0.6318 C   0  0  0  0  0  0  0  0  0  0  0  0
   -3.6332   -2.0414    1.2658 H   0  0  0  0  0  0  0  0  0  0  0  0
   -3.3762   -2.6444   -0.3912 H   0  0  0  0  0  0  0  0  0  0  0  0
   -1.5882   -2.1554    0.6658 C   0  0  0  0  0  0  0  0  0  0  0  0
   -0.6832   -2.8764    1.0638 O   0  0  0  0  0  0  0  0  0  0  0  0
   -1.3952   -0.9084    0.2428 N   0  0  0  0  0  0  0  0  0  0  0  0
   -2.1972   -0.3644   -0.0422 H   0  0  0  0  0  0  0  0  0  0  0  0
   -0.1122   -0.1994    0.2658 C   0  0  1  0  0  0  0  0  0  0  0  0
   -0.2544    0.7905   -0.1753 H   0  0  0  0  0  0  0  0  0  0  0  0
    0.3361   -0.0313    1.7348 C   0  0  0  0  0  0  0  0  0  0  0  0
    0.2644   -0.9925    2.2425 H   0  0  0  0  0  0  0  0  0  0  0  0
    1.3759    0.2915    1.7582 H   0  0  0  0  0  0  0  0  0  0  0  0
   -0.5080    0.9513    2.5302 C   0  0  0  0  0  0  0  0  0  0  0  0
   -0.8880    2.0173    2.0780 O   0  0  0  0  0  0  0  0  0  0  0  0
   -0.8268    0.6283    3.7600 N   0  0  0  0  0  0  0  0  0  0  0  0
   -1.3997    1.2888    4.2553 H   0  0  0  0  0  0  0  0  0  0  0  0
   -0.5427   -0.2510    4.1488 H   0  0  0  0  0  0  0  0  0  0  0  0
    0.9253   -0.9607   -0.5886 C   0  0  0  0  0  0  0  0  0  0  0  0
    2.0686   -0.5191   -0.7040 O   0  0  0  0  0  0  0  0  0  0  0  0
    0.5307   -2.0872   -1.1898 N   0  0  0  0  0  0  0  0  0  0  0  0
   -0.4489   -2.3385   -1.1037 H   0  0  0  0  0  0  0  0  0  0  0  0
    1.3915   -2.9280   -2.0198 C   0  0  0  0  0  0  0  0  0  0  0  0
    2.2699   -3.2335   -1.4473 H   0  0  0  0  0  0  0  0  0  0  0  0
    0.8469   -3.8157   -2.3446 H   0  0  0  0  0  0  0  0  0  0  0  0
    1.7217   -2.3665   -2.8954 H   0  0  0  0  0  0  0  0  0  0  0  0
  5  6  2  0  0  0  0
  5  7  1  0  0  0  0
  2  3  1  0  0  0  0
  2  4  1  0  0  0  0
  2  5  1  0  0  0  0
  1  2  1  0  0  0  0
 19 20  2  0  0  0  0
 19 21  1  0  0  0  0
 16 17  1  0  0  0  0
 16 18  1  0  0  0  0
 14 15  2  0  0  0  0
 14 16  1  0  0  0  0
 11 12  1  0  0  0  0
 11 13  1  0  0  0  0
 11 14  1  0  0  0  0
  9 10  1  0  0  0  0
  9 11  1  0  0  0  0
  9 19  1  0  0  0  0
  7  8  1  0  0  0  0
  7  9  1  0  0  0  0
 23 24  1  0  0  0  0
 23 25  1  0  0  0  0
 23 26  1  0  0  0  0
 21 22  1  0  0  0  0
 21 23  1  0  0  0  0
M  END
$$$$
default_name
  -OEChem-01062215323D

 26 25  0     1  0  0  0  0  0999 V2000
   -3.0232   -3.6924    1.0038 H   0  0  0  0  0  0  0  0  0  0  0  0
   -3.0082   -2.6684    0.6318 C   0  0  0  0  0  0  0  0  0  0  0  0
   -3.6332   -2.0414    1.2658 H   0  0  0  0  0  0  0  0  0  0  0  0
   -3.3762   -2.6444   -0.3912 H   0  0  0  0  0  0  0  0  0  0  0  0
   -1.5882   -2.1554    0.6658 C   0  0  0  0  0  0  0  0  0  0  0  0
   -0.6832   -2.8764    1.0638 O   0  0  0  0  0  0  0  0  0  0  0  0
   -1.3952   -0.9084    0.2428 N   0  0  0  0  0  0  0  0  0  0  0  0
   -2.1972   -0.3644   -0.0422 H   0  0  0  0  0  0  0  0  0  0  0  0
   -0.1122   -0.1994    0.2658 C   0  0  1  0  0  0  0  0  0  0  0  0
   -0.2544    0.7905   -0.1753 H   0  0  0  0  0  0  0  0  0  0  0  0
    0.3361   -0.0313    1.7348 C   0  0  0  0  0  0  0  0  0  0  0  0
    0.2644   -0.9925    2.2425 H   0  0  0  0  0  0  0  0  0  0  0  0
    1.3759    0.2915    1.7582 H   0  0  0  0  0  0  0  0  0  0  0  0
   -0.5080    0.9513    2.5302 C   0  0  0  0  0  0  0  0  0  0  0  0
   -0.8880    2.0173    2.0780 O   0  0  0  0  0  0  0  0  0  0  0  0
   -0.8268    0.6283    3.7600 N   0  0  0  0  0  0  0  0  0  0  0  0
   -1.3997    1.2888    4.2553 H   0  0  0  0  0  0  0  0  0  0  0  0
   -0.5427   -0.2510    4.1488 H   0  0  0  0  0  0  0  0  0  0  0  0
    0.9253   -0.9607   -0.5886 C   0  0  0  0  0  0  0  0  0  0  0  0
    2.1216   -0.6881   -0.4890 O   0  0  0  0  0  0  0  0  0  0  0  0
    0.4739   -1.8982   -1.4273 N   0  0  0  0  0  0  0  0  0  0  0  0
   -0.5327   -2.0059   -1.5018 H   0  0  0  0  0  0  0  0  0  0  0  0
    1.3240   -2.7138   -2.2927 C   0  0  0  0  0  0  0  0  0  0  0  0
    2.0655   -3.2413   -1.6887 H   0  0  0  0  0  0  0  0  0  0  0  0
    0.7181   -3.4409   -2.8349 H   0  0  0  0  0  0  0  0  0  0  0  0
    1.8449   -2.0736   -3.0067 H   0  0  0  0  0  0  0  0  0  0  0  0
  5  6  2  0  0  0  0
  5  7  1  0  0  0  0
  2  3  1  0  0  0  0
  2  4  1  0  0  0  0
  2  5  1  0  0  0  0
  1  2  1  0  0  0  0
 19 20  2  0  0  0  0
 19 21  1  0  0  0  0
 16 17  1  0  0  0  0
 16 18  1  0  0  0  0
 14 15  2  0  0  0  0
 14 16  1  0  0  0  0
 11 12  1  0  0  0  0
 11 13  1  0  0  0  0
 11 14  1  0  0  0  0
  9 10  1  0  0  0  0
  9 11  1  0  0  0  0
  9 19  1  0  0  0  0
  7  8  1  0  0  0  0
  7  9  1  0  0  0  0
 23 24  1  0  0  0  0
 23 25  1  0  0  0  0
 23 26  1  0  0  0  0
 21 22  1  0  0  0  0
 21 23  1  0  0  0  0
M  END
$$$$
default_name
  -OEChem-01062215323D

 26 25  0     1  0  0  0  0  0999 V2000
   -3.0232   -3.6924    1.0038 H   0  0  0  0  0  0  0  0  0  0  0  0
   -3.0082   -2.6684    0.6318 C   0  0  0  0  0  0  0  0  0  0  0  0
   -3.6332   -2.0414    1.2658 H   0  0  0  0  0  0  0  0  0  0  0  0
   -3.3762   -2.6444   -0.3912 H   0  0  0  0  0  0  0  0  0  0  0  0
   -1.5882   -2.1554    0.6658 C   0  0  0  0  0  0  0  0  0  0  0  0
   -0.6832   -2.8764    1.0638 O   0  0  0  0  0  0  0  0  0  0  0  0
   -1.3952   -0.9084    0.2428 N   0  0  0  0  0  0  0  0  0  0  0  0
   -2.1972   -0.3644   -0.0422 H   0  0  0  0  0  0  0  0  0  0  0  0
   -0.1122   -0.1994    0.2658 C   0  0  1  0  0  0  0  0  0  0  0  0
   -0.2544    0.7905   -0.1753 H   0  0  0  0  0  0  0  0  0  0  0  0
    0.3361   -0.0313    1.7348 C   0  0  0  0  0  0  0  0  0  0  0  0
    0.2644   -0.9925    2.2425 H   0  0  0  0  0  0  0  0  0  0  0  0
    1.3759    0.2915    1.7582 H   0  0  0  0  0  0  0  0  0  0  0  0
   -0.5080    0.9513    2.5302 C   0  0  0  0  0  0  0  0  0  0  0  0
   -0.8880    2.0173    2.0780 O   0  0  0  0  0  0  0  0  0  0  0  0
   -0.8268    0.6283    3.7600 N   0  0  0  0  0  0  0  0  0  0  0  0
   -1.3997    1.2888    4.2553 H   0  0  0  0  0  0  0  0  0  0  0  0
   -0.5427   -0.2510    4.1488 H   0  0  0  0  0  0  0  0  0  0  0  0
    0.9253   -0.9607   -0.5886 C   0  0  0  0  0  0  0  0  0  0  0  0
    2.1213   -0.8962   -0.3040 O   0  0  0  0  0  0  0  0  0  0  0  0
    0.4763   -1.6663   -1.6310 N   0  0  0  0  0  0  0  0  0  0  0  0
   -0.5152   -1.6035   -1.8391 H   0  0  0  0  0  0  0  0  0  0  0  0
    1.3243   -2.4497   -2.5276 C   0  0  0  0  0  0  0  0  0  0  0  0
    1.8977   -3.1775   -1.9493 H   0  0  0  0  0  0  0  0  0  0  0  0
    0.7099   -2.9753   -3.2598 H   0  0  0  0  0  0  0  0  0  0  0  0
    2.0200   -1.7890   -3.0477 H   0  0  0  0  0  0  0  0  0  0  0  0
  5  6  2  0  0  0  0
  5  7  1  0  0  0  0
  2  3  1  0  0  0  0
  2  4  1  0  0  0  0
  2  5  1  0  0  0  0
  1  2  1  0  0  0  0
 19 20  2  0  0  0  0
 19 21  1  0  0  0  0
 16 17  1  0  0  0  0
 16 18  1  0  0  0  0
 14 15  2  0  0  0  0
 14 16  1  0  0  0  0
 11 12  1  0  0  0  0
 11 13  1  0  0  0  0
 11 14  1  0  0  0  0
  9 10  1  0  0  0  0
  9 11  1  0  0  0  0
  9 19  1  0  0  0  0
  7  8  1  0  0  0  0
  7  9  1  0  0  0  0
 23 24  1  0  0  0  0
 23 25  1  0  0  0  0
 23 26  1  0  0  0  0
 21 22  1  0  0  0  0
 21 23  1  0  0  0  0
M  END
$$$$
default_name
  -OEChem-01062215323D

 26 25  0     1  0  0  0  0  0999 V2000
   -3.0232   -3.6924    1.0038 H   0  0  0  0  0  0  0  0  0  0  0  0
   -3.0082   -2.6684    0.6318 C   0  0  0  0  0  0  0  0  0  0  0  0
   -3.6332   -2.0414    1.2658 H   0  0  0  0  0  0  0  0  0  0  0  0
   -3.3762   -2.6444   -0.3912 H   0  0  0  0  0  0  0  0  0  0  0  0
   -1.5882   -2.1554    0.6658 C   0  0  0  0  0  0  0  0  0  0  0  0
   -0.6832   -2.8764    1.0638 O   0  0  0  0  0  0  0  0  0  0  0  0
   -1.3952   -0.9084    0.2428 N   0  0  0  0  0  0  0  0  0  0  0  0
   -2.1972   -0.3644   -0.0422 H   0  0  0  0  0  0  0  0  0  0  0  0
   -0.1122   -0.1994    0.2658 C   0  0  1  0  0  0  0  0  0  0  0  0
   -0.2544    0.7905   -0.1753 H   0  0  0  0  0  0  0  0  0  0  0  0
    0.3361   -0.0313    1.7348 C   0  0  0  0  0  0  0  0  0  0  0  0
    0.2644   -0.9925    2.2425 H   0  0  0  0  0  0  0  0  0  0  0  0
    1.3759    0.2915    1.7582 H   0  0  0  0  0  0  0  0  0  0  0  0
   -0.5080    0.9513    2.5302 C   0  0  0  0  0  0  0  0  0  0  0  0
   -0.8880    2.0173    2.0780 O   0  0  0  0  0  0  0  0  0  0  0  0
   -0.8268    0.6283    3.7600 N   0  0  0  0  0  0  0  0  0  0  0  0
   -1.3997    1.2888    4.2553 H   0  0  0  0  0  0  0  0  0  0  0  0
   -0.5427   -0.2510    4.1488 H   0  0  0  0  0  0  0  0  0  0  0  0
    0.9253   -0.9607   -0.5886 C   0  0  0  0  0  0  0  0  0  0  0  0
    2.0675   -1.1294   -0.1615 O   0  0  0  0  0  0  0  0  0  0  0  0
    0.5378   -1.4072   -1.7872 N   0  0  0  0  0  0  0  0  0  0  0  0
   -0.3977   -1.1587   -2.0928 H   0  0  0  0  0  0  0  0  0  0  0  0
    1.3924   -2.1538   -2.7086 C   0  0  0  0  0  0  0  0  0  0  0  0
    1.7779   -3.0465   -2.2114 H   0  0  0  0  0  0  0  0  0  0  0  0
    0.8228   -2.4505   -3.5904 H   0  0  0  0  0  0  0  0  0  0  0  0
    2.2351   -1.5320   -3.0154 H   0  0  0  0  0  0  0  0  0  0  0  0
  5  6  2  0  0  0  0
  5  7  1  0  0  0  0
  2  3  1  0  0  0  0
  2  4  1  0  0  0  0
  2  5  1  0  0  0  0
  1  2  1  0  0  0  0
 19 20  2  0  0  0  0
 19 21  1  0  0  0  0
 16 17  1  0  0  0  0
 16 18  1  0  0  0  0
 14 15  2  0  0  0  0
 14 16  1  0  0  0  0
 11 12  1  0  0  0  0
 11 13  1  0  0  0  0
 11 14  1  0  0  0  0
  9 10  1  0  0  0  0
  9 11  1  0  0  0  0
  9 19  1  0  0  0  0
  7  8  1  0  0  0  0
  7  9  1  0  0  0  0
 23 24  1  0  0  0  0
 23 25  1  0  0  0  0
 23 26  1  0  0  0  0
 21 22  1  0  0  0  0
 21 23  1  0  0  0  0
M  END
$$$$
default_name
  -OEChem-01062215323D

 26 25  0     1  0  0  0  0  0999 V2000
   -3.0232   -3.6924    1.0038 H   0  0  0  0  0  0  0  0  0  0  0  0
   -3.0082   -2.6684    0.6318 C   0  0  0  0  0  0  0  0  0  0  0  0
   -3.6332   -2.0414    1.2658 H   0  0  0  0  0  0  0  0  0  0  0  0
   -3.3762   -2.6444   -0.3912 H   0  0  0  0  0  0  0  0  0  0  0  0
   -1.5882   -2.1554    0.6658 C   0  0  0  0  0  0  0  0  0  0  0  0
   -0.6832   -2.8764    1.0638 O   0  0  0  0  0  0  0  0  0  0  0  0
   -1.3952   -0.9084    0.2428 N   0  0  0  0  0  0  0  0  0  0  0  0
   -2.1972   -0.3644   -0.0422 H   0  0  0  0  0  0  0  0  0  0  0  0
   -0.1122   -0.1994    0.2658 C   0  0  1  0  0  0  0  0  0  0  0  0
   -0.2544    0.7905   -0.1753 H   0  0  0  0  0  0  0  0  0  0  0  0
    0.3361   -0.0313    1.7348 C   0  0  0  0  0  0  0  0  0  0  0  0
    0.2644   -0.9925    2.2425 H   0  0  0  0  0  0  0  0  0  0  0  0
    1.3759    0.2915    1.7582 H   0  0  0  0  0  0  0  0  0  0  0  0
   -0.5080    0.9513    2.5302 C   0  0  0  0  0  0  0  0  0  0  0  0
   -0.8880    2.0173    2.0780 O   0  0  0  0  0  0  0  0  0  0  0  0
   -0.8268    0.6283    3.7600 N   0  0  0  0  0  0  0  0  0  0  0  0
   -1.3997    1.2888    4.2553 H   0  0  0  0  0  0  0  0  0  0  0  0
   -0.5427   -0.2510    4.1488 H   0  0  0  0  0  0  0  0  0  0  0  0
    0.9253   -0.9607   -0.5886 C   0  0  0  0  0  0  0  0  0  0  0  0
    1.9640   -1.3717   -0.0713 O   0  0  0  0  0  0  0  0  0  0  0  0
    0.6542   -1.1386   -1.8851 N   0  0  0  0  0  0  0  0  0  0  0  0
   -0.1881   -0.7017   -2.2455 H   0  0  0  0  0  0  0  0  0  0  0  0
    1.5236   -1.8463   -2.8233 C   0  0  0  0  0  0  0  0  0  0  0  0
    1.7145   -2.8574   -2.4570 H   0  0  0  0  0  0  0  0  0  0  0  0
    1.0492   -1.9023   -3.8040 H   0  0  0  0  0  0  0  0  0  0  0  0
    2.4756   -1.3202   -2.9122 H   0  0  0  0  0  0  0  0  0  0  0  0
  5  6  2  0  0  0  0
  5  7  1  0  0  0  0
  2  3  1  0  0  0  0
  2  4  1  0  0  0  0
  2  5  1  0  0  0  0
  1  2  1  0  0  0  0
 19 20  2  0  0  0  0
 19 21  1  0  0  0  0
 16 17  1  0  0  0  0
 16 18  1  0  0  0  0
 14 15  2  0  0  0  0
 14 16  1  0  0  0  0
 11 12  1  0  0  0  0
 11 13  1  0  0  0  0
 11 14  1  0  0  0  0
  9 10  1  0  0  0  0
  9 11  1  0  0  0  0
  9 19  1  0  0  0  0
  7  8  1  0  0  0  0
  7  9  1  0  0  0  0
 23 24  1  0  0  0  0
 23 25  1  0  0  0  0
 23 26  1  0  0  0  0
 21 22  1  0  0  0  0
 21 23  1  0  0  0  0
M  END
$$$$
default_name
  -OEChem-01062215323D

 26 25  0     1  0  0  0  0  0999 V2000
   -3.0232   -3.6924    1.0038 H   0  0  0  0  0  0  0  0  0  0  0  0
   -3.0082   -2.6684    0.6318 C   0  0  0  0  0  0  0  0  0  0  0  0
   -3.6332   -2.0414    1.2658 H   0  0  0  0  0  0  0  0  0  0  0  0
   -3.3762   -2.6444   -0.3912 H   0  0  0  0  0  0  0  0  0  0  0  0
   -1.5882   -2.1554    0.6658 C   0  0  0  0  0  0  0  0  0  0  0  0
   -0.6832   -2.8764    1.0638 O   0  0  0  0  0  0  0  0  0  0  0  0
   -1.3952   -0.9084    0.2428 N   0  0  0  0  0  0  0  0  0  0  0  0
   -2.1972   -0.3644   -0.0422 H   0  0  0  0  0  0  0  0  0  0  0  0
   -0.1122   -0.1994    0.2658 C   0  0  1  0  0  0  0  0  0  0  0  0
   -0.2544    0.7905   -0.1753 H   0  0  0  0  0  0  0  0  0  0  0  0
    0.3361   -0.0313    1.7348 C   0  0  0  0  0  0  0  0  0  0  0  0
    0.2644   -0.9925    2.2425 H   0  0  0  0  0  0  0  0  0  0  0  0
    1.3759    0.2915    1.7582 H   0  0  0  0  0  0  0  0  0  0  0  0
   -0.5080    0.9513    2.5302 C   0  0  0  0  0  0  0  0  0  0  0  0
   -0.8880    2.0173    2.0780 O   0  0  0  0  0  0  0  0  0  0  0  0
   -0.8268    0.6283    3.7600 N   0  0  0  0  0  0  0  0  0  0  0  0
   -1.3997    1.2888    4.2553 H   0  0  0  0  0  0  0  0  0  0  0  0
   -0.5427   -0.2510    4.1488 H   0  0  0  0  0  0  0  0  0  0  0  0
    0.9253   -0.9607   -0.5886 C   0  0  0  0  0  0  0  0  0  0  0  0
    1.8178   -1.6067   -0.0394 O   0  0  0  0  0  0  0  0  0  0  0  0
    0.8176   -0.8788   -1.9182 N   0  0  0  0  0  0  0  0  0  0  0  0
    0.0992   -0.2638   -2.2868 H   0  0  0  0  0  0  0  0  0  0  0  0
    1.7090   -1.5482   -2.8639 C   0  0  0  0  0  0  0  0  0  0  0  0
    1.7116   -2.6229   -2.6695 H   0  0  0  0  0  0  0  0  0  0  0  0
    1.3735   -1.3680   -3.8861 H   0  0  0  0  0  0  0  0  0  0  0  0
    2.7250   -1.1680   -2.7449 H   0  0  0  0  0  0  0  0  0  0  0  0
  5  6  2  0  0  0  0
  5  7  1  0  0  0  0
  2  3  1  0  0  0  0
  2  4  1  0  0  0  0
  2  5  1  0  0  0  0
  1  2  1  0  0  0  0
 19 20  2  0  0  0  0
 19 21  1  0  0  0  0
 16 17  1  0  0  0  0
 16 18  1  0  0  0  0
 14 15  2  0  0  0  0
 14 16  1  0  0  0  0
 11 12  1  0  0  0  0
 11 13  1  0  0  0  0
 11 14  1  0  0  0  0
  9 10  1  0  0  0  0
  9 11  1  0  0  0  0
  9 19  1  0  0  0  0
  7  8  1  0  0  0  0
  7  9  1  0  0  0  0
 23 24  1  0  0  0  0
 23 25  1  0  0  0  0
 23 26  1  0  0  0  0
 21 22  1  0  0  0  0
 21 23  1  0  0  0  0
M  END
$$$$
default_name
  -OEChem-01062215323D

 26 25  0     1  0  0  0  0  0999 V2000
   -3.0232   -3.6924    1.0038 H   0  0  0  0  0  0  0  0  0  0  0  0
   -3.0082   -2.6684    0.6318 C   0  0  0  0  0  0  0  0  0  0  0  0
   -3.6332   -2.0414    1.2658 H   0  0  0  0  0  0  0  0  0  0  0  0
   -3.3762   -2.6444   -0.3912 H   0  0  0  0  0  0  0  0  0  0  0  0
   -1.5882   -2.1554    0.6658 C   0  0  0  0  0  0  0  0  0  0  0  0
   -0.6832   -2.8764    1.0638 O   0  0  0  0  0  0  0  0  0  0  0  0
   -1.3952   -0.9084    0.2428 N   0  0  0  0  0  0  0  0  0  0  0  0
   -2.1972   -0.3644   -0.0422 H   0  0  0  0  0  0  0  0  0  0  0  0
   -0.1122   -0.1994    0.2658 C   0  0  1  0  0  0  0  0  0  0  0  0
   -0.2544    0.7905   -0.1753 H   0  0  0  0  0  0  0  0  0  0  0  0
    0.3361   -0.0313    1.7348 C   0  0  0  0  0  0  0  0  0  0  0  0
    0.2644   -0.9925    2.2425 H   0  0  0  0  0  0  0  0  0  0  0  0
    1.3759    0.2915    1.7582 H   0  0  0  0  0  0  0  0  0  0  0  0
   -0.5080    0.9513    2.5302 C   0  0  0  0  0  0  0  0  0  0  0  0
   -0.8880    2.0173    2.0780 O   0  0  0  0  0  0  0  0  0  0  0  0
   -0.8268    0.6283    3.7600 N   0  0  0  0  0  0  0  0  0  0  0  0
   -1.3997    1.2888    4.2553 H   0  0  0  0  0  0  0  0  0  0  0  0
   -0.5427   -0.2510    4.1488 H   0  0  0  0  0  0  0  0  0  0  0  0
    0.9253   -0.9607   -0.5886 C   0  0  0  0  0  0  0  0  0  0  0  0
    1.6389   -1.8182   -0.0682 O   0  0  0  0  0  0  0  0  0  0  0  0
    1.0169   -0.6455   -1.8841 N   0  0  0  0  0  0  0  0  0  0  0  0
    0.4447    0.1253   -2.2140 H   0  0  0  0  0  0  0  0  0  0  0  0
    1.9359   -1.2796   -2.8276 C   0  0  0  0  0  0  0  0  0  0  0  0
    1.7695   -2.3590   -2.8343 H   0  0  0  0  0  0  0  0  0  0  0  0
    1.7738   -0.8841   -3.8312 H   0  0  0  0  0  0  0  0  0  0  0  0
    2.9664   -1.0858   -2.5251 H   0  0  0  0  0  0  0  0  0  0  0  0
  5  6  2  0  0  0  0
  5  7  1  0  0  0  0
  2  3  1  0  0  0  0
  2  4  1  0  0  0  0
  2  5  1  0  0  0  0
  1  2  1  0  0  0  0
 19 20  2  0  0  0  0
 19 21  1  0  0  0  0
 16 17  1  0  0  0  0
 16 18  1  0  0  0  0
 14 15  2  0  0  0  0
 14 16  1  0  0  0  0
 11 12  1  0  0  0  0
 11 13  1  0  0  0  0
 11 14  1  0  0  0  0
  9 10  1  0  0  0  0
  9 11  1  0  0  0  0
  9 19  1  0  0  0  0
  7  8  1  0  0  0  0
  7  9  1  0  0  0  0
 23 24  1  0  0  0  0
 23 25  1  0  0  0  0
 23 26  1  0  0  0  0
 21 22  1  0  0  0  0
 21 23  1  0  0  0  0
M  END
$$$$
default_name
  -OEChem-01062215323D

 26 25  0     1  0  0  0  0  0999 V2000
   -3.0232   -3.6924    1.0038 H   0  0  0  0  0  0  0  0  0  0  0  0
   -3.0082   -2.6684    0.6318 C   0  0  0  0  0  0  0  0  0  0  0  0
   -3.6332   -2.0414    1.2658 H   0  0  0  0  0  0  0  0  0  0  0  0
   -3.3762   -2.6444   -0.3912 H   0  0  0  0  0  0  0  0  0  0  0  0
   -1.5882   -2.1554    0.6658 C   0  0  0  0  0  0  0  0  0  0  0  0
   -0.6832   -2.8764    1.0638 O   0  0  0  0  0  0  0  0  0  0  0  0
   -1.3952   -0.9084    0.2428 N   0  0  0  0  0  0  0  0  0  0  0  0
   -2.1972   -0.3644   -0.0422 H   0  0  0  0  0  0  0  0  0  0  0  0
   -0.1122   -0.1994    0.2658 C   0  0  1  0  0  0  0  0  0  0  0  0
   -0.2544    0.7905   -0.1753 H   0  0  0  0  0  0  0  0  0  0  0  0
    0.3361   -0.0313    1.7348 C   0  0  0  0  0  0  0  0  0  0  0  0
    0.2644   -0.9925    2.2425 H   0  0  0  0  0  0  0  0  0  0  0  0
    1.3759    0.2915    1.7582 H   0  0  0  0  0  0  0  0  0  0  0  0
   -0.5080    0.9513    2.5302 C   0  0  0  0  0  0  0  0  0  0  0  0
   -0.8880    2.0173    2.0780 O   0  0  0  0  0  0  0  0  0  0  0  0
   -0.8268    0.6283    3.7600 N   0  0  0  0  0  0  0  0  0  0  0  0
   -1.3997    1.2888    4.2553 H   0  0  0  0  0  0  0  0  0  0  0  0
   -0.5427   -0.2510    4.1488 H   0  0  0  0  0  0  0  0  0  0  0  0
    0.9253   -0.9607   -0.5886 C   0  0  0  0  0  0  0  0  0  0  0  0
    1.4395   -1.9919   -0.1555 O   0  0  0  0  0  0  0  0  0  0  0  0
    1.2384   -0.4546   -1.7853 N   0  0  0  0  0  0  0  0  0  0  0  0
    0.8248    0.4389   -2.0319 H   0  0  0  0  0  0  0  0  0  0  0  0
    2.1889   -1.0590   -2.7169 C   0  0  0  0  0  0  0  0  0  0  0  0
    1.8842   -2.0837   -2.9403 H   0  0  0  0  0  0  0  0  0  0  0  0
    2.2228   -0.4835   -3.6430 H   0  0  0  0  0  0  0  0  0  0  0  0
    3.1832   -1.0791   -2.2677 H   0  0  0  0  0  0  0  0  0  0  0  0
  5  6  2  0  0  0  0
  5  7  1  0  0  0  0
  2  3  1  0  0  0  0
  2  4  1  0  0  0  0
  2  5  1  0  0  0  0
  1  2  1  0  0  0  0
 19 20  2  0  0  0  0
 19 21  1  0  0  0  0
 16 17  1  0  0  0  0
 16 18  1  0  0  0  0
 14 15  2  0  0  0  0
 14 16  1  0  0  0  0
 11 12  1  0  0  0  0
 11 13  1  0  0  0  0
 11 14  1  0  0  0  0
  9 10  1  0  0  0  0
  9 11  1  0  0  0  0
  9 19  1  0  0  0  0
  7  8  1  0  0  0  0
  7  9  1  0  0  0  0
 23 24  1  0  0  0  0
 23 25  1  0  0  0  0
 23 26  1  0  0  0  0
 21 22  1  0  0  0  0
 21 23  1  0  0  0  0
M  END
$$$$
default_name
  -OEChem-01062215323D

 26 25  0     1  0  0  0  0  0999 V2000
   -3.0232   -3.6924    1.0038 H   0  0  0  0  0  0  0  0  0  0  0  0
   -3.0082   -2.6684    0.6318 C   0  0  0  0  0  0  0  0  0  0  0  0
   -3.6332   -2.0414    1.2658 H   0  0  0  0  0  0  0  0  0  0  0  0
   -3.3762   -2.6444   -0.3912 H   0  0  0  0  0  0  0  0  0  0  0  0
   -1.5882   -2.1554    0.6658 C   0  0  0  0  0  0  0  0  0  0  0  0
   -0.6832   -2.8764    1.0638 O   0  0  0  0  0  0  0  0  0  0  0  0
   -1.3952   -0.9084    0.2428 N   0  0  0  0  0  0  0  0  0  0  0  0
   -2.1972   -0.3644   -0.0422 H   0  0  0  0  0  0  0  0  0  0  0  0
   -0.1122   -0.1994    0.2658 C   0  0  1  0  0  0  0  0  0  0  0  0
   -0.2544    0.7905   -0.1753 H   0  0  0  0  0  0  0  0  0  0  0  0
    0.3361   -0.0313    1.7348 C   0  0  0  0  0  0  0  0  0  0  0  0
    0.2644   -0.9925    2.2425 H   0  0  0  0  0  0  0  0  0  0  0  0
    1.3759    0.2915    1.7582 H   0  0  0  0  0  0  0  0  0  0  0  0
   -0.5080    0.9513    2.5302 C   0  0  0  0  0  0  0  0  0  0  0  0
   -0.8880    2.0173    2.0780 O   0  0  0  0  0  0  0  0  0  0  0  0
   -0.8268    0.6283    3.7600 N   0  0  0  0  0  0  0  0  0  0  0  0
   -1.3997    1.2888    4.2553 H   0  0  0  0  0  0  0  0  0  0  0  0
   -0.5427   -0.2510    4.1488 H   0  0  0  0  0  0  0  0  0  0  0  0
    0.9253   -0.9607   -0.5886 C   0  0  0  0  0  0  0  0  0  0  0  0
    1.2332   -2.1160   -0.2955 O   0  0  0  0  0  0  0  0  0  0  0  0
    1.4671   -0.3191   -1.6283 N   0  0  0  0  0  0  0  0  0  0  0  0
    1.2136    0.6559   -1.7530 H   0  0  0  0  0  0  0  0  0  0  0  0
    2.4507   -0.9014   -2.5394 C   0  0  0  0  0  0  0  0  0  0  0  0
    2.0479   -1.8159   -2.9802 H   0  0  0  0  0  0  0  0  0  0  0  0
    2.6897   -0.1936   -3.3343 H   0  0  0  0  0  0  0  0  0  0  0  0
    3.3609   -1.1484   -1.9902 H   0  0  0  0  0  0  0  0  0  0  0  0
  5  6  2  0  0  0  0
  5  7  1  0  0  0  0
  2  3  1  0  0  0  0
  2  4  1  0  0  0  0
  2  5  1  0  0  0  0
  1  2  1  0  0  0  0
 19 20  2  0  0  0  0
 19 21  1  0  0  0  0
 16 17  1  0  0  0  0
 16 18  1  0  0  0  0
 14 15  2  0  0  0  0
 14 16  1  0  0  0  0
 11 12  1  0  0  0  0
 11 13  1  0  0  0  0
 11 14  1  0  0  0  0
  9 10  1  0  0  0  0
  9 11  1  0  0  0  0
  9 19  1  0  0  0  0
  7  8  1  0  0  0  0
  7  9  1  0  0  0  0
 23 24  1  0  0  0  0
 23 25  1  0  0  0  0
 23 26  1  0  0  0  0
 21 22  1  0  0  0  0
 21 23  1  0  0  0  0
M  END
$$$$
default_name
  -OEChem-01062215323D

 26 25  0     1  0  0  0  0  0999 V2000
   -3.0232   -3.6924    1.0038 H   0  0  0  0  0  0  0  0  0  0  0  0
   -3.0082   -2.6684    0.6318 C   0  0  0  0  0  0  0  0  0  0  0  0
   -3.6332   -2.0414    1.2658 H   0  0  0  0  0  0  0  0  0  0  0  0
   -3.3762   -2.6444   -0.3912 H   0  0  0  0  0  0  0  0  0  0  0  0
   -1.5882   -2.1554    0.6658 C   0  0  0  0  0  0  0  0  0  0  0  0
   -0.6832   -2.8764    1.0638 O   0  0  0  0  0  0  0  0  0  0  0  0
   -1.3952   -0.9084    0.2428 N   0  0  0  0  0  0  0  0  0  0  0  0
   -2.1972   -0.3644   -0.0422 H   0  0  0  0  0  0  0  0  0  0  0  0
   -0.1122   -0.1994    0.2658 C   0  0  1  0  0  0  0  0  0  0  0  0
   -0.2544    0.7905   -0.1753 H   0  0  0  0  0  0  0  0  0  0  0  0
    0.3361   -0.0313    1.7348 C   0  0  0  0  0  0  0  0  0  0  0  0
    0.2644   -0.9925    2.2425 H   0  0  0  0  0  0  0  0  0  0  0  0
    1.3759    0.2915    1.7582 H   0  0  0  0  0  0  0  0  0  0  0  0
   -0.5080    0.9513    2.5302 C   0  0  0  0  0  0  0  0  0  0  0  0
   -0.8880    2.0173    2.0780 O   0  0  0  0  0  0  0  0  0  0  0  0
   -0.8268    0.6283    3.7600 N   0  0  0  0  0  0  0  0  0  0  0  0
   -1.3997    1.2888    4.2553 H   0  0  0  0  0  0  0  0  0  0  0  0
   -0.5427   -0.2510    4.1488 H   0  0  0  0  0  0  0  0  0  0  0  0
    0.9253   -0.9607   -0.5886 C   0  0  0  0  0  0  0  0  0  0  0  0
    1.0340   -2.1820   -0.4786 O   0  0  0  0  0  0  0  0  0  0  0  0
    1.6874   -0.2482   -1.4240 N   0  0  0  0  0  0  0  0  0  0  0  0
    1.5847    0.7612   -1.3963 H   0  0  0  0  0  0  0  0  0  0  0  0
    2.7036   -0.8175   -2.3071 C   0  0  0  0  0  0  0  0  0  0  0  0
    2.2495   -1.5736   -2.9512 H   0  0  0  0  0  0  0  0  0  0  0  0
    3.1429   -0.0340   -2.9262 H   0  0  0  0  0  0  0  0  0  0  0  0
    3.4871   -1.2891   -1.7116 H   0  0  0  0  0  0  0  0  0  0  0  0
  5  6  2  0  0  0  0
  5  7  1  0  0  0  0
  2  3  1  0  0  0  0
  2  4  1  0  0  0  0
  2  5  1  0  0  0  0
  1  2  1  0  0  0  0
 19 20  2  0  0  0  0
 19 21  1  0  0  0  0
 16 17  1  0  0  0  0
 16 18  1  0  0  0  0
 14 15  2  0  0  0  0
 14 16  1  0  0  0  0
 11 12  1  0  0  0  0
 11 13  1  0  0  0  0
 11 14  1  0  0  0  0
  9 10  1  0  0  0  0
  9 11  1  0  0  0  0
  9 19  1  0  0  0  0
  7  8  1  0  0  0  0
  7  9  1  0  0  0  0
 23 24  1  0  0  0  0
 23 25  1  0  0  0  0
 23 26  1  0  0  0  0
 21 22  1  0  0  0  0
 21 23  1  0  0  0  0
M  END
$$$$
default_name
  -OEChem-01062215323D

 26 25  0     1  0  0  0  0  0999 V2000
   -3.0232   -3.6924    1.0038 H   0  0  0  0  0  0  0  0  0  0  0  0
   -3.0082   -2.6684    0.6318 C   0  0  0  0  0  0  0  0  0  0  0  0
   -3.6332   -2.0414    1.2658 H   0  0  0  0  0  0  0  0  0  0  0  0
   -3.3762   -2.6444   -0.3912 H   0  0  0  0  0  0  0  0  0  0  0  0
   -1.5882   -2.1554    0.6658 C   0  0  0  0  0  0  0  0  0  0  0  0
   -0.6832   -2.8764    1.0638 O   0  0  0  0  0  0  0  0  0  0  0  0
   -1.3952   -0.9084    0.2428 N   0  0  0  0  0  0  0  0  0  0  0  0
   -2.1972   -0.3644   -0.0422 H   0  0  0  0  0  0  0  0  0  0  0  0
   -0.1122   -0.1994    0.2658 C   0  0  1  0  0  0  0  0  0  0  0  0
   -0.2544    0.7905   -0.1753 H   0  0  0  0  0  0  0  0  0  0  0  0
    0.3361   -0.0313    1.7348 C   0  0  0  0  0  0  0  0  0  0  0  0
    0.2644   -0.9925    2.2425 H   0  0  0  0  0  0  0  0  0  0  0  0
    1.3759    0.2915    1.7582 H   0  0  0  0  0  0  0  0  0  0  0  0
   -0.5080    0.9513    2.5302 C   0  0  0  0  0  0  0  0  0  0  0  0
   -0.8880    2.0173    2.0780 O   0  0  0  0  0  0  0  0  0  0  0  0
   -0.8268    0.6283    3.7600 N   0  0  0  0  0  0  0  0  0  0  0  0
   -1.3997    1.2888    4.2553 H   0  0  0  0  0  0  0  0  0  0  0  0
   -0.5427   -0.2510    4.1488 H   0  0  0  0  0  0  0  0  0  0  0  0
    0.9253   -0.9607   -0.5886 C   0  0  0  0  0  0  0  0  0  0  0  0
    0.8555   -2.1853   -0.6924 O   0  0  0  0  0  0  0  0  0  0  0  0
    1.8842   -0.2468   -1.1862 N   0  0  0  0  0  0  0  0  0  0  0  0
    1.9127    0.7479   -0.9861 H   0  0  0  0  0  0  0  0  0  0  0  0
    2.9302   -0.8130   -2.0359 C   0  0  0  0  0  0  0  0  0  0  0  0
    2.4752   -1.3735   -2.8554 H   0  0  0  0  0  0  0  0  0  0  0  0
    3.5514   -0.0158   -2.4464 H   0  0  0  0  0  0  0  0  0  0  0  0
    3.5533   -1.4914   -1.4508 H   0  0  0  0  0  0  0  0  0  0  0  0
  5  6  2  0  0  0  0
  5  7  1  0  0  0  0
  2  3  1  0  0  0  0
  2  4  1  0  0  0  0
  2  5  1  0  0  0  0
  1  2  1  0  0  0  0
 19 20  2  0  0  0  0
 19 21  1  0  0  0  0
 16 17  1  0  0  0  0
 16 18  1  0  0  0  0
 14 15  2  0  0  0  0
 14 16  1  0  0  0  0
 11 12  1  0  0  0  0
 11 13  1  0  0  0  0
 11 14  1  0  0  0  0
  9 10  1  0  0  0  0
  9 11  1  0  0  0  0
  9 19  1  0  0  0  0
  7  8  1  0  0  0  0
  7  9  1  0  0  0  0
 23 24  1  0  0  0  0
 23 25  1  0  0  0  0
 23 26  1  0  0  0  0
 21 22  1  0  0  0  0
 21 23  1  0  0  0  0
M  END
$$$$
default_name
  -OEChem-01062215323D

 26 25  0     1  0  0  0  0  0999 V2000
   -3.0232   -3.6924    1.0038 H   0  0  0  0  0  0  0  0  0  0  0  0
   -3.0082   -2.6684    0.6318 C   0  0  0  0  0  0  0  0  0  0  0  0
   -3.6332   -2.0414    1.2658 H   0  0  0  0  0  0  0  0  0  0  0  0
   -3.3762   -2.6444   -0.3912 H   0  0  0  0  0  0  0  0  0  0  0  0
   -1.5882   -2.1554    0.6658 C   0  0  0  0  0  0  0  0  0  0  0  0
   -0.6832   -2.8764    1.0638 O   0  0  0  0  0  0  0  0  0  0  0  0
   -1.3952   -0.9084    0.2428 N   0  0  0  0  0  0  0  0  0  0  0  0
   -2.1972   -0.3644   -0.0422 H   0  0  0  0  0  0  0  0  0  0  0  0
   -0.1122   -0.1994    0.2658 C   0  0  1  0  0  0  0  0  0  0  0  0
   -0.2544    0.7905   -0.1753 H   0  0  0  0  0  0  0  0  0  0  0  0
    0.3361   -0.0313    1.7348 C   0  0  0  0  0  0  0  0  0  0  0  0
    0.2644   -0.9925    2.2425 H   0  0  0  0  0  0  0  0  0  0  0  0
    1.3759    0.2915    1.7582 H   0  0  0  0  0  0  0  0  0  0  0  0
   -0.5080    0.9513    2.5302 C   0  0  0  0  0  0  0  0  0  0  0  0
   -0.8880    2.0173    2.0780 O   0  0  0  0  0  0  0  0  0  0  0  0
   -0.8268    0.6283    3.7600 N   0  0  0  0  0  0  0  0  0  0  0  0
   -1.3997    1.2888    4.2553 H   0  0  0  0  0  0  0  0  0  0  0  0
   -0.5427   -0.2510    4.1488 H   0  0  0  0  0  0  0  0  0  0  0  0
    0.9253   -0.9607   -0.5886 C   0  0  0  0  0  0  0  0  0  0  0  0
    0.7098   -2.1259   -0.9223 O   0  0  0  0  0  0  0  0  0  0  0  0
    2.0442   -0.3150   -0.9311 N   0  0  0  0  0  0  0  0  0  0  0  0
    2.1753    0.6168   -0.5503 H   0  0  0  0  0  0  0  0  0  0  0  0
    3.1151   -0.8883   -1.7443 C   0  0  0  0  0  0  0  0  0  0  0  0
    2.7096   -1.2292   -2.6993 H   0  0  0  0  0  0  0  0  0  0  0  0
    3.8874   -0.1400   -1.9276 H   0  0  0  0  0  0  0  0  0  0  0  0
    3.5551   -1.7417   -1.2256 H   0  0  0  0  0  0  0  0  0  0  0  0
  5  6  2  0  0  0  0
  5  7  1  0  0  0  0
  2  3  1  0  0  0  0
  2  4  1  0  0  0  0
  2  5  1  0  0  0  0
  1  2  1  0  0  0  0
 19 20  2  0  0  0  0
 19 21  1  0  0  0  0
 16 17  1  0  0  0  0
 16 18  1  0  0  0  0
 14 15  2  0  0  0  0
 14 16  1  0  0  0  0
 11 12  1  0  0  0  0
 11 13  1  0  0  0  0
 11 14  1  0  0  0  0
  9 10  1  0  0  0  0
  9 11  1  0  0  0  0
  9 19  1  0  0  0  0
  7  8  1  0  0  0  0
  7  9  1  0  0  0  0
 23 24  1  0  0  0  0
 23 25  1  0  0  0  0
 23 26  1  0  0  0  0
 21 22  1  0  0  0  0
 21 23  1  0  0  0  0
M  END
$$$$
default_name
  -OEChem-01062215323D

 26 25  0     1  0  0  0  0  0999 V2000
   -3.0232   -3.6924    1.0038 H   0  0  0  0  0  0  0  0  0  0  0  0
   -3.0082   -2.6684    0.6318 C   0  0  0  0  0  0  0  0  0  0  0  0
   -3.6332   -2.0414    1.2658 H   0  0  0  0  0  0  0  0  0  0  0  0
   -3.3762   -2.6444   -0.3912 H   0  0  0  0  0  0  0  0  0  0  0  0
   -1.5882   -2.1554    0.6658 C   0  0  0  0  0  0  0  0  0  0  0  0
   -0.6832   -2.8764    1.0638 O   0  0  0  0  0  0  0  0  0  0  0  0
   -1.3952   -0.9084    0.2428 N   0  0  0  0  0  0  0  0  0  0  0  0
   -2.1972   -0.3644   -0.0422 H   0  0  0  0  0  0  0  0  0  0  0  0
   -0.1122   -0.1994    0.2658 C   0  0  1  0  0  0  0  0  0  0  0  0
   -0.2984    0.8619    0.0819 H   0  0  0  0  0  0  0  0  0  0  0  0
    0.5188   -0.3598    1.6669 C   0  0  0  0  0  0  0  0  0  0  0  0
    0.5015   -1.4121    1.9484 H   0  0  0  0  0  0  0  0  0  0  0  0
    1.5566   -0.0315    1.6331 H   0  0  0  0  0  0  0  0  0  0  0  0
   -0.2085    0.4017    2.7634 C   0  0  0  0  0  0  0  0  0  0  0  0
   -0.6311    1.5351    2.6157 O   0  0  0  0  0  0  0  0  0  0  0  0
   -0.3735   -0.1970    3.9178 N   0  0  0  0  0  0  0  0  0  0  0  0
   -0.8728    0.3235    4.6174 H   0  0  0  0  0  0  0  0  0  0  0  0
   -0.0520   -1.1361    4.0585 H   0  0  0  0  0  0  0  0  0  0  0  0
    0.8018   -0.7283   -0.8615 C   0  0  0  0  0  0  0  0  0  0  0  0
    0.4043   -1.6262   -1.6039 O   0  0  0  0  0  0  0  0  0  0  0  0
    2.0174   -0.1865   -0.9834 N   0  0  0  0  0  0  0  0  0  0  0  0
    2.2926    0.4943   -0.2826 H   0  0  0  0  0  0  0  0  0  0  0  0
    2.9945   -0.5656   -2.0025 C   0  0  0  0  0  0  0  0  0  0  0  0
    2.5560   -0.4451   -2.9955 H   0  0  0  0  0  0  0  0  0  0  0  0
    3.8822    0.0634   -1.9223 H   0  0  0  0  0  0  0  0  0  0  0  0
    3.2791   -1.6107   -1.8695 H   0  0  0  0  0  0  0  0  0  0  0  0
  5  6  2  0  0  0  0
  5  7  1  0  0  0  0
  2  3  1  0  0  0  0
  2  4  1  0  0  0  0
  2  5  1  0  0  0  0
  1  2  1  0  0  0  0
 19 20  2  0  0  0  0
 19 21  1  0  0  0  0
 16 17  1  0  0  0  0
 16 18  1  0  0  0  0
 14 15  2  0  0  0  0
 14 16  1  0  0  0  0
 11 12  1  0  0  0  0
 11 13  1  0  0  0  0
 11 14  1  0  0  0  0
  9 10  1  0  0  0  0
  9 11  1  0  0  0  0
  9 19  1  0  0  0  0
  7  8  1  0  0  0  0
  7  9  1  0  0  0  0
 23 24  1  0  0  0  0
 23 25  1  0  0  0  0
 23 26  1  0  0  0  0
 21 22  1  0  0  0  0
 21 23  1  0  0  0  0
M  END
$$$$
default_name
  -OEChem-01062215323D

 26 25  0     1  0  0  0  0  0999 V2000
   -3.0232   -3.6924    1.0038 H   0  0  0  0  0  0  0  0  0  0  0  0
   -3.0082   -2.6684    0.6318 C   0  0  0  0  0  0  0  0  0  0  0  0
   -3.6332   -2.0414    1.2658 H   0  0  0  0  0  0  0  0  0  0  0  0
   -3.3762   -2.6444   -0.3912 H   0  0  0  0  0  0  0  0  0  0  0  0
   -1.5882   -2.1554    0.6658 C   0  0  0  0  0  0  0  0  0  0  0  0
   -0.6832   -2.8764    1.0638 O   0  0  0  0  0  0  0  0  0  0  0  0
   -1.3952   -0.9084    0.2428 N   0  0  0  0  0  0  0  0  0  0  0  0
   -2.1972   -0.3644   -0.0422 H   0  0  0  0  0  0  0  0  0  0  0  0
   -0.1122   -0.1994    0.2658 C   0  0  1  0  0  0  0  0  0  0  0  0
   -0.2984    0.8619    0.0819 H   0  0  0  0  0  0  0  0  0  0  0  0
    0.5188   -0.3598    1.6669 C   0  0  0  0  0  0  0  0  0  0  0  0
    0.5015   -1.4121    1.9484 H   0  0  0  0  0  0  0  0  0  0  0  0
    1.5566   -0.0315    1.6331 H   0  0  0  0  0  0  0  0  0  0  0  0
   -0.2085    0.4017    2.7634 C   0  0  0  0  0  0  0  0  0  0  0  0
   -0.6311    1.5351    2.6157 O   0  0  0  0  0  0  0  0  0  0  0  0
   -0.3735   -0.1970    3.9178 N   0  0  0  0  0  0  0  0  0  0  0  0
   -0.8728    0.3235    4.6174 H   0  0  0  0  0  0  0  0  0  0  0  0
   -0.0520   -1.1361    4.0585 H   0  0  0  0  0  0  0  0  0  0  0  0
    0.8018   -0.7283   -0.8615 C   0  0  0  0  0  0  0  0  0  0  0  0
    0.3265   -1.4140   -1.7666 O   0  0  0  0  0  0  0  0  0  0  0  0
    2.1017   -0.4232   -0.8040 N   0  0  0  0  0  0  0  0  0  0  0  0
    2.4222    0.0819    0.0160 H   0  0  0  0  0  0  0  0  0  0  0  0
    3.0935   -0.8347   -1.7960 C   0  0  0  0  0  0  0  0  0  0  0  0
    2.7892   -0.4884   -2.7860 H   0  0  0  0  0  0  0  0  0  0  0  0
    4.0677   -0.4101   -1.5497 H   0  0  0  0  0  0  0  0  0  0  0  0
    3.1679   -1.9233   -1.8130 H   0  0  0  0  0  0  0  0  0  0  0  0
  5  6  2  0  0  0  0
  5  7  1  0  0  0  0
  2  3  1  0  0  0  0
  2  4  1  0  0  0  0
  2  5  1  0  0  0  0
  1  2  1  0  0  0  0
 19 20  2  0  0  0  0
 19 21  1  0  0  0  0
 16 17  1  0  0  0  0
 16 18  1  0  0  0  0
 14 15  2  0  0  0  0
 14 16  1  0  0  0  0
 11 12  1  0  0  0  0
 11 13  1  0  0  0  0
 11 14  1  0  0  0  0
  9 10  1  0  0  0  0
  9 11  1  0  0  0  0
  9 19  1  0  0  0  0
  7  8  1  0  0  0  0
  7  9  1  0  0  0  0
 23 24  1  0  0  0  0
 23 25  1  0  0  0  0
 23 26  1  0  0  0  0
 21 22  1  0  0  0  0
 21 23  1  0  0  0  0
M  END
$$$$
default_name
  -OEChem-01062215323D

 26 25  0     1  0  0  0  0  0999 V2000
   -3.0232   -3.6924    1.0038 H   0  0  0  0  0  0  0  0  0  0  0  0
   -3.0082   -2.6684    0.6318 C   0  0  0  0  0  0  0  0  0  0  0  0
   -3.6332   -2.0414    1.2658 H   0  0  0  0  0  0  0  0  0  0  0  0
   -3.3762   -2.6444   -0.3912 H   0  0  0  0  0  0  0  0  0  0  0  0
   -1.5882   -2.1554    0.6658 C   0  0  0  0  0  0  0  0  0  0  0  0
   -0.6832   -2.8764    1.0638 O   0  0  0  0  0  0  0  0  0  0  0  0
   -1.3952   -0.9084    0.2428 N   0  0  0  0  0  0  0  0  0  0  0  0
   -2.1972   -0.3644   -0.0422 H   0  0  0  0  0  0  0  0  0  0  0  0
   -0.1122   -0.1994    0.2658 C   0  0  1  0  0  0  0  0  0  0  0  0
   -0.2984    0.8619    0.0819 H   0  0  0  0  0  0  0  0  0  0  0  0
    0.5188   -0.3598    1.6669 C   0  0  0  0  0  0  0  0  0  0  0  0
    0.5015   -1.4121    1.9484 H   0  0  0  0  0  0  0  0  0  0  0  0
    1.5566   -0.0315    1.6331 H   0  0  0  0  0  0  0  0  0  0  0  0
   -0.2085    0.4017    2.7634 C   0  0  0  0  0  0  0  0  0  0  0  0
   -0.6311    1.5351    2.6157 O   0  0  0  0  0  0  0  0  0  0  0  0
   -0.3735   -0.1970    3.9178 N   0  0  0  0  0  0  0  0  0  0  0  0
   -0.8728    0.3235    4.6174 H   0  0  0  0  0  0  0  0  0  0  0  0
   -0.0520   -1.1361    4.0585 H   0  0  0  0  0  0  0  0  0  0  0  0
    0.8018   -0.7283   -0.8615 C   0  0  0  0  0  0  0  0  0  0  0  0
    0.3058   -1.1694   -1.8982 O   0  0  0  0  0  0  0  0  0  0  0  0
    2.1225   -0.6952   -0.6595 N   0  0  0  0  0  0  0  0  0  0  0  0
    2.4431   -0.3866    0.2528 H   0  0  0  0  0  0  0  0  0  0  0  0
    3.1199   -1.1450   -1.6289 C   0  0  0  0  0  0  0  0  0  0  0  0
    2.9878   -0.6064   -2.5697 H   0  0  0  0  0  0  0  0  0  0  0  0
    4.1244   -0.9596   -1.2459 H   0  0  0  0  0  0  0  0  0  0  0  0
    2.9964   -2.2130   -1.8161 H   0  0  0  0  0  0  0  0  0  0  0  0
  5  6  2  0  0  0  0
  5  7  1  0  0  0  0
  2  3  1  0  0  0  0
  2  4  1  0  0  0  0
  2  5  1  0  0  0  0
  1  2  1  0  0  0  0
 19 20  2  0  0  0  0
 19 21  1  0  0  0  0
 16 17  1  0  0  0  0
 16 18  1  0  0  0  0
 14 15  2  0  0  0  0
 14 16  1  0  0  0  0
 11 12  1  0  0  0  0
 11 13  1  0  0  0  0
 11 14  1  0  0  0  0
  9 10  1  0  0  0  0
  9 11  1  0  0  0  0
  9 19  1  0  0  0  0
  7  8  1  0  0  0  0
  7  9  1  0  0  0  0
 23 24  1  0  0  0  0
 23 25  1  0  0  0  0
 23 26  1  0  0  0  0
 21 22  1  0  0  0  0
 21 23  1  0  0  0  0
M  END
$$$$
default_name
  -OEChem-01062215323D

 26 25  0     1  0  0  0  0  0999 V2000
   -3.0232   -3.6924    1.0038 H   0  0  0  0  0  0  0  0  0  0  0  0
   -3.0082   -2.6684    0.6318 C   0  0  0  0  0  0  0  0  0  0  0  0
   -3.6332   -2.0414    1.2658 H   0  0  0  0  0  0  0  0  0  0  0  0
   -3.3762   -2.6444   -0.3912 H   0  0  0  0  0  0  0  0  0  0  0  0
   -1.5882   -2.1554    0.6658 C   0  0  0  0  0  0  0  0  0  0  0  0
   -0.6832   -2.8764    1.0638 O   0  0  0  0  0  0  0  0  0  0  0  0
   -1.3952   -0.9084    0.2428 N   0  0  0  0  0  0  0  0  0  0  0  0
   -2.1972   -0.3644   -0.0422 H   0  0  0  0  0  0  0  0  0  0  0  0
   -0.1122   -0.1994    0.2658 C   0  0  1  0  0  0  0  0  0  0  0  0
   -0.2984    0.8619    0.0819 H   0  0  0  0  0  0  0  0  0  0  0  0
    0.5188   -0.3598    1.6669 C   0  0  0  0  0  0  0  0  0  0  0  0
    0.5015   -1.4121    1.9484 H   0  0  0  0  0  0  0  0  0  0  0  0
    1.5566   -0.0315    1.6331 H   0  0  0  0  0  0  0  0  0  0  0  0
   -0.2085    0.4017    2.7634 C   0  0  0  0  0  0  0  0  0  0  0  0
   -0.6311    1.5351    2.6157 O   0  0  0  0  0  0  0  0  0  0  0  0
   -0.3735   -0.1970    3.9178 N   0  0  0  0  0  0  0  0  0  0  0  0
   -0.8728    0.3235    4.6174 H   0  0  0  0  0  0  0  0  0  0  0  0
   -0.0520   -1.1361    4.0585 H   0  0  0  0  0  0  0  0  0  0  0  0
    0.8018   -0.7283   -0.8615 C   0  0  0  0  0  0  0  0  0  0  0  0
    0.3436   -0.9091   -1.9897 O   0  0  0  0  0  0  0  0  0  0  0  0
    2.0785   -0.9840   -0.5598 N   0  0  0  0  0  0  0  0  0  0  0  0
    2.3538   -0.8794    0.4116 H   0  0  0  0  0  0  0  0  0  0  0  0
    3.0721   -1.4754   -1.5127 C   0  0  0  0  0  0  0  0  0  0  0  0
    3.1381   -0.7910   -2.3612 H   0  0  0  0  0  0  0  0  0  0  0  0
    4.0485   -1.5476   -1.0315 H   0  0  0  0  0  0  0  0  0  0  0  0
    2.7762   -2.4600   -1.8787 H   0  0  0  0  0  0  0  0  0  0  0  0
  5  6  2  0  0  0  0
  5  7  1  0  0  0  0
  2  3  1  0  0  0  0
  2  4  1  0  0  0  0
  2  5  1  0  0  0  0
  1  2  1  0  0  0  0
 19 20  2  0  0  0  0
 19 21  1  0  0  0  0
 16 17  1  0  0  0  0
 16 18  1  0  0  0  0
 14 15  2  0  0  0  0
 14 16  1  0  0  0  0
 11 12  1  0  0  0  0
 11 13  1  0  0  0  0
 11 14  1  0  0  0  0
  9 10  1  0  0  0  0
  9 11  1  0  0  0  0
  9 19  1  0  0  0  0
  7  8  1  0  0  0  0
  7  9  1  0  0  0  0
 23 24  1  0  0  0  0
 23 25  1  0  0  0  0
 23 26  1  0  0  0  0
 21 22  1  0  0  0  0
 21 23  1  0  0  0  0
M  END
$$$$
default_name
  -OEChem-01062215323D

 26 25  0     1  0  0  0  0  0999 V2000
   -3.0232   -3.6924    1.0038 H   0  0  0  0  0  0  0  0  0  0  0  0
   -3.0082   -2.6684    0.6318 C   0  0  0  0  0  0  0  0  0  0  0  0
   -3.6332   -2.0414    1.2658 H   0  0  0  0  0  0  0  0  0  0  0  0
   -3.3762   -2.6444   -0.3912 H   0  0  0  0  0  0  0  0  0  0  0  0
   -1.5882   -2.1554    0.6658 C   0  0  0  0  0  0  0  0  0  0  0  0
   -0.6832   -2.8764    1.0638 O   0  0  0  0  0  0  0  0  0  0  0  0
   -1.3952   -0.9084    0.2428 N   0  0  0  0  0  0  0  0  0  0  0  0
   -2.1972   -0.3644   -0.0422 H   0  0  0  0  0  0  0  0  0  0  0  0
   -0.1122   -0.1994    0.2658 C   0  0  1  0  0  0  0  0  0  0  0  0
   -0.2984    0.8619    0.0819 H   0  0  0  0  0  0  0  0  0  0  0  0
    0.5188   -0.3598    1.6669 C   0  0  0  0  0  0  0  0  0  0  0  0
    0.5015   -1.4121    1.9484 H   0  0  0  0  0  0  0  0  0  0  0  0
    1.5566   -0.0315    1.6331 H   0  0  0  0  0  0  0  0  0  0  0  0
   -0.2085    0.4017    2.7634 C   0  0  0  0  0  0  0  0  0  0  0  0
   -0.6311    1.5351    2.6157 O   0  0  0  0  0  0  0  0  0  0  0  0
   -0.3735   -0.1970    3.9178 N   0  0  0  0  0  0  0  0  0  0  0  0
   -0.8728    0.3235    4.6174 H   0  0  0  0  0  0  0  0  0  0  0  0
   -0.0520   -1.1361    4.0585 H   0  0  0  0  0  0  0  0  0  0  0  0
    0.8018   -0.7283   -0.8615 C   0  0  0  0  0  0  0  0  0  0  0  0
    0.4375   -0.6508   -2.0348 O   0  0  0  0  0  0  0  0  0  0  0  0
    1.9725   -1.2699   -0.5115 N   0  0  0  0  0  0  0  0  0  0  0  0
    2.1604   -1.3629    0.4816 H   0  0  0  0  0  0  0  0  0  0  0  0
    2.9532   -1.8032   -1.4553 C   0  0  0  0  0  0  0  0  0  0  0  0
    3.2299   -1.0296   -2.1747 H   0  0  0  0  0  0  0  0  0  0  0  0
    3.8451   -2.1340   -0.9213 H   0  0  0  0  0  0  0  0  0  0  0  0
    2.5225   -2.6473   -1.9965 H   0  0  0  0  0  0  0  0  0  0  0  0
  5  6  2  0  0  0  0
  5  7  1  0  0  0  0
  2  3  1  0  0  0  0
  2  4  1  0  0  0  0
  2  5  1  0  0  0  0
  1  2  1  0  0  0  0
 19 20  2  0  0  0  0
 19 21  1  0  0  0  0
 16 17  1  0  0  0  0
 16 18  1  0  0  0  0
 14 15  2  0  0  0  0
 14 16  1  0  0  0  0
 11 12  1  0  0  0  0
 11 13  1  0  0  0  0
 11 14  1  0  0  0  0
  9 10  1  0  0  0  0
  9 11  1  0  0  0  0
  9 19  1  0  0  0  0
  7  8  1  0  0  0  0
  7  9  1  0  0  0  0
 23 24  1  0  0  0  0
 23 25  1  0  0  0  0
 23 26  1  0  0  0  0
 21 22  1  0  0  0  0
 21 23  1  0  0  0  0
M  END
$$$$
default_name
  -OEChem-01062215323D

 26 25  0     1  0  0  0  0  0999 V2000
   -3.0232   -3.6924    1.0038 H   0  0  0  0  0  0  0  0  0  0  0  0
   -3.0082   -2.6684    0.6318 C   0  0  0  0  0  0  0  0  0  0  0  0
   -3.6332   -2.0414    1.2658 H   0  0  0  0  0  0  0  0  0  0  0  0
   -3.3762   -2.6444   -0.3912 H   0  0  0  0  0  0  0  0  0  0  0  0
   -1.5882   -2.1554    0.6658 C   0  0  0  0  0  0  0  0  0  0  0  0
   -0.6832   -2.8764    1.0638 O   0  0  0  0  0  0  0  0  0  0  0  0
   -1.3952   -0.9084    0.2428 N   0  0  0  0  0  0  0  0  0  0  0  0
   -2.1972   -0.3644   -0.0422 H   0  0  0  0  0  0  0  0  0  0  0  0
   -0.1122   -0.1994    0.2658 C   0  0  1  0  0  0  0  0  0  0  0  0
   -0.2984    0.8619    0.0819 H   0  0  0  0  0  0  0  0  0  0  0  0
    0.5188   -0.3598    1.6669 C   0  0  0  0  0  0  0  0  0  0  0  0
    0.5015   -1.4121    1.9484 H   0  0  0  0  0  0  0  0  0  0  0  0
    1.5566   -0.0315    1.6331 H   0  0  0  0  0  0  0  0  0  0  0  0
   -0.2085    0.4017    2.7634 C   0  0  0  0  0  0  0  0  0  0  0  0
   -0.6311    1.5351    2.6157 O   0  0  0  0  0  0  0  0  0  0  0  0
   -0.3735   -0.1970    3.9178 N   0  0  0  0  0  0  0  0  0  0  0  0
   -0.8728    0.3235    4.6174 H   0  0  0  0  0  0  0  0  0  0  0  0
   -0.0520   -1.1361    4.0585 H   0  0  0  0  0  0  0  0  0  0  0  0
    0.8018   -0.7283   -0.8615 C   0  0  0  0  0  0  0  0  0  0  0  0
    0.5809   -0.4121   -2.0305 O   0  0  0  0  0  0  0  0  0  0  0  0
    1.8118   -1.5334   -0.5181 N   0  0  0  0  0  0  0  0  0  0  0  0
    1.8760   -1.8040    0.4581 H   0  0  0  0  0  0  0  0  0  0  0  0
    2.7713   -2.1062   -1.4605 C   0  0  0  0  0  0  0  0  0  0  0  0
    3.2571   -1.3060   -2.0230 H   0  0  0  0  0  0  0  0  0  0  0  0
    3.5280   -2.6789   -0.9226 H   0  0  0  0  0  0  0  0  0  0  0  0
    2.2525   -2.7623   -2.1615 H   0  0  0  0  0  0  0  0  0  0  0  0
  5  6  2  0  0  0  0
  5  7  1  0  0  0  0
  2  3  1  0  0  0  0
  2  4  1  0  0  0  0
  2  5  1  0  0  0  0
  1  2  1  0  0  0  0
 19 20  2  0  0  0  0
 19 21  1  0  0  0  0
 16 17  1  0  0  0  0
 16 18  1  0  0  0  0
 14 15  2  0  0  0  0
 14 16  1  0  0  0  0
 11 12  1  0  0  0  0
 11 13  1  0  0  0  0
 11 14  1  0  0  0  0
  9 10  1  0  0  0  0
  9 11  1  0  0  0  0
  9 19  1  0  0  0  0
  7  8  1  0  0  0  0
  7  9  1  0  0  0  0
 23 24  1  0  0  0  0
 23 25  1  0  0  0  0
 23 26  1  0  0  0  0
 21 22  1  0  0  0  0
 21 23  1  0  0  0  0
M  END
$$$$
default_name
  -OEChem-01062215323D

 26 25  0     1  0  0  0  0  0999 V2000
   -3.0232   -3.6924    1.0038 H   0  0  0  0  0  0  0  0  0  0  0  0
   -3.0082   -2.6684    0.6318 C   0  0  0  0  0  0  0  0  0  0  0  0
   -3.6332   -2.0414    1.2658 H   0  0  0  0  0  0  0  0  0  0  0  0
   -3.3762   -2.6444   -0.3912 H   0  0  0  0  0  0  0  0  0  0  0  0
   -1.5882   -2.1554    0.6658 C   0  0  0  0  0  0  0  0  0  0  0  0
   -0.6832   -2.8764    1.0638 O   0  0  0  0  0  0  0  0  0  0  0  0
   -1.3952   -0.9084    0.2428 N   0  0  0  0  0  0  0  0  0  0  0  0
   -2.1972   -0.3644   -0.0422 H   0  0  0  0  0  0  0  0  0  0  0  0
   -0.1122   -0.1994    0.2658 C   0  0  1  0  0  0  0  0  0  0  0  0
   -0.2984    0.8619    0.0819 H   0  0  0  0  0  0  0  0  0  0  0  0
    0.5188   -0.3598    1.6669 C   0  0  0  0  0  0  0  0  0  0  0  0
    0.5015   -1.4121    1.9484 H   0  0  0  0  0  0  0  0  0  0  0  0
    1.5566   -0.0315    1.6331 H   0  0  0  0  0  0  0  0  0  0  0  0
   -0.2085    0.4017    2.7634 C   0  0  0  0  0  0  0  0  0  0  0  0
   -0.6311    1.5351    2.6157 O   0  0  0  0  0  0  0  0  0  0  0  0
   -0.3735   -0.1970    3.9178 N   0  0  0  0  0  0  0  0  0  0  0  0
   -0.8728    0.3235    4.6174 H   0  0  0  0  0  0  0  0  0  0  0  0
   -0.0520   -1.1361    4.0585 H   0  0  0  0  0  0  0  0  0  0  0  0
    0.8018   -0.7283   -0.8615 C   0  0  0  0  0  0  0  0  0  0  0  0
    0.7642   -0.2093   -1.9771 O   0  0  0  0  0  0  0  0  0  0  0  0
    1.6075   -1.7566   -0.5791 N   0  0  0  0  0  0  0  0  0  0  0  0
    1.5201   -2.1729    0.3426 H   0  0  0  0  0  0  0  0  0  0  0  0
    2.5388   -2.3637   -1.5282 C   0  0  0  0  0  0  0  0  0  0  0  0
    3.2176   -1.6013   -1.9164 H   0  0  0  0  0  0  0  0  0  0  0  0
    3.1190   -3.1451   -1.0355 H   0  0  0  0  0  0  0  0  0  0  0  0
    1.9846   -2.7972   -2.3624 H   0  0  0  0  0  0  0  0  0  0  0  0
  5  6  2  0  0  0  0
  5  7  1  0  0  0  0
  2  3  1  0  0  0  0
  2  4  1  0  0  0  0
  2  5  1  0  0  0  0
  1  2  1  0  0  0  0
 19 20  2  0  0  0  0
 19 21  1  0  0  0  0
 16 17  1  0  0  0  0
 16 18  1  0  0  0  0
 14 15  2  0  0  0  0
 14 16  1  0  0  0  0
 11 12  1  0  0  0  0
 11 13  1  0  0  0  0
 11 14  1  0  0  0  0
  9 10  1  0  0  0  0
  9 11  1  0  0  0  0
  9 19  1  0  0  0  0
  7  8  1  0  0  0  0
  7  9  1  0  0  0  0
 23 24  1  0  0  0  0
 23 25  1  0  0  0  0
 23 26  1  0  0  0  0
 21 22  1  0  0  0  0
 21 23  1  0  0  0  0
M  END
$$$$
default_name
  -OEChem-01062215323D

 26 25  0     1  0  0  0  0  0999 V2000
   -3.0232   -3.6924    1.0038 H   0  0  0  0  0  0  0  0  0  0  0  0
   -3.0082   -2.6684    0.6318 C   0  0  0  0  0  0  0  0  0  0  0  0
   -3.6332   -2.0414    1.2658 H   0  0  0  0  0  0  0  0  0  0  0  0
   -3.3762   -2.6444   -0.3912 H   0  0  0  0  0  0  0  0  0  0  0  0
   -1.5882   -2.1554    0.6658 C   0  0  0  0  0  0  0  0  0  0  0  0
   -0.6832   -2.8764    1.0638 O   0  0  0  0  0  0  0  0  0  0  0  0
   -1.3952   -0.9084    0.2428 N   0  0  0  0  0  0  0  0  0  0  0  0
   -2.1972   -0.3644   -0.0422 H   0  0  0  0  0  0  0  0  0  0  0  0
   -0.1122   -0.1994    0.2658 C   0  0  1  0  0  0  0  0  0  0  0  0
   -0.2984    0.8619    0.0819 H   0  0  0  0  0  0  0  0  0  0  0  0
    0.5188   -0.3598    1.6669 C   0  0  0  0  0  0  0  0  0  0  0  0
    0.5015   -1.4121    1.9484 H   0  0  0  0  0  0  0  0  0  0  0  0
    1.5566   -0.0315    1.6331 H   0  0  0  0  0  0  0  0  0  0  0  0
   -0.2085    0.4017    2.7634 C   0  0  0  0  0  0  0  0  0  0  0  0
   -0.6311    1.5351    2.6157 O   0  0  0  0  0  0  0  0  0  0  0  0
   -0.3735   -0.1970    3.9178 N   0  0  0  0  0  0  0  0  0  0  0  0
   -0.8728    0.3235    4.6174 H   0  0  0  0  0  0  0  0  0  0  0  0
   -0.0520   -1.1361    4.0585 H   0  0  0  0  0  0  0  0  0  0  0  0
    0.8018   -0.7283   -0.8615 C   0  0  0  0  0  0  0  0  0  0  0  0
    0.9747   -0.0562   -1.8782 O   0  0  0  0  0  0  0  0  0  0  0  0
    1.3733   -1.9243   -0.6902 N   0  0  0  0  0  0  0  0  0  0  0  0
    1.1169   -2.4442    0.1430 H   0  0  0  0  0  0  0  0  0  0  0  0
    2.2716   -2.5582   -1.6535 C   0  0  0  0  0  0  0  0  0  0  0  0
    3.1143   -1.8955   -1.8622 H   0  0  0  0  0  0  0  0  0  0  0  0
    2.6459   -3.5010   -1.2521 H   0  0  0  0  0  0  0  0  0  0  0  0
    1.7370   -2.7494   -2.5855 H   0  0  0  0  0  0  0  0  0  0  0  0
  5  6  2  0  0  0  0
  5  7  1  0  0  0  0
  2  3  1  0  0  0  0
  2  4  1  0  0  0  0
  2  5  1  0  0  0  0
  1  2  1  0  0  0  0
 19 20  2  0  0  0  0
 19 21  1  0  0  0  0
 16 17  1  0  0  0  0
 16 18  1  0  0  0  0
 14 15  2  0  0  0  0
 14 16  1  0  0  0  0
 11 12  1  0  0  0  0
 11 13  1  0  0  0  0
 11 14  1  0  0  0  0
  9 10  1  0  0  0  0
  9 11  1  0  0  0  0
  9 19  1  0  0  0  0
  7  8  1  0  0  0  0
  7  9  1  0  0  0  0
 23 24  1  0  0  0  0
 23 25  1  0  0  0  0
 23 26  1  0  0  0  0
 21 22  1  0  0  0  0
 21 23  1  0  0  0  0
M  END
$$$$
default_name
  -OEChem-01062215323D

 26 25  0     1  0  0  0  0  0999 V2000
   -3.0232   -3.6924    1.0038 H   0  0  0  0  0  0  0  0  0  0  0  0
   -3.0082   -2.6684    0.6318 C   0  0  0  0  0  0  0  0  0  0  0  0
   -3.6332   -2.0414    1.2658 H   0  0  0  0  0  0  0  0  0  0  0  0
   -3.3762   -2.6444   -0.3912 H   0  0  0  0  0  0  0  0  0  0  0  0
   -1.5882   -2.1554    0.6658 C   0  0  0  0  0  0  0  0  0  0  0  0
   -0.6832   -2.8764    1.0638 O   0  0  0  0  0  0  0  0  0  0  0  0
   -1.3952   -0.9084    0.2428 N   0  0  0  0  0  0  0  0  0  0  0  0
   -2.1972   -0.3644   -0.0422 H   0  0  0  0  0  0  0  0  0  0  0  0
   -0.1122   -0.1994    0.2658 C   0  0  1  0  0  0  0  0  0  0  0  0
   -0.2984    0.8619    0.0819 H   0  0  0  0  0  0  0  0  0  0  0  0
    0.5188   -0.3598    1.6669 C   0  0  0  0  0  0  0  0  0  0  0  0
    0.5015   -1.4121    1.9484 H   0  0  0  0  0  0  0  0  0  0  0  0
    1.5566   -0.0315    1.6331 H   0  0  0  0  0  0  0  0  0  0  0  0
   -0.2085    0.4017    2.7634 C   0  0  0  0  0  0  0  0  0  0  0  0
   -0.6311    1.5351    2.6157 O   0  0  0  0  0  0  0  0  0  0  0  0
   -0.3735   -0.1970    3.9178 N   0  0  0  0  0  0  0  0  0  0  0  0
   -0.8728    0.3235    4.6174 H   0  0  0  0  0  0  0  0  0  0  0  0
   -0.0520   -1.1361    4.0585 H   0  0  0  0  0  0  0  0  0  0  0  0
    0.8018   -0.7283   -0.8615 C   0  0  0  0  0  0  0  0  0  0  0  0
    1.1983    0.0368   -1.7405 O   0  0  0  0  0  0  0  0  0  0  0  0
    1.1253   -2.0250   -0.8441 N   0  0  0  0  0  0  0  0  0  0  0  0
    0.6938   -2.5995   -0.1271 H   0  0  0  0  0  0  0  0  0  0  0  0
    1.9880   -2.6764   -1.8281 C   0  0  0  0  0  0  0  0  0  0  0  0
    2.9541   -2.1684   -1.8640 H   0  0  0  0  0  0  0  0  0  0  0  0
    2.1409   -3.7221   -1.5578 H   0  0  0  0  0  0  0  0  0  0  0  0
    1.5267   -2.6224   -2.8157 H   0  0  0  0  0  0  0  0  0  0  0  0
  5  6  2  0  0  0  0
  5  7  1  0  0  0  0
  2  3  1  0  0  0  0
  2  4  1  0  0  0  0
  2  5  1  0  0  0  0
  1  2  1  0  0  0  0
 19 20  2  0  0  0  0
 19 21  1  0  0  0  0
 16 17  1  0  0  0  0
 16 18  1  0  0  0  0
 14 15  2  0  0  0  0
 14 16  1  0  0  0  0
 11 12  1  0  0  0  0
 11 13  1  0  0  0  0
 11 14  1  0  0  0  0
  9 10  1  0  0  0  0
  9 11  1  0  0  0  0
  9 19  1  0  0  0  0
  7  8  1  0  0  0  0
  7  9  1  0  0  0  0
 23 24  1  0  0  0  0
 23 25  1  0  0  0  0
 23 26  1  0  0  0  0
 21 22  1  0  0  0  0
 21 23  1  0  0  0  0
M  END
$$$$
default_name
  -OEChem-01062215323D

 26 25  0     1  0  0  0  0  0999 V2000
   -3.0232   -3.6924    1.0038 H   0  0  0  0  0  0  0  0  0  0  0  0
   -3.0082   -2.6684    0.6318 C   0  0  0  0  0  0  0  0  0  0  0  0
   -3.6332   -2.0414    1.2658 H   0  0  0  0  0  0  0  0  0  0  0  0
   -3.3762   -2.6444   -0.3912 H   0  0  0  0  0  0  0  0  0  0  0  0
   -1.5882   -2.1554    0.6658 C   0  0  0  0  0  0  0  0  0  0  0  0
   -0.6832   -2.8764    1.0638 O   0  0  0  0  0  0  0  0  0  0  0  0
   -1.3952   -0.9084    0.2428 N   0  0  0  0  0  0  0  0  0  0  0  0
   -2.1972   -0.3644   -0.0422 H   0  0  0  0  0  0  0  0  0  0  0  0
   -0.1122   -0.1994    0.2658 C   0  0  1  0  0  0  0  0  0  0  0  0
   -0.2984    0.8619    0.0819 H   0  0  0  0  0  0  0  0  0  0  0  0
    0.5188   -0.3598    1.6669 C   0  0  0  0  0  0  0  0  0  0  0  0
    0.5015   -1.4121    1.9484 H   0  0  0  0  0  0  0  0  0  0  0  0
    1.5566   -0.0315    1.6331 H   0  0  0  0  0  0  0  0  0  0  0  0
   -0.2085    0.4017    2.7634 C   0  0  0  0  0  0  0  0  0  0  0  0
   -0.6311    1.5351    2.6157 O   0  0  0  0  0  0  0  0  0  0  0  0
   -0.3735   -0.1970    3.9178 N   0  0  0  0  0  0  0  0  0  0  0  0
   -0.8728    0.3235    4.6174 H   0  0  0  0  0  0  0  0  0  0  0  0
   -0.0520   -1.1361    4.0585 H   0  0  0  0  0  0  0  0  0  0  0  0
    0.8018   -0.7283   -0.8615 C   0  0  0  0  0  0  0  0  0  0  0  0
    1.4196    0.0633   -1.5735 O   0  0  0  0  0  0  0  0  0  0  0  0
    0.8804   -2.0518   -1.0300 N   0  0  0  0  0  0  0  0  0  0  0  0
    0.2798   -2.6283   -0.4493 H   0  0  0  0  0  0  0  0  0  0  0  0
    1.7071   -2.7102   -2.0400 C   0  0  0  0  0  0  0  0  0  0  0  0
    2.7480   -2.4015   -1.9217 H   0  0  0  0  0  0  0  0  0  0  0  0
    1.6384   -3.7935   -1.9317 H   0  0  0  0  0  0  0  0  0  0  0  0
    1.3679   -2.4247   -3.0372 H   0  0  0  0  0  0  0  0  0  0  0  0
  5  6  2  0  0  0  0
  5  7  1  0  0  0  0
  2  3  1  0  0  0  0
  2  4  1  0  0  0  0
  2  5  1  0  0  0  0
  1  2  1  0  0  0  0
 19 20  2  0  0  0  0
 19 21  1  0  0  0  0
 16 17  1  0  0  0  0
 16 18  1  0  0  0  0
 14 15  2  0  0  0  0
 14 16  1  0  0  0  0
 11 12  1  0  0  0  0
 11 13  1  0  0  0  0
 11 14  1  0  0  0  0
  9 10  1  0  0  0  0
  9 11  1  0  0  0  0
  9 19  1  0  0  0  0
  7  8  1  0  0  0  0
  7  9  1  0  0  0  0
 23 24  1  0  0  0  0
 23 25  1  0  0  0  0
 23 26  1  0  0  0  0
 21 22  1  0  0  0  0
 21 23  1  0  0  0  0
M  END
$$$$
default_name
  -OEChem-01062215323D

 26 25  0     1  0  0  0  0  0999 V2000
   -3.0232   -3.6924    1.0038 H   0  0  0  0  0  0  0  0  0  0  0  0
   -3.0082   -2.6684    0.6318 C   0  0  0  0  0  0  0  0  0  0  0  0
   -3.6332   -2.0414    1.2658 H   0  0  0  0  0  0  0  0  0  0  0  0
   -3.3762   -2.6444   -0.3912 H   0  0  0  0  0  0  0  0  0  0  0  0
   -1.5882   -2.1554    0.6658 C   0  0  0  0  0  0  0  0  0  0  0  0
   -0.6832   -2.8764    1.0638 O   0  0  0  0  0  0  0  0  0  0  0  0
   -1.3952   -0.9084    0.2428 N   0  0  0  0  0  0  0  0  0  0  0  0
   -2.1972   -0.3644   -0.0422 H   0  0  0  0  0  0  0  0  0  0  0  0
   -0.1122   -0.1994    0.2658 C   0  0  1  0  0  0  0  0  0  0  0  0
   -0.2984    0.8619    0.0819 H   0  0  0  0  0  0  0  0  0  0  0  0
    0.5188   -0.3598    1.6669 C   0  0  0  0  0  0  0  0  0  0  0  0
    0.5015   -1.4121    1.9484 H   0  0  0  0  0  0  0  0  0  0  0  0
    1.5566   -0.0315    1.6331 H   0  0  0  0  0  0  0  0  0  0  0  0
   -0.2085    0.4017    2.7634 C   0  0  0  0  0  0  0  0  0  0  0  0
   -0.6311    1.5351    2.6157 O   0  0  0  0  0  0  0  0  0  0  0  0
   -0.3735   -0.1970    3.9178 N   0  0  0  0  0  0  0  0  0  0  0  0
   -0.8728    0.3235    4.6174 H   0  0  0  0  0  0  0  0  0  0  0  0
   -0.0520   -1.1361    4.0585 H   0  0  0  0  0  0  0  0  0  0  0  0
    0.8018   -0.7283   -0.8615 C   0  0  0  0  0  0  0  0  0  0  0  0
    1.6236    0.0215   -1.3885 O   0  0  0  0  0  0  0  0  0  0  0  0
    0.6552   -2.0030   -1.2355 N   0  0  0  0  0  0  0  0  0  0  0  0
   -0.0970   -2.5286   -0.8016 H   0  0  0  0  0  0  0  0  0  0  0  0
    1.4482   -2.6574   -2.2747 C   0  0  0  0  0  0  0  0  0  0  0  0
    2.5100   -2.5789   -2.0315 H   0  0  0  0  0  0  0  0  0  0  0  0
    1.1726   -3.7103   -2.3484 H   0  0  0  0  0  0  0  0  0  0  0  0
    1.2715   -2.1699   -3.2349 H   0  0  0  0  0  0  0  0  0  0  0  0
  5  6  2  0  0  0  0
  5  7  1  0  0  0  0
  2  3  1  0  0  0  0
  2  4  1  0  0  0  0
  2  5  1  0  0  0  0
  1  2  1  0  0  0  0
 19 20  2  0  0  0  0
 19 21  1  0  0  0  0
 16 17  1  0  0  0  0
 16 18  1  0  0  0  0
 14 15  2  0  0  0  0
 14 16  1  0  0  0  0
 11 12  1  0  0  0  0
 11 13  1  0  0  0  0
 11 14  1  0  0  0  0
  9 10  1  0  0  0  0
  9 11  1  0  0  0  0
  9 19  1  0  0  0  0
  7  8  1  0  0  0  0
  7  9  1  0  0  0  0
 23 24  1  0  0  0  0
 23 25  1  0  0  0  0
 23 26  1  0  0  0  0
 21 22  1  0  0  0  0
 21 23  1  0  0  0  0
M  END
$$$$
default_name
  -OEChem-01062215323D

 26 25  0     1  0  0  0  0  0999 V2000
   -3.0232   -3.6924    1.0038 H   0  0  0  0  0  0  0  0  0  0  0  0
   -3.0082   -2.6684    0.6318 C   0  0  0  0  0  0  0  0  0  0  0  0
   -3.6332   -2.0414    1.2658 H   0  0  0  0  0  0  0  0  0  0  0  0
   -3.3762   -2.6444   -0.3912 H   0  0  0  0  0  0  0  0  0  0  0  0
   -1.5882   -2.1554    0.6658 C   0  0  0  0  0  0  0  0  0  0  0  0
   -0.6832   -2.8764    1.0638 O   0  0  0  0  0  0  0  0  0  0  0  0
   -1.3952   -0.9084    0.2428 N   0  0  0  0  0  0  0  0  0  0  0  0
   -2.1972   -0.3644   -0.0422 H   0  0  0  0  0  0  0  0  0  0  0  0
   -0.1122   -0.1994    0.2658 C   0  0  1  0  0  0  0  0  0  0  0  0
   -0.2984    0.8619    0.0819 H   0  0  0  0  0  0  0  0  0  0  0  0
    0.5188   -0.3598    1.6669 C   0  0  0  0  0  0  0  0  0  0  0  0
    0.5015   -1.4121    1.9484 H   0  0  0  0  0  0  0  0  0  0  0  0
    1.5566   -0.0315    1.6331 H   0  0  0  0  0  0  0  0  0  0  0  0
   -0.2085    0.4017    2.7634 C   0  0  0  0  0  0  0  0  0  0  0  0
   -0.6311    1.5351    2.6157 O   0  0  0  0  0  0  0  0  0  0  0  0
   -0.3735   -0.1970    3.9178 N   0  0  0  0  0  0  0  0  0  0  0  0
   -0.8728    0.3235    4.6174 H   0  0  0  0  0  0  0  0  0  0  0  0
   -0.0520   -1.1361    4.0585 H   0  0  0  0  0  0  0  0  0  0  0  0
    0.8018   -0.7283   -0.8615 C   0  0  0  0  0  0  0  0  0  0  0  0
    1.7963   -0.0857   -1.1982 O   0  0  0  0  0  0  0  0  0  0  0  0
    0.4652   -1.8819   -1.4465 N   0  0  0  0  0  0  0  0  0  0  0  0
   -0.4109   -2.3071   -1.1600 H   0  0  0  0  0  0  0  0  0  0  0  0
    1.2288   -2.5215   -2.5162 C   0  0  0  0  0  0  0  0  0  0  0  0
    2.2563   -2.6884   -2.1857 H   0  0  0  0  0  0  0  0  0  0  0  0
    0.7754   -3.4782   -2.7794 H   0  0  0  0  0  0  0  0  0  0  0  0
    1.2441   -1.8752   -3.3954 H   0  0  0  0  0  0  0  0  0  0  0  0
  5  6  2  0  0  0  0
  5  7  1  0  0  0  0
  2  3  1  0  0  0  0
  2  4  1  0  0  0  0
  2  5  1  0  0  0  0
  1  2  1  0  0  0  0
 19 20  2  0  0  0  0
 19 21  1  0  0  0  0
 16 17  1  0  0  0  0
 16 18  1  0  0  0  0
 14 15  2  0  0  0  0
 14 16  1  0  0  0  0
 11 12  1  0  0  0  0
 11 13  1  0  0  0  0
 11 14  1  0  0  0  0
  9 10  1  0  0  0  0
  9 11  1  0  0  0  0
  9 19  1  0  0  0  0
  7  8  1  0  0  0  0
  7  9  1  0  0  0  0
 23 24  1  0  0  0  0
 23 25  1  0  0  0  0
 23 26  1  0  0  0  0
 21 22  1  0  0  0  0
 21 23  1  0  0  0  0
M  END
$$$$
default_name
  -OEChem-01062215323D

 26 25  0     1  0  0  0  0  0999 V2000
   -3.0232   -3.6924    1.0038 H   0  0  0  0  0  0  0  0  0  0  0  0
   -3.0082   -2.6684    0.6318 C   0  0  0  0  0  0  0  0  0  0  0  0
   -3.6332   -2.0414    1.2658 H   0  0  0  0  0  0  0  0  0  0  0  0
   -3.3762   -2.6444   -0.3912 H   0  0  0  0  0  0  0  0  0  0  0  0
   -1.5882   -2.1554    0.6658 C   0  0  0  0  0  0  0  0  0  0  0  0
   -0.6832   -2.8764    1.0638 O   0  0  0  0  0  0  0  0  0  0  0  0
   -1.3952   -0.9084    0.2428 N   0  0  0  0  0  0  0  0  0  0  0  0
   -2.1972   -0.3644   -0.0422 H   0  0  0  0  0  0  0  0  0  0  0  0
   -0.1122   -0.1994    0.2658 C   0  0  1  0  0  0  0  0  0  0  0  0
   -0.2984    0.8619    0.0819 H   0  0  0  0  0  0  0  0  0  0  0  0
    0.5188   -0.3598    1.6669 C   0  0  0  0  0  0  0  0  0  0  0  0
    0.5015   -1.4121    1.9484 H   0  0  0  0  0  0  0  0  0  0  0  0
    1.5566   -0.0315    1.6331 H   0  0  0  0  0  0  0  0  0  0  0  0
   -0.2085    0.4017    2.7634 C   0  0  0  0  0  0  0  0  0  0  0  0
   -0.6311    1.5351    2.6157 O   0  0  0  0  0  0  0  0  0  0  0  0
   -0.3735   -0.1970    3.9178 N   0  0  0  0  0  0  0  0  0  0  0  0
   -0.8728    0.3235    4.6174 H   0  0  0  0  0  0  0  0  0  0  0  0
   -0.0520   -1.1361    4.0585 H   0  0  0  0  0  0  0  0  0  0  0  0
    0.8018   -0.7283   -0.8615 C   0  0  0  0  0  0  0  0  0  0  0  0
    1.9260   -0.2511   -1.0154 O   0  0  0  0  0  0  0  0  0  0  0  0
    0.3232   -1.6967   -1.6485 N   0  0  0  0  0  0  0  0  0  0  0  0
   -0.6405   -1.9790   -1.5002 H   0  0  0  0  0  0  0  0  0  0  0  0
    1.0641   -2.3119   -2.7482 C   0  0  0  0  0  0  0  0  0  0  0  0
    2.0043   -2.7227   -2.3740 H   0  0  0  0  0  0  0  0  0  0  0  0
    0.4738   -3.1129   -3.1953 H   0  0  0  0  0  0  0  0  0  0  0  0
    1.2874   -1.5608   -3.5078 H   0  0  0  0  0  0  0  0  0  0  0  0
  5  6  2  0  0  0  0
  5  7  1  0  0  0  0
  2  3  1  0  0  0  0
  2  4  1  0  0  0  0
  2  5  1  0  0  0  0
  1  2  1  0  0  0  0
 19 20  2  0  0  0  0
 19 21  1  0  0  0  0
 16 17  1  0  0  0  0
 16 18  1  0  0  0  0
 14 15  2  0  0  0  0
 14 16  1  0  0  0  0
 11 12  1  0  0  0  0
 11 13  1  0  0  0  0
 11 14  1  0  0  0  0
  9 10  1  0  0  0  0
  9 11  1  0  0  0  0
  9 19  1  0  0  0  0
  7  8  1  0  0  0  0
  7  9  1  0  0  0  0
 23 24  1  0  0  0  0
 23 25  1  0  0  0  0
 23 26  1  0  0  0  0
 21 22  1  0  0  0  0
 21 23  1  0  0  0  0
M  END
$$$$
default_name
  -OEChem-01062215323D

 26 25  0     1  0  0  0  0  0999 V2000
   -3.0232   -3.6924    1.0038 H   0  0  0  0  0  0  0  0  0  0  0  0
   -3.0082   -2.6684    0.6318 C   0  0  0  0  0  0  0  0  0  0  0  0
   -3.6332   -2.0414    1.2658 H   0  0  0  0  0  0  0  0  0  0  0  0
   -3.3762   -2.6444   -0.3912 H   0  0  0  0  0  0  0  0  0  0  0  0
   -1.5882   -2.1554    0.6658 C   0  0  0  0  0  0  0  0  0  0  0  0
   -0.6832   -2.8764    1.0638 O   0  0  0  0  0  0  0  0  0  0  0  0
   -1.3952   -0.9084    0.2428 N   0  0  0  0  0  0  0  0  0  0  0  0
   -2.1972   -0.3644   -0.0422 H   0  0  0  0  0  0  0  0  0  0  0  0
   -0.1122   -0.1994    0.2658 C   0  0  1  0  0  0  0  0  0  0  0  0
   -0.2984    0.8619    0.0819 H   0  0  0  0  0  0  0  0  0  0  0  0
    0.5188   -0.3598    1.6669 C   0  0  0  0  0  0  0  0  0  0  0  0
    0.5015   -1.4121    1.9484 H   0  0  0  0  0  0  0  0  0  0  0  0
    1.5566   -0.0315    1.6331 H   0  0  0  0  0  0  0  0  0  0  0  0
   -0.2085    0.4017    2.7634 C   0  0  0  0  0  0  0  0  0  0  0  0
   -0.6311    1.5351    2.6157 O   0  0  0  0  0  0  0  0  0  0  0  0
   -0.3735   -0.1970    3.9178 N   0  0  0  0  0  0  0  0  0  0  0  0
   -0.8728    0.3235    4.6174 H   0  0  0  0  0  0  0  0  0  0  0  0
   -0.0520   -1.1361    4.0585 H   0  0  0  0  0  0  0  0  0  0  0  0
    0.8018   -0.7283   -0.8615 C   0  0  0  0  0  0  0  0  0  0  0  0
    2.0039   -0.4633   -0.8527 O   0  0  0  0  0  0  0  0  0  0  0  0
    0.2389   -1.4600   -1.8279 N   0  0  0  0  0  0  0  0  0  0  0  0
   -0.7701   -1.5667   -1.7988 H   0  0  0  0  0  0  0  0  0  0  0  0
    0.9651   -2.0427   -2.9548 C   0  0  0  0  0  0  0  0  0  0  0  0
    1.7710   -2.6794   -2.5835 H   0  0  0  0  0  0  0  0  0  0  0  0
    0.2883   -2.6394   -3.5679 H   0  0  0  0  0  0  0  0  0  0  0  0
    1.3987   -1.2481   -3.5643 H   0  0  0  0  0  0  0  0  0  0  0  0
  5  6  2  0  0  0  0
  5  7  1  0  0  0  0
  2  3  1  0  0  0  0
  2  4  1  0  0  0  0
  2  5  1  0  0  0  0
  1  2  1  0  0  0  0
 19 20  2  0  0  0  0
 19 21  1  0  0  0  0
 16 17  1  0  0  0  0
 16 18  1  0  0  0  0
 14 15  2  0  0  0  0
 14 16  1  0  0  0  0
 11 12  1  0  0  0  0
 11 13  1  0  0  0  0
 11 14  1  0  0  0  0
  9 10  1  0  0  0  0
  9 11  1  0  0  0  0
  9 19  1  0  0  0  0
  7  8  1  0  0  0  0
  7  9  1  0  0  0  0
 23 24  1  0  0  0  0
 23 25  1  0  0  0  0
 23 26  1  0  0  0  0
 21 22  1  0  0  0  0
 21 23  1  0  0  0  0
M  END
$$$$
default_name
  -OEChem-01062215323D

 26 25  0     1  0  0  0  0  0999 V2000
   -3.0232   -3.6924    1.0038 H   0  0  0  0  0  0  0  0  0  0  0  0
   -3.0082   -2.6684    0.6318 C   0  0  0  0  0  0  0  0  0  0  0  0
   -3.6332   -2.0414    1.2658 H   0  0  0  0  0  0  0  0  0  0  0  0
   -3.3762   -2.6444   -0.3912 H   0  0  0  0  0  0  0  0  0  0  0  0
   -1.5882   -2.1554    0.6658 C   0  0  0  0  0  0  0  0  0  0  0  0
   -0.6832   -2.8764    1.0638 O   0  0  0  0  0  0  0  0  0  0  0  0
   -1.3952   -0.9084    0.2428 N   0  0  0  0  0  0  0  0  0  0  0  0
   -2.1972   -0.3644   -0.0422 H   0  0  0  0  0  0  0  0  0  0  0  0
   -0.1122   -0.1994    0.2658 C   0  0  1  0  0  0  0  0  0  0  0  0
   -0.2984    0.8619    0.0819 H   0  0  0  0  0  0  0  0  0  0  0  0
    0.5188   -0.3598    1.6669 C   0  0  0  0  0  0  0  0  0  0  0  0
    0.5015   -1.4121    1.9484 H   0  0  0  0  0  0  0  0  0  0  0  0
    1.5566   -0.0315    1.6331 H   0  0  0  0  0  0  0  0  0  0  0  0
   -0.2085    0.4017    2.7634 C   0  0  0  0  0  0  0  0  0  0  0  0
   -0.6311    1.5351    2.6157 O   0  0  0  0  0  0  0  0  0  0  0  0
   -0.3735   -0.1970    3.9178 N   0  0  0  0  0  0  0  0  0  0  0  0
   -0.8728    0.3235    4.6174 H   0  0  0  0  0  0  0  0  0  0  0  0
   -0.0520   -1.1361    4.0585 H   0  0  0  0  0  0  0  0  0  0  0  0
    0.8018   -0.7283   -0.8615 C   0  0  0  0  0  0  0  0  0  0  0  0
    2.0246   -0.7079   -0.7211 O   0  0  0  0  0  0  0  0  0  0  0  0
    0.2181   -1.1880   -1.9724 N   0  0  0  0  0  0  0  0  0  0  0  0
   -0.7910   -1.0981   -2.0356 H   0  0  0  0  0  0  0  0  0  0  0  0
    0.9386   -1.7324   -3.1219 C   0  0  0  0  0  0  0  0  0  0  0  0
    1.5725   -2.5614   -2.7998 H   0  0  0  0  0  0  0  0  0  0  0  0
    0.2316   -2.0900   -3.8717 H   0  0  0  0  0  0  0  0  0  0  0  0
    1.5702   -0.9584   -3.5612 H   0  0  0  0  0  0  0  0  0  0  0  0
  5  6  2  0  0  0  0
  5  7  1  0  0  0  0
  2  3  1  0  0  0  0
  2  4  1  0  0  0  0
  2  5  1  0  0  0  0
  1  2  1  0  0  0  0
 19 20  2  0  0  0  0
 19 21  1  0  0  0  0
 16 17  1  0  0  0  0
 16 18  1  0  0  0  0
 14 15  2  0  0  0  0
 14 16  1  0  0  0  0
 11 12  1  0  0  0  0
 11 13  1  0  0  0  0
 11 14  1  0  0  0  0
  9 10  1  0  0  0  0
  9 11  1  0  0  0  0
  9 19  1  0  0  0  0
  7  8  1  0  0  0  0
  7  9  1  0  0  0  0
 23 24  1  0  0  0  0
 23 25  1  0  0  0  0
 23 26  1  0  0  0  0
 21 22  1  0  0  0  0
 21 23  1  0  0  0  0
M  END
$$$$
default_name
  -OEChem-01062215323D

 26 25  0     1  0  0  0  0  0999 V2000
   -3.0232   -3.6924    1.0038 H   0  0  0  0  0  0  0  0  0  0  0  0
   -3.0082   -2.6684    0.6318 C   0  0  0  0  0  0  0  0  0  0  0  0
   -3.6332   -2.0414    1.2658 H   0  0  0  0  0  0  0  0  0  0  0  0
   -3.3762   -2.6444   -0.3912 H   0  0  0  0  0  0  0  0  0  0  0  0
   -1.5882   -2.1554    0.6658 C   0  0  0  0  0  0  0  0  0  0  0  0
   -0.6832   -2.8764    1.0638 O   0  0  0  0  0  0  0  0  0  0  0  0
   -1.3952   -0.9084    0.2428 N   0  0  0  0  0  0  0  0  0  0  0  0
   -2.1972   -0.3644   -0.0422 H   0  0  0  0  0  0  0  0  0  0  0  0
   -0.1122   -0.1994    0.2658 C   0  0  1  0  0  0  0  0  0  0  0  0
   -0.2984    0.8619    0.0819 H   0  0  0  0  0  0  0  0  0  0  0  0
    0.5188   -0.3598    1.6669 C   0  0  0  0  0  0  0  0  0  0  0  0
    0.5015   -1.4121    1.9484 H   0  0  0  0  0  0  0  0  0  0  0  0
    1.5566   -0.0315    1.6331 H   0  0  0  0  0  0  0  0  0  0  0  0
   -0.2085    0.4017    2.7634 C   0  0  0  0  0  0  0  0  0  0  0  0
   -0.6311    1.5351    2.6157 O   0  0  0  0  0  0  0  0  0  0  0  0
   -0.3735   -0.1970    3.9178 N   0  0  0  0  0  0  0  0  0  0  0  0
   -0.8728    0.3235    4.6174 H   0  0  0  0  0  0  0  0  0  0  0  0
   -0.0520   -1.1361    4.0585 H   0  0  0  0  0  0  0  0  0  0  0  0
    0.8018   -0.7283   -0.8615 C   0  0  0  0  0  0  0  0  0  0  0  0
    1.9868   -0.9682   -0.6297 O   0  0  0  0  0  0  0  0  0  0  0  0
    0.2622   -0.8992   -2.0722 N   0  0  0  0  0  0  0  0  0  0  0  0
   -0.7017   -0.6053   -2.1944 H   0  0  0  0  0  0  0  0  0  0  0  0
    0.9865   -1.4021   -3.2381 C   0  0  0  0  0  0  0  0  0  0  0  0
    1.4221   -2.3768   -3.0083 H   0  0  0  0  0  0  0  0  0  0  0  0
    0.3075   -1.5020   -4.0860 H   0  0  0  0  0  0  0  0  0  0  0  0
    1.7903   -0.7115   -3.4986 H   0  0  0  0  0  0  0  0  0  0  0  0
  5  6  2  0  0  0  0
  5  7  1  0  0  0  0
  2  3  1  0  0  0  0
  2  4  1  0  0  0  0
  2  5  1  0  0  0  0
  1  2  1  0  0  0  0
 19 20  2  0  0  0  0
 19 21  1  0  0  0  0
 16 17  1  0  0  0  0
 16 18  1  0  0  0  0
 14 15  2  0  0  0  0
 14 16  1  0  0  0  0
 11 12  1  0  0  0  0
 11 13  1  0  0  0  0
 11 14  1  0  0  0  0
  9 10  1  0  0  0  0
  9 11  1  0  0  0  0
  9 19  1  0  0  0  0
  7  8  1  0  0  0  0
  7  9  1  0  0  0  0
 23 24  1  0  0  0  0
 23 25  1  0  0  0  0
 23 26  1  0  0  0  0
 21 22  1  0  0  0  0
 21 23  1  0  0  0  0
M  END
$$$$
default_name
  -OEChem-01062215323D

 26 25  0     1  0  0  0  0  0999 V2000
   -3.0232   -3.6924    1.0038 H   0  0  0  0  0  0  0  0  0  0  0  0
   -3.0082   -2.6684    0.6318 C   0  0  0  0  0  0  0  0  0  0  0  0
   -3.6332   -2.0414    1.2658 H   0  0  0  0  0  0  0  0  0  0  0  0
   -3.3762   -2.6444   -0.3912 H   0  0  0  0  0  0  0  0  0  0  0  0
   -1.5882   -2.1554    0.6658 C   0  0  0  0  0  0  0  0  0  0  0  0
   -0.6832   -2.8764    1.0638 O   0  0  0  0  0  0  0  0  0  0  0  0
   -1.3952   -0.9084    0.2428 N   0  0  0  0  0  0  0  0  0  0  0  0
   -2.1972   -0.3644   -0.0422 H   0  0  0  0  0  0  0  0  0  0  0  0
   -0.1122   -0.1994    0.2658 C   0  0  1  0  0  0  0  0  0  0  0  0
   -0.2984    0.8619    0.0819 H   0  0  0  0  0  0  0  0  0  0  0  0
    0.5188   -0.3598    1.6669 C   0  0  0  0  0  0  0  0  0  0  0  0
    0.5015   -1.4121    1.9484 H   0  0  0  0  0  0  0  0  0  0  0  0
    1.5566   -0.0315    1.6331 H   0  0  0  0  0  0  0  0  0  0  0  0
   -0.2085    0.4017    2.7634 C   0  0  0  0  0  0  0  0  0  0  0  0
   -0.6311    1.5351    2.6157 O   0  0  0  0  0  0  0  0  0  0  0  0
   -0.3735   -0.1970    3.9178 N   0  0  0  0  0  0  0  0  0  0  0  0
   -0.8728    0.3235    4.6174 H   0  0  0  0  0  0  0  0  0  0  0  0
   -0.0520   -1.1361    4.0585 H   0  0  0  0  0  0  0  0  0  0  0  0
    0.8018   -0.7283   -0.8615 C   0  0  0  0  0  0  0  0  0  0  0  0
    1.8929   -1.2265   -0.5845 O   0  0  0  0  0  0  0  0  0  0  0  0
    0.3681   -0.6133   -2.1204 N   0  0  0  0  0  0  0  0  0  0  0  0
   -0.5083   -0.1219   -2.2644 H   0  0  0  0  0  0  0  0  0  0  0  0
    1.1054   -1.0742   -3.2955 C   0  0  0  0  0  0  0  0  0  0  0  0
    1.3303   -2.1382   -3.1948 H   0  0  0  0  0  0  0  0  0  0  0  0
    0.5109   -0.9156   -4.1963 H   0  0  0  0  0  0  0  0  0  0  0  0
    2.0440   -0.5241   -3.3808 H   0  0  0  0  0  0  0  0  0  0  0  0
  5  6  2  0  0  0  0
  5  7  1  0  0  0  0
  2  3  1  0  0  0  0
  2  4  1  0  0  0  0
  2  5  1  0  0  0  0
  1  2  1  0  0  0  0
 19 20  2  0  0  0  0
 19 21  1  0  0  0  0
 16 17  1  0  0  0  0
 16 18  1  0  0  0  0
 14 15  2  0  0  0  0
 14 16  1  0  0  0  0
 11 12  1  0  0  0  0
 11 13  1  0  0  0  0
 11 14  1  0  0  0  0
  9 10  1  0  0  0  0
  9 11  1  0  0  0  0
  9 19  1  0  0  0  0
  7  8  1  0  0  0  0
  7  9  1  0  0  0  0
 23 24  1  0  0  0  0
 23 25  1  0  0  0  0
 23 26  1  0  0  0  0
 21 22  1  0  0  0  0
 21 23  1  0  0  0  0
M  END
$$$$
default_name
  -OEChem-01062215323D

 26 25  0     1  0  0  0  0  0999 V2000
   -3.0232   -3.6924    1.0038 H   0  0  0  0  0  0  0  0  0  0  0  0
   -3.0082   -2.6684    0.6318 C   0  0  0  0  0  0  0  0  0  0  0  0
   -3.6332   -2.0414    1.2658 H   0  0  0  0  0  0  0  0  0  0  0  0
   -3.3762   -2.6444   -0.3912 H   0  0  0  0  0  0  0  0  0  0  0  0
   -1.5882   -2.1554    0.6658 C   0  0  0  0  0  0  0  0  0  0  0  0
   -0.6832   -2.8764    1.0638 O   0  0  0  0  0  0  0  0  0  0  0  0
   -1.3952   -0.9084    0.2428 N   0  0  0  0  0  0  0  0  0  0  0  0
   -2.1972   -0.3644   -0.0422 H   0  0  0  0  0  0  0  0  0  0  0  0
   -0.1122   -0.1994    0.2658 C   0  0  1  0  0  0  0  0  0  0  0  0
   -0.2984    0.8619    0.0819 H   0  0  0  0  0  0  0  0  0  0  0  0
    0.5188   -0.3598    1.6669 C   0  0  0  0  0  0  0  0  0  0  0  0
    0.5015   -1.4121    1.9484 H   0  0  0  0  0  0  0  0  0  0  0  0
    1.5566   -0.0315    1.6331 H   0  0  0  0  0  0  0  0  0  0  0  0
   -0.2085    0.4017    2.7634 C   0  0  0  0  0  0  0  0  0  0  0  0
   -0.6311    1.5351    2.6157 O   0  0  0  0  0  0  0  0  0  0  0  0
   -0.3735   -0.1970    3.9178 N   0  0  0  0  0  0  0  0  0  0  0  0
   -0.8728    0.3235    4.6174 H   0  0  0  0  0  0  0  0  0  0  0  0
   -0.0520   -1.1361    4.0585 H   0  0  0  0  0  0  0  0  0  0  0  0
    0.8018   -0.7283   -0.8615 C   0  0  0  0  0  0  0  0  0  0  0  0
    1.7495   -1.4652   -0.5888 O   0  0  0  0  0  0  0  0  0  0  0  0
    0.5288   -0.3498   -2.1138 N   0  0  0  0  0  0  0  0  0  0  0  0
   -0.2239    0.3193   -2.2408 H   0  0  0  0  0  0  0  0  0  0  0  0
    1.2873   -0.7712   -3.2902 C   0  0  0  0  0  0  0  0  0  0  0  0
    1.3031   -1.8618   -3.3465 H   0  0  0  0  0  0  0  0  0  0  0  0
    0.8279   -0.3707   -4.1950 H   0  0  0  0  0  0  0  0  0  0  0  0
    2.3141   -0.4091   -3.2158 H   0  0  0  0  0  0  0  0  0  0  0  0
  5  6  2  0  0  0  0
  5  7  1  0  0  0  0
  2  3  1  0  0  0  0
  2  4  1  0  0  0  0
  2  5  1  0  0  0  0
  1  2  1  0  0  0  0
 19 20  2  0  0  0  0
 19 21  1  0  0  0  0
 16 17  1  0  0  0  0
 16 18  1  0  0  0  0
 14 15  2  0  0  0  0
 14 16  1  0  0  0  0
 11 12  1  0  0  0  0
 11 13  1  0  0  0  0
 11 14  1  0  0  0  0
  9 10  1  0  0  0  0
  9 11  1  0  0  0  0
  9 19  1  0  0  0  0
  7  8  1  0  0  0  0
  7  9  1  0  0  0  0
 23 24  1  0  0  0  0
 23 25  1  0  0  0  0
 23 26  1  0  0  0  0
 21 22  1  0  0  0  0
 21 23  1  0  0  0  0
M  END
$$$$
default_name
  -OEChem-01062215323D

 26 25  0     1  0  0  0  0  0999 V2000
   -3.0232   -3.6924    1.0038 H   0  0  0  0  0  0  0  0  0  0  0  0
   -3.0082   -2.6684    0.6318 C   0  0  0  0  0  0  0  0  0  0  0  0
   -3.6332   -2.0414    1.2658 H   0  0  0  0  0  0  0  0  0  0  0  0
   -3.3762   -2.6444   -0.3912 H   0  0  0  0  0  0  0  0  0  0  0  0
   -1.5882   -2.1554    0.6658 C   0  0  0  0  0  0  0  0  0  0  0  0
   -0.6832   -2.8764    1.0638 O   0  0  0  0  0  0  0  0  0  0  0  0
   -1.3952   -0.9084    0.2428 N   0  0  0  0  0  0  0  0  0  0  0  0
   -2.1972   -0.3644   -0.0422 H   0  0  0  0  0  0  0  0  0  0  0  0
   -0.1122   -0.1994    0.2658 C   0  0  1  0  0  0  0  0  0  0  0  0
   -0.2984    0.8619    0.0819 H   0  0  0  0  0  0  0  0  0  0  0  0
    0.5188   -0.3598    1.6669 C   0  0  0  0  0  0  0  0  0  0  0  0
    0.5015   -1.4121    1.9484 H   0  0  0  0  0  0  0  0  0  0  0  0
    1.5566   -0.0315    1.6331 H   0  0  0  0  0  0  0  0  0  0  0  0
   -0.2085    0.4017    2.7634 C   0  0  0  0  0  0  0  0  0  0  0  0
   -0.6311    1.5351    2.6157 O   0  0  0  0  0  0  0  0  0  0  0  0
   -0.3735   -0.1970    3.9178 N   0  0  0  0  0  0  0  0  0  0  0  0
   -0.8728    0.3235    4.6174 H   0  0  0  0  0  0  0  0  0  0  0  0
   -0.0520   -1.1361    4.0585 H   0  0  0  0  0  0  0  0  0  0  0  0
    0.8018   -0.7283   -0.8615 C   0  0  0  0  0  0  0  0  0  0  0  0
    1.5662   -1.6680   -0.6422 O   0  0  0  0  0  0  0  0  0  0  0  0
    0.7331   -0.1266   -2.0529 N   0  0  0  0  0  0  0  0  0  0  0  0
    0.1320    0.6881   -2.1253 H   0  0  0  0  0  0  0  0  0  0  0  0
    1.5197   -0.5137   -3.2226 C   0  0  0  0  0  0  0  0  0  0  0  0
    1.3426   -1.5664   -3.4531 H   0  0  0  0  0  0  0  0  0  0  0  0
    1.2369    0.0956   -4.0821 H   0  0  0  0  0  0  0  0  0  0  0  0
    2.5820   -0.3743   -3.0149 H   0  0  0  0  0  0  0  0  0  0  0  0
  5  6  2  0  0  0  0
  5  7  1  0  0  0  0
  2  3  1  0  0  0  0
  2  4  1  0  0  0  0
  2  5  1  0  0  0  0
  1  2  1  0  0  0  0
 19 20  2  0  0  0  0
 19 21  1  0  0  0  0
 16 17  1  0  0  0  0
 16 18  1  0  0  0  0
 14 15  2  0  0  0  0
 14 16  1  0  0  0  0
 11 12  1  0  0  0  0
 11 13  1  0  0  0  0
 11 14  1  0  0  0  0
  9 10  1  0  0  0  0
  9 11  1  0  0  0  0
  9 19  1  0  0  0  0
  7  8  1  0  0  0  0
  7  9  1  0  0  0  0
 23 24  1  0  0  0  0
 23 25  1  0  0  0  0
 23 26  1  0  0  0  0
 21 22  1  0  0  0  0
 21 23  1  0  0  0  0
M  END
$$$$
default_name
  -OEChem-01062215323D

 26 25  0     1  0  0  0  0  0999 V2000
   -3.0232   -3.6924    1.0038 H   0  0  0  0  0  0  0  0  0  0  0  0
   -3.0082   -2.6684    0.6318 C   0  0  0  0  0  0  0  0  0  0  0  0
   -3.6332   -2.0414    1.2658 H   0  0  0  0  0  0  0  0  0  0  0  0
   -3.3762   -2.6444   -0.3912 H   0  0  0  0  0  0  0  0  0  0  0  0
   -1.5882   -2.1554    0.6658 C   0  0  0  0  0  0  0  0  0  0  0  0
   -0.6832   -2.8764    1.0638 O   0  0  0  0  0  0  0  0  0  0  0  0
   -1.3952   -0.9084    0.2428 N   0  0  0  0  0  0  0  0  0  0  0  0
   -2.1972   -0.3644   -0.0422 H   0  0  0  0  0  0  0  0  0  0  0  0
   -0.1122   -0.1994    0.2658 C   0  0  1  0  0  0  0  0  0  0  0  0
   -0.2984    0.8619    0.0819 H   0  0  0  0  0  0  0  0  0  0  0  0
    0.5188   -0.3598    1.6669 C   0  0  0  0  0  0  0  0  0  0  0  0
    0.5015   -1.4121    1.9484 H   0  0  0  0  0  0  0  0  0  0  0  0
    1.5566   -0.0315    1.6331 H   0  0  0  0  0  0  0  0  0  0  0  0
   -0.2085    0.4017    2.7634 C   0  0  0  0  0  0  0  0  0  0  0  0
   -0.6311    1.5351    2.6157 O   0  0  0  0  0  0  0  0  0  0  0  0
   -0.3735   -0.1970    3.9178 N   0  0  0  0  0  0  0  0  0  0  0  0
   -0.8728    0.3235    4.6174 H   0  0  0  0  0  0  0  0  0  0  0  0
   -0.0520   -1.1361    4.0585 H   0  0  0  0  0  0  0  0  0  0  0  0
    0.8018   -0.7283   -0.8615 C   0  0  0  0  0  0  0  0  0  0  0  0
    1.3556   -1.8211   -0.7411 O   0  0  0  0  0  0  0  0  0  0  0  0
    0.9673    0.0411   -1.9417 N   0  0  0  0  0  0  0  0  0  0  0  0
    0.5352    0.9594   -1.9257 H   0  0  0  0  0  0  0  0  0  0  0  0
    1.7869   -0.3192   -3.0972 C   0  0  0  0  0  0  0  0  0  0  0  0
    1.4459   -1.2723   -3.5073 H   0  0  0  0  0  0  0  0  0  0  0  0
    1.7101    0.4514   -3.8655 H   0  0  0  0  0  0  0  0  0  0  0  0
    2.8295   -0.4220   -2.7918 H   0  0  0  0  0  0  0  0  0  0  0  0
  5  6  2  0  0  0  0
  5  7  1  0  0  0  0
  2  3  1  0  0  0  0
  2  4  1  0  0  0  0
  2  5  1  0  0  0  0
  1  2  1  0  0  0  0
 19 20  2  0  0  0  0
 19 21  1  0  0  0  0
 16 17  1  0  0  0  0
 16 18  1  0  0  0  0
 14 15  2  0  0  0  0
 14 16  1  0  0  0  0
 11 12  1  0  0  0  0
 11 13  1  0  0  0  0
 11 14  1  0  0  0  0
  9 10  1  0  0  0  0
  9 11  1  0  0  0  0
  9 19  1  0  0  0  0
  7  8  1  0  0  0  0
  7  9  1  0  0  0  0
 23 24  1  0  0  0  0
 23 25  1  0  0  0  0
 23 26  1  0  0  0  0
 21 22  1  0  0  0  0
 21 23  1  0  0  0  0
M  END
$$$$
default_name
  -OEChem-01062215323D

 26 25  0     1  0  0  0  0  0999 V2000
   -3.0232   -3.6924    1.0038 H   0  0  0  0  0  0  0  0  0  0  0  0
   -3.0082   -2.6684    0.6318 C   0  0  0  0  0  0  0  0  0  0  0  0
   -3.6332   -2.0414    1.2658 H   0  0  0  0  0  0  0  0  0  0  0  0
   -3.3762   -2.6444   -0.3912 H   0  0  0  0  0  0  0  0  0  0  0  0
   -1.5882   -2.1554    0.6658 C   0  0  0  0  0  0  0  0  0  0  0  0
   -0.6832   -2.8764    1.0638 O   0  0  0  0  0  0  0  0  0  0  0  0
   -1.3952   -0.9084    0.2428 N   0  0  0  0  0  0  0  0  0  0  0  0
   -2.1972   -0.3644   -0.0422 H   0  0  0  0  0  0  0  0  0  0  0  0
   -0.1122   -0.1994    0.2658 C   0  0  1  0  0  0  0  0  0  0  0  0
   -0.2984    0.8619    0.0819 H   0  0  0  0  0  0  0  0  0  0  0  0
    0.5188   -0.3598    1.6669 C   0  0  0  0  0  0  0  0  0  0  0  0
    0.5015   -1.4121    1.9484 H   0  0  0  0  0  0  0  0  0  0  0  0
    1.5566   -0.0315    1.6331 H   0  0  0  0  0  0  0  0  0  0  0  0
   -0.2085    0.4017    2.7634 C   0  0  0  0  0  0  0  0  0  0  0  0
   -0.6311    1.5351    2.6157 O   0  0  0  0  0  0  0  0  0  0  0  0
   -0.3735   -0.1970    3.9178 N   0  0  0  0  0  0  0  0  0  0  0  0
   -0.8728    0.3235    4.6174 H   0  0  0  0  0  0  0  0  0  0  0  0
   -0.0520   -1.1361    4.0585 H   0  0  0  0  0  0  0  0  0  0  0  0
    0.8018   -0.7283   -0.8615 C   0  0  0  0  0  0  0  0  0  0  0  0
    1.1321   -1.9141   -0.8788 O   0  0  0  0  0  0  0  0  0  0  0  0
    1.2153    0.1418   -1.7879 N   0  0  0  0  0  0  0  0  0  0  0  0
    0.9583    1.1148   -1.6556 H   0  0  0  0  0  0  0  0  0  0  0  0
    2.0706   -0.2011   -2.9226 C   0  0  0  0  0  0  0  0  0  0  0  0
    1.6061   -0.9994   -3.5055 H   0  0  0  0  0  0  0  0  0  0  0  0
    2.2151    0.6726   -3.5598 H   0  0  0  0  0  0  0  0  0  0  0  0
    3.0399   -0.5490   -2.5617 H   0  0  0  0  0  0  0  0  0  0  0  0
  5  6  2  0  0  0  0
  5  7  1  0  0  0  0
  2  3  1  0  0  0  0
  2  4  1  0  0  0  0
  2  5  1  0  0  0  0
  1  2  1  0  0  0  0
 19 20  2  0  0  0  0
 19 21  1  0  0  0  0
 16 17  1  0  0  0  0
 16 18  1  0  0  0  0
 14 15  2  0  0  0  0
 14 16  1  0  0  0  0
 11 12  1  0  0  0  0
 11 13  1  0  0  0  0
 11 14  1  0  0  0  0
  9 10  1  0  0  0  0
  9 11  1  0  0  0  0
  9 19  1  0  0  0  0
  7  8  1  0  0  0  0
  7  9  1  0  0  0  0
 23 24  1  0  0  0  0
 23 25  1  0  0  0  0
 23 26  1  0  0  0  0
 21 22  1  0  0  0  0
 21 23  1  0  0  0  0
M  END
$$$$
default_name
  -OEChem-01062215323D

 26 25  0     1  0  0  0  0  0999 V2000
   -3.0232   -3.6924    1.0038 H   0  0  0  0  0  0  0  0  0  0  0  0
   -3.0082   -2.6684    0.6318 C   0  0  0  0  0  0  0  0  0  0  0  0
   -3.6332   -2.0414    1.2658 H   0  0  0  0  0  0  0  0  0  0  0  0
   -3.3762   -2.6444   -0.3912 H   0  0  0  0  0  0  0  0  0  0  0  0
   -1.5882   -2.1554    0.6658 C   0  0  0  0  0  0  0  0  0  0  0  0
   -0.6832   -2.8764    1.0638 O   0  0  0  0  0  0  0  0  0  0  0  0
   -1.3952   -0.9084    0.2428 N   0  0  0  0  0  0  0  0  0  0  0  0
   -2.1972   -0.3644   -0.0422 H   0  0  0  0  0  0  0  0  0  0  0  0
   -0.1122   -0.1994    0.2658 C   0  0  1  0  0  0  0  0  0  0  0  0
   -0.2984    0.8619    0.0819 H   0  0  0  0  0  0  0  0  0  0  0  0
    0.5188   -0.3598    1.6669 C   0  0  0  0  0  0  0  0  0  0  0  0
    0.5015   -1.4121    1.9484 H   0  0  0  0  0  0  0  0  0  0  0  0
    1.5566   -0.0315    1.6331 H   0  0  0  0  0  0  0  0  0  0  0  0
   -0.2085    0.4017    2.7634 C   0  0  0  0  0  0  0  0  0  0  0  0
   -0.6311    1.5351    2.6157 O   0  0  0  0  0  0  0  0  0  0  0  0
   -0.3735   -0.1970    3.9178 N   0  0  0  0  0  0  0  0  0  0  0  0
   -0.8728    0.3235    4.6174 H   0  0  0  0  0  0  0  0  0  0  0  0
   -0.0520   -1.1361    4.0585 H   0  0  0  0  0  0  0  0  0  0  0  0
    0.8018   -0.7283   -0.8615 C   0  0  0  0  0  0  0  0  0  0  0  0
    0.9108   -1.9406   -1.0458 O   0  0  0  0  0  0  0  0  0  0  0  0
    1.4602    0.1686   -1.6019 N   0  0  0  0  0  0  0  0  0  0  0  0
    1.3723    1.1436   -1.3334 H   0  0  0  0  0  0  0  0  0  0  0  0
    2.3515   -0.1672   -2.7108 C   0  0  0  0  0  0  0  0  0  0  0  0
    1.8122   -0.7663   -3.4478 H   0  0  0  0  0  0  0  0  0  0  0  0
    2.7176    0.7440   -3.1859 H   0  0  0  0  0  0  0  0  0  0  0  0
    3.1987   -0.7467   -2.3402 H   0  0  0  0  0  0  0  0  0  0  0  0
  5  6  2  0  0  0  0
  5  7  1  0  0  0  0
  2  3  1  0  0  0  0
  2  4  1  0  0  0  0
  2  5  1  0  0  0  0
  1  2  1  0  0  0  0
 19 20  2  0  0  0  0
 19 21  1  0  0  0  0
 16 17  1  0  0  0  0
 16 18  1  0  0  0  0
 14 15  2  0  0  0  0
 14 16  1  0  0  0  0
 11 12  1  0  0  0  0
 11 13  1  0  0  0  0
 11 14  1  0  0  0  0
  9 10  1  0  0  0  0
  9 11  1  0  0  0  0
  9 19  1  0  0  0  0
  7  8  1  0  0  0  0
  7  9  1  0  0  0  0
 23 24  1  0  0  0  0
 23 25  1  0  0  0  0
 23 26  1  0  0  0  0
 21 22  1  0  0  0  0
 21 23  1  0  0  0  0
M  END
$$$$
default_name
  -OEChem-01062215323D

 26 25  0     1  0  0  0  0  0999 V2000
   -3.0232   -3.6924    1.0038 H   0  0  0  0  0  0  0  0  0  0  0  0
   -3.0082   -2.6684    0.6318 C   0  0  0  0  0  0  0  0  0  0  0  0
   -3.6332   -2.0414    1.2658 H   0  0  0  0  0  0  0  0  0  0  0  0
   -3.3762   -2.6444   -0.3912 H   0  0  0  0  0  0  0  0  0  0  0  0
   -1.5882   -2.1554    0.6658 C   0  0  0  0  0  0  0  0  0  0  0  0
   -0.6832   -2.8764    1.0638 O   0  0  0  0  0  0  0  0  0  0  0  0
   -1.3952   -0.9084    0.2428 N   0  0  0  0  0  0  0  0  0  0  0  0
   -2.1972   -0.3644   -0.0422 H   0  0  0  0  0  0  0  0  0  0  0  0
   -0.1122   -0.1994    0.2658 C   0  0  1  0  0  0  0  0  0  0  0  0
   -0.2984    0.8619    0.0819 H   0  0  0  0  0  0  0  0  0  0  0  0
    0.5188   -0.3598    1.6669 C   0  0  0  0  0  0  0  0  0  0  0  0
    0.5015   -1.4121    1.9484 H   0  0  0  0  0  0  0  0  0  0  0  0
    1.5566   -0.0315    1.6331 H   0  0  0  0  0  0  0  0  0  0  0  0
   -0.2085    0.4017    2.7634 C   0  0  0  0  0  0  0  0  0  0  0  0
   -0.6311    1.5351    2.6157 O   0  0  0  0  0  0  0  0  0  0  0  0
   -0.3735   -0.1970    3.9178 N   0  0  0  0  0  0  0  0  0  0  0  0
   -0.8728    0.3235    4.6174 H   0  0  0  0  0  0  0  0  0  0  0  0
   -0.0520   -1.1361    4.0585 H   0  0  0  0  0  0  0  0  0  0  0  0
    0.8018   -0.7283   -0.8615 C   0  0  0  0  0  0  0  0  0  0  0  0
    0.7068   -1.8988   -1.2308 O   0  0  0  0  0  0  0  0  0  0  0  0
    1.6854    0.1198   -1.3964 N   0  0  0  0  0  0  0  0  0  0  0  0
    1.7491    1.0438   -0.9811 H   0  0  0  0  0  0  0  0  0  0  0  0
    2.6104   -0.2200   -2.4761 C   0  0  0  0  0  0  0  0  0  0  0  0
    2.0502   -0.5889   -3.3380 H   0  0  0  0  0  0  0  0  0  0  0  0
    3.1833    0.6608   -2.7692 H   0  0  0  0  0  0  0  0  0  0  0  0
    3.2950   -1.0016   -2.1424 H   0  0  0  0  0  0  0  0  0  0  0  0
  5  6  2  0  0  0  0
  5  7  1  0  0  0  0
  2  3  1  0  0  0  0
  2  4  1  0  0  0  0
  2  5  1  0  0  0  0
  1  2  1  0  0  0  0
 19 20  2  0  0  0  0
 19 21  1  0  0  0  0
 16 17  1  0  0  0  0
 16 18  1  0  0  0  0
 14 15  2  0  0  0  0
 14 16  1  0  0  0  0
 11 12  1  0  0  0  0
 11 13  1  0  0  0  0
 11 14  1  0  0  0  0
  9 10  1  0  0  0  0
  9 11  1  0  0  0  0
  9 19  1  0  0  0  0
  7  8  1  0  0  0  0
  7  9  1  0  0  0  0
 23 24  1  0  0  0  0
 23 25  1  0  0  0  0
 23 26  1  0  0  0  0
 21 22  1  0  0  0  0
 21 23  1  0  0  0  0
M  END
$$$$
default_name
  -OEChem-01062215323D

 26 25  0     1  0  0  0  0  0999 V2000
   -3.0232   -3.6924    1.0038 H   0  0  0  0  0  0  0  0  0  0  0  0
   -3.0082   -2.6684    0.6318 C   0  0  0  0  0  0  0  0  0  0  0  0
   -3.6332   -2.0414    1.2658 H   0  0  0  0  0  0  0  0  0  0  0  0
   -3.3762   -2.6444   -0.3912 H   0  0  0  0  0  0  0  0  0  0  0  0
   -1.5882   -2.1554    0.6658 C   0  0  0  0  0  0  0  0  0  0  0  0
   -0.6832   -2.8764    1.0638 O   0  0  0  0  0  0  0  0  0  0  0  0
   -1.3952   -0.9084    0.2428 N   0  0  0  0  0  0  0  0  0  0  0  0
   -2.1972   -0.3644   -0.0422 H   0  0  0  0  0  0  0  0  0  0  0  0
   -0.1122   -0.1994    0.2658 C   0  0  1  0  0  0  0  0  0  0  0  0
   -0.2984    0.8619    0.0819 H   0  0  0  0  0  0  0  0  0  0  0  0
    0.5188   -0.3598    1.6669 C   0  0  0  0  0  0  0  0  0  0  0  0
    0.5015   -1.4121    1.9484 H   0  0  0  0  0  0  0  0  0  0  0  0
    1.5566   -0.0315    1.6331 H   0  0  0  0  0  0  0  0  0  0  0  0
   -0.2085    0.4017    2.7634 C   0  0  0  0  0  0  0  0  0  0  0  0
   -0.6311    1.5351    2.6157 O   0  0  0  0  0  0  0  0  0  0  0  0
   -0.3735   -0.1970    3.9178 N   0  0  0  0  0  0  0  0  0  0  0  0
   -0.8728    0.3235    4.6174 H   0  0  0  0  0  0  0  0  0  0  0  0
   -0.0520   -1.1361    4.0585 H   0  0  0  0  0  0  0  0  0  0  0  0
    0.8018   -0.7283   -0.8615 C   0  0  0  0  0  0  0  0  0  0  0  0
    0.5341   -1.7916   -1.4211 O   0  0  0  0  0  0  0  0  0  0  0  0
    1.8754   -0.0013   -1.1855 N   0  0  0  0  0  0  0  0  0  0  0  0
    2.0630    0.8224   -0.6227 H   0  0  0  0  0  0  0  0  0  0  0  0
    2.8297   -0.3559   -2.2345 C   0  0  0  0  0  0  0  0  0  0  0  0
    2.3039   -0.4793   -3.1837 H   0  0  0  0  0  0  0  0  0  0  0  0
    3.5805    0.4286   -2.3382 H   0  0  0  0  0  0  0  0  0  0  0  0
    3.3225   -1.2963   -1.9819 H   0  0  0  0  0  0  0  0  0  0  0  0
  5  6  2  0  0  0  0
  5  7  1  0  0  0  0
  2  3  1  0  0  0  0
  2  4  1  0  0  0  0
  2  5  1  0  0  0  0
  1  2  1  0  0  0  0
 19 20  2  0  0  0  0
 19 21  1  0  0  0  0
 16 17  1  0  0  0  0
 16 18  1  0  0  0  0
 14 15  2  0  0  0  0
 14 16  1  0  0  0  0
 11 12  1  0  0  0  0
 11 13  1  0  0  0  0
 11 14  1  0  0  0  0
  9 10  1  0  0  0  0
  9 11  1  0  0  0  0
  9 19  1  0  0  0  0
  7  8  1  0  0  0  0
  7  9  1  0  0  0  0
 23 24  1  0  0  0  0
 23 25  1  0  0  0  0
 23 26  1  0  0  0  0
 21 22  1  0  0  0  0
 21 23  1  0  0  0  0
M  END
$$$$
default_name
  -OEChem-01062215323D

 26 25  0     1  0  0  0  0  0999 V2000
   -3.0232   -3.6924    1.0038 H   0  0  0  0  0  0  0  0  0  0  0  0
   -3.0082   -2.6684    0.6318 C   0  0  0  0  0  0  0  0  0  0  0  0
   -3.6332   -2.0414    1.2658 H   0  0  0  0  0  0  0  0  0  0  0  0
   -3.3762   -2.6444   -0.3912 H   0  0  0  0  0  0  0  0  0  0  0  0
   -1.5882   -2.1554    0.6658 C   0  0  0  0  0  0  0  0  0  0  0  0
   -0.6832   -2.8764    1.0638 O   0  0  0  0  0  0  0  0  0  0  0  0
   -1.3952   -0.9084    0.2428 N   0  0  0  0  0  0  0  0  0  0  0  0
   -2.1972   -0.3644   -0.0422 H   0  0  0  0  0  0  0  0  0  0  0  0
   -0.1122   -0.1994    0.2658 C   0  0  1  0  0  0  0  0  0  0  0  0
   -0.3091    0.8723    0.3520 H   0  0  0  0  0  0  0  0  0  0  0  0
    0.6882   -0.6609    1.5041 C   0  0  0  0  0  0  0  0  0  0  0  0
    0.6954   -1.7498    1.5395 H   0  0  0  0  0  0  0  0  0  0  0  0
    1.7168   -0.3144    1.4165 H   0  0  0  0  0  0  0  0  0  0  0  0
    0.1123   -0.1809    2.8266 C   0  0  0  0  0  0  0  0  0  0  0  0
   -0.3138    0.9486    2.9936 O   0  0  0  0  0  0  0  0  0  0  0  0
    0.0874   -1.0282    3.8265 N   0  0  0  0  0  0  0  0  0  0  0  0
   -0.3146   -0.6887    4.6826 H   0  0  0  0  0  0  0  0  0  0  0  0
    0.4143   -1.9686    3.7094 H   0  0  0  0  0  0  0  0  0  0  0  0
    0.6474   -0.4426   -1.0570 C   0  0  0  0  0  0  0  0  0  0  0  0
    0.1505   -1.1564   -1.9282 O   0  0  0  0  0  0  0  0  0  0  0  0
    1.8436    0.1351   -1.2035 N   0  0  0  0  0  0  0  0  0  0  0  0
    2.2117    0.6447   -0.4065 H   0  0  0  0  0  0  0  0  0  0  0  0
    2.6809    0.0146   -2.3957 C   0  0  0  0  0  0  0  0  0  0  0  0
    2.1224    0.3485   -3.2728 H   0  0  0  0  0  0  0  0  0  0  0  0
    3.5781    0.6254   -2.2862 H   0  0  0  0  0  0  0  0  0  0  0  0
    2.9692   -1.0280   -2.5397 H   0  0  0  0  0  0  0  0  0  0  0  0
  5  6  2  0  0  0  0
  5  7  1  0  0  0  0
  2  3  1  0  0  0  0
  2  4  1  0  0  0  0
  2  5  1  0  0  0  0
  1  2  1  0  0  0  0
 19 20  2  0  0  0  0
 19 21  1  0  0  0  0
 16 17  1  0  0  0  0
 16 18  1  0  0  0  0
 14 15  2  0  0  0  0
 14 16  1  0  0  0  0
 11 12  1  0  0  0  0
 11 13  1  0  0  0  0
 11 14  1  0  0  0  0
  9 10  1  0  0  0  0
  9 11  1  0  0  0  0
  9 19  1  0  0  0  0
  7  8  1  0  0  0  0
  7  9  1  0  0  0  0
 23 24  1  0  0  0  0
 23 25  1  0  0  0  0
 23 26  1  0  0  0  0
 21 22  1  0  0  0  0
 21 23  1  0  0  0  0
M  END
$$$$
default_name
  -OEChem-01062215323D

 26 25  0     1  0  0  0  0  0999 V2000
   -3.0232   -3.6924    1.0038 H   0  0  0  0  0  0  0  0  0  0  0  0
   -3.0082   -2.6684    0.6318 C   0  0  0  0  0  0  0  0  0  0  0  0
   -3.6332   -2.0414    1.2658 H   0  0  0  0  0  0  0  0  0  0  0  0
   -3.3762   -2.6444   -0.3912 H   0  0  0  0  0  0  0  0  0  0  0  0
   -1.5882   -2.1554    0.6658 C   0  0  0  0  0  0  0  0  0  0  0  0
   -0.6832   -2.8764    1.0638 O   0  0  0  0  0  0  0  0  0  0  0  0
   -1.3952   -0.9084    0.2428 N   0  0  0  0  0  0  0  0  0  0  0  0
   -2.1972   -0.3644   -0.0422 H   0  0  0  0  0  0  0  0  0  0  0  0
   -0.1122   -0.1994    0.2658 C   0  0  1  0  0  0  0  0  0  0  0  0
   -0.3091    0.8723    0.3520 H   0  0  0  0  0  0  0  0  0  0  0  0
    0.6882   -0.6609    1.5041 C   0  0  0  0  0  0  0  0  0  0  0  0
    0.6954   -1.7498    1.5395 H   0  0  0  0  0  0  0  0  0  0  0  0
    1.7168   -0.3144    1.4165 H   0  0  0  0  0  0  0  0  0  0  0  0
    0.1123   -0.1809    2.8266 C   0  0  0  0  0  0  0  0  0  0  0  0
   -0.3138    0.9486    2.9936 O   0  0  0  0  0  0  0  0  0  0  0  0
    0.0874   -1.0282    3.8265 N   0  0  0  0  0  0  0  0  0  0  0  0
   -0.3146   -0.6887    4.6826 H   0  0  0  0  0  0  0  0  0  0  0  0
    0.4143   -1.9686    3.7094 H   0  0  0  0  0  0  0  0  0  0  0  0
    0.6474   -0.4426   -1.0570 C   0  0  0  0  0  0  0  0  0  0  0  0
    0.0550   -0.9144   -2.0275 O   0  0  0  0  0  0  0  0  0  0  0  0
    1.9473   -0.1344   -1.0944 N   0  0  0  0  0  0  0  0  0  0  0  0
    2.3735    0.1779   -0.2277 H   0  0  0  0  0  0  0  0  0  0  0  0
    2.8023   -0.2924   -2.2695 C   0  0  0  0  0  0  0  0  0  0  0  0
    2.3796    0.2632   -3.1094 H   0  0  0  0  0  0  0  0  0  0  0  0
    3.8040    0.0834   -2.0569 H   0  0  0  0  0  0  0  0  0  0  0  0
    2.8627   -1.3474   -2.5421 H   0  0  0  0  0  0  0  0  0  0  0  0
  5  6  2  0  0  0  0
  5  7  1  0  0  0  0
  2  3  1  0  0  0  0
  2  4  1  0  0  0  0
  2  5  1  0  0  0  0
  1  2  1  0  0  0  0
 19 20  2  0  0  0  0
 19 21  1  0  0  0  0
 16 17  1  0  0  0  0
 16 18  1  0  0  0  0
 14 15  2  0  0  0  0
 14 16  1  0  0  0  0
 11 12  1  0  0  0  0
 11 13  1  0  0  0  0
 11 14  1  0  0  0  0
  9 10  1  0  0  0  0
  9 11  1  0  0  0  0
  9 19  1  0  0  0  0
  7  8  1  0  0  0  0
  7  9  1  0  0  0  0
 23 24  1  0  0  0  0
 23 25  1  0  0  0  0
 23 26  1  0  0  0  0
 21 22  1  0  0  0  0
 21 23  1  0  0  0  0
M  END
$$$$
default_name
  -OEChem-01062215323D

 26 25  0     1  0  0  0  0  0999 V2000
   -3.0232   -3.6924    1.0038 H   0  0  0  0  0  0  0  0  0  0  0  0
   -3.0082   -2.6684    0.6318 C   0  0  0  0  0  0  0  0  0  0  0  0
   -3.6332   -2.0414    1.2658 H   0  0  0  0  0  0  0  0  0  0  0  0
   -3.3762   -2.6444   -0.3912 H   0  0  0  0  0  0  0  0  0  0  0  0
   -1.5882   -2.1554    0.6658 C   0  0  0  0  0  0  0  0  0  0  0  0
   -0.6832   -2.8764    1.0638 O   0  0  0  0  0  0  0  0  0  0  0  0
   -1.3952   -0.9084    0.2428 N   0  0  0  0  0  0  0  0  0  0  0  0
   -2.1972   -0.3644   -0.0422 H   0  0  0  0  0  0  0  0  0  0  0  0
   -0.1122   -0.1994    0.2658 C   0  0  1  0  0  0  0  0  0  0  0  0
   -0.3091    0.8723    0.3520 H   0  0  0  0  0  0  0  0  0  0  0  0
    0.6882   -0.6609    1.5041 C   0  0  0  0  0  0  0  0  0  0  0  0
    0.6954   -1.7498    1.5395 H   0  0  0  0  0  0  0  0  0  0  0  0
    1.7168   -0.3144    1.4165 H   0  0  0  0  0  0  0  0  0  0  0  0
    0.1123   -0.1809    2.8266 C   0  0  0  0  0  0  0  0  0  0  0  0
   -0.3138    0.9486    2.9936 O   0  0  0  0  0  0  0  0  0  0  0  0
    0.0874   -1.0282    3.8265 N   0  0  0  0  0  0  0  0  0  0  0  0
   -0.3146   -0.6887    4.6826 H   0  0  0  0  0  0  0  0  0  0  0  0
    0.4143   -1.9686    3.7094 H   0  0  0  0  0  0  0  0  0  0  0  0
    0.6474   -0.4426   -1.0570 C   0  0  0  0  0  0  0  0  0  0  0  0
    0.0205   -0.6468   -2.0966 O   0  0  0  0  0  0  0  0  0  0  0  0
    1.9833   -0.4316   -1.0191 N   0  0  0  0  0  0  0  0  0  0  0  0
    2.4192   -0.3316   -0.1079 H   0  0  0  0  0  0  0  0  0  0  0  0
    2.8463   -0.6320   -2.1818 C   0  0  0  0  0  0  0  0  0  0  0  0
    2.6026    0.1031   -2.9519 H   0  0  0  0  0  0  0  0  0  0  0  0
    3.8928   -0.5194   -1.8951 H   0  0  0  0  0  0  0  0  0  0  0  0
    2.6891   -1.6320   -2.5895 H   0  0  0  0  0  0  0  0  0  0  0  0
  5  6  2  0  0  0  0
  5  7  1  0  0  0  0
  2  3  1  0  0  0  0
  2  4  1  0  0  0  0
  2  5  1  0  0  0  0
  1  2  1  0  0  0  0
 19 20  2  0  0  0  0
 19 21  1  0  0  0  0
 16 17  1  0  0  0  0
 16 18  1  0  0  0  0
 14 15  2  0  0  0  0
 14 16  1  0  0  0  0
 11 12  1  0  0  0  0
 11 13  1  0  0  0  0
 11 14  1  0  0  0  0
  9 10  1  0  0  0  0
  9 11  1  0  0  0  0
  9 19  1  0  0  0  0
  7  8  1  0  0  0  0
  7  9  1  0  0  0  0
 23 24  1  0  0  0  0
 23 25  1  0  0  0  0
 23 26  1  0  0  0  0
 21 22  1  0  0  0  0
 21 23  1  0  0  0  0
M  END
$$$$
default_name
  -OEChem-01062215323D

 26 25  0     1  0  0  0  0  0999 V2000
   -3.0232   -3.6924    1.0038 H   0  0  0  0  0  0  0  0  0  0  0  0
   -3.0082   -2.6684    0.6318 C   0  0  0  0  0  0  0  0  0  0  0  0
   -3.6332   -2.0414    1.2658 H   0  0  0  0  0  0  0  0  0  0  0  0
   -3.3762   -2.6444   -0.3912 H   0  0  0  0  0  0  0  0  0  0  0  0
   -1.5882   -2.1554    0.6658 C   0  0  0  0  0  0  0  0  0  0  0  0
   -0.6832   -2.8764    1.0638 O   0  0  0  0  0  0  0  0  0  0  0  0
   -1.3952   -0.9084    0.2428 N   0  0  0  0  0  0  0  0  0  0  0  0
   -2.1972   -0.3644   -0.0422 H   0  0  0  0  0  0  0  0  0  0  0  0
   -0.1122   -0.1994    0.2658 C   0  0  1  0  0  0  0  0  0  0  0  0
   -0.3091    0.8723    0.3520 H   0  0  0  0  0  0  0  0  0  0  0  0
    0.6882   -0.6609    1.5041 C   0  0  0  0  0  0  0  0  0  0  0  0
    0.6954   -1.7498    1.5395 H   0  0  0  0  0  0  0  0  0  0  0  0
    1.7168   -0.3144    1.4165 H   0  0  0  0  0  0  0  0  0  0  0  0
    0.1123   -0.1809    2.8266 C   0  0  0  0  0  0  0  0  0  0  0  0
   -0.3138    0.9486    2.9936 O   0  0  0  0  0  0  0  0  0  0  0  0
    0.0874   -1.0282    3.8265 N   0  0  0  0  0  0  0  0  0  0  0  0
   -0.3146   -0.6887    4.6826 H   0  0  0  0  0  0  0  0  0  0  0  0
    0.4143   -1.9686    3.7094 H   0  0  0  0  0  0  0  0  0  0  0  0
    0.6474   -0.4426   -1.0570 C   0  0  0  0  0  0  0  0  0  0  0  0
    0.0493   -0.3719   -2.1306 O   0  0  0  0  0  0  0  0  0  0  0  0
    1.9491   -0.7362   -0.9827 N   0  0  0  0  0  0  0  0  0  0  0  0
    2.3454   -0.8491   -0.0551 H   0  0  0  0  0  0  0  0  0  0  0  0
    2.8100   -0.9809   -2.1385 C   0  0  0  0  0  0  0  0  0  0  0  0
    2.7760   -0.1211   -2.8111 H   0  0  0  0  0  0  0  0  0  0  0  0
    3.8383   -1.1420   -1.8119 H   0  0  0  0  0  0  0  0  0  0  0  0
    2.4603   -1.8624   -2.6785 H   0  0  0  0  0  0  0  0  0  0  0  0
  5  6  2  0  0  0  0
  5  7  1  0  0  0  0
  2  3  1  0  0  0  0
  2  4  1  0  0  0  0
  2  5  1  0  0  0  0
  1  2  1  0  0  0  0
 19 20  2  0  0  0  0
 19 21  1  0  0  0  0
 16 17  1  0  0  0  0
 16 18  1  0  0  0  0
 14 15  2  0  0  0  0
 14 16  1  0  0  0  0
 11 12  1  0  0  0  0
 11 13  1  0  0  0  0
 11 14  1  0  0  0  0
  9 10  1  0  0  0  0
  9 11  1  0  0  0  0
  9 19  1  0  0  0  0
  7  8  1  0  0  0  0
  7  9  1  0  0  0  0
 23 24  1  0  0  0  0
 23 25  1  0  0  0  0
 23 26  1  0  0  0  0
 21 22  1  0  0  0  0
 21 23  1  0  0  0  0
M  END
$$$$
default_name
  -OEChem-01062215323D

 26 25  0     1  0  0  0  0  0999 V2000
   -3.0232   -3.6924    1.0038 H   0  0  0  0  0  0  0  0  0  0  0  0
   -3.0082   -2.6684    0.6318 C   0  0  0  0  0  0  0  0  0  0  0  0
   -3.6332   -2.0414    1.2658 H   0  0  0  0  0  0  0  0  0  0  0  0
   -3.3762   -2.6444   -0.3912 H   0  0  0  0  0  0  0  0  0  0  0  0
   -1.5882   -2.1554    0.6658 C   0  0  0  0  0  0  0  0  0  0  0  0
   -0.6832   -2.8764    1.0638 O   0  0  0  0  0  0  0  0  0  0  0  0
   -1.3952   -0.9084    0.2428 N   0  0  0  0  0  0  0  0  0  0  0  0
   -2.1972   -0.3644   -0.0422 H   0  0  0  0  0  0  0  0  0  0  0  0
   -0.1122   -0.1994    0.2658 C   0  0  1  0  0  0  0  0  0  0  0  0
   -0.3091    0.8723    0.3520 H   0  0  0  0  0  0  0  0  0  0  0  0
    0.6882   -0.6609    1.5041 C   0  0  0  0  0  0  0  0  0  0  0  0
    0.6954   -1.7498    1.5395 H   0  0  0  0  0  0  0  0  0  0  0  0
    1.7168   -0.3144    1.4165 H   0  0  0  0  0  0  0  0  0  0  0  0
    0.1123   -0.1809    2.8266 C   0  0  0  0  0  0  0  0  0  0  0  0
   -0.3138    0.9486    2.9936 O   0  0  0  0  0  0  0  0  0  0  0  0
    0.0874   -1.0282    3.8265 N   0  0  0  0  0  0  0  0  0  0  0  0
   -0.3146   -0.6887    4.6826 H   0  0  0  0  0  0  0  0  0  0  0  0
    0.4143   -1.9686    3.7094 H   0  0  0  0  0  0  0  0  0  0  0  0
    0.6474   -0.4426   -1.0570 C   0  0  0  0  0  0  0  0  0  0  0  0
    0.1394   -0.1084   -2.1273 O   0  0  0  0  0  0  0  0  0  0  0  0
    1.8471   -1.0275   -0.9878 N   0  0  0  0  0  0  0  0  0  0  0  0
    2.1573   -1.3393   -0.0729 H   0  0  0  0  0  0  0  0  0  0  0  0
    2.6959   -1.3153   -2.1426 C   0  0  0  0  0  0  0  0  0  0  0  0
    2.8881   -0.3940   -2.6966 H   0  0  0  0  0  0  0  0  0  0  0  0
    3.6443   -1.7418   -1.8130 H   0  0  0  0  0  0  0  0  0  0  0  0
    2.1919   -2.0229   -2.8031 H   0  0  0  0  0  0  0  0  0  0  0  0
  5  6  2  0  0  0  0
  5  7  1  0  0  0  0
  2  3  1  0  0  0  0
  2  4  1  0  0  0  0
  2  5  1  0  0  0  0
  1  2  1  0  0  0  0
 19 20  2  0  0  0  0
 19 21  1  0  0  0  0
 16 17  1  0  0  0  0
 16 18  1  0  0  0  0
 14 15  2  0  0  0  0
 14 16  1  0  0  0  0
 11 12  1  0  0  0  0
 11 13  1  0  0  0  0
 11 14  1  0  0  0  0
  9 10  1  0  0  0  0
  9 11  1  0  0  0  0
  9 19  1  0  0  0  0
  7  8  1  0  0  0  0
  7  9  1  0  0  0  0
 23 24  1  0  0  0  0
 23 25  1  0  0  0  0
 23 26  1  0  0  0  0
 21 22  1  0  0  0  0
 21 23  1  0  0  0  0
M  END
$$$$
default_name
  -OEChem-01062215323D

 26 25  0     1  0  0  0  0  0999 V2000
   -3.0232   -3.6924    1.0038 H   0  0  0  0  0  0  0  0  0  0  0  0
   -3.0082   -2.6684    0.6318 C   0  0  0  0  0  0  0  0  0  0  0  0
   -3.6332   -2.0414    1.2658 H   0  0  0  0  0  0  0  0  0  0  0  0
   -3.3762   -2.6444   -0.3912 H   0  0  0  0  0  0  0  0  0  0  0  0
   -1.5882   -2.1554    0.6658 C   0  0  0  0  0  0  0  0  0  0  0  0
   -0.6832   -2.8764    1.0638 O   0  0  0  0  0  0  0  0  0  0  0  0
   -1.3952   -0.9084    0.2428 N   0  0  0  0  0  0  0  0  0  0  0  0
   -2.1972   -0.3644   -0.0422 H   0  0  0  0  0  0  0  0  0  0  0  0
   -0.1122   -0.1994    0.2658 C   0  0  1  0  0  0  0  0  0  0  0  0
   -0.3091    0.8723    0.3520 H   0  0  0  0  0  0  0  0  0  0  0  0
    0.6882   -0.6609    1.5041 C   0  0  0  0  0  0  0  0  0  0  0  0
    0.6954   -1.7498    1.5395 H   0  0  0  0  0  0  0  0  0  0  0  0
    1.7168   -0.3144    1.4165 H   0  0  0  0  0  0  0  0  0  0  0  0
    0.1123   -0.1809    2.8266 C   0  0  0  0  0  0  0  0  0  0  0  0
   -0.3138    0.9486    2.9936 O   0  0  0  0  0  0  0  0  0  0  0  0
    0.0874   -1.0282    3.8265 N   0  0  0  0  0  0  0  0  0  0  0  0
   -0.3146   -0.6887    4.6826 H   0  0  0  0  0  0  0  0  0  0  0  0
    0.4143   -1.9686    3.7094 H   0  0  0  0  0  0  0  0  0  0  0  0
    0.6474   -0.4426   -1.0570 C   0  0  0  0  0  0  0  0  0  0  0  0
    0.2847    0.1258   -2.0869 O   0  0  0  0  0  0  0  0  0  0  0  0
    1.6842   -1.2857   -1.0338 N   0  0  0  0  0  0  0  0  0  0  0  0
    1.8677   -1.7689   -0.1603 H   0  0  0  0  0  0  0  0  0  0  0  0
    2.5116   -1.6126   -2.1937 C   0  0  0  0  0  0  0  0  0  0  0  0
    2.9312   -0.6970   -2.6161 H   0  0  0  0  0  0  0  0  0  0  0  0
    3.3240   -2.2780   -1.8983 H   0  0  0  0  0  0  0  0  0  0  0  0
    1.9021   -2.1026   -2.9549 H   0  0  0  0  0  0  0  0  0  0  0  0
  5  6  2  0  0  0  0
  5  7  1  0  0  0  0
  2  3  1  0  0  0  0
  2  4  1  0  0  0  0
  2  5  1  0  0  0  0
  1  2  1  0  0  0  0
 19 20  2  0  0  0  0
 19 21  1  0  0  0  0
 16 17  1  0  0  0  0
 16 18  1  0  0  0  0
 14 15  2  0  0  0  0
 14 16  1  0  0  0  0
 11 12  1  0  0  0  0
 11 13  1  0  0  0  0
 11 14  1  0  0  0  0
  9 10  1  0  0  0  0
  9 11  1  0  0  0  0
  9 19  1  0  0  0  0
  7  8  1  0  0  0  0
  7  9  1  0  0  0  0
 23 24  1  0  0  0  0
 23 25  1  0  0  0  0
 23 26  1  0  0  0  0
 21 22  1  0  0  0  0
 21 23  1  0  0  0  0
M  END
$$$$
default_name
  -OEChem-01062215323D

 26 25  0     1  0  0  0  0  0999 V2000
   -3.0232   -3.6924    1.0038 H   0  0  0  0  0  0  0  0  0  0  0  0
   -3.0082   -2.6684    0.6318 C   0  0  0  0  0  0  0  0  0  0  0  0
   -3.6332   -2.0414    1.2658 H   0  0  0  0  0  0  0  0  0  0  0  0
   -3.3762   -2.6444   -0.3912 H   0  0  0  0  0  0  0  0  0  0  0  0
   -1.5882   -2.1554    0.6658 C   0  0  0  0  0  0  0  0  0  0  0  0
   -0.6832   -2.8764    1.0638 O   0  0  0  0  0  0  0  0  0  0  0  0
   -1.3952   -0.9084    0.2428 N   0  0  0  0  0  0  0  0  0  0  0  0
   -2.1972   -0.3644   -0.0422 H   0  0  0  0  0  0  0  0  0  0  0  0
   -0.1122   -0.1994    0.2658 C   0  0  1  0  0  0  0  0  0  0  0  0
   -0.3091    0.8723    0.3520 H   0  0  0  0  0  0  0  0  0  0  0  0
    0.6882   -0.6609    1.5041 C   0  0  0  0  0  0  0  0  0  0  0  0
    0.6954   -1.7498    1.5395 H   0  0  0  0  0  0  0  0  0  0  0  0
    1.7168   -0.3144    1.4165 H   0  0  0  0  0  0  0  0  0  0  0  0
    0.1123   -0.1809    2.8266 C   0  0  0  0  0  0  0  0  0  0  0  0
   -0.3138    0.9486    2.9936 O   0  0  0  0  0  0  0  0  0  0  0  0
    0.0874   -1.0282    3.8265 N   0  0  0  0  0  0  0  0  0  0  0  0
   -0.3146   -0.6887    4.6826 H   0  0  0  0  0  0  0  0  0  0  0  0
    0.4143   -1.9686    3.7094 H   0  0  0  0  0  0  0  0  0  0  0  0
    0.6474   -0.4426   -1.0570 C   0  0  0  0  0  0  0  0  0  0  0  0
    0.4753    0.3146   -2.0122 O   0  0  0  0  0  0  0  0  0  0  0  0
    1.4715   -1.4930   -1.1179 N   0  0  0  0  0  0  0  0  0  0  0  0
    1.4963   -2.1085   -0.3111 H   0  0  0  0  0  0  0  0  0  0  0  0
    2.2699   -1.8524   -2.2884 C   0  0  0  0  0  0  0  0  0  0  0  0
    2.9024   -1.0095   -2.5752 H   0  0  0  0  0  0  0  0  0  0  0  0
    2.8992   -2.7141   -2.0621 H   0  0  0  0  0  0  0  0  0  0  0  0
    1.6108   -2.0960   -3.1234 H   0  0  0  0  0  0  0  0  0  0  0  0
  5  6  2  0  0  0  0
  5  7  1  0  0  0  0
  2  3  1  0  0  0  0
  2  4  1  0  0  0  0
  2  5  1  0  0  0  0
  1  2  1  0  0  0  0
 19 20  2  0  0  0  0
 19 21  1  0  0  0  0
 16 17  1  0  0  0  0
 16 18  1  0  0  0  0
 14 15  2  0  0  0  0
 14 16  1  0  0  0  0
 11 12  1  0  0  0  0
 11 13  1  0  0  0  0
 11 14  1  0  0  0  0
  9 10  1  0  0  0  0
  9 11  1  0  0  0  0
  9 19  1  0  0  0  0
  7  8  1  0  0  0  0
  7  9  1  0  0  0  0
 23 24  1  0  0  0  0
 23 25  1  0  0  0  0
 23 26  1  0  0  0  0
 21 22  1  0  0  0  0
 21 23  1  0  0  0  0
M  END
$$$$
default_name
  -OEChem-01062215323D

 26 25  0     1  0  0  0  0  0999 V2000
   -3.0232   -3.6924    1.0038 H   0  0  0  0  0  0  0  0  0  0  0  0
   -3.0082   -2.6684    0.6318 C   0  0  0  0  0  0  0  0  0  0  0  0
   -3.6332   -2.0414    1.2658 H   0  0  0  0  0  0  0  0  0  0  0  0
   -3.3762   -2.6444   -0.3912 H   0  0  0  0  0  0  0  0  0  0  0  0
   -1.5882   -2.1554    0.6658 C   0  0  0  0  0  0  0  0  0  0  0  0
   -0.6832   -2.8764    1.0638 O   0  0  0  0  0  0  0  0  0  0  0  0
   -1.3952   -0.9084    0.2428 N   0  0  0  0  0  0  0  0  0  0  0  0
   -2.1972   -0.3644   -0.0422 H   0  0  0  0  0  0  0  0  0  0  0  0
   -0.1122   -0.1994    0.2658 C   0  0  1  0  0  0  0  0  0  0  0  0
   -0.3091    0.8723    0.3520 H   0  0  0  0  0  0  0  0  0  0  0  0
    0.6882   -0.6609    1.5041 C   0  0  0  0  0  0  0  0  0  0  0  0
    0.6954   -1.7498    1.5395 H   0  0  0  0  0  0  0  0  0  0  0  0
    1.7168   -0.3144    1.4165 H   0  0  0  0  0  0  0  0  0  0  0  0
    0.1123   -0.1809    2.8266 C   0  0  0  0  0  0  0  0  0  0  0  0
   -0.3138    0.9486    2.9936 O   0  0  0  0  0  0  0  0  0  0  0  0
    0.0874   -1.0282    3.8265 N   0  0  0  0  0  0  0  0  0  0  0  0
   -0.3146   -0.6887    4.6826 H   0  0  0  0  0  0  0  0  0  0  0  0
    0.4143   -1.9686    3.7094 H   0  0  0  0  0  0  0  0  0  0  0  0
    0.6474   -0.4426   -1.0570 C   0  0  0  0  0  0  0  0  0  0  0  0
    0.6982    0.4452   -1.9082 O   0  0  0  0  0  0  0  0  0  0  0  0
    1.2235   -1.6355   -1.2341 N   0  0  0  0  0  0  0  0  0  0  0  0
    1.0684   -2.3351   -0.5151 H   0  0  0  0  0  0  0  0  0  0  0  0
    1.9871   -2.0183   -2.4203 C   0  0  0  0  0  0  0  0  0  0  0  0
    2.8036   -1.3101   -2.5766 H   0  0  0  0  0  0  0  0  0  0  0  0
    2.3990   -3.0204   -2.2930 H   0  0  0  0  0  0  0  0  0  0  0  0
    1.3376   -2.0036   -3.2972 H   0  0  0  0  0  0  0  0  0  0  0  0
  5  6  2  0  0  0  0
  5  7  1  0  0  0  0
  2  3  1  0  0  0  0
  2  4  1  0  0  0  0
  2  5  1  0  0  0  0
  1  2  1  0  0  0  0
 19 20  2  0  0  0  0
 19 21  1  0  0  0  0
 16 17  1  0  0  0  0
 16 18  1  0  0  0  0
 14 15  2  0  0  0  0
 14 16  1  0  0  0  0
 11 12  1  0  0  0  0
 11 13  1  0  0  0  0
 11 14  1  0  0  0  0
  9 10  1  0  0  0  0
  9 11  1  0  0  0  0
  9 19  1  0  0  0  0
  7  8  1  0  0  0  0
  7  9  1  0  0  0  0
 23 24  1  0  0  0  0
 23 25  1  0  0  0  0
 23 26  1  0  0  0  0
 21 22  1  0  0  0  0
 21 23  1  0  0  0  0
M  END
$$$$
default_name
  -OEChem-01062215323D

 26 25  0     1  0  0  0  0  0999 V2000
   -3.0232   -3.6924    1.0038 H   0  0  0  0  0  0  0  0  0  0  0  0
   -3.0082   -2.6684    0.6318 C   0  0  0  0  0  0  0  0  0  0  0  0
   -3.6332   -2.0414    1.2658 H   0  0  0  0  0  0  0  0  0  0  0  0
   -3.3762   -2.6444   -0.3912 H   0  0  0  0  0  0  0  0  0  0  0  0
   -1.5882   -2.1554    0.6658 C   0  0  0  0  0  0  0  0  0  0  0  0
   -0.6832   -2.8764    1.0638 O   0  0  0  0  0  0  0  0  0  0  0  0
   -1.3952   -0.9084    0.2428 N   0  0  0  0  0  0  0  0  0  0  0  0
   -2.1972   -0.3644   -0.0422 H   0  0  0  0  0  0  0  0  0  0  0  0
   -0.1122   -0.1994    0.2658 C   0  0  1  0  0  0  0  0  0  0  0  0
   -0.3091    0.8723    0.3520 H   0  0  0  0  0  0  0  0  0  0  0  0
    0.6882   -0.6609    1.5041 C   0  0  0  0  0  0  0  0  0  0  0  0
    0.6954   -1.7498    1.5395 H   0  0  0  0  0  0  0  0  0  0  0  0
    1.7168   -0.3144    1.4165 H   0  0  0  0  0  0  0  0  0  0  0  0
    0.1123   -0.1809    2.8266 C   0  0  0  0  0  0  0  0  0  0  0  0
   -0.3138    0.9486    2.9936 O   0  0  0  0  0  0  0  0  0  0  0  0
    0.0874   -1.0282    3.8265 N   0  0  0  0  0  0  0  0  0  0  0  0
   -0.3146   -0.6887    4.6826 H   0  0  0  0  0  0  0  0  0  0  0  0
    0.4143   -1.9686    3.7094 H   0  0  0  0  0  0  0  0  0  0  0  0
    0.6474   -0.4426   -1.0570 C   0  0  0  0  0  0  0  0  0  0  0  0
    0.9382    0.5088   -1.7820 O   0  0  0  0  0  0  0  0  0  0  0  0
    0.9571   -1.7033   -1.3746 N   0  0  0  0  0  0  0  0  0  0  0  0
    0.6132   -2.4331   -0.7585 H   0  0  0  0  0  0  0  0  0  0  0  0
    1.6825   -2.0992   -2.5804 C   0  0  0  0  0  0  0  0  0  0  0  0
    2.6417   -1.5785   -2.6203 H   0  0  0  0  0  0  0  0  0  0  0  0
    1.8573   -3.1759   -2.5755 H   0  0  0  0  0  0  0  0  0  0  0  0
    1.1014   -1.8317   -3.4645 H   0  0  0  0  0  0  0  0  0  0  0  0
  5  6  2  0  0  0  0
  5  7  1  0  0  0  0
  2  3  1  0  0  0  0
  2  4  1  0  0  0  0
  2  5  1  0  0  0  0
  1  2  1  0  0  0  0
 19 20  2  0  0  0  0
 19 21  1  0  0  0  0
 16 17  1  0  0  0  0
 16 18  1  0  0  0  0
 14 15  2  0  0  0  0
 14 16  1  0  0  0  0
 11 12  1  0  0  0  0
 11 13  1  0  0  0  0
 11 14  1  0  0  0  0
  9 10  1  0  0  0  0
  9 11  1  0  0  0  0
  9 19  1  0  0  0  0
  7  8  1  0  0  0  0
  7  9  1  0  0  0  0
 23 24  1  0  0  0  0
 23 25  1  0  0  0  0
 23 26  1  0  0  0  0
 21 22  1  0  0  0  0
 21 23  1  0  0  0  0
M  END
$$$$
default_name
  -OEChem-01062215323D

 26 25  0     1  0  0  0  0  0999 V2000
   -3.0232   -3.6924    1.0038 H   0  0  0  0  0  0  0  0  0  0  0  0
   -3.0082   -2.6684    0.6318 C   0  0  0  0  0  0  0  0  0  0  0  0
   -3.6332   -2.0414    1.2658 H   0  0  0  0  0  0  0  0  0  0  0  0
   -3.3762   -2.6444   -0.3912 H   0  0  0  0  0  0  0  0  0  0  0  0
   -1.5882   -2.1554    0.6658 C   0  0  0  0  0  0  0  0  0  0  0  0
   -0.6832   -2.8764    1.0638 O   0  0  0  0  0  0  0  0  0  0  0  0
   -1.3952   -0.9084    0.2428 N   0  0  0  0  0  0  0  0  0  0  0  0
   -2.1972   -0.3644   -0.0422 H   0  0  0  0  0  0  0  0  0  0  0  0
   -0.1122   -0.1994    0.2658 C   0  0  1  0  0  0  0  0  0  0  0  0
   -0.3091    0.8723    0.3520 H   0  0  0  0  0  0  0  0  0  0  0  0
    0.6882   -0.6609    1.5041 C   0  0  0  0  0  0  0  0  0  0  0  0
    0.6954   -1.7498    1.5395 H   0  0  0  0  0  0  0  0  0  0  0  0
    1.7168   -0.3144    1.4165 H   0  0  0  0  0  0  0  0  0  0  0  0
    0.1123   -0.1809    2.8266 C   0  0  0  0  0  0  0  0  0  0  0  0
   -0.3138    0.9486    2.9936 O   0  0  0  0  0  0  0  0  0  0  0  0
    0.0874   -1.0282    3.8265 N   0  0  0  0  0  0  0  0  0  0  0  0
   -0.3146   -0.6887    4.6826 H   0  0  0  0  0  0  0  0  0  0  0  0
    0.4143   -1.9686    3.7094 H   0  0  0  0  0  0  0  0  0  0  0  0
    0.6474   -0.4426   -1.0570 C   0  0  0  0  0  0  0  0  0  0  0  0
    1.1790    0.5009   -1.6423 O   0  0  0  0  0  0  0  0  0  0  0  0
    0.6905   -1.6919   -1.5297 N   0  0  0  0  0  0  0  0  0  0  0  0
    0.1617   -2.3959   -1.0246 H   0  0  0  0  0  0  0  0  0  0  0  0
    1.3769   -2.0894   -2.7576 C   0  0  0  0  0  0  0  0  0  0  0  0
    2.4275   -1.7962   -2.7032 H   0  0  0  0  0  0  0  0  0  0  0  0
    1.3111   -3.1702   -2.8902 H   0  0  0  0  0  0  0  0  0  0  0  0
    0.9181   -1.5920   -3.6138 H   0  0  0  0  0  0  0  0  0  0  0  0
  5  6  2  0  0  0  0
  5  7  1  0  0  0  0
  2  3  1  0  0  0  0
  2  4  1  0  0  0  0
  2  5  1  0  0  0  0
  1  2  1  0  0  0  0
 19 20  2  0  0  0  0
 19 21  1  0  0  0  0
 16 17  1  0  0  0  0
 16 18  1  0  0  0  0
 14 15  2  0  0  0  0
 14 16  1  0  0  0  0
 11 12  1  0  0  0  0
 11 13  1  0  0  0  0
 11 14  1  0  0  0  0
  9 10  1  0  0  0  0
  9 11  1  0  0  0  0
  9 19  1  0  0  0  0
  7  8  1  0  0  0  0
  7  9  1  0  0  0  0
 23 24  1  0  0  0  0
 23 25  1  0  0  0  0
 23 26  1  0  0  0  0
 21 22  1  0  0  0  0
 21 23  1  0  0  0  0
M  END
$$$$
default_name
  -OEChem-01062215323D

 26 25  0     1  0  0  0  0  0999 V2000
   -3.0232   -3.6924    1.0038 H   0  0  0  0  0  0  0  0  0  0  0  0
   -3.0082   -2.6684    0.6318 C   0  0  0  0  0  0  0  0  0  0  0  0
   -3.6332   -2.0414    1.2658 H   0  0  0  0  0  0  0  0  0  0  0  0
   -3.3762   -2.6444   -0.3912 H   0  0  0  0  0  0  0  0  0  0  0  0
   -1.5882   -2.1554    0.6658 C   0  0  0  0  0  0  0  0  0  0  0  0
   -0.6832   -2.8764    1.0638 O   0  0  0  0  0  0  0  0  0  0  0  0
   -1.3952   -0.9084    0.2428 N   0  0  0  0  0  0  0  0  0  0  0  0
   -2.1972   -0.3644   -0.0422 H   0  0  0  0  0  0  0  0  0  0  0  0
   -0.1122   -0.1994    0.2658 C   0  0  1  0  0  0  0  0  0  0  0  0
   -0.3091    0.8723    0.3520 H   0  0  0  0  0  0  0  0  0  0  0  0
    0.6882   -0.6609    1.5041 C   0  0  0  0  0  0  0  0  0  0  0  0
    0.6954   -1.7498    1.5395 H   0  0  0  0  0  0  0  0  0  0  0  0
    1.7168   -0.3144    1.4165 H   0  0  0  0  0  0  0  0  0  0  0  0
    0.1123   -0.1809    2.8266 C   0  0  0  0  0  0  0  0  0  0  0  0
   -0.3138    0.9486    2.9936 O   0  0  0  0  0  0  0  0  0  0  0  0
    0.0874   -1.0282    3.8265 N   0  0  0  0  0  0  0  0  0  0  0  0
   -0.3146   -0.6887    4.6826 H   0  0  0  0  0  0  0  0  0  0  0  0
    0.4143   -1.9686    3.7094 H   0  0  0  0  0  0  0  0  0  0  0  0
    0.6474   -0.4426   -1.0570 C   0  0  0  0  0  0  0  0  0  0  0  0
    1.4042    0.4221   -1.4985 O   0  0  0  0  0  0  0  0  0  0  0  0
    0.4418   -1.6021   -1.6891 N   0  0  0  0  0  0  0  0  0  0  0  0
   -0.2553   -2.2260   -1.2953 H   0  0  0  0  0  0  0  0  0  0  0  0
    1.0911   -1.9896   -2.9401 C   0  0  0  0  0  0  0  0  0  0  0  0
    2.1758   -1.9485   -2.8198 H   0  0  0  0  0  0  0  0  0  0  0  0
    0.7976   -3.0035   -3.2157 H   0  0  0  0  0  0  0  0  0  0  0  0
    0.8002   -1.3008   -3.7350 H   0  0  0  0  0  0  0  0  0  0  0  0
  5  6  2  0  0  0  0
  5  7  1  0  0  0  0
  2  3  1  0  0  0  0
  2  4  1  0  0  0  0
  2  5  1  0  0  0  0
  1  2  1  0  0  0  0
 19 20  2  0  0  0  0
 19 21  1  0  0  0  0
 16 17  1  0  0  0  0
 16 18  1  0  0  0  0
 14 15  2  0  0  0  0
 14 16  1  0  0  0  0
 11 12  1  0  0  0  0
 11 13  1  0  0  0  0
 11 14  1  0  0  0  0
  9 10  1  0  0  0  0
  9 11  1  0  0  0  0
  9 19  1  0  0  0  0
  7  8  1  0  0  0  0
  7  9  1  0  0  0  0
 23 24  1  0  0  0  0
 23 25  1  0  0  0  0
 23 26  1  0  0  0  0
 21 22  1  0  0  0  0
 21 23  1  0  0  0  0
M  END
$$$$
default_name
  -OEChem-01062215323D

 26 25  0     1  0  0  0  0  0999 V2000
   -3.0232   -3.6924    1.0038 H   0  0  0  0  0  0  0  0  0  0  0  0
   -3.0082   -2.6684    0.6318 C   0  0  0  0  0  0  0  0  0  0  0  0
   -3.6332   -2.0414    1.2658 H   0  0  0  0  0  0  0  0  0  0  0  0
   -3.3762   -2.6444   -0.3912 H   0  0  0  0  0  0  0  0  0  0  0  0
   -1.5882   -2.1554    0.6658 C   0  0  0  0  0  0  0  0  0  0  0  0
   -0.6832   -2.8764    1.0638 O   0  0  0  0  0  0  0  0  0  0  0  0
   -1.3952   -0.9084    0.2428 N   0  0  0  0  0  0  0  0  0  0  0  0
   -2.1972   -0.3644   -0.0422 H   0  0  0  0  0  0  0  0  0  0  0  0
   -0.1122   -0.1994    0.2658 C   0  0  1  0  0  0  0  0  0  0  0  0
   -0.3091    0.8723    0.3520 H   0  0  0  0  0  0  0  0  0  0  0  0
    0.6882   -0.6609    1.5041 C   0  0  0  0  0  0  0  0  0  0  0  0
    0.6954   -1.7498    1.5395 H   0  0  0  0  0  0  0  0  0  0  0  0
    1.7168   -0.3144    1.4165 H   0  0  0  0  0  0  0  0  0  0  0  0
    0.1123   -0.1809    2.8266 C   0  0  0  0  0  0  0  0  0  0  0  0
   -0.3138    0.9486    2.9936 O   0  0  0  0  0  0  0  0  0  0  0  0
    0.0874   -1.0282    3.8265 N   0  0  0  0  0  0  0  0  0  0  0  0
   -0.3146   -0.6887    4.6826 H   0  0  0  0  0  0  0  0  0  0  0  0
    0.4143   -1.9686    3.7094 H   0  0  0  0  0  0  0  0  0  0  0  0
    0.6474   -0.4426   -1.0570 C   0  0  0  0  0  0  0  0  0  0  0  0
    1.5983    0.2778   -1.3605 O   0  0  0  0  0  0  0  0  0  0  0  0
    0.2280   -1.4399   -1.8417 N   0  0  0  0  0  0  0  0  0  0  0  0
   -0.6095   -1.9350   -1.5522 H   0  0  0  0  0  0  0  0  0  0  0  0
    0.8446   -1.8067   -3.1153 C   0  0  0  0  0  0  0  0  0  0  0  0
    1.9036   -2.0250   -2.9620 H   0  0  0  0  0  0  0  0  0  0  0  0
    0.3518   -2.6872   -3.5298 H   0  0  0  0  0  0  0  0  0  0  0  0
    0.7559   -0.9781   -3.8198 H   0  0  0  0  0  0  0  0  0  0  0  0
  5  6  2  0  0  0  0
  5  7  1  0  0  0  0
  2  3  1  0  0  0  0
  2  4  1  0  0  0  0
  2  5  1  0  0  0  0
  1  2  1  0  0  0  0
 19 20  2  0  0  0  0
 19 21  1  0  0  0  0
 16 17  1  0  0  0  0
 16 18  1  0  0  0  0
 14 15  2  0  0  0  0
 14 16  1  0  0  0  0
 11 12  1  0  0  0  0
 11 13  1  0  0  0  0
 11 14  1  0  0  0  0
  9 10  1  0  0  0  0
  9 11  1  0  0  0  0
  9 19  1  0  0  0  0
  7  8  1  0  0  0  0
  7  9  1  0  0  0  0
 23 24  1  0  0  0  0
 23 25  1  0  0  0  0
 23 26  1  0  0  0  0
 21 22  1  0  0  0  0
 21 23  1  0  0  0  0
M  END
$$$$
default_name
  -OEChem-01062215323D

 26 25  0     1  0  0  0  0  0999 V2000
   -3.0232   -3.6924    1.0038 H   0  0  0  0  0  0  0  0  0  0  0  0
   -3.0082   -2.6684    0.6318 C   0  0  0  0  0  0  0  0  0  0  0  0
   -3.6332   -2.0414    1.2658 H   0  0  0  0  0  0  0  0  0  0  0  0
   -3.3762   -2.6444   -0.3912 H   0  0  0  0  0  0  0  0  0  0  0  0
   -1.5882   -2.1554    0.6658 C   0  0  0  0  0  0  0  0  0  0  0  0
   -0.6832   -2.8764    1.0638 O   0  0  0  0  0  0  0  0  0  0  0  0
   -1.3952   -0.9084    0.2428 N   0  0  0  0  0  0  0  0  0  0  0  0
   -2.1972   -0.3644   -0.0422 H   0  0  0  0  0  0  0  0  0  0  0  0
   -0.1122   -0.1994    0.2658 C   0  0  1  0  0  0  0  0  0  0  0  0
   -0.3091    0.8723    0.3520 H   0  0  0  0  0  0  0  0  0  0  0  0
    0.6882   -0.6609    1.5041 C   0  0  0  0  0  0  0  0  0  0  0  0
    0.6954   -1.7498    1.5395 H   0  0  0  0  0  0  0  0  0  0  0  0
    1.7168   -0.3144    1.4165 H   0  0  0  0  0  0  0  0  0  0  0  0
    0.1123   -0.1809    2.8266 C   0  0  0  0  0  0  0  0  0  0  0  0
   -0.3138    0.9486    2.9936 O   0  0  0  0  0  0  0  0  0  0  0  0
    0.0874   -1.0282    3.8265 N   0  0  0  0  0  0  0  0  0  0  0  0
   -0.3146   -0.6887    4.6826 H   0  0  0  0  0  0  0  0  0  0  0  0
    0.4143   -1.9686    3.7094 H   0  0  0  0  0  0  0  0  0  0  0  0
    0.6474   -0.4426   -1.0570 C   0  0  0  0  0  0  0  0  0  0  0  0
    1.7483    0.0778   -1.2377 O   0  0  0  0  0  0  0  0  0  0  0  0
    0.0637   -1.2165   -1.9771 N   0  0  0  0  0  0  0  0  0  0  0  0
   -0.8766   -1.5428   -1.7777 H   0  0  0  0  0  0  0  0  0  0  0  0
    0.6541   -1.5531   -3.2713 C   0  0  0  0  0  0  0  0  0  0  0  0
    1.6296   -2.0205   -3.1202 H   0  0  0  0  0  0  0  0  0  0  0  0
    0.0041   -2.2430   -3.8112 H   0  0  0  0  0  0  0  0  0  0  0  0
    0.7881   -0.6456   -3.8625 H   0  0  0  0  0  0  0  0  0  0  0  0
  5  6  2  0  0  0  0
  5  7  1  0  0  0  0
  2  3  1  0  0  0  0
  2  4  1  0  0  0  0
  2  5  1  0  0  0  0
  1  2  1  0  0  0  0
 19 20  2  0  0  0  0
 19 21  1  0  0  0  0
 16 17  1  0  0  0  0
 16 18  1  0  0  0  0
 14 15  2  0  0  0  0
 14 16  1  0  0  0  0
 11 12  1  0  0  0  0
 11 13  1  0  0  0  0
 11 14  1  0  0  0  0
  9 10  1  0  0  0  0
  9 11  1  0  0  0  0
  9 19  1  0  0  0  0
  7  8  1  0  0  0  0
  7  9  1  0  0  0  0
 23 24  1  0  0  0  0
 23 25  1  0  0  0  0
 23 26  1  0  0  0  0
 21 22  1  0  0  0  0
 21 23  1  0  0  0  0
M  END
$$$$
default_name
  -OEChem-01062215323D

 26 25  0     1  0  0  0  0  0999 V2000
   -3.0232   -3.6924    1.0038 H   0  0  0  0  0  0  0  0  0  0  0  0
   -3.0082   -2.6684    0.6318 C   0  0  0  0  0  0  0  0  0  0  0  0
   -3.6332   -2.0414    1.2658 H   0  0  0  0  0  0  0  0  0  0  0  0
   -3.3762   -2.6444   -0.3912 H   0  0  0  0  0  0  0  0  0  0  0  0
   -1.5882   -2.1554    0.6658 C   0  0  0  0  0  0  0  0  0  0  0  0
   -0.6832   -2.8764    1.0638 O   0  0  0  0  0  0  0  0  0  0  0  0
   -1.3952   -0.9084    0.2428 N   0  0  0  0  0  0  0  0  0  0  0  0
   -2.1972   -0.3644   -0.0422 H   0  0  0  0  0  0  0  0  0  0  0  0
   -0.1122   -0.1994    0.2658 C   0  0  1  0  0  0  0  0  0  0  0  0
   -0.3091    0.8723    0.3520 H   0  0  0  0  0  0  0  0  0  0  0  0
    0.6882   -0.6609    1.5041 C   0  0  0  0  0  0  0  0  0  0  0  0
    0.6954   -1.7498    1.5395 H   0  0  0  0  0  0  0  0  0  0  0  0
    1.7168   -0.3144    1.4165 H   0  0  0  0  0  0  0  0  0  0  0  0
    0.1123   -0.1809    2.8266 C   0  0  0  0  0  0  0  0  0  0  0  0
   -0.3138    0.9486    2.9936 O   0  0  0  0  0  0  0  0  0  0  0  0
    0.0874   -1.0282    3.8265 N   0  0  0  0  0  0  0  0  0  0  0  0
   -0.3146   -0.6887    4.6826 H   0  0  0  0  0  0  0  0  0  0  0  0
    0.4143   -1.9686    3.7094 H   0  0  0  0  0  0  0  0  0  0  0  0
    0.6474   -0.4426   -1.0570 C   0  0  0  0  0  0  0  0  0  0  0  0
    1.8438   -0.1642   -1.1383 O   0  0  0  0  0  0  0  0  0  0  0  0
   -0.0400   -0.9469   -2.0862 N   0  0  0  0  0  0  0  0  0  0  0  0
   -1.0384   -1.0760   -1.9564 H   0  0  0  0  0  0  0  0  0  0  0  0
    0.5328   -1.2461   -3.3974 C   0  0  0  0  0  0  0  0  0  0  0  0
    1.3723   -1.9352   -3.2836 H   0  0  0  0  0  0  0  0  0  0  0  0
   -0.2218   -1.7010   -4.0406 H   0  0  0  0  0  0  0  0  0  0  0  0
    0.8946   -0.3263   -3.8601 H   0  0  0  0  0  0  0  0  0  0  0  0
  5  6  2  0  0  0  0
  5  7  1  0  0  0  0
  2  3  1  0  0  0  0
  2  4  1  0  0  0  0
  2  5  1  0  0  0  0
  1  2  1  0  0  0  0
 19 20  2  0  0  0  0
 19 21  1  0  0  0  0
 16 17  1  0  0  0  0
 16 18  1  0  0  0  0
 14 15  2  0  0  0  0
 14 16  1  0  0  0  0
 11 12  1  0  0  0  0
 11 13  1  0  0  0  0
 11 14  1  0  0  0  0
  9 10  1  0  0  0  0
  9 11  1  0  0  0  0
  9 19  1  0  0  0  0
  7  8  1  0  0  0  0
  7  9  1  0  0  0  0
 23 24  1  0  0  0  0
 23 25  1  0  0  0  0
 23 26  1  0  0  0  0
 21 22  1  0  0  0  0
 21 23  1  0  0  0  0
M  END
$$$$
default_name
  -OEChem-01062215323D

 26 25  0     1  0  0  0  0  0999 V2000
   -3.0232   -3.6924    1.0038 H   0  0  0  0  0  0  0  0  0  0  0  0
   -3.0082   -2.6684    0.6318 C   0  0  0  0  0  0  0  0  0  0  0  0
   -3.6332   -2.0414    1.2658 H   0  0  0  0  0  0  0  0  0  0  0  0
   -3.3762   -2.6444   -0.3912 H   0  0  0  0  0  0  0  0  0  0  0  0
   -1.5882   -2.1554    0.6658 C   0  0  0  0  0  0  0  0  0  0  0  0
   -0.6832   -2.8764    1.0638 O   0  0  0  0  0  0  0  0  0  0  0  0
   -1.3952   -0.9084    0.2428 N   0  0  0  0  0  0  0  0  0  0  0  0
   -2.1972   -0.3644   -0.0422 H   0  0  0  0  0  0  0  0  0  0  0  0
   -0.1122   -0.1994    0.2658 C   0  0  1  0  0  0  0  0  0  0  0  0
   -0.3091    0.8723    0.3520 H   0  0  0  0  0  0  0  0  0  0  0  0
    0.6882   -0.6609    1.5041 C   0  0  0  0  0  0  0  0  0  0  0  0
    0.6954   -1.7498    1.5395 H   0  0  0  0  0  0  0  0  0  0  0  0
    1.7168   -0.3144    1.4165 H   0  0  0  0  0  0  0  0  0  0  0  0
    0.1123   -0.1809    2.8266 C   0  0  0  0  0  0  0  0  0  0  0  0
   -0.3138    0.9486    2.9936 O   0  0  0  0  0  0  0  0  0  0  0  0
    0.0874   -1.0282    3.8265 N   0  0  0  0  0  0  0  0  0  0  0  0
   -0.3146   -0.6887    4.6826 H   0  0  0  0  0  0  0  0  0  0  0  0
    0.4143   -1.9686    3.7094 H   0  0  0  0  0  0  0  0  0  0  0  0
    0.6474   -0.4426   -1.0570 C   0  0  0  0  0  0  0  0  0  0  0  0
    1.8783   -0.4318   -1.0693 O   0  0  0  0  0  0  0  0  0  0  0  0
   -0.0760   -0.6497   -2.1615 N   0  0  0  0  0  0  0  0  0  0  0  0
   -1.0840   -0.5665   -2.0763 H   0  0  0  0  0  0  0  0  0  0  0  0
    0.4887   -0.9065   -3.4851 C   0  0  0  0  0  0  0  0  0  0  0  0
    1.1494   -1.7750   -3.4411 H   0  0  0  0  0  0  0  0  0  0  0  0
   -0.3106   -1.0982   -4.2024 H   0  0  0  0  0  0  0  0  0  0  0  0
    1.0681   -0.0417   -3.8127 H   0  0  0  0  0  0  0  0  0  0  0  0
  5  6  2  0  0  0  0
  5  7  1  0  0  0  0
  2  3  1  0  0  0  0
  2  4  1  0  0  0  0
  2  5  1  0  0  0  0
  1  2  1  0  0  0  0
 19 20  2  0  0  0  0
 19 21  1  0  0  0  0
 16 17  1  0  0  0  0
 16 18  1  0  0  0  0
 14 15  2  0  0  0  0
 14 16  1  0  0  0  0
 11 12  1  0  0  0  0
 11 13  1  0  0  0  0
 11 14  1  0  0  0  0
  9 10  1  0  0  0  0
  9 11  1  0  0  0  0
  9 19  1  0  0  0  0
  7  8  1  0  0  0  0
  7  9  1  0  0  0  0
 23 24  1  0  0  0  0
 23 25  1  0  0  0  0
 23 26  1  0  0  0  0
 21 22  1  0  0  0  0
 21 23  1  0  0  0  0
M  END
$$$$
default_name
  -OEChem-01062215323D

 26 25  0     1  0  0  0  0  0999 V2000
   -3.0232   -3.6924    1.0038 H   0  0  0  0  0  0  0  0  0  0  0  0
   -3.0082   -2.6684    0.6318 C   0  0  0  0  0  0  0  0  0  0  0  0
   -3.6332   -2.0414    1.2658 H   0  0  0  0  0  0  0  0  0  0  0  0
   -3.3762   -2.6444   -0.3912 H   0  0  0  0  0  0  0  0  0  0  0  0
   -1.5882   -2.1554    0.6658 C   0  0  0  0  0  0  0  0  0  0  0  0
   -0.6832   -2.8764    1.0638 O   0  0  0  0  0  0  0  0  0  0  0  0
   -1.3952   -0.9084    0.2428 N   0  0  0  0  0  0  0  0  0  0  0  0
   -2.1972   -0.3644   -0.0422 H   0  0  0  0  0  0  0  0  0  0  0  0
   -0.1122   -0.1994    0.2658 C   0  0  1  0  0  0  0  0  0  0  0  0
   -0.3091    0.8723    0.3520 H   0  0  0  0  0  0  0  0  0  0  0  0
    0.6882   -0.6609    1.5041 C   0  0  0  0  0  0  0  0  0  0  0  0
    0.6954   -1.7498    1.5395 H   0  0  0  0  0  0  0  0  0  0  0  0
    1.7168   -0.3144    1.4165 H   0  0  0  0  0  0  0  0  0  0  0  0
    0.1123   -0.1809    2.8266 C   0  0  0  0  0  0  0  0  0  0  0  0
   -0.3138    0.9486    2.9936 O   0  0  0  0  0  0  0  0  0  0  0  0
    0.0874   -1.0282    3.8265 N   0  0  0  0  0  0  0  0  0  0  0  0
   -0.3146   -0.6887    4.6826 H   0  0  0  0  0  0  0  0  0  0  0  0
    0.4143   -1.9686    3.7094 H   0  0  0  0  0  0  0  0  0  0  0  0
    0.6474   -0.4426   -1.0570 C   0  0  0  0  0  0  0  0  0  0  0  0
    1.8496   -0.7067   -1.0352 O   0  0  0  0  0  0  0  0  0  0  0  0
   -0.0418   -0.3451   -2.1979 N   0  0  0  0  0  0  0  0  0  0  0  0
   -1.0103   -0.0490   -2.1291 H   0  0  0  0  0  0  0  0  0  0  0  0
    0.5250   -0.5576   -3.5284 C   0  0  0  0  0  0  0  0  0  0  0  0
    0.9760   -1.5509   -3.5819 H   0  0  0  0  0  0  0  0  0  0  0  0
   -0.2561   -0.4757   -4.2855 H   0  0  0  0  0  0  0  0  0  0  0  0
    1.2969    0.1887   -3.7237 H   0  0  0  0  0  0  0  0  0  0  0  0
  5  6  2  0  0  0  0
  5  7  1  0  0  0  0
  2  3  1  0  0  0  0
  2  4  1  0  0  0  0
  2  5  1  0  0  0  0
  1  2  1  0  0  0  0
 19 20  2  0  0  0  0
 19 21  1  0  0  0  0
 16 17  1  0  0  0  0
 16 18  1  0  0  0  0
 14 15  2  0  0  0  0
 14 16  1  0  0  0  0
 11 12  1  0  0  0  0
 11 13  1  0  0  0  0
 11 14  1  0  0  0  0
  9 10  1  0  0  0  0
  9 11  1  0  0  0  0
  9 19  1  0  0  0  0
  7  8  1  0  0  0  0
  7  9  1  0  0  0  0
 23 24  1  0  0  0  0
 23 25  1  0  0  0  0
 23 26  1  0  0  0  0
 21 22  1  0  0  0  0
 21 23  1  0  0  0  0
M  END
$$$$
default_name
  -OEChem-01062215323D

 26 25  0     1  0  0  0  0  0999 V2000
   -3.0232   -3.6924    1.0038 H   0  0  0  0  0  0  0  0  0  0  0  0
   -3.0082   -2.6684    0.6318 C   0  0  0  0  0  0  0  0  0  0  0  0
   -3.6332   -2.0414    1.2658 H   0  0  0  0  0  0  0  0  0  0  0  0
   -3.3762   -2.6444   -0.3912 H   0  0  0  0  0  0  0  0  0  0  0  0
   -1.5882   -2.1554    0.6658 C   0  0  0  0  0  0  0  0  0  0  0  0
   -0.6832   -2.8764    1.0638 O   0  0  0  0  0  0  0  0  0  0  0  0
   -1.3952   -0.9084    0.2428 N   0  0  0  0  0  0  0  0  0  0  0  0
   -2.1972   -0.3644   -0.0422 H   0  0  0  0  0  0  0  0  0  0  0  0
   -0.1122   -0.1994    0.2658 C   0  0  1  0  0  0  0  0  0  0  0  0
   -0.3091    0.8723    0.3520 H   0  0  0  0  0  0  0  0  0  0  0  0
    0.6882   -0.6609    1.5041 C   0  0  0  0  0  0  0  0  0  0  0  0
    0.6954   -1.7498    1.5395 H   0  0  0  0  0  0  0  0  0  0  0  0
    1.7168   -0.3144    1.4165 H   0  0  0  0  0  0  0  0  0  0  0  0
    0.1123   -0.1809    2.8266 C   0  0  0  0  0  0  0  0  0  0  0  0
   -0.3138    0.9486    2.9936 O   0  0  0  0  0  0  0  0  0  0  0  0
    0.0874   -1.0282    3.8265 N   0  0  0  0  0  0  0  0  0  0  0  0
   -0.3146   -0.6887    4.6826 H   0  0  0  0  0  0  0  0  0  0  0  0
    0.4143   -1.9686    3.7094 H   0  0  0  0  0  0  0  0  0  0  0  0
    0.6474   -0.4426   -1.0570 C   0  0  0  0  0  0  0  0  0  0  0  0
    1.7595   -0.9703   -1.0385 O   0  0  0  0  0  0  0  0  0  0  0  0
    0.0602   -0.0538   -2.1929 N   0  0  0  0  0  0  0  0  0  0  0  0
   -0.8222    0.4412   -2.1112 H   0  0  0  0  0  0  0  0  0  0  0  0
    0.6392   -0.2232   -3.5244 C   0  0  0  0  0  0  0  0  0  0  0  0
    0.8639   -1.2780   -3.6964 H   0  0  0  0  0  0  0  0  0  0  0  0
   -0.0621    0.1241   -4.2844 H   0  0  0  0  0  0  0  0  0  0  0  0
    1.5653    0.3492   -3.5991 H   0  0  0  0  0  0  0  0  0  0  0  0
  5  6  2  0  0  0  0
  5  7  1  0  0  0  0
  2  3  1  0  0  0  0
  2  4  1  0  0  0  0
  2  5  1  0  0  0  0
  1  2  1  0  0  0  0
 19 20  2  0  0  0  0
 19 21  1  0  0  0  0
 16 17  1  0  0  0  0
 16 18  1  0  0  0  0
 14 15  2  0  0  0  0
 14 16  1  0  0  0  0
 11 12  1  0  0  0  0
 11 13  1  0  0  0  0
 11 14  1  0  0  0  0
  9 10  1  0  0  0  0
  9 11  1  0  0  0  0
  9 19  1  0  0  0  0
  7  8  1  0  0  0  0
  7  9  1  0  0  0  0
 23 24  1  0  0  0  0
 23 25  1  0  0  0  0
 23 26  1  0  0  0  0
 21 22  1  0  0  0  0
 21 23  1  0  0  0  0
M  END
$$$$
default_name
  -OEChem-01062215323D

 26 25  0     1  0  0  0  0  0999 V2000
   -3.0232   -3.6924    1.0038 H   0  0  0  0  0  0  0  0  0  0  0  0
   -3.0082   -2.6684    0.6318 C   0  0  0  0  0  0  0  0  0  0  0  0
   -3.6332   -2.0414    1.2658 H   0  0  0  0  0  0  0  0  0  0  0  0
   -3.3762   -2.6444   -0.3912 H   0  0  0  0  0  0  0  0  0  0  0  0
   -1.5882   -2.1554    0.6658 C   0  0  0  0  0  0  0  0  0  0  0  0
   -0.6832   -2.8764    1.0638 O   0  0  0  0  0  0  0  0  0  0  0  0
   -1.3952   -0.9084    0.2428 N   0  0  0  0  0  0  0  0  0  0  0  0
   -2.1972   -0.3644   -0.0422 H   0  0  0  0  0  0  0  0  0  0  0  0
   -0.1122   -0.1994    0.2658 C   0  0  1  0  0  0  0  0  0  0  0  0
   -0.3091    0.8723    0.3520 H   0  0  0  0  0  0  0  0  0  0  0  0
    0.6882   -0.6609    1.5041 C   0  0  0  0  0  0  0  0  0  0  0  0
    0.6954   -1.7498    1.5395 H   0  0  0  0  0  0  0  0  0  0  0  0
    1.7168   -0.3144    1.4165 H   0  0  0  0  0  0  0  0  0  0  0  0
    0.1123   -0.1809    2.8266 C   0  0  0  0  0  0  0  0  0  0  0  0
   -0.3138    0.9486    2.9936 O   0  0  0  0  0  0  0  0  0  0  0  0
    0.0874   -1.0282    3.8265 N   0  0  0  0  0  0  0  0  0  0  0  0
   -0.3146   -0.6887    4.6826 H   0  0  0  0  0  0  0  0  0  0  0  0
    0.4143   -1.9686    3.7094 H   0  0  0  0  0  0  0  0  0  0  0  0
    0.6474   -0.4426   -1.0570 C   0  0  0  0  0  0  0  0  0  0  0  0
    1.6142   -1.2044   -1.0789 O   0  0  0  0  0  0  0  0  0  0  0  0
    0.2231    0.2044   -2.1468 N   0  0  0  0  0  0  0  0  0  0  0  0
   -0.5326    0.8708   -2.0239 H   0  0  0  0  0  0  0  0  0  0  0  0
    0.8234    0.0741   -3.4732 C   0  0  0  0  0  0  0  0  0  0  0  0
    0.8208   -0.9750   -3.7769 H   0  0  0  0  0  0  0  0  0  0  0  0
    0.2582    0.6604   -4.1991 H   0  0  0  0  0  0  0  0  0  0  0  0
    1.8551    0.4289   -3.4473 H   0  0  0  0  0  0  0  0  0  0  0  0
  5  6  2  0  0  0  0
  5  7  1  0  0  0  0
  2  3  1  0  0  0  0
  2  4  1  0  0  0  0
  2  5  1  0  0  0  0
  1  2  1  0  0  0  0
 19 20  2  0  0  0  0
 19 21  1  0  0  0  0
 16 17  1  0  0  0  0
 16 18  1  0  0  0  0
 14 15  2  0  0  0  0
 14 16  1  0  0  0  0
 11 12  1  0  0  0  0
 11 13  1  0  0  0  0
 11 14  1  0  0  0  0
  9 10  1  0  0  0  0
  9 11  1  0  0  0  0
  9 19  1  0  0  0  0
  7  8  1  0  0  0  0
  7  9  1  0  0  0  0
 23 24  1  0  0  0  0
 23 25  1  0  0  0  0
 23 26  1  0  0  0  0
 21 22  1  0  0  0  0
 21 23  1  0  0  0  0
M  END
$$$$
default_name
  -OEChem-01062215323D

 26 25  0     1  0  0  0  0  0999 V2000
   -3.0232   -3.6924    1.0038 H   0  0  0  0  0  0  0  0  0  0  0  0
   -3.0082   -2.6684    0.6318 C   0  0  0  0  0  0  0  0  0  0  0  0
   -3.6332   -2.0414    1.2658 H   0  0  0  0  0  0  0  0  0  0  0  0
   -3.3762   -2.6444   -0.3912 H   0  0  0  0  0  0  0  0  0  0  0  0
   -1.5882   -2.1554    0.6658 C   0  0  0  0  0  0  0  0  0  0  0  0
   -0.6832   -2.8764    1.0638 O   0  0  0  0  0  0  0  0  0  0  0  0
   -1.3952   -0.9084    0.2428 N   0  0  0  0  0  0  0  0  0  0  0  0
   -2.1972   -0.3644   -0.0422 H   0  0  0  0  0  0  0  0  0  0  0  0
   -0.1122   -0.1994    0.2658 C   0  0  1  0  0  0  0  0  0  0  0  0
   -0.3091    0.8723    0.3520 H   0  0  0  0  0  0  0  0  0  0  0  0
    0.6882   -0.6609    1.5041 C   0  0  0  0  0  0  0  0  0  0  0  0
    0.6954   -1.7498    1.5395 H   0  0  0  0  0  0  0  0  0  0  0  0
    1.7168   -0.3144    1.4165 H   0  0  0  0  0  0  0  0  0  0  0  0
    0.1123   -0.1809    2.8266 C   0  0  0  0  0  0  0  0  0  0  0  0
   -0.3138    0.9486    2.9936 O   0  0  0  0  0  0  0  0  0  0  0  0
    0.0874   -1.0282    3.8265 N   0  0  0  0  0  0  0  0  0  0  0  0
   -0.3146   -0.6887    4.6826 H   0  0  0  0  0  0  0  0  0  0  0  0
    0.4143   -1.9686    3.7094 H   0  0  0  0  0  0  0  0  0  0  0  0
    0.6474   -0.4426   -1.0570 C   0  0  0  0  0  0  0  0  0  0  0  0
    1.4235   -1.3932   -1.1536 O   0  0  0  0  0  0  0  0  0  0  0  0
    0.4358    0.4117   -2.0628 N   0  0  0  0  0  0  0  0  0  0  0  0
   -0.1611    1.2104   -1.8731 H   0  0  0  0  0  0  0  0  0  0  0  0
    1.0652    0.3139   -3.3785 C   0  0  0  0  0  0  0  0  0  0  0  0
    0.8496   -0.6625   -3.8178 H   0  0  0  0  0  0  0  0  0  0  0  0
    0.6830    1.0965   -4.0354 H   0  0  0  0  0  0  0  0  0  0  0  0
    2.1465    0.4223   -3.2788 H   0  0  0  0  0  0  0  0  0  0  0  0
  5  6  2  0  0  0  0
  5  7  1  0  0  0  0
  2  3  1  0  0  0  0
  2  4  1  0  0  0  0
  2  5  1  0  0  0  0
  1  2  1  0  0  0  0
 19 20  2  0  0  0  0
 19 21  1  0  0  0  0
 16 17  1  0  0  0  0
 16 18  1  0  0  0  0
 14 15  2  0  0  0  0
 14 16  1  0  0  0  0
 11 12  1  0  0  0  0
 11 13  1  0  0  0  0
 11 14  1  0  0  0  0
  9 10  1  0  0  0  0
  9 11  1  0  0  0  0
  9 19  1  0  0  0  0
  7  8  1  0  0  0  0
  7  9  1  0  0  0  0
 23 24  1  0  0  0  0
 23 25  1  0  0  0  0
 23 26  1  0  0  0  0
 21 22  1  0  0  0  0
 21 23  1  0  0  0  0
M  END
$$$$
default_name
  -OEChem-01062215323D

 26 25  0     1  0  0  0  0  0999 V2000
   -3.0232   -3.6924    1.0038 H   0  0  0  0  0  0  0  0  0  0  0  0
   -3.0082   -2.6684    0.6318 C   0  0  0  0  0  0  0  0  0  0  0  0
   -3.6332   -2.0414    1.2658 H   0  0  0  0  0  0  0  0  0  0  0  0
   -3.3762   -2.6444   -0.3912 H   0  0  0  0  0  0  0  0  0  0  0  0
   -1.5882   -2.1554    0.6658 C   0  0  0  0  0  0  0  0  0  0  0  0
   -0.6832   -2.8764    1.0638 O   0  0  0  0  0  0  0  0  0  0  0  0
   -1.3952   -0.9084    0.2428 N   0  0  0  0  0  0  0  0  0  0  0  0
   -2.1972   -0.3644   -0.0422 H   0  0  0  0  0  0  0  0  0  0  0  0
   -0.1122   -0.1994    0.2658 C   0  0  1  0  0  0  0  0  0  0  0  0
   -0.3091    0.8723    0.3520 H   0  0  0  0  0  0  0  0  0  0  0  0
    0.6882   -0.6609    1.5041 C   0  0  0  0  0  0  0  0  0  0  0  0
    0.6954   -1.7498    1.5395 H   0  0  0  0  0  0  0  0  0  0  0  0
    1.7168   -0.3144    1.4165 H   0  0  0  0  0  0  0  0  0  0  0  0
    0.1123   -0.1809    2.8266 C   0  0  0  0  0  0  0  0  0  0  0  0
   -0.3138    0.9486    2.9936 O   0  0  0  0  0  0  0  0  0  0  0  0
    0.0874   -1.0282    3.8265 N   0  0  0  0  0  0  0  0  0  0  0  0
   -0.3146   -0.6887    4.6826 H   0  0  0  0  0  0  0  0  0  0  0  0
    0.4143   -1.9686    3.7094 H   0  0  0  0  0  0  0  0  0  0  0  0
    0.6474   -0.4426   -1.0570 C   0  0  0  0  0  0  0  0  0  0  0  0
    1.2006   -1.5239   -1.2576 O   0  0  0  0  0  0  0  0  0  0  0  0
    0.6838    0.5542   -1.9466 N   0  0  0  0  0  0  0  0  0  0  0  0
    0.2667    1.4370   -1.6690 H   0  0  0  0  0  0  0  0  0  0  0  0
    1.3480    0.4799   -3.2466 C   0  0  0  0  0  0  0  0  0  0  0  0
    0.9483   -0.3618   -3.8164 H   0  0  0  0  0  0  0  0  0  0  0  0
    1.1833    1.4028   -3.8044 H   0  0  0  0  0  0  0  0  0  0  0  0
    2.4196    0.3299   -3.1050 H   0  0  0  0  0  0  0  0  0  0  0  0
  5  6  2  0  0  0  0
  5  7  1  0  0  0  0
  2  3  1  0  0  0  0
  2  4  1  0  0  0  0
  2  5  1  0  0  0  0
  1  2  1  0  0  0  0
 19 20  2  0  0  0  0
 19 21  1  0  0  0  0
 16 17  1  0  0  0  0
 16 18  1  0  0  0  0
 14 15  2  0  0  0  0
 14 16  1  0  0  0  0
 11 12  1  0  0  0  0
 11 13  1  0  0  0  0
 11 14  1  0  0  0  0
  9 10  1  0  0  0  0
  9 11  1  0  0  0  0
  9 19  1  0  0  0  0
  7  8  1  0  0  0  0
  7  9  1  0  0  0  0
 23 24  1  0  0  0  0
 23 25  1  0  0  0  0
 23 26  1  0  0  0  0
 21 22  1  0  0  0  0
 21 23  1  0  0  0  0
M  END
$$$$
default_name
  -OEChem-01062215323D

 26 25  0     1  0  0  0  0  0999 V2000
   -3.0232   -3.6924    1.0038 H   0  0  0  0  0  0  0  0  0  0  0  0
   -3.0082   -2.6684    0.6318 C   0  0  0  0  0  0  0  0  0  0  0  0
   -3.6332   -2.0414    1.2658 H   0  0  0  0  0  0  0  0  0  0  0  0
   -3.3762   -2.6444   -0.3912 H   0  0  0  0  0  0  0  0  0  0  0  0
   -1.5882   -2.1554    0.6658 C   0  0  0  0  0  0  0  0  0  0  0  0
   -0.6832   -2.8764    1.0638 O   0  0  0  0  0  0  0  0  0  0  0  0
   -1.3952   -0.9084    0.2428 N   0  0  0  0  0  0  0  0  0  0  0  0
   -2.1972   -0.3644   -0.0422 H   0  0  0  0  0  0  0  0  0  0  0  0
   -0.1122   -0.1994    0.2658 C   0  0  1  0  0  0  0  0  0  0  0  0
   -0.3091    0.8723    0.3520 H   0  0  0  0  0  0  0  0  0  0  0  0
    0.6882   -0.6609    1.5041 C   0  0  0  0  0  0  0  0  0  0  0  0
    0.6954   -1.7498    1.5395 H   0  0  0  0  0  0  0  0  0  0  0  0
    1.7168   -0.3144    1.4165 H   0  0  0  0  0  0  0  0  0  0  0  0
    0.1123   -0.1809    2.8266 C   0  0  0  0  0  0  0  0  0  0  0  0
   -0.3138    0.9486    2.9936 O   0  0  0  0  0  0  0  0  0  0  0  0
    0.0874   -1.0282    3.8265 N   0  0  0  0  0  0  0  0  0  0  0  0
   -0.3146   -0.6887    4.6826 H   0  0  0  0  0  0  0  0  0  0  0  0
    0.4143   -1.9686    3.7094 H   0  0  0  0  0  0  0  0  0  0  0  0
    0.6474   -0.4426   -1.0570 C   0  0  0  0  0  0  0  0  0  0  0  0
    0.9606   -1.5874   -1.3838 O   0  0  0  0  0  0  0  0  0  0  0  0
    0.9502    0.6220   -1.8061 N   0  0  0  0  0  0  0  0  0  0  0  0
    0.7219    1.5350   -1.4257 H   0  0  0  0  0  0  0  0  0  0  0  0
    1.6526    0.5607   -3.0866 C   0  0  0  0  0  0  0  0  0  0  0  0
    1.1103   -0.0935   -3.7727 H   0  0  0  0  0  0  0  0  0  0  0  0
    1.7250    1.5583   -3.5219 H   0  0  0  0  0  0  0  0  0  0  0  0
    2.6559    0.1580   -2.9377 H   0  0  0  0  0  0  0  0  0  0  0  0
  5  6  2  0  0  0  0
  5  7  1  0  0  0  0
  2  3  1  0  0  0  0
  2  4  1  0  0  0  0
  2  5  1  0  0  0  0
  1  2  1  0  0  0  0
 19 20  2  0  0  0  0
 19 21  1  0  0  0  0
 16 17  1  0  0  0  0
 16 18  1  0  0  0  0
 14 15  2  0  0  0  0
 14 16  1  0  0  0  0
 11 12  1  0  0  0  0
 11 13  1  0  0  0  0
 11 14  1  0  0  0  0
  9 10  1  0  0  0  0
  9 11  1  0  0  0  0
  9 19  1  0  0  0  0
  7  8  1  0  0  0  0
  7  9  1  0  0  0  0
 23 24  1  0  0  0  0
 23 25  1  0  0  0  0
 23 26  1  0  0  0  0
 21 22  1  0  0  0  0
 21 23  1  0  0  0  0
M  END
$$$$
default_name
  -OEChem-01062215323D

 26 25  0     1  0  0  0  0  0999 V2000
   -3.0232   -3.6924    1.0038 H   0  0  0  0  0  0  0  0  0  0  0  0
   -3.0082   -2.6684    0.6318 C   0  0  0  0  0  0  0  0  0  0  0  0
   -3.6332   -2.0414    1.2658 H   0  0  0  0  0  0  0  0  0  0  0  0
   -3.3762   -2.6444   -0.3912 H   0  0  0  0  0  0  0  0  0  0  0  0
   -1.5882   -2.1554    0.6658 C   0  0  0  0  0  0  0  0  0  0  0  0
   -0.6832   -2.8764    1.0638 O   0  0  0  0  0  0  0  0  0  0  0  0
   -1.3952   -0.9084    0.2428 N   0  0  0  0  0  0  0  0  0  0  0  0
   -2.1972   -0.3644   -0.0422 H   0  0  0  0  0  0  0  0  0  0  0  0
   -0.1122   -0.1994    0.2658 C   0  0  1  0  0  0  0  0  0  0  0  0
   -0.3091    0.8723    0.3520 H   0  0  0  0  0  0  0  0  0  0  0  0
    0.6882   -0.6609    1.5041 C   0  0  0  0  0  0  0  0  0  0  0  0
    0.6954   -1.7498    1.5395 H   0  0  0  0  0  0  0  0  0  0  0  0
    1.7168   -0.3144    1.4165 H   0  0  0  0  0  0  0  0  0  0  0  0
    0.1123   -0.1809    2.8266 C   0  0  0  0  0  0  0  0  0  0  0  0
   -0.3138    0.9486    2.9936 O   0  0  0  0  0  0  0  0  0  0  0  0
    0.0874   -1.0282    3.8265 N   0  0  0  0  0  0  0  0  0  0  0  0
   -0.3146   -0.6887    4.6826 H   0  0  0  0  0  0  0  0  0  0  0  0
    0.4143   -1.9686    3.7094 H   0  0  0  0  0  0  0  0  0  0  0  0
    0.6474   -0.4426   -1.0570 C   0  0  0  0  0  0  0  0  0  0  0  0
    0.7198   -1.5795   -1.5235 O   0  0  0  0  0  0  0  0  0  0  0  0
    1.2168    0.6106   -1.6509 N   0  0  0  0  0  0  0  0  0  0  0  0
    1.1734    1.4978   -1.1596 H   0  0  0  0  0  0  0  0  0  0  0  0
    1.9582    0.5509   -2.9093 C   0  0  0  0  0  0  0  0  0  0  0  0
    1.3244    0.1243   -3.6898 H   0  0  0  0  0  0  0  0  0  0  0  0
    2.2712    1.5526   -3.2072 H   0  0  0  0  0  0  0  0  0  0  0  0
    2.8392   -0.0817   -2.7884 H   0  0  0  0  0  0  0  0  0  0  0  0
  5  6  2  0  0  0  0
  5  7  1  0  0  0  0
  2  3  1  0  0  0  0
  2  4  1  0  0  0  0
  2  5  1  0  0  0  0
  1  2  1  0  0  0  0
 19 20  2  0  0  0  0
 19 21  1  0  0  0  0
 16 17  1  0  0  0  0
 16 18  1  0  0  0  0
 14 15  2  0  0  0  0
 14 16  1  0  0  0  0
 11 12  1  0  0  0  0
 11 13  1  0  0  0  0
 11 14  1  0  0  0  0
  9 10  1  0  0  0  0
  9 11  1  0  0  0  0
  9 19  1  0  0  0  0
  7  8  1  0  0  0  0
  7  9  1  0  0  0  0
 23 24  1  0  0  0  0
 23 25  1  0  0  0  0
 23 26  1  0  0  0  0
 21 22  1  0  0  0  0
 21 23  1  0  0  0  0
M  END
$$$$
default_name
  -OEChem-01062215323D

 26 25  0     1  0  0  0  0  0999 V2000
   -3.0232   -3.6924    1.0038 H   0  0  0  0  0  0  0  0  0  0  0  0
   -3.0082   -2.6684    0.6318 C   0  0  0  0  0  0  0  0  0  0  0  0
   -3.6332   -2.0414    1.2658 H   0  0  0  0  0  0  0  0  0  0  0  0
   -3.3762   -2.6444   -0.3912 H   0  0  0  0  0  0  0  0  0  0  0  0
   -1.5882   -2.1554    0.6658 C   0  0  0  0  0  0  0  0  0  0  0  0
   -0.6832   -2.8764    1.0638 O   0  0  0  0  0  0  0  0  0  0  0  0
   -1.3952   -0.9084    0.2428 N   0  0  0  0  0  0  0  0  0  0  0  0
   -2.1972   -0.3644   -0.0422 H   0  0  0  0  0  0  0  0  0  0  0  0
   -0.1122   -0.1994    0.2658 C   0  0  1  0  0  0  0  0  0  0  0  0
   -0.3091    0.8723    0.3520 H   0  0  0  0  0  0  0  0  0  0  0  0
    0.6882   -0.6609    1.5041 C   0  0  0  0  0  0  0  0  0  0  0  0
    0.6954   -1.7498    1.5395 H   0  0  0  0  0  0  0  0  0  0  0  0
    1.7168   -0.3144    1.4165 H   0  0  0  0  0  0  0  0  0  0  0  0
    0.1123   -0.1809    2.8266 C   0  0  0  0  0  0  0  0  0  0  0  0
   -0.3138    0.9486    2.9936 O   0  0  0  0  0  0  0  0  0  0  0  0
    0.0874   -1.0282    3.8265 N   0  0  0  0  0  0  0  0  0  0  0  0
   -0.3146   -0.6887    4.6826 H   0  0  0  0  0  0  0  0  0  0  0  0
    0.4143   -1.9686    3.7094 H   0  0  0  0  0  0  0  0  0  0  0  0
    0.6474   -0.4426   -1.0570 C   0  0  0  0  0  0  0  0  0  0  0  0
    0.4946   -1.5007   -1.6673 O   0  0  0  0  0  0  0  0  0  0  0  0
    1.4655    0.5208   -1.4916 N   0  0  0  0  0  0  0  0  0  0  0  0
    1.5905    1.3279   -0.8888 H   0  0  0  0  0  0  0  0  0  0  0  0
    2.2440    0.4512   -2.7268 C   0  0  0  0  0  0  0  0  0  0  0  0
    1.5762    0.2766   -3.5732 H   0  0  0  0  0  0  0  0  0  0  0  0
    2.7847    1.3859   -2.8817 H   0  0  0  0  0  0  0  0  0  0  0  0
    2.9570   -0.3728   -2.6672 H   0  0  0  0  0  0  0  0  0  0  0  0
  5  6  2  0  0  0  0
  5  7  1  0  0  0  0
  2  3  1  0  0  0  0
  2  4  1  0  0  0  0
  2  5  1  0  0  0  0
  1  2  1  0  0  0  0
 19 20  2  0  0  0  0
 19 21  1  0  0  0  0
 16 17  1  0  0  0  0
 16 18  1  0  0  0  0
 14 15  2  0  0  0  0
 14 16  1  0  0  0  0
 11 12  1  0  0  0  0
 11 13  1  0  0  0  0
 11 14  1  0  0  0  0
  9 10  1  0  0  0  0
  9 11  1  0  0  0  0
  9 19  1  0  0  0  0
  7  8  1  0  0  0  0
  7  9  1  0  0  0  0
 23 24  1  0  0  0  0
 23 25  1  0  0  0  0
 23 26  1  0  0  0  0
 21 22  1  0  0  0  0
 21 23  1  0  0  0  0
M  END
$$$$
default_name
  -OEChem-01062215323D

 26 25  0     1  0  0  0  0  0999 V2000
   -3.0232   -3.6924    1.0038 H   0  0  0  0  0  0  0  0  0  0  0  0
   -3.0082   -2.6684    0.6318 C   0  0  0  0  0  0  0  0  0  0  0  0
   -3.6332   -2.0414    1.2658 H   0  0  0  0  0  0  0  0  0  0  0  0
   -3.3762   -2.6444   -0.3912 H   0  0  0  0  0  0  0  0  0  0  0  0
   -1.5882   -2.1554    0.6658 C   0  0  0  0  0  0  0  0  0  0  0  0
   -0.6832   -2.8764    1.0638 O   0  0  0  0  0  0  0  0  0  0  0  0
   -1.3952   -0.9084    0.2428 N   0  0  0  0  0  0  0  0  0  0  0  0
   -2.1972   -0.3644   -0.0422 H   0  0  0  0  0  0  0  0  0  0  0  0
   -0.1122   -0.1994    0.2658 C   0  0  1  0  0  0  0  0  0  0  0  0
   -0.3091    0.8723    0.3520 H   0  0  0  0  0  0  0  0  0  0  0  0
    0.6882   -0.6609    1.5041 C   0  0  0  0  0  0  0  0  0  0  0  0
    0.6954   -1.7498    1.5395 H   0  0  0  0  0  0  0  0  0  0  0  0
    1.7168   -0.3144    1.4165 H   0  0  0  0  0  0  0  0  0  0  0  0
    0.1123   -0.1809    2.8266 C   0  0  0  0  0  0  0  0  0  0  0  0
   -0.3138    0.9486    2.9936 O   0  0  0  0  0  0  0  0  0  0  0  0
    0.0874   -1.0282    3.8265 N   0  0  0  0  0  0  0  0  0  0  0  0
   -0.3146   -0.6887    4.6826 H   0  0  0  0  0  0  0  0  0  0  0  0
    0.4143   -1.9686    3.7094 H   0  0  0  0  0  0  0  0  0  0  0  0
    0.6474   -0.4426   -1.0570 C   0  0  0  0  0  0  0  0  0  0  0  0
    0.3005   -1.3564   -1.8053 O   0  0  0  0  0  0  0  0  0  0  0  0
    1.6793    0.3586   -1.3390 N   0  0  0  0  0  0  0  0  0  0  0  0
    1.9446    1.0369   -0.6320 H   0  0  0  0  0  0  0  0  0  0  0  0
    2.4905    0.2682   -2.5517 C   0  0  0  0  0  0  0  0  0  0  0  0
    1.8483    0.3531   -3.4310 H   0  0  0  0  0  0  0  0  0  0  0  0
    3.2304    1.0696   -2.5676 H   0  0  0  0  0  0  0  0  0  0  0  0
    3.0013   -0.6956   -2.5824 H   0  0  0  0  0  0  0  0  0  0  0  0
  5  6  2  0  0  0  0
  5  7  1  0  0  0  0
  2  3  1  0  0  0  0
  2  4  1  0  0  0  0
  2  5  1  0  0  0  0
  1  2  1  0  0  0  0
 19 20  2  0  0  0  0
 19 21  1  0  0  0  0
 16 17  1  0  0  0  0
 16 18  1  0  0  0  0
 14 15  2  0  0  0  0
 14 16  1  0  0  0  0
 11 12  1  0  0  0  0
 11 13  1  0  0  0  0
 11 14  1  0  0  0  0
  9 10  1  0  0  0  0
  9 11  1  0  0  0  0
  9 19  1  0  0  0  0
  7  8  1  0  0  0  0
  7  9  1  0  0  0  0
 23 24  1  0  0  0  0
 23 25  1  0  0  0  0
 23 26  1  0  0  0  0
 21 22  1  0  0  0  0
 21 23  1  0  0  0  0
M  END
$$$$
default_name
  -OEChem-01062215323D

 26 25  0     1  0  0  0  0  0999 V2000
   -3.0232   -3.6924    1.0038 H   0  0  0  0  0  0  0  0  0  0  0  0
   -3.0082   -2.6684    0.6318 C   0  0  0  0  0  0  0  0  0  0  0  0
   -3.6332   -2.0414    1.2658 H   0  0  0  0  0  0  0  0  0  0  0  0
   -3.3762   -2.6444   -0.3912 H   0  0  0  0  0  0  0  0  0  0  0  0
   -1.5882   -2.1554    0.6658 C   0  0  0  0  0  0  0  0  0  0  0  0
   -0.6832   -2.8764    1.0638 O   0  0  0  0  0  0  0  0  0  0  0  0
   -1.3952   -0.9084    0.2428 N   0  0  0  0  0  0  0  0  0  0  0  0
   -2.1972   -0.3644   -0.0422 H   0  0  0  0  0  0  0  0  0  0  0  0
   -0.1122   -0.1994    0.2658 C   0  0  1  0  0  0  0  0  0  0  0  0
   -0.2856    0.8212    0.6167 H   0  0  0  0  0  0  0  0  0  0  0  0
    0.8326   -0.9142    1.2575 C   0  0  0  0  0  0  0  0  0  0  0  0
    0.8329   -1.9825    1.0439 H   0  0  0  0  0  0  0  0  0  0  0  0
    1.8456   -0.5379    1.1232 H   0  0  0  0  0  0  0  0  0  0  0  0
    0.4324   -0.7566    2.7156 C   0  0  0  0  0  0  0  0  0  0  0  0
    0.0424    0.2978    3.1862 O   0  0  0  0  0  0  0  0  0  0  0  0
    0.5246   -1.8084    3.4924 N   0  0  0  0  0  0  0  0  0  0  0  0
    0.2369   -1.6790    4.4464 H   0  0  0  0  0  0  0  0  0  0  0  0
    0.8244   -2.6918    3.1252 H   0  0  0  0  0  0  0  0  0  0  0  0
    0.4726   -0.1229   -1.1618 C   0  0  0  0  0  0  0  0  0  0  0  0
   -0.1371   -0.6302   -2.1032 O   0  0  0  0  0  0  0  0  0  0  0  0
    1.6469    0.4950   -1.3215 N   0  0  0  0  0  0  0  0  0  0  0  0
    2.1174    0.8177   -0.4820 H   0  0  0  0  0  0  0  0  0  0  0  0
    2.3265    0.6628   -2.6048 C   0  0  0  0  0  0  0  0  0  0  0  0
    1.6657    1.1761   -3.3067 H   0  0  0  0  0  0  0  0  0  0  0  0
    3.2366    1.2494   -2.4725 H   0  0  0  0  0  0  0  0  0  0  0  0
    2.5835   -0.3147   -3.0163 H   0  0  0  0  0  0  0  0  0  0  0  0
  5  6  2  0  0  0  0
  5  7  1  0  0  0  0
  2  3  1  0  0  0  0
  2  4  1  0  0  0  0
  2  5  1  0  0  0  0
  1  2  1  0  0  0  0
 19 20  2  0  0  0  0
 19 21  1  0  0  0  0
 16 17  1  0  0  0  0
 16 18  1  0  0  0  0
 14 15  2  0  0  0  0
 14 16  1  0  0  0  0
 11 12  1  0  0  0  0
 11 13  1  0  0  0  0
 11 14  1  0  0  0  0
  9 10  1  0  0  0  0
  9 11  1  0  0  0  0
  9 19  1  0  0  0  0
  7  8  1  0  0  0  0
  7  9  1  0  0  0  0
 23 24  1  0  0  0  0
 23 25  1  0  0  0  0
 23 26  1  0  0  0  0
 21 22  1  0  0  0  0
 21 23  1  0  0  0  0
M  END
$$$$
default_name
  -OEChem-01062215323D

 26 25  0     1  0  0  0  0  0999 V2000
   -3.0232   -3.6924    1.0038 H   0  0  0  0  0  0  0  0  0  0  0  0
   -3.0082   -2.6684    0.6318 C   0  0  0  0  0  0  0  0  0  0  0  0
   -3.6332   -2.0414    1.2658 H   0  0  0  0  0  0  0  0  0  0  0  0
   -3.3762   -2.6444   -0.3912 H   0  0  0  0  0  0  0  0  0  0  0  0
   -1.5882   -2.1554    0.6658 C   0  0  0  0  0  0  0  0  0  0  0  0
   -0.6832   -2.8764    1.0638 O   0  0  0  0  0  0  0  0  0  0  0  0
   -1.3952   -0.9084    0.2428 N   0  0  0  0  0  0  0  0  0  0  0  0
   -2.1972   -0.3644   -0.0422 H   0  0  0  0  0  0  0  0  0  0  0  0
   -0.1122   -0.1994    0.2658 C   0  0  1  0  0  0  0  0  0  0  0  0
   -0.2856    0.8212    0.6167 H   0  0  0  0  0  0  0  0  0  0  0  0
    0.8326   -0.9142    1.2575 C   0  0  0  0  0  0  0  0  0  0  0  0
    0.8329   -1.9825    1.0439 H   0  0  0  0  0  0  0  0  0  0  0  0
    1.8456   -0.5379    1.1232 H   0  0  0  0  0  0  0  0  0  0  0  0
    0.4324   -0.7566    2.7156 C   0  0  0  0  0  0  0  0  0  0  0  0
    0.0424    0.2978    3.1862 O   0  0  0  0  0  0  0  0  0  0  0  0
    0.5246   -1.8084    3.4924 N   0  0  0  0  0  0  0  0  0  0  0  0
    0.2369   -1.6790    4.4464 H   0  0  0  0  0  0  0  0  0  0  0  0
    0.8244   -2.6918    3.1252 H   0  0  0  0  0  0  0  0  0  0  0  0
    0.4726   -0.1229   -1.1618 C   0  0  0  0  0  0  0  0  0  0  0  0
   -0.2418   -0.3738   -2.1324 O   0  0  0  0  0  0  0  0  0  0  0  0
    1.7607    0.2097   -1.2902 N   0  0  0  0  0  0  0  0  0  0  0  0
    2.2956    0.3257   -0.4353 H   0  0  0  0  0  0  0  0  0  0  0  0
    2.4595    0.3375   -2.5677 C   0  0  0  0  0  0  0  0  0  0  0  0
    1.9405    1.0608   -3.2002 H   0  0  0  0  0  0  0  0  0  0  0  0
    3.4839    0.6738   -2.4020 H   0  0  0  0  0  0  0  0  0  0  0  0
    2.4743   -0.6272   -3.0778 H   0  0  0  0  0  0  0  0  0  0  0  0
  5  6  2  0  0  0  0
  5  7  1  0  0  0  0
  2  3  1  0  0  0  0
  2  4  1  0  0  0  0
  2  5  1  0  0  0  0
  1  2  1  0  0  0  0
 19 20  2  0  0  0  0
 19 21  1  0  0  0  0
 16 17  1  0  0  0  0
 16 18  1  0  0  0  0
 14 15  2  0  0  0  0
 14 16  1  0  0  0  0
 11 12  1  0  0  0  0
 11 13  1  0  0  0  0
 11 14  1  0  0  0  0
  9 10  1  0  0  0  0
  9 11  1  0  0  0  0
  9 19  1  0  0  0  0
  7  8  1  0  0  0  0
  7  9  1  0  0  0  0
 23 24  1  0  0  0  0
 23 25  1  0  0  0  0
 23 26  1  0  0  0  0
 21 22  1  0  0  0  0
 21 23  1  0  0  0  0
M  END
$$$$
default_name
  -OEChem-01062215323D

 26 25  0     1  0  0  0  0  0999 V2000
   -3.0232   -3.6924    1.0038 H   0  0  0  0  0  0  0  0  0  0  0  0
   -3.0082   -2.6684    0.6318 C   0  0  0  0  0  0  0  0  0  0  0  0
   -3.6332   -2.0414    1.2658 H   0  0  0  0  0  0  0  0  0  0  0  0
   -3.3762   -2.6444   -0.3912 H   0  0  0  0  0  0  0  0  0  0  0  0
   -1.5882   -2.1554    0.6658 C   0  0  0  0  0  0  0  0  0  0  0  0
   -0.6832   -2.8764    1.0638 O   0  0  0  0  0  0  0  0  0  0  0  0
   -1.3952   -0.9084    0.2428 N   0  0  0  0  0  0  0  0  0  0  0  0
   -2.1972   -0.3644   -0.0422 H   0  0  0  0  0  0  0  0  0  0  0  0
   -0.1122   -0.1994    0.2658 C   0  0  1  0  0  0  0  0  0  0  0  0
   -0.2856    0.8212    0.6167 H   0  0  0  0  0  0  0  0  0  0  0  0
    0.8326   -0.9142    1.2575 C   0  0  0  0  0  0  0  0  0  0  0  0
    0.8329   -1.9825    1.0439 H   0  0  0  0  0  0  0  0  0  0  0  0
    1.8456   -0.5379    1.1232 H   0  0  0  0  0  0  0  0  0  0  0  0
    0.4324   -0.7566    2.7156 C   0  0  0  0  0  0  0  0  0  0  0  0
    0.0424    0.2978    3.1862 O   0  0  0  0  0  0  0  0  0  0  0  0
    0.5246   -1.8084    3.4924 N   0  0  0  0  0  0  0  0  0  0  0  0
    0.2369   -1.6790    4.4464 H   0  0  0  0  0  0  0  0  0  0  0  0
    0.8244   -2.6918    3.1252 H   0  0  0  0  0  0  0  0  0  0  0  0
    0.4726   -0.1229   -1.1618 C   0  0  0  0  0  0  0  0  0  0  0  0
   -0.2820   -0.0982   -2.1341 O   0  0  0  0  0  0  0  0  0  0  0  0
    1.8028   -0.0961   -1.2893 N   0  0  0  0  0  0  0  0  0  0  0  0
    2.3506   -0.1968   -0.4408 H   0  0  0  0  0  0  0  0  0  0  0  0
    2.5107   -0.0122   -2.5655 C   0  0  0  0  0  0  0  0  0  0  0  0
    2.1798    0.8733   -3.1123 H   0  0  0  0  0  0  0  0  0  0  0  0
    3.5860    0.0518   -2.3935 H   0  0  0  0  0  0  0  0  0  0  0  0
    2.2932   -0.8968   -3.1664 H   0  0  0  0  0  0  0  0  0  0  0  0
  5  6  2  0  0  0  0
  5  7  1  0  0  0  0
  2  3  1  0  0  0  0
  2  4  1  0  0  0  0
  2  5  1  0  0  0  0
  1  2  1  0  0  0  0
 19 20  2  0  0  0  0
 19 21  1  0  0  0  0
 16 17  1  0  0  0  0
 16 18  1  0  0  0  0
 14 15  2  0  0  0  0
 14 16  1  0  0  0  0
 11 12  1  0  0  0  0
 11 13  1  0  0  0  0
 11 14  1  0  0  0  0
  9 10  1  0  0  0  0
  9 11  1  0  0  0  0
  9 19  1  0  0  0  0
  7  8  1  0  0  0  0
  7  9  1  0  0  0  0
 23 24  1  0  0  0  0
 23 25  1  0  0  0  0
 23 26  1  0  0  0  0
 21 22  1  0  0  0  0
 21 23  1  0  0  0  0
M  END
$$$$
default_name
  -OEChem-01062215323D

 26 25  0     1  0  0  0  0  0999 V2000
   -3.0232   -3.6924    1.0038 H   0  0  0  0  0  0  0  0  0  0  0  0
   -3.0082   -2.6684    0.6318 C   0  0  0  0  0  0  0  0  0  0  0  0
   -3.6332   -2.0414    1.2658 H   0  0  0  0  0  0  0  0  0  0  0  0
   -3.3762   -2.6444   -0.3912 H   0  0  0  0  0  0  0  0  0  0  0  0
   -1.5882   -2.1554    0.6658 C   0  0  0  0  0  0  0  0  0  0  0  0
   -0.6832   -2.8764    1.0638 O   0  0  0  0  0  0  0  0  0  0  0  0
   -1.3952   -0.9084    0.2428 N   0  0  0  0  0  0  0  0  0  0  0  0
   -2.1972   -0.3644   -0.0422 H   0  0  0  0  0  0  0  0  0  0  0  0
   -0.1122   -0.1994    0.2658 C   0  0  1  0  0  0  0  0  0  0  0  0
   -0.2856    0.8212    0.6167 H   0  0  0  0  0  0  0  0  0  0  0  0
    0.8326   -0.9142    1.2575 C   0  0  0  0  0  0  0  0  0  0  0  0
    0.8329   -1.9825    1.0439 H   0  0  0  0  0  0  0  0  0  0  0  0
    1.8456   -0.5379    1.1232 H   0  0  0  0  0  0  0  0  0  0  0  0
    0.4324   -0.7566    2.7156 C   0  0  0  0  0  0  0  0  0  0  0  0
    0.0424    0.2978    3.1862 O   0  0  0  0  0  0  0  0  0  0  0  0
    0.5246   -1.8084    3.4924 N   0  0  0  0  0  0  0  0  0  0  0  0
    0.2369   -1.6790    4.4464 H   0  0  0  0  0  0  0  0  0  0  0  0
    0.8244   -2.6918    3.1252 H   0  0  0  0  0  0  0  0  0  0  0  0
    0.4726   -0.1229   -1.1618 C   0  0  0  0  0  0  0  0  0  0  0  0
   -0.2549    0.1778   -2.1082 O   0  0  0  0  0  0  0  0  0  0  0  0
    1.7703   -0.4017   -1.3190 N   0  0  0  0  0  0  0  0  0  0  0  0
    2.2787   -0.7141   -0.4979 H   0  0  0  0  0  0  0  0  0  0  0  0
    2.4765   -0.3625   -2.5982 C   0  0  0  0  0  0  0  0  0  0  0  0
    2.3672    0.6264   -3.0487 H   0  0  0  0  0  0  0  0  0  0  0  0
    3.5360   -0.5743   -2.4475 H   0  0  0  0  0  0  0  0  0  0  0  0
    2.0527   -1.1053   -3.2761 H   0  0  0  0  0  0  0  0  0  0  0  0
  5  6  2  0  0  0  0
  5  7  1  0  0  0  0
  2  3  1  0  0  0  0
  2  4  1  0  0  0  0
  2  5  1  0  0  0  0
  1  2  1  0  0  0  0
 19 20  2  0  0  0  0
 19 21  1  0  0  0  0
 16 17  1  0  0  0  0
 16 18  1  0  0  0  0
 14 15  2  0  0  0  0
 14 16  1  0  0  0  0
 11 12  1  0  0  0  0
 11 13  1  0  0  0  0
 11 14  1  0  0  0  0
  9 10  1  0  0  0  0
  9 11  1  0  0  0  0
  9 19  1  0  0  0  0
  7  8  1  0  0  0  0
  7  9  1  0  0  0  0
 23 24  1  0  0  0  0
 23 25  1  0  0  0  0
 23 26  1  0  0  0  0
 21 22  1  0  0  0  0
 21 23  1  0  0  0  0
M  END
$$$$
default_name
  -OEChem-01062215323D

 26 25  0     1  0  0  0  0  0999 V2000
   -3.0232   -3.6924    1.0038 H   0  0  0  0  0  0  0  0  0  0  0  0
   -3.0082   -2.6684    0.6318 C   0  0  0  0  0  0  0  0  0  0  0  0
   -3.6332   -2.0414    1.2658 H   0  0  0  0  0  0  0  0  0  0  0  0
   -3.3762   -2.6444   -0.3912 H   0  0  0  0  0  0  0  0  0  0  0  0
   -1.5882   -2.1554    0.6658 C   0  0  0  0  0  0  0  0  0  0  0  0
   -0.6832   -2.8764    1.0638 O   0  0  0  0  0  0  0  0  0  0  0  0
   -1.3952   -0.9084    0.2428 N   0  0  0  0  0  0  0  0  0  0  0  0
   -2.1972   -0.3644   -0.0422 H   0  0  0  0  0  0  0  0  0  0  0  0
   -0.1122   -0.1994    0.2658 C   0  0  1  0  0  0  0  0  0  0  0  0
   -0.2856    0.8212    0.6167 H   0  0  0  0  0  0  0  0  0  0  0  0
    0.8326   -0.9142    1.2575 C   0  0  0  0  0  0  0  0  0  0  0  0
    0.8329   -1.9825    1.0439 H   0  0  0  0  0  0  0  0  0  0  0  0
    1.8456   -0.5379    1.1232 H   0  0  0  0  0  0  0  0  0  0  0  0
    0.4324   -0.7566    2.7156 C   0  0  0  0  0  0  0  0  0  0  0  0
    0.0424    0.2978    3.1862 O   0  0  0  0  0  0  0  0  0  0  0  0
    0.5246   -1.8084    3.4924 N   0  0  0  0  0  0  0  0  0  0  0  0
    0.2369   -1.6790    4.4464 H   0  0  0  0  0  0  0  0  0  0  0  0
    0.8244   -2.6918    3.1252 H   0  0  0  0  0  0  0  0  0  0  0  0
    0.4726   -0.1229   -1.1618 C   0  0  0  0  0  0  0  0  0  0  0  0
   -0.1624    0.4354   -2.0565 O   0  0  0  0  0  0  0  0  0  0  0  0
    1.6654   -0.6861   -1.3772 N   0  0  0  0  0  0  0  0  0  0  0  0
    2.0848   -1.1910   -0.6029 H   0  0  0  0  0  0  0  0  0  0  0  0
    2.3593   -0.6894   -2.6637 C   0  0  0  0  0  0  0  0  0  0  0  0
    2.4899    0.3368   -3.0139 H   0  0  0  0  0  0  0  0  0  0  0  0
    3.3372   -1.1618   -2.5604 H   0  0  0  0  0  0  0  0  0  0  0  0
    1.7691   -1.2384   -3.3994 H   0  0  0  0  0  0  0  0  0  0  0  0
  5  6  2  0  0  0  0
  5  7  1  0  0  0  0
  2  3  1  0  0  0  0
  2  4  1  0  0  0  0
  2  5  1  0  0  0  0
  1  2  1  0  0  0  0
 19 20  2  0  0  0  0
 19 21  1  0  0  0  0
 16 17  1  0  0  0  0
 16 18  1  0  0  0  0
 14 15  2  0  0  0  0
 14 16  1  0  0  0  0
 11 12  1  0  0  0  0
 11 13  1  0  0  0  0
 11 14  1  0  0  0  0
  9 10  1  0  0  0  0
  9 11  1  0  0  0  0
  9 19  1  0  0  0  0
  7  8  1  0  0  0  0
  7  9  1  0  0  0  0
 23 24  1  0  0  0  0
 23 25  1  0  0  0  0
 23 26  1  0  0  0  0
 21 22  1  0  0  0  0
 21 23  1  0  0  0  0
M  END
$$$$
default_name
  -OEChem-01062215323D

 26 25  0     1  0  0  0  0  0999 V2000
   -3.0232   -3.6924    1.0038 H   0  0  0  0  0  0  0  0  0  0  0  0
   -3.0082   -2.6684    0.6318 C   0  0  0  0  0  0  0  0  0  0  0  0
   -3.6332   -2.0414    1.2658 H   0  0  0  0  0  0  0  0  0  0  0  0
   -3.3762   -2.6444   -0.3912 H   0  0  0  0  0  0  0  0  0  0  0  0
   -1.5882   -2.1554    0.6658 C   0  0  0  0  0  0  0  0  0  0  0  0
   -0.6832   -2.8764    1.0638 O   0  0  0  0  0  0  0  0  0  0  0  0
   -1.3952   -0.9084    0.2428 N   0  0  0  0  0  0  0  0  0  0  0  0
   -2.1972   -0.3644   -0.0422 H   0  0  0  0  0  0  0  0  0  0  0  0
   -0.1122   -0.1994    0.2658 C   0  0  1  0  0  0  0  0  0  0  0  0
   -0.2856    0.8212    0.6167 H   0  0  0  0  0  0  0  0  0  0  0  0
    0.8326   -0.9142    1.2575 C   0  0  0  0  0  0  0  0  0  0  0  0
    0.8329   -1.9825    1.0439 H   0  0  0  0  0  0  0  0  0  0  0  0
    1.8456   -0.5379    1.1232 H   0  0  0  0  0  0  0  0  0  0  0  0
    0.4324   -0.7566    2.7156 C   0  0  0  0  0  0  0  0  0  0  0  0
    0.0424    0.2978    3.1862 O   0  0  0  0  0  0  0  0  0  0  0  0
    0.5246   -1.8084    3.4924 N   0  0  0  0  0  0  0  0  0  0  0  0
    0.2369   -1.6790    4.4464 H   0  0  0  0  0  0  0  0  0  0  0  0
    0.8244   -2.6918    3.1252 H   0  0  0  0  0  0  0  0  0  0  0  0
    0.4726   -0.1229   -1.1618 C   0  0  0  0  0  0  0  0  0  0  0  0
   -0.0107    0.6569   -1.9825 O   0  0  0  0  0  0  0  0  0  0  0  0
    1.4953   -0.9301   -1.4599 N   0  0  0  0  0  0  0  0  0  0  0  0
    1.7821   -1.5950   -0.7485 H   0  0  0  0  0  0  0  0  0  0  0  0
    2.1670   -0.9707   -2.7576 C   0  0  0  0  0  0  0  0  0  0  0  0
    2.5397    0.0243   -3.0103 H   0  0  0  0  0  0  0  0  0  0  0  0
    3.0032   -1.6706   -2.7245 H   0  0  0  0  0  0  0  0  0  0  0  0
    1.4617   -1.2870   -3.5279 H   0  0  0  0  0  0  0  0  0  0  0  0
  5  6  2  0  0  0  0
  5  7  1  0  0  0  0
  2  3  1  0  0  0  0
  2  4  1  0  0  0  0
  2  5  1  0  0  0  0
  1  2  1  0  0  0  0
 19 20  2  0  0  0  0
 19 21  1  0  0  0  0
 16 17  1  0  0  0  0
 16 18  1  0  0  0  0
 14 15  2  0  0  0  0
 14 16  1  0  0  0  0
 11 12  1  0  0  0  0
 11 13  1  0  0  0  0
 11 14  1  0  0  0  0
  9 10  1  0  0  0  0
  9 11  1  0  0  0  0
  9 19  1  0  0  0  0
  7  8  1  0  0  0  0
  7  9  1  0  0  0  0
 23 24  1  0  0  0  0
 23 25  1  0  0  0  0
 23 26  1  0  0  0  0
 21 22  1  0  0  0  0
 21 23  1  0  0  0  0
M  END
$$$$
default_name
  -OEChem-01062215323D

 26 25  0     1  0  0  0  0  0999 V2000
   -3.0232   -3.6924    1.0038 H   0  0  0  0  0  0  0  0  0  0  0  0
   -3.0082   -2.6684    0.6318 C   0  0  0  0  0  0  0  0  0  0  0  0
   -3.6332   -2.0414    1.2658 H   0  0  0  0  0  0  0  0  0  0  0  0
   -3.3762   -2.6444   -0.3912 H   0  0  0  0  0  0  0  0  0  0  0  0
   -1.5882   -2.1554    0.6658 C   0  0  0  0  0  0  0  0  0  0  0  0
   -0.6832   -2.8764    1.0638 O   0  0  0  0  0  0  0  0  0  0  0  0
   -1.3952   -0.9084    0.2428 N   0  0  0  0  0  0  0  0  0  0  0  0
   -2.1972   -0.3644   -0.0422 H   0  0  0  0  0  0  0  0  0  0  0  0
   -0.1122   -0.1994    0.2658 C   0  0  1  0  0  0  0  0  0  0  0  0
   -0.2856    0.8212    0.6167 H   0  0  0  0  0  0  0  0  0  0  0  0
    0.8326   -0.9142    1.2575 C   0  0  0  0  0  0  0  0  0  0  0  0
    0.8329   -1.9825    1.0439 H   0  0  0  0  0  0  0  0  0  0  0  0
    1.8456   -0.5379    1.1232 H   0  0  0  0  0  0  0  0  0  0  0  0
    0.4324   -0.7566    2.7156 C   0  0  0  0  0  0  0  0  0  0  0  0
    0.0424    0.2978    3.1862 O   0  0  0  0  0  0  0  0  0  0  0  0
    0.5246   -1.8084    3.4924 N   0  0  0  0  0  0  0  0  0  0  0  0
    0.2369   -1.6790    4.4464 H   0  0  0  0  0  0  0  0  0  0  0  0
    0.8244   -2.6918    3.1252 H   0  0  0  0  0  0  0  0  0  0  0  0
    0.4726   -0.1229   -1.1618 C   0  0  0  0  0  0  0  0  0  0  0  0
    0.1897    0.8274   -1.8913 O   0  0  0  0  0  0  0  0  0  0  0  0
    1.2716   -1.1170   -1.5616 N   0  0  0  0  0  0  0  0  0  0  0  0
    1.3912   -1.8985   -0.9249 H   0  0  0  0  0  0  0  0  0  0  0  0
    1.9128   -1.1873   -2.8733 C   0  0  0  0  0  0  0  0  0  0  0  0
    2.5130   -0.2899   -3.0381 H   0  0  0  0  0  0  0  0  0  0  0  0
    2.5567   -2.0662   -2.9285 H   0  0  0  0  0  0  0  0  0  0  0  0
    1.1515   -1.2478   -3.6529 H   0  0  0  0  0  0  0  0  0  0  0  0
  5  6  2  0  0  0  0
  5  7  1  0  0  0  0
  2  3  1  0  0  0  0
  2  4  1  0  0  0  0
  2  5  1  0  0  0  0
  1  2  1  0  0  0  0
 19 20  2  0  0  0  0
 19 21  1  0  0  0  0
 16 17  1  0  0  0  0
 16 18  1  0  0  0  0
 14 15  2  0  0  0  0
 14 16  1  0  0  0  0
 11 12  1  0  0  0  0
 11 13  1  0  0  0  0
 11 14  1  0  0  0  0
  9 10  1  0  0  0  0
  9 11  1  0  0  0  0
  9 19  1  0  0  0  0
  7  8  1  0  0  0  0
  7  9  1  0  0  0  0
 23 24  1  0  0  0  0
 23 25  1  0  0  0  0
 23 26  1  0  0  0  0
 21 22  1  0  0  0  0
 21 23  1  0  0  0  0
M  END
$$$$
default_name
  -OEChem-01062215323D

 26 25  0     1  0  0  0  0  0999 V2000
   -3.0232   -3.6924    1.0038 H   0  0  0  0  0  0  0  0  0  0  0  0
   -3.0082   -2.6684    0.6318 C   0  0  0  0  0  0  0  0  0  0  0  0
   -3.6332   -2.0414    1.2658 H   0  0  0  0  0  0  0  0  0  0  0  0
   -3.3762   -2.6444   -0.3912 H   0  0  0  0  0  0  0  0  0  0  0  0
   -1.5882   -2.1554    0.6658 C   0  0  0  0  0  0  0  0  0  0  0  0
   -0.6832   -2.8764    1.0638 O   0  0  0  0  0  0  0  0  0  0  0  0
   -1.3952   -0.9084    0.2428 N   0  0  0  0  0  0  0  0  0  0  0  0
   -2.1972   -0.3644   -0.0422 H   0  0  0  0  0  0  0  0  0  0  0  0
   -0.1122   -0.1994    0.2658 C   0  0  1  0  0  0  0  0  0  0  0  0
   -0.2856    0.8212    0.6167 H   0  0  0  0  0  0  0  0  0  0  0  0
    0.8326   -0.9142    1.2575 C   0  0  0  0  0  0  0  0  0  0  0  0
    0.8329   -1.9825    1.0439 H   0  0  0  0  0  0  0  0  0  0  0  0
    1.8456   -0.5379    1.1232 H   0  0  0  0  0  0  0  0  0  0  0  0
    0.4324   -0.7566    2.7156 C   0  0  0  0  0  0  0  0  0  0  0  0
    0.0424    0.2978    3.1862 O   0  0  0  0  0  0  0  0  0  0  0  0
    0.5246   -1.8084    3.4924 N   0  0  0  0  0  0  0  0  0  0  0  0
    0.2369   -1.6790    4.4464 H   0  0  0  0  0  0  0  0  0  0  0  0
    0.8244   -2.6918    3.1252 H   0  0  0  0  0  0  0  0  0  0  0  0
    0.4726   -0.1229   -1.1618 C   0  0  0  0  0  0  0  0  0  0  0  0
    0.4253    0.9353   -1.7890 O   0  0  0  0  0  0  0  0  0  0  0  0
    1.0095   -1.2340   -1.6752 N   0  0  0  0  0  0  0  0  0  0  0  0
    0.9387   -2.0808   -1.1201 H   0  0  0  0  0  0  0  0  0  0  0  0
    1.6140   -1.3243   -3.0031 C   0  0  0  0  0  0  0  0  0  0  0  0
    2.4117   -0.5842   -3.0953 H   0  0  0  0  0  0  0  0  0  0  0  0
    2.0282   -2.3214   -3.1587 H   0  0  0  0  0  0  0  0  0  0  0  0
    0.8597   -1.1236   -3.7658 H   0  0  0  0  0  0  0  0  0  0  0  0
  5  6  2  0  0  0  0
  5  7  1  0  0  0  0
  2  3  1  0  0  0  0
  2  4  1  0  0  0  0
  2  5  1  0  0  0  0
  1  2  1  0  0  0  0
 19 20  2  0  0  0  0
 19 21  1  0  0  0  0
 16 17  1  0  0  0  0
 16 18  1  0  0  0  0
 14 15  2  0  0  0  0
 14 16  1  0  0  0  0
 11 12  1  0  0  0  0
 11 13  1  0  0  0  0
 11 14  1  0  0  0  0
  9 10  1  0  0  0  0
  9 11  1  0  0  0  0
  9 19  1  0  0  0  0
  7  8  1  0  0  0  0
  7  9  1  0  0  0  0
 23 24  1  0  0  0  0
 23 25  1  0  0  0  0
 23 26  1  0  0  0  0
 21 22  1  0  0  0  0
 21 23  1  0  0  0  0
M  END
$$$$
default_name
  -OEChem-01062215323D

 26 25  0     1  0  0  0  0  0999 V2000
   -3.0232   -3.6924    1.0038 H   0  0  0  0  0  0  0  0  0  0  0  0
   -3.0082   -2.6684    0.6318 C   0  0  0  0  0  0  0  0  0  0  0  0
   -3.6332   -2.0414    1.2658 H   0  0  0  0  0  0  0  0  0  0  0  0
   -3.3762   -2.6444   -0.3912 H   0  0  0  0  0  0  0  0  0  0  0  0
   -1.5882   -2.1554    0.6658 C   0  0  0  0  0  0  0  0  0  0  0  0
   -0.6832   -2.8764    1.0638 O   0  0  0  0  0  0  0  0  0  0  0  0
   -1.3952   -0.9084    0.2428 N   0  0  0  0  0  0  0  0  0  0  0  0
   -2.1972   -0.3644   -0.0422 H   0  0  0  0  0  0  0  0  0  0  0  0
   -0.1122   -0.1994    0.2658 C   0  0  1  0  0  0  0  0  0  0  0  0
   -0.2856    0.8212    0.6167 H   0  0  0  0  0  0  0  0  0  0  0  0
    0.8326   -0.9142    1.2575 C   0  0  0  0  0  0  0  0  0  0  0  0
    0.8329   -1.9825    1.0439 H   0  0  0  0  0  0  0  0  0  0  0  0
    1.8456   -0.5379    1.1232 H   0  0  0  0  0  0  0  0  0  0  0  0
    0.4324   -0.7566    2.7156 C   0  0  0  0  0  0  0  0  0  0  0  0
    0.0424    0.2978    3.1862 O   0  0  0  0  0  0  0  0  0  0  0  0
    0.5246   -1.8084    3.4924 N   0  0  0  0  0  0  0  0  0  0  0  0
    0.2369   -1.6790    4.4464 H   0  0  0  0  0  0  0  0  0  0  0  0
    0.8244   -2.6918    3.1252 H   0  0  0  0  0  0  0  0  0  0  0  0
    0.4726   -0.1229   -1.1618 C   0  0  0  0  0  0  0  0  0  0  0  0
    0.6799    0.9730   -1.6827 O   0  0  0  0  0  0  0  0  0  0  0  0
    0.7269   -1.2732   -1.7931 N   0  0  0  0  0  0  0  0  0  0  0  0
    0.4555   -2.1296   -1.3206 H   0  0  0  0  0  0  0  0  0  0  0  0
    1.2909   -1.3725   -3.1380 C   0  0  0  0  0  0  0  0  0  0  0  0
    2.2428   -0.8386   -3.1781 H   0  0  0  0  0  0  0  0  0  0  0  0
    1.4538   -2.4190   -3.3993 H   0  0  0  0  0  0  0  0  0  0  0  0
    0.6061   -0.9227   -3.8589 H   0  0  0  0  0  0  0  0  0  0  0  0
  5  6  2  0  0  0  0
  5  7  1  0  0  0  0
  2  3  1  0  0  0  0
  2  4  1  0  0  0  0
  2  5  1  0  0  0  0
  1  2  1  0  0  0  0
 19 20  2  0  0  0  0
 19 21  1  0  0  0  0
 16 17  1  0  0  0  0
 16 18  1  0  0  0  0
 14 15  2  0  0  0  0
 14 16  1  0  0  0  0
 11 12  1  0  0  0  0
 11 13  1  0  0  0  0
 11 14  1  0  0  0  0
  9 10  1  0  0  0  0
  9 11  1  0  0  0  0
  9 19  1  0  0  0  0
  7  8  1  0  0  0  0
  7  9  1  0  0  0  0
 23 24  1  0  0  0  0
 23 25  1  0  0  0  0
 23 26  1  0  0  0  0
 21 22  1  0  0  0  0
 21 23  1  0  0  0  0
M  END
$$$$
default_name
  -OEChem-01062215323D

 26 25  0     1  0  0  0  0  0999 V2000
   -3.0232   -3.6924    1.0038 H   0  0  0  0  0  0  0  0  0  0  0  0
   -3.0082   -2.6684    0.6318 C   0  0  0  0  0  0  0  0  0  0  0  0
   -3.6332   -2.0414    1.2658 H   0  0  0  0  0  0  0  0  0  0  0  0
   -3.3762   -2.6444   -0.3912 H   0  0  0  0  0  0  0  0  0  0  0  0
   -1.5882   -2.1554    0.6658 C   0  0  0  0  0  0  0  0  0  0  0  0
   -0.6832   -2.8764    1.0638 O   0  0  0  0  0  0  0  0  0  0  0  0
   -1.3952   -0.9084    0.2428 N   0  0  0  0  0  0  0  0  0  0  0  0
   -2.1972   -0.3644   -0.0422 H   0  0  0  0  0  0  0  0  0  0  0  0
   -0.1122   -0.1994    0.2658 C   0  0  1  0  0  0  0  0  0  0  0  0
   -0.2856    0.8212    0.6167 H   0  0  0  0  0  0  0  0  0  0  0  0
    0.8326   -0.9142    1.2575 C   0  0  0  0  0  0  0  0  0  0  0  0
    0.8329   -1.9825    1.0439 H   0  0  0  0  0  0  0  0  0  0  0  0
    1.8456   -0.5379    1.1232 H   0  0  0  0  0  0  0  0  0  0  0  0
    0.4324   -0.7566    2.7156 C   0  0  0  0  0  0  0  0  0  0  0  0
    0.0424    0.2978    3.1862 O   0  0  0  0  0  0  0  0  0  0  0  0
    0.5246   -1.8084    3.4924 N   0  0  0  0  0  0  0  0  0  0  0  0
    0.2369   -1.6790    4.4464 H   0  0  0  0  0  0  0  0  0  0  0  0
    0.8244   -2.6918    3.1252 H   0  0  0  0  0  0  0  0  0  0  0  0
    0.4726   -0.1229   -1.1618 C   0  0  0  0  0  0  0  0  0  0  0  0
    0.9363    0.9382   -1.5795 O   0  0  0  0  0  0  0  0  0  0  0  0
    0.4430   -1.2319   -1.9071 N   0  0  0  0  0  0  0  0  0  0  0  0
   -0.0254   -2.0415   -1.5129 H   0  0  0  0  0  0  0  0  0  0  0  0
    0.9656   -1.3285   -3.2689 C   0  0  0  0  0  0  0  0  0  0  0  0
    2.0177   -1.0359   -3.2809 H   0  0  0  0  0  0  0  0  0  0  0  0
    0.8724   -2.3523   -3.6338 H   0  0  0  0  0  0  0  0  0  0  0  0
    0.4080   -0.6589   -3.9259 H   0  0  0  0  0  0  0  0  0  0  0  0
  5  6  2  0  0  0  0
  5  7  1  0  0  0  0
  2  3  1  0  0  0  0
  2  4  1  0  0  0  0
  2  5  1  0  0  0  0
  1  2  1  0  0  0  0
 19 20  2  0  0  0  0
 19 21  1  0  0  0  0
 16 17  1  0  0  0  0
 16 18  1  0  0  0  0
 14 15  2  0  0  0  0
 14 16  1  0  0  0  0
 11 12  1  0  0  0  0
 11 13  1  0  0  0  0
 11 14  1  0  0  0  0
  9 10  1  0  0  0  0
  9 11  1  0  0  0  0
  9 19  1  0  0  0  0
  7  8  1  0  0  0  0
  7  9  1  0  0  0  0
 23 24  1  0  0  0  0
 23 25  1  0  0  0  0
 23 26  1  0  0  0  0
 21 22  1  0  0  0  0
 21 23  1  0  0  0  0
M  END
$$$$
default_name
  -OEChem-01062215323D

 26 25  0     1  0  0  0  0  0999 V2000
   -3.0232   -3.6924    1.0038 H   0  0  0  0  0  0  0  0  0  0  0  0
   -3.0082   -2.6684    0.6318 C   0  0  0  0  0  0  0  0  0  0  0  0
   -3.6332   -2.0414    1.2658 H   0  0  0  0  0  0  0  0  0  0  0  0
   -3.3762   -2.6444   -0.3912 H   0  0  0  0  0  0  0  0  0  0  0  0
   -1.5882   -2.1554    0.6658 C   0  0  0  0  0  0  0  0  0  0  0  0
   -0.6832   -2.8764    1.0638 O   0  0  0  0  0  0  0  0  0  0  0  0
   -1.3952   -0.9084    0.2428 N   0  0  0  0  0  0  0  0  0  0  0  0
   -2.1972   -0.3644   -0.0422 H   0  0  0  0  0  0  0  0  0  0  0  0
   -0.1122   -0.1994    0.2658 C   0  0  1  0  0  0  0  0  0  0  0  0
   -0.2856    0.8212    0.6167 H   0  0  0  0  0  0  0  0  0  0  0  0
    0.8326   -0.9142    1.2575 C   0  0  0  0  0  0  0  0  0  0  0  0
    0.8329   -1.9825    1.0439 H   0  0  0  0  0  0  0  0  0  0  0  0
    1.8456   -0.5379    1.1232 H   0  0  0  0  0  0  0  0  0  0  0  0
    0.4324   -0.7566    2.7156 C   0  0  0  0  0  0  0  0  0  0  0  0
    0.0424    0.2978    3.1862 O   0  0  0  0  0  0  0  0  0  0  0  0
    0.5246   -1.8084    3.4924 N   0  0  0  0  0  0  0  0  0  0  0  0
    0.2369   -1.6790    4.4464 H   0  0  0  0  0  0  0  0  0  0  0  0
    0.8244   -2.6918    3.1252 H   0  0  0  0  0  0  0  0  0  0  0  0
    0.4726   -0.1229   -1.1618 C   0  0  0  0  0  0  0  0  0  0  0  0
    1.1769    0.8331   -1.4866 O   0  0  0  0  0  0  0  0  0  0  0  0
    0.1773   -1.1130   -2.0096 N   0  0  0  0  0  0  0  0  0  0  0  0
   -0.4713   -1.8225   -1.6839 H   0  0  0  0  0  0  0  0  0  0  0  0
    0.6602   -1.1953   -3.3869 C   0  0  0  0  0  0  0  0  0  0  0  0
    1.7518   -1.1625   -3.3966 H   0  0  0  0  0  0  0  0  0  0  0  0
    0.3239   -2.1258   -3.8464 H   0  0  0  0  0  0  0  0  0  0  0  0
    0.2789   -0.3501   -3.9623 H   0  0  0  0  0  0  0  0  0  0  0  0
  5  6  2  0  0  0  0
  5  7  1  0  0  0  0
  2  3  1  0  0  0  0
  2  4  1  0  0  0  0
  2  5  1  0  0  0  0
  1  2  1  0  0  0  0
 19 20  2  0  0  0  0
 19 21  1  0  0  0  0
 16 17  1  0  0  0  0
 16 18  1  0  0  0  0
 14 15  2  0  0  0  0
 14 16  1  0  0  0  0
 11 12  1  0  0  0  0
 11 13  1  0  0  0  0
 11 14  1  0  0  0  0
  9 10  1  0  0  0  0
  9 11  1  0  0  0  0
  9 19  1  0  0  0  0
  7  8  1  0  0  0  0
  7  9  1  0  0  0  0
 23 24  1  0  0  0  0
 23 25  1  0  0  0  0
 23 26  1  0  0  0  0
 21 22  1  0  0  0  0
 21 23  1  0  0  0  0
M  END
$$$$
default_name
  -OEChem-01062215323D

 26 25  0     1  0  0  0  0  0999 V2000
   -3.0232   -3.6924    1.0038 H   0  0  0  0  0  0  0  0  0  0  0  0
   -3.0082   -2.6684    0.6318 C   0  0  0  0  0  0  0  0  0  0  0  0
   -3.6332   -2.0414    1.2658 H   0  0  0  0  0  0  0  0  0  0  0  0
   -3.3762   -2.6444   -0.3912 H   0  0  0  0  0  0  0  0  0  0  0  0
   -1.5882   -2.1554    0.6658 C   0  0  0  0  0  0  0  0  0  0  0  0
   -0.6832   -2.8764    1.0638 O   0  0  0  0  0  0  0  0  0  0  0  0
   -1.3952   -0.9084    0.2428 N   0  0  0  0  0  0  0  0  0  0  0  0
   -2.1972   -0.3644   -0.0422 H   0  0  0  0  0  0  0  0  0  0  0  0
   -0.1122   -0.1994    0.2658 C   0  0  1  0  0  0  0  0  0  0  0  0
   -0.2856    0.8212    0.6167 H   0  0  0  0  0  0  0  0  0  0  0  0
    0.8326   -0.9142    1.2575 C   0  0  0  0  0  0  0  0  0  0  0  0
    0.8329   -1.9825    1.0439 H   0  0  0  0  0  0  0  0  0  0  0  0
    1.8456   -0.5379    1.1232 H   0  0  0  0  0  0  0  0  0  0  0  0
    0.4324   -0.7566    2.7156 C   0  0  0  0  0  0  0  0  0  0  0  0
    0.0424    0.2978    3.1862 O   0  0  0  0  0  0  0  0  0  0  0  0
    0.5246   -1.8084    3.4924 N   0  0  0  0  0  0  0  0  0  0  0  0
    0.2369   -1.6790    4.4464 H   0  0  0  0  0  0  0  0  0  0  0  0
    0.8244   -2.6918    3.1252 H   0  0  0  0  0  0  0  0  0  0  0  0
    0.4726   -0.1229   -1.1618 C   0  0  0  0  0  0  0  0  0  0  0  0
    1.3853    0.6649   -1.4102 O   0  0  0  0  0  0  0  0  0  0  0  0
   -0.0523   -0.9244   -2.0936 N   0  0  0  0  0  0  0  0  0  0  0  0
   -0.8519   -1.4876   -1.8218 H   0  0  0  0  0  0  0  0  0  0  0  0
    0.3955   -0.9821   -3.4839 C   0  0  0  0  0  0  0  0  0  0  0  0
    1.4631   -1.2098   -3.5174 H   0  0  0  0  0  0  0  0  0  0  0  0
   -0.1546   -1.7550   -4.0225 H   0  0  0  0  0  0  0  0  0  0  0  0
    0.2276   -0.0173   -3.9655 H   0  0  0  0  0  0  0  0  0  0  0  0
  5  6  2  0  0  0  0
  5  7  1  0  0  0  0
  2  3  1  0  0  0  0
  2  4  1  0  0  0  0
  2  5  1  0  0  0  0
  1  2  1  0  0  0  0
 19 20  2  0  0  0  0
 19 21  1  0  0  0  0
 16 17  1  0  0  0  0
 16 18  1  0  0  0  0
 14 15  2  0  0  0  0
 14 16  1  0  0  0  0
 11 12  1  0  0  0  0
 11 13  1  0  0  0  0
 11 14  1  0  0  0  0
  9 10  1  0  0  0  0
  9 11  1  0  0  0  0
  9 19  1  0  0  0  0
  7  8  1  0  0  0  0
  7  9  1  0  0  0  0
 23 24  1  0  0  0  0
 23 25  1  0  0  0  0
 23 26  1  0  0  0  0
 21 22  1  0  0  0  0
 21 23  1  0  0  0  0
M  END
$$$$
default_name
  -OEChem-01062215323D

 26 25  0     1  0  0  0  0  0999 V2000
   -3.0232   -3.6924    1.0038 H   0  0  0  0  0  0  0  0  0  0  0  0
   -3.0082   -2.6684    0.6318 C   0  0  0  0  0  0  0  0  0  0  0  0
   -3.6332   -2.0414    1.2658 H   0  0  0  0  0  0  0  0  0  0  0  0
   -3.3762   -2.6444   -0.3912 H   0  0  0  0  0  0  0  0  0  0  0  0
   -1.5882   -2.1554    0.6658 C   0  0  0  0  0  0  0  0  0  0  0  0
   -0.6832   -2.8764    1.0638 O   0  0  0  0  0  0  0  0  0  0  0  0
   -1.3952   -0.9084    0.2428 N   0  0  0  0  0  0  0  0  0  0  0  0
   -2.1972   -0.3644   -0.0422 H   0  0  0  0  0  0  0  0  0  0  0  0
   -0.1122   -0.1994    0.2658 C   0  0  1  0  0  0  0  0  0  0  0  0
   -0.2856    0.8212    0.6167 H   0  0  0  0  0  0  0  0  0  0  0  0
    0.8326   -0.9142    1.2575 C   0  0  0  0  0  0  0  0  0  0  0  0
    0.8329   -1.9825    1.0439 H   0  0  0  0  0  0  0  0  0  0  0  0
    1.8456   -0.5379    1.1232 H   0  0  0  0  0  0  0  0  0  0  0  0
    0.4324   -0.7566    2.7156 C   0  0  0  0  0  0  0  0  0  0  0  0
    0.0424    0.2978    3.1862 O   0  0  0  0  0  0  0  0  0  0  0  0
    0.5246   -1.8084    3.4924 N   0  0  0  0  0  0  0  0  0  0  0  0
    0.2369   -1.6790    4.4464 H   0  0  0  0  0  0  0  0  0  0  0  0
    0.8244   -2.6918    3.1252 H   0  0  0  0  0  0  0  0  0  0  0  0
    0.4726   -0.1229   -1.1618 C   0  0  0  0  0  0  0  0  0  0  0  0
    1.5474    0.4451   -1.3556 O   0  0  0  0  0  0  0  0  0  0  0  0
   -0.2301   -0.6792   -2.1533 N   0  0  0  0  0  0  0  0  0  0  0  0
   -1.1411   -1.0595   -1.9174 H   0  0  0  0  0  0  0  0  0  0  0  0
    0.1896   -0.7034   -3.5533 C   0  0  0  0  0  0  0  0  0  0  0  0
    1.1714   -1.1747   -3.6350 H   0  0  0  0  0  0  0  0  0  0  0  0
   -0.5302   -1.2651   -4.1502 H   0  0  0  0  0  0  0  0  0  0  0  0
    0.2576    0.3166   -3.9353 H   0  0  0  0  0  0  0  0  0  0  0  0
  5  6  2  0  0  0  0
  5  7  1  0  0  0  0
  2  3  1  0  0  0  0
  2  4  1  0  0  0  0
  2  5  1  0  0  0  0
  1  2  1  0  0  0  0
 19 20  2  0  0  0  0
 19 21  1  0  0  0  0
 16 17  1  0  0  0  0
 16 18  1  0  0  0  0
 14 15  2  0  0  0  0
 14 16  1  0  0  0  0
 11 12  1  0  0  0  0
 11 13  1  0  0  0  0
 11 14  1  0  0  0  0
  9 10  1  0  0  0  0
  9 11  1  0  0  0  0
  9 19  1  0  0  0  0
  7  8  1  0  0  0  0
  7  9  1  0  0  0  0
 23 24  1  0  0  0  0
 23 25  1  0  0  0  0
 23 26  1  0  0  0  0
 21 22  1  0  0  0  0
 21 23  1  0  0  0  0
M  END
$$$$
default_name
  -OEChem-01062215323D

 26 25  0     1  0  0  0  0  0999 V2000
   -3.0232   -3.6924    1.0038 H   0  0  0  0  0  0  0  0  0  0  0  0
   -3.0082   -2.6684    0.6318 C   0  0  0  0  0  0  0  0  0  0  0  0
   -3.6332   -2.0414    1.2658 H   0  0  0  0  0  0  0  0  0  0  0  0
   -3.3762   -2.6444   -0.3912 H   0  0  0  0  0  0  0  0  0  0  0  0
   -1.5882   -2.1554    0.6658 C   0  0  0  0  0  0  0  0  0  0  0  0
   -0.6832   -2.8764    1.0638 O   0  0  0  0  0  0  0  0  0  0  0  0
   -1.3952   -0.9084    0.2428 N   0  0  0  0  0  0  0  0  0  0  0  0
   -2.1972   -0.3644   -0.0422 H   0  0  0  0  0  0  0  0  0  0  0  0
   -0.1122   -0.1994    0.2658 C   0  0  1  0  0  0  0  0  0  0  0  0
   -0.2856    0.8212    0.6167 H   0  0  0  0  0  0  0  0  0  0  0  0
    0.8326   -0.9142    1.2575 C   0  0  0  0  0  0  0  0  0  0  0  0
    0.8329   -1.9825    1.0439 H   0  0  0  0  0  0  0  0  0  0  0  0
    1.8456   -0.5379    1.1232 H   0  0  0  0  0  0  0  0  0  0  0  0
    0.4324   -0.7566    2.7156 C   0  0  0  0  0  0  0  0  0  0  0  0
    0.0424    0.2978    3.1862 O   0  0  0  0  0  0  0  0  0  0  0  0
    0.5246   -1.8084    3.4924 N   0  0  0  0  0  0  0  0  0  0  0  0
    0.2369   -1.6790    4.4464 H   0  0  0  0  0  0  0  0  0  0  0  0
    0.8244   -2.6918    3.1252 H   0  0  0  0  0  0  0  0  0  0  0  0
    0.4726   -0.1229   -1.1618 C   0  0  0  0  0  0  0  0  0  0  0  0
    1.6521    0.1887   -1.3264 O   0  0  0  0  0  0  0  0  0  0  0  0
   -0.3438   -0.3939   -2.1846 N   0  0  0  0  0  0  0  0  0  0  0  0
   -1.3193   -0.5675   -1.9640 H   0  0  0  0  0  0  0  0  0  0  0  0
    0.0565   -0.3780   -3.5904 C   0  0  0  0  0  0  0  0  0  0  0  0
    0.8966   -1.0594   -3.7414 H   0  0  0  0  0  0  0  0  0  0  0  0
   -0.7775   -0.6895   -4.2207 H   0  0  0  0  0  0  0  0  0  0  0  0
    0.3669    0.6291   -3.8738 H   0  0  0  0  0  0  0  0  0  0  0  0
  5  6  2  0  0  0  0
  5  7  1  0  0  0  0
  2  3  1  0  0  0  0
  2  4  1  0  0  0  0
  2  5  1  0  0  0  0
  1  2  1  0  0  0  0
 19 20  2  0  0  0  0
 19 21  1  0  0  0  0
 16 17  1  0  0  0  0
 16 18  1  0  0  0  0
 14 15  2  0  0  0  0
 14 16  1  0  0  0  0
 11 12  1  0  0  0  0
 11 13  1  0  0  0  0
 11 14  1  0  0  0  0
  9 10  1  0  0  0  0
  9 11  1  0  0  0  0
  9 19  1  0  0  0  0
  7  8  1  0  0  0  0
  7  9  1  0  0  0  0
 23 24  1  0  0  0  0
 23 25  1  0  0  0  0
 23 26  1  0  0  0  0
 21 22  1  0  0  0  0
 21 23  1  0  0  0  0
M  END
$$$$
default_name
  -OEChem-01062215323D

 26 25  0     1  0  0  0  0  0999 V2000
   -3.0232   -3.6924    1.0038 H   0  0  0  0  0  0  0  0  0  0  0  0
   -3.0082   -2.6684    0.6318 C   0  0  0  0  0  0  0  0  0  0  0  0
   -3.6332   -2.0414    1.2658 H   0  0  0  0  0  0  0  0  0  0  0  0
   -3.3762   -2.6444   -0.3912 H   0  0  0  0  0  0  0  0  0  0  0  0
   -1.5882   -2.1554    0.6658 C   0  0  0  0  0  0  0  0  0  0  0  0
   -0.6832   -2.8764    1.0638 O   0  0  0  0  0  0  0  0  0  0  0  0
   -1.3952   -0.9084    0.2428 N   0  0  0  0  0  0  0  0  0  0  0  0
   -2.1972   -0.3644   -0.0422 H   0  0  0  0  0  0  0  0  0  0  0  0
   -0.1122   -0.1994    0.2658 C   0  0  1  0  0  0  0  0  0  0  0  0
   -0.2856    0.8212    0.6167 H   0  0  0  0  0  0  0  0  0  0  0  0
    0.8326   -0.9142    1.2575 C   0  0  0  0  0  0  0  0  0  0  0  0
    0.8329   -1.9825    1.0439 H   0  0  0  0  0  0  0  0  0  0  0  0
    1.8456   -0.5379    1.1232 H   0  0  0  0  0  0  0  0  0  0  0  0
    0.4324   -0.7566    2.7156 C   0  0  0  0  0  0  0  0  0  0  0  0
    0.0424    0.2978    3.1862 O   0  0  0  0  0  0  0  0  0  0  0  0
    0.5246   -1.8084    3.4924 N   0  0  0  0  0  0  0  0  0  0  0  0
    0.2369   -1.6790    4.4464 H   0  0  0  0  0  0  0  0  0  0  0  0
    0.8244   -2.6918    3.1252 H   0  0  0  0  0  0  0  0  0  0  0  0
    0.4726   -0.1229   -1.1618 C   0  0  0  0  0  0  0  0  0  0  0  0
    1.6923   -0.0869   -1.3247 O   0  0  0  0  0  0  0  0  0  0  0  0
   -0.3859   -0.0881   -2.1855 N   0  0  0  0  0  0  0  0  0  0  0  0
   -1.3743   -0.0450   -1.9586 H   0  0  0  0  0  0  0  0  0  0  0  0
    0.0054   -0.0283   -3.5926 C   0  0  0  0  0  0  0  0  0  0  0  0
    0.6573   -0.8719   -3.8294 H   0  0  0  0  0  0  0  0  0  0  0  0
   -0.8796   -0.0675   -4.2292 H   0  0  0  0  0  0  0  0  0  0  0  0
    0.5479    0.8988   -3.7852 H   0  0  0  0  0  0  0  0  0  0  0  0
  5  6  2  0  0  0  0
  5  7  1  0  0  0  0
  2  3  1  0  0  0  0
  2  4  1  0  0  0  0
  2  5  1  0  0  0  0
  1  2  1  0  0  0  0
 19 20  2  0  0  0  0
 19 21  1  0  0  0  0
 16 17  1  0  0  0  0
 16 18  1  0  0  0  0
 14 15  2  0  0  0  0
 14 16  1  0  0  0  0
 11 12  1  0  0  0  0
 11 13  1  0  0  0  0
 11 14  1  0  0  0  0
  9 10  1  0  0  0  0
  9 11  1  0  0  0  0
  9 19  1  0  0  0  0
  7  8  1  0  0  0  0
  7  9  1  0  0  0  0
 23 24  1  0  0  0  0
 23 25  1  0  0  0  0
 23 26  1  0  0  0  0
 21 22  1  0  0  0  0
 21 23  1  0  0  0  0
M  END
$$$$
default_name
  -OEChem-01062215323D

 26 25  0     1  0  0  0  0  0999 V2000
   -3.0232   -3.6924    1.0038 H   0  0  0  0  0  0  0  0  0  0  0  0
   -3.0082   -2.6684    0.6318 C   0  0  0  0  0  0  0  0  0  0  0  0
   -3.6332   -2.0414    1.2658 H   0  0  0  0  0  0  0  0  0  0  0  0
   -3.3762   -2.6444   -0.3912 H   0  0  0  0  0  0  0  0  0  0  0  0
   -1.5882   -2.1554    0.6658 C   0  0  0  0  0  0  0  0  0  0  0  0
   -0.6832   -2.8764    1.0638 O   0  0  0  0  0  0  0  0  0  0  0  0
   -1.3952   -0.9084    0.2428 N   0  0  0  0  0  0  0  0  0  0  0  0
   -2.1972   -0.3644   -0.0422 H   0  0  0  0  0  0  0  0  0  0  0  0
   -0.1122   -0.1994    0.2658 C   0  0  1  0  0  0  0  0  0  0  0  0
   -0.2856    0.8212    0.6167 H   0  0  0  0  0  0  0  0  0  0  0  0
    0.8326   -0.9142    1.2575 C   0  0  0  0  0  0  0  0  0  0  0  0
    0.8329   -1.9825    1.0439 H   0  0  0  0  0  0  0  0  0  0  0  0
    1.8456   -0.5379    1.1232 H   0  0  0  0  0  0  0  0  0  0  0  0
    0.4324   -0.7566    2.7156 C   0  0  0  0  0  0  0  0  0  0  0  0
    0.0424    0.2978    3.1862 O   0  0  0  0  0  0  0  0  0  0  0  0
    0.5246   -1.8084    3.4924 N   0  0  0  0  0  0  0  0  0  0  0  0
    0.2369   -1.6790    4.4464 H   0  0  0  0  0  0  0  0  0  0  0  0
    0.8244   -2.6918    3.1252 H   0  0  0  0  0  0  0  0  0  0  0  0
    0.4726   -0.1229   -1.1618 C   0  0  0  0  0  0  0  0  0  0  0  0
    1.6652   -0.3629   -1.3506 O   0  0  0  0  0  0  0  0  0  0  0  0
   -0.3534    0.2174   -2.1558 N   0  0  0  0  0  0  0  0  0  0  0  0
   -1.3024    0.4723   -1.9014 H   0  0  0  0  0  0  0  0  0  0  0  0
    0.0395    0.3219   -3.5599 C   0  0  0  0  0  0  0  0  0  0  0  0
    0.4699   -0.6250   -3.8930 H   0  0  0  0  0  0  0  0  0  0  0  0
   -0.8296    0.5586   -4.1752 H   0  0  0  0  0  0  0  0  0  0  0  0
    0.7885    1.1072   -3.6755 H   0  0  0  0  0  0  0  0  0  0  0  0
  5  6  2  0  0  0  0
  5  7  1  0  0  0  0
  2  3  1  0  0  0  0
  2  4  1  0  0  0  0
  2  5  1  0  0  0  0
  1  2  1  0  0  0  0
 19 20  2  0  0  0  0
 19 21  1  0  0  0  0
 16 17  1  0  0  0  0
 16 18  1  0  0  0  0
 14 15  2  0  0  0  0
 14 16  1  0  0  0  0
 11 12  1  0  0  0  0
 11 13  1  0  0  0  0
 11 14  1  0  0  0  0
  9 10  1  0  0  0  0
  9 11  1  0  0  0  0
  9 19  1  0  0  0  0
  7  8  1  0  0  0  0
  7  9  1  0  0  0  0
 23 24  1  0  0  0  0
 23 25  1  0  0  0  0
 23 26  1  0  0  0  0
 21 22  1  0  0  0  0
 21 23  1  0  0  0  0
M  END
$$$$
default_name
  -OEChem-01062215323D

 26 25  0     1  0  0  0  0  0999 V2000
   -3.0232   -3.6924    1.0038 H   0  0  0  0  0  0  0  0  0  0  0  0
   -3.0082   -2.6684    0.6318 C   0  0  0  0  0  0  0  0  0  0  0  0
   -3.6332   -2.0414    1.2658 H   0  0  0  0  0  0  0  0  0  0  0  0
   -3.3762   -2.6444   -0.3912 H   0  0  0  0  0  0  0  0  0  0  0  0
   -1.5882   -2.1554    0.6658 C   0  0  0  0  0  0  0  0  0  0  0  0
   -0.6832   -2.8764    1.0638 O   0  0  0  0  0  0  0  0  0  0  0  0
   -1.3952   -0.9084    0.2428 N   0  0  0  0  0  0  0  0  0  0  0  0
   -2.1972   -0.3644   -0.0422 H   0  0  0  0  0  0  0  0  0  0  0  0
   -0.1122   -0.1994    0.2658 C   0  0  1  0  0  0  0  0  0  0  0  0
   -0.2856    0.8212    0.6167 H   0  0  0  0  0  0  0  0  0  0  0  0
    0.8326   -0.9142    1.2575 C   0  0  0  0  0  0  0  0  0  0  0  0
    0.8329   -1.9825    1.0439 H   0  0  0  0  0  0  0  0  0  0  0  0
    1.8456   -0.5379    1.1232 H   0  0  0  0  0  0  0  0  0  0  0  0
    0.4324   -0.7566    2.7156 C   0  0  0  0  0  0  0  0  0  0  0  0
    0.0424    0.2978    3.1862 O   0  0  0  0  0  0  0  0  0  0  0  0
    0.5246   -1.8084    3.4924 N   0  0  0  0  0  0  0  0  0  0  0  0
    0.2369   -1.6790    4.4464 H   0  0  0  0  0  0  0  0  0  0  0  0
    0.8244   -2.6918    3.1252 H   0  0  0  0  0  0  0  0  0  0  0  0
    0.4726   -0.1229   -1.1618 C   0  0  0  0  0  0  0  0  0  0  0  0
    1.5727   -0.6204   -1.4023 O   0  0  0  0  0  0  0  0  0  0  0  0
   -0.2486    0.5019   -2.0976 N   0  0  0  0  0  0  0  0  0  0  0  0
   -1.1085    0.9492   -1.7965 H   0  0  0  0  0  0  0  0  0  0  0  0
    0.1568    0.6489   -3.4944 C   0  0  0  0  0  0  0  0  0  0  0  0
    0.3471   -0.3354   -3.9277 H   0  0  0  0  0  0  0  0  0  0  0  0
   -0.6308    1.1461   -4.0623 H   0  0  0  0  0  0  0  0  0  0  0  0
    1.0721    1.2403   -3.5522 H   0  0  0  0  0  0  0  0  0  0  0  0
  5  6  2  0  0  0  0
  5  7  1  0  0  0  0
  2  3  1  0  0  0  0
  2  4  1  0  0  0  0
  2  5  1  0  0  0  0
  1  2  1  0  0  0  0
 19 20  2  0  0  0  0
 19 21  1  0  0  0  0
 16 17  1  0  0  0  0
 16 18  1  0  0  0  0
 14 15  2  0  0  0  0
 14 16  1  0  0  0  0
 11 12  1  0  0  0  0
 11 13  1  0  0  0  0
 11 14  1  0  0  0  0
  9 10  1  0  0  0  0
  9 11  1  0  0  0  0
  9 19  1  0  0  0  0
  7  8  1  0  0  0  0
  7  9  1  0  0  0  0
 23 24  1  0  0  0  0
 23 25  1  0  0  0  0
 23 26  1  0  0  0  0
 21 22  1  0  0  0  0
 21 23  1  0  0  0  0
M  END
$$$$
default_name
  -OEChem-01062215323D

 26 25  0     1  0  0  0  0  0999 V2000
   -3.0232   -3.6924    1.0038 H   0  0  0  0  0  0  0  0  0  0  0  0
   -3.0082   -2.6684    0.6318 C   0  0  0  0  0  0  0  0  0  0  0  0
   -3.6332   -2.0414    1.2658 H   0  0  0  0  0  0  0  0  0  0  0  0
   -3.3762   -2.6444   -0.3912 H   0  0  0  0  0  0  0  0  0  0  0  0
   -1.5882   -2.1554    0.6658 C   0  0  0  0  0  0  0  0  0  0  0  0
   -0.6832   -2.8764    1.0638 O   0  0  0  0  0  0  0  0  0  0  0  0
   -1.3952   -0.9084    0.2428 N   0  0  0  0  0  0  0  0  0  0  0  0
   -2.1972   -0.3644   -0.0422 H   0  0  0  0  0  0  0  0  0  0  0  0
   -0.1122   -0.1994    0.2658 C   0  0  1  0  0  0  0  0  0  0  0  0
   -0.2856    0.8212    0.6167 H   0  0  0  0  0  0  0  0  0  0  0  0
    0.8326   -0.9142    1.2575 C   0  0  0  0  0  0  0  0  0  0  0  0
    0.8329   -1.9825    1.0439 H   0  0  0  0  0  0  0  0  0  0  0  0
    1.8456   -0.5379    1.1232 H   0  0  0  0  0  0  0  0  0  0  0  0
    0.4324   -0.7566    2.7156 C   0  0  0  0  0  0  0  0  0  0  0  0
    0.0424    0.2978    3.1862 O   0  0  0  0  0  0  0  0  0  0  0  0
    0.5246   -1.8084    3.4924 N   0  0  0  0  0  0  0  0  0  0  0  0
    0.2369   -1.6790    4.4464 H   0  0  0  0  0  0  0  0  0  0  0  0
    0.8244   -2.6918    3.1252 H   0  0  0  0  0  0  0  0  0  0  0  0
    0.4726   -0.1229   -1.1618 C   0  0  0  0  0  0  0  0  0  0  0  0
    1.4210   -0.8420   -1.4763 O   0  0  0  0  0  0  0  0  0  0  0  0
   -0.0785    0.7458   -2.0149 N   0  0  0  0  0  0  0  0  0  0  0  0
   -0.8058    1.3531   -1.6508 H   0  0  0  0  0  0  0  0  0  0  0  0
    0.3490    0.9302   -3.4005 C   0  0  0  0  0  0  0  0  0  0  0  0
    0.2974   -0.0229   -3.9314 H   0  0  0  0  0  0  0  0  0  0  0  0
   -0.2968    1.6549   -3.8982 H   0  0  0  0  0  0  0  0  0  0  0  0
    1.3794    1.2889   -3.4237 H   0  0  0  0  0  0  0  0  0  0  0  0
  5  6  2  0  0  0  0
  5  7  1  0  0  0  0
  2  3  1  0  0  0  0
  2  4  1  0  0  0  0
  2  5  1  0  0  0  0
  1  2  1  0  0  0  0
 19 20  2  0  0  0  0
 19 21  1  0  0  0  0
 16 17  1  0  0  0  0
 16 18  1  0  0  0  0
 14 15  2  0  0  0  0
 14 16  1  0  0  0  0
 11 12  1  0  0  0  0
 11 13  1  0  0  0  0
 11 14  1  0  0  0  0
  9 10  1  0  0  0  0
  9 11  1  0  0  0  0
  9 19  1  0  0  0  0
  7  8  1  0  0  0  0
  7  9  1  0  0  0  0
 23 24  1  0  0  0  0
 23 25  1  0  0  0  0
 23 26  1  0  0  0  0
 21 22  1  0  0  0  0
 21 23  1  0  0  0  0
M  END
$$$$
default_name
  -OEChem-01062215323D

 26 25  0     1  0  0  0  0  0999 V2000
   -3.0232   -3.6924    1.0038 H   0  0  0  0  0  0  0  0  0  0  0  0
   -3.0082   -2.6684    0.6318 C   0  0  0  0  0  0  0  0  0  0  0  0
   -3.6332   -2.0414    1.2658 H   0  0  0  0  0  0  0  0  0  0  0  0
   -3.3762   -2.6444   -0.3912 H   0  0  0  0  0  0  0  0  0  0  0  0
   -1.5882   -2.1554    0.6658 C   0  0  0  0  0  0  0  0  0  0  0  0
   -0.6832   -2.8764    1.0638 O   0  0  0  0  0  0  0  0  0  0  0  0
   -1.3952   -0.9084    0.2428 N   0  0  0  0  0  0  0  0  0  0  0  0
   -2.1972   -0.3644   -0.0422 H   0  0  0  0  0  0  0  0  0  0  0  0
   -0.1122   -0.1994    0.2658 C   0  0  1  0  0  0  0  0  0  0  0  0
   -0.2856    0.8212    0.6167 H   0  0  0  0  0  0  0  0  0  0  0  0
    0.8326   -0.9142    1.2575 C   0  0  0  0  0  0  0  0  0  0  0  0
    0.8329   -1.9825    1.0439 H   0  0  0  0  0  0  0  0  0  0  0  0
    1.8456   -0.5379    1.1232 H   0  0  0  0  0  0  0  0  0  0  0  0
    0.4324   -0.7566    2.7156 C   0  0  0  0  0  0  0  0  0  0  0  0
    0.0424    0.2978    3.1862 O   0  0  0  0  0  0  0  0  0  0  0  0
    0.5246   -1.8084    3.4924 N   0  0  0  0  0  0  0  0  0  0  0  0
    0.2369   -1.6790    4.4464 H   0  0  0  0  0  0  0  0  0  0  0  0
    0.8244   -2.6918    3.1252 H   0  0  0  0  0  0  0  0  0  0  0  0
    0.4726   -0.1229   -1.1618 C   0  0  0  0  0  0  0  0  0  0  0  0
    1.2206   -1.0125   -1.5675 O   0  0  0  0  0  0  0  0  0  0  0  0
    0.1452    0.9327   -1.9132 N   0  0  0  0  0  0  0  0  0  0  0  0
   -0.4149    1.6566   -1.4744 H   0  0  0  0  0  0  0  0  0  0  0  0
    0.6032    1.1468   -3.2848 C   0  0  0  0  0  0  0  0  0  0  0  0
    0.3241    0.2913   -3.9036 H   0  0  0  0  0  0  0  0  0  0  0  0
    0.1497    2.0505   -3.6941 H   0  0  0  0  0  0  0  0  0  0  0  0
    1.6896    1.2498   -3.2987 H   0  0  0  0  0  0  0  0  0  0  0  0
  5  6  2  0  0  0  0
  5  7  1  0  0  0  0
  2  3  1  0  0  0  0
  2  4  1  0  0  0  0
  2  5  1  0  0  0  0
  1  2  1  0  0  0  0
 19 20  2  0  0  0  0
 19 21  1  0  0  0  0
 16 17  1  0  0  0  0
 16 18  1  0  0  0  0
 14 15  2  0  0  0  0
 14 16  1  0  0  0  0
 11 12  1  0  0  0  0
 11 13  1  0  0  0  0
 11 14  1  0  0  0  0
  9 10  1  0  0  0  0
  9 11  1  0  0  0  0
  9 19  1  0  0  0  0
  7  8  1  0  0  0  0
  7  9  1  0  0  0  0
 23 24  1  0  0  0  0
 23 25  1  0  0  0  0
 23 26  1  0  0  0  0
 21 22  1  0  0  0  0
 21 23  1  0  0  0  0
M  END
$$$$
default_name
  -OEChem-01062215323D

 26 25  0     1  0  0  0  0  0999 V2000
   -3.0232   -3.6924    1.0038 H   0  0  0  0  0  0  0  0  0  0  0  0
   -3.0082   -2.6684    0.6318 C   0  0  0  0  0  0  0  0  0  0  0  0
   -3.6332   -2.0414    1.2658 H   0  0  0  0  0  0  0  0  0  0  0  0
   -3.3762   -2.6444   -0.3912 H   0  0  0  0  0  0  0  0  0  0  0  0
   -1.5882   -2.1554    0.6658 C   0  0  0  0  0  0  0  0  0  0  0  0
   -0.6832   -2.8764    1.0638 O   0  0  0  0  0  0  0  0  0  0  0  0
   -1.3952   -0.9084    0.2428 N   0  0  0  0  0  0  0  0  0  0  0  0
   -2.1972   -0.3644   -0.0422 H   0  0  0  0  0  0  0  0  0  0  0  0
   -0.1122   -0.1994    0.2658 C   0  0  1  0  0  0  0  0  0  0  0  0
   -0.2856    0.8212    0.6167 H   0  0  0  0  0  0  0  0  0  0  0  0
    0.8326   -0.9142    1.2575 C   0  0  0  0  0  0  0  0  0  0  0  0
    0.8329   -1.9825    1.0439 H   0  0  0  0  0  0  0  0  0  0  0  0
    1.8456   -0.5379    1.1232 H   0  0  0  0  0  0  0  0  0  0  0  0
    0.4324   -0.7566    2.7156 C   0  0  0  0  0  0  0  0  0  0  0  0
    0.0424    0.2978    3.1862 O   0  0  0  0  0  0  0  0  0  0  0  0
    0.5246   -1.8084    3.4924 N   0  0  0  0  0  0  0  0  0  0  0  0
    0.2369   -1.6790    4.4464 H   0  0  0  0  0  0  0  0  0  0  0  0
    0.8244   -2.6918    3.1252 H   0  0  0  0  0  0  0  0  0  0  0  0
    0.4726   -0.1229   -1.1618 C   0  0  0  0  0  0  0  0  0  0  0  0
    0.9850   -1.1203   -1.6698 O   0  0  0  0  0  0  0  0  0  0  0  0
    0.4073    1.0497   -1.7996 N   0  0  0  0  0  0  0  0  0  0  0  0
    0.0376    1.8390   -1.2793 H   0  0  0  0  0  0  0  0  0  0  0  0
    0.9021    1.2838   -3.1550 C   0  0  0  0  0  0  0  0  0  0  0  0
    0.4253    0.5856   -3.8464 H   0  0  0  0  0  0  0  0  0  0  0  0
    0.6782    2.3057   -3.4640 H   0  0  0  0  0  0  0  0  0  0  0  0
    1.9814    1.1255   -3.1858 H   0  0  0  0  0  0  0  0  0  0  0  0
  5  6  2  0  0  0  0
  5  7  1  0  0  0  0
  2  3  1  0  0  0  0
  2  4  1  0  0  0  0
  2  5  1  0  0  0  0
  1  2  1  0  0  0  0
 19 20  2  0  0  0  0
 19 21  1  0  0  0  0
 16 17  1  0  0  0  0
 16 18  1  0  0  0  0
 14 15  2  0  0  0  0
 14 16  1  0  0  0  0
 11 12  1  0  0  0  0
 11 13  1  0  0  0  0
 11 14  1  0  0  0  0
  9 10  1  0  0  0  0
  9 11  1  0  0  0  0
  9 19  1  0  0  0  0
  7  8  1  0  0  0  0
  7  9  1  0  0  0  0
 23 24  1  0  0  0  0
 23 25  1  0  0  0  0
 23 26  1  0  0  0  0
 21 22  1  0  0  0  0
 21 23  1  0  0  0  0
M  END
$$$$
default_name
  -OEChem-01062215323D

 26 25  0     1  0  0  0  0  0999 V2000
   -3.0232   -3.6924    1.0038 H   0  0  0  0  0  0  0  0  0  0  0  0
   -3.0082   -2.6684    0.6318 C   0  0  0  0  0  0  0  0  0  0  0  0
   -3.6332   -2.0414    1.2658 H   0  0  0  0  0  0  0  0  0  0  0  0
   -3.3762   -2.6444   -0.3912 H   0  0  0  0  0  0  0  0  0  0  0  0
   -1.5882   -2.1554    0.6658 C   0  0  0  0  0  0  0  0  0  0  0  0
   -0.6832   -2.8764    1.0638 O   0  0  0  0  0  0  0  0  0  0  0  0
   -1.3952   -0.9084    0.2428 N   0  0  0  0  0  0  0  0  0  0  0  0
   -2.1972   -0.3644   -0.0422 H   0  0  0  0  0  0  0  0  0  0  0  0
   -0.1122   -0.1994    0.2658 C   0  0  1  0  0  0  0  0  0  0  0  0
   -0.2856    0.8212    0.6167 H   0  0  0  0  0  0  0  0  0  0  0  0
    0.8326   -0.9142    1.2575 C   0  0  0  0  0  0  0  0  0  0  0  0
    0.8329   -1.9825    1.0439 H   0  0  0  0  0  0  0  0  0  0  0  0
    1.8456   -0.5379    1.1232 H   0  0  0  0  0  0  0  0  0  0  0  0
    0.4324   -0.7566    2.7156 C   0  0  0  0  0  0  0  0  0  0  0  0
    0.0424    0.2978    3.1862 O   0  0  0  0  0  0  0  0  0  0  0  0
    0.5246   -1.8084    3.4924 N   0  0  0  0  0  0  0  0  0  0  0  0
    0.2369   -1.6790    4.4464 H   0  0  0  0  0  0  0  0  0  0  0  0
    0.8244   -2.6918    3.1252 H   0  0  0  0  0  0  0  0  0  0  0  0
    0.4726   -0.1229   -1.1618 C   0  0  0  0  0  0  0  0  0  0  0  0
    0.7304   -1.1581   -1.7761 O   0  0  0  0  0  0  0  0  0  0  0  0
    0.6899    1.0890   -1.6817 N   0  0  0  0  0  0  0  0  0  0  0  0
    0.5207    1.8878   -1.0788 H   0  0  0  0  0  0  0  0  0  0  0  0
    1.2252    1.3319   -3.0201 C   0  0  0  0  0  0  0  0  0  0  0  0
    0.5943    0.8400   -3.7636 H   0  0  0  0  0  0  0  0  0  0  0  0
    1.2526    2.4033   -3.2234 H   0  0  0  0  0  0  0  0  0  0  0  0
    2.2350    0.9246   -3.0927 H   0  0  0  0  0  0  0  0  0  0  0  0
  5  6  2  0  0  0  0
  5  7  1  0  0  0  0
  2  3  1  0  0  0  0
  2  4  1  0  0  0  0
  2  5  1  0  0  0  0
  1  2  1  0  0  0  0
 19 20  2  0  0  0  0
 19 21  1  0  0  0  0
 16 17  1  0  0  0  0
 16 18  1  0  0  0  0
 14 15  2  0  0  0  0
 14 16  1  0  0  0  0
 11 12  1  0  0  0  0
 11 13  1  0  0  0  0
 11 14  1  0  0  0  0
  9 10  1  0  0  0  0
  9 11  1  0  0  0  0
  9 19  1  0  0  0  0
  7  8  1  0  0  0  0
  7  9  1  0  0  0  0
 23 24  1  0  0  0  0
 23 25  1  0  0  0  0
 23 26  1  0  0  0  0
 21 22  1  0  0  0  0
 21 23  1  0  0  0  0
M  END
$$$$
default_name
  -OEChem-01062215323D

 26 25  0     1  0  0  0  0  0999 V2000
   -3.0232   -3.6924    1.0038 H   0  0  0  0  0  0  0  0  0  0  0  0
   -3.0082   -2.6684    0.6318 C   0  0  0  0  0  0  0  0  0  0  0  0
   -3.6332   -2.0414    1.2658 H   0  0  0  0  0  0  0  0  0  0  0  0
   -3.3762   -2.6444   -0.3912 H   0  0  0  0  0  0  0  0  0  0  0  0
   -1.5882   -2.1554    0.6658 C   0  0  0  0  0  0  0  0  0  0  0  0
   -0.6832   -2.8764    1.0638 O   0  0  0  0  0  0  0  0  0  0  0  0
   -1.3952   -0.9084    0.2428 N   0  0  0  0  0  0  0  0  0  0  0  0
   -2.1972   -0.3644   -0.0422 H   0  0  0  0  0  0  0  0  0  0  0  0
   -0.1122   -0.1994    0.2658 C   0  0  1  0  0  0  0  0  0  0  0  0
   -0.2856    0.8212    0.6167 H   0  0  0  0  0  0  0  0  0  0  0  0
    0.8326   -0.9142    1.2575 C   0  0  0  0  0  0  0  0  0  0  0  0
    0.8329   -1.9825    1.0439 H   0  0  0  0  0  0  0  0  0  0  0  0
    1.8456   -0.5379    1.1232 H   0  0  0  0  0  0  0  0  0  0  0  0
    0.4324   -0.7566    2.7156 C   0  0  0  0  0  0  0  0  0  0  0  0
    0.0424    0.2978    3.1862 O   0  0  0  0  0  0  0  0  0  0  0  0
    0.5246   -1.8084    3.4924 N   0  0  0  0  0  0  0  0  0  0  0  0
    0.2369   -1.6790    4.4464 H   0  0  0  0  0  0  0  0  0  0  0  0
    0.8244   -2.6918    3.1252 H   0  0  0  0  0  0  0  0  0  0  0  0
    0.4726   -0.1229   -1.1618 C   0  0  0  0  0  0  0  0  0  0  0  0
    0.4740   -1.1233   -1.8793 O   0  0  0  0  0  0  0  0  0  0  0  0
    0.9738    1.0477   -1.5676 N   0  0  0  0  0  0  0  0  0  0  0  0
    1.0017    1.7997   -0.8865 H   0  0  0  0  0  0  0  0  0  0  0  0
    1.5505    1.2879   -2.8892 C   0  0  0  0  0  0  0  0  0  0  0  0
    0.8194    1.0373   -3.6608 H   0  0  0  0  0  0  0  0  0  0  0  0
    1.8340    2.3366   -2.9889 H   0  0  0  0  0  0  0  0  0  0  0  0
    2.4331    0.6608   -3.0257 H   0  0  0  0  0  0  0  0  0  0  0  0
  5  6  2  0  0  0  0
  5  7  1  0  0  0  0
  2  3  1  0  0  0  0
  2  4  1  0  0  0  0
  2  5  1  0  0  0  0
  1  2  1  0  0  0  0
 19 20  2  0  0  0  0
 19 21  1  0  0  0  0
 16 17  1  0  0  0  0
 16 18  1  0  0  0  0
 14 15  2  0  0  0  0
 14 16  1  0  0  0  0
 11 12  1  0  0  0  0
 11 13  1  0  0  0  0
 11 14  1  0  0  0  0
  9 10  1  0  0  0  0
  9 11  1  0  0  0  0
  9 19  1  0  0  0  0
  7  8  1  0  0  0  0
  7  9  1  0  0  0  0
 23 24  1  0  0  0  0
 23 25  1  0  0  0  0
 23 26  1  0  0  0  0
 21 22  1  0  0  0  0
 21 23  1  0  0  0  0
M  END
$$$$
default_name
  -OEChem-01062215323D

 26 25  0     1  0  0  0  0  0999 V2000
   -3.0232   -3.6924    1.0038 H   0  0  0  0  0  0  0  0  0  0  0  0
   -3.0082   -2.6684    0.6318 C   0  0  0  0  0  0  0  0  0  0  0  0
   -3.6332   -2.0414    1.2658 H   0  0  0  0  0  0  0  0  0  0  0  0
   -3.3762   -2.6444   -0.3912 H   0  0  0  0  0  0  0  0  0  0  0  0
   -1.5882   -2.1554    0.6658 C   0  0  0  0  0  0  0  0  0  0  0  0
   -0.6832   -2.8764    1.0638 O   0  0  0  0  0  0  0  0  0  0  0  0
   -1.3952   -0.9084    0.2428 N   0  0  0  0  0  0  0  0  0  0  0  0
   -2.1972   -0.3644   -0.0422 H   0  0  0  0  0  0  0  0  0  0  0  0
   -0.1122   -0.1994    0.2658 C   0  0  1  0  0  0  0  0  0  0  0  0
   -0.2856    0.8212    0.6167 H   0  0  0  0  0  0  0  0  0  0  0  0
    0.8326   -0.9142    1.2575 C   0  0  0  0  0  0  0  0  0  0  0  0
    0.8329   -1.9825    1.0439 H   0  0  0  0  0  0  0  0  0  0  0  0
    1.8456   -0.5379    1.1232 H   0  0  0  0  0  0  0  0  0  0  0  0
    0.4324   -0.7566    2.7156 C   0  0  0  0  0  0  0  0  0  0  0  0
    0.0424    0.2978    3.1862 O   0  0  0  0  0  0  0  0  0  0  0  0
    0.5246   -1.8084    3.4924 N   0  0  0  0  0  0  0  0  0  0  0  0
    0.2369   -1.6790    4.4464 H   0  0  0  0  0  0  0  0  0  0  0  0
    0.8244   -2.6918    3.1252 H   0  0  0  0  0  0  0  0  0  0  0  0
    0.4726   -0.1229   -1.1618 C   0  0  0  0  0  0  0  0  0  0  0  0
    0.2334   -1.0182   -1.9722 O   0  0  0  0  0  0  0  0  0  0  0  0
    1.2396    0.9287   -1.4651 N   0  0  0  0  0  0  0  0  0  0  0  0
    1.4476    1.5807   -0.7155 H   0  0  0  0  0  0  0  0  0  0  0  0
    1.8559    1.1548   -2.7712 C   0  0  0  0  0  0  0  0  0  0  0  0
    1.0853    1.1639   -3.5451 H   0  0  0  0  0  0  0  0  0  0  0  0
    2.3825    2.1101   -2.7763 H   0  0  0  0  0  0  0  0  0  0  0  0
    2.5622    0.3520   -2.9893 H   0  0  0  0  0  0  0  0  0  0  0  0
  5  6  2  0  0  0  0
  5  7  1  0  0  0  0
  2  3  1  0  0  0  0
  2  4  1  0  0  0  0
  2  5  1  0  0  0  0
  1  2  1  0  0  0  0
 19 20  2  0  0  0  0
 19 21  1  0  0  0  0
 16 17  1  0  0  0  0
 16 18  1  0  0  0  0
 14 15  2  0  0  0  0
 14 16  1  0  0  0  0
 11 12  1  0  0  0  0
 11 13  1  0  0  0  0
 11 14  1  0  0  0  0
  9 10  1  0  0  0  0
  9 11  1  0  0  0  0
  9 19  1  0  0  0  0
  7  8  1  0  0  0  0
  7  9  1  0  0  0  0
 23 24  1  0  0  0  0
 23 25  1  0  0  0  0
 23 26  1  0  0  0  0
 21 22  1  0  0  0  0
 21 23  1  0  0  0  0
M  END
$$$$
default_name
  -OEChem-01062215323D

 26 25  0     1  0  0  0  0  0999 V2000
   -3.0232   -3.6924    1.0038 H   0  0  0  0  0  0  0  0  0  0  0  0
   -3.0082   -2.6684    0.6318 C   0  0  0  0  0  0  0  0  0  0  0  0
   -3.6332   -2.0414    1.2658 H   0  0  0  0  0  0  0  0  0  0  0  0
   -3.3762   -2.6444   -0.3912 H   0  0  0  0  0  0  0  0  0  0  0  0
   -1.5882   -2.1554    0.6658 C   0  0  0  0  0  0  0  0  0  0  0  0
   -0.6832   -2.8764    1.0638 O   0  0  0  0  0  0  0  0  0  0  0  0
   -1.3952   -0.9084    0.2428 N   0  0  0  0  0  0  0  0  0  0  0  0
   -2.1972   -0.3644   -0.0422 H   0  0  0  0  0  0  0  0  0  0  0  0
   -0.1122   -0.1994    0.2658 C   0  0  1  0  0  0  0  0  0  0  0  0
   -0.2856    0.8212    0.6167 H   0  0  0  0  0  0  0  0  0  0  0  0
    0.8326   -0.9142    1.2575 C   0  0  0  0  0  0  0  0  0  0  0  0
    0.8329   -1.9825    1.0439 H   0  0  0  0  0  0  0  0  0  0  0  0
    1.8456   -0.5379    1.1232 H   0  0  0  0  0  0  0  0  0  0  0  0
    0.4324   -0.7566    2.7156 C   0  0  0  0  0  0  0  0  0  0  0  0
    0.0424    0.2978    3.1862 O   0  0  0  0  0  0  0  0  0  0  0  0
    0.5246   -1.8084    3.4924 N   0  0  0  0  0  0  0  0  0  0  0  0
    0.2369   -1.6790    4.4464 H   0  0  0  0  0  0  0  0  0  0  0  0
    0.8244   -2.6918    3.1252 H   0  0  0  0  0  0  0  0  0  0  0  0
    0.4726   -0.1229   -1.1618 C   0  0  0  0  0  0  0  0  0  0  0  0
    0.0250   -0.8500   -2.0486 O   0  0  0  0  0  0  0  0  0  0  0  0
    1.4692    0.7402   -1.3812 N   0  0  0  0  0  0  0  0  0  0  0  0
    1.8282    1.2458   -0.5775 H   0  0  0  0  0  0  0  0  0  0  0  0
    2.1206    0.9416   -2.6742 C   0  0  0  0  0  0  0  0  0  0  0  0
    1.3740    1.2113   -3.4243 H   0  0  0  0  0  0  0  0  0  0  0  0
    2.8609    1.7393   -2.6001 H   0  0  0  0  0  0  0  0  0  0  0  0
    2.6135    0.0193   -2.9861 H   0  0  0  0  0  0  0  0  0  0  0  0
  5  6  2  0  0  0  0
  5  7  1  0  0  0  0
  2  3  1  0  0  0  0
  2  4  1  0  0  0  0
  2  5  1  0  0  0  0
  1  2  1  0  0  0  0
 19 20  2  0  0  0  0
 19 21  1  0  0  0  0
 16 17  1  0  0  0  0
 16 18  1  0  0  0  0
 14 15  2  0  0  0  0
 14 16  1  0  0  0  0
 11 12  1  0  0  0  0
 11 13  1  0  0  0  0
 11 14  1  0  0  0  0
  9 10  1  0  0  0  0
  9 11  1  0  0  0  0
  9 19  1  0  0  0  0
  7  8  1  0  0  0  0
  7  9  1  0  0  0  0
 23 24  1  0  0  0  0
 23 25  1  0  0  0  0
 23 26  1  0  0  0  0
 21 22  1  0  0  0  0
 21 23  1  0  0  0  0
M  END
$$$$
default_name
  -OEChem-01062215323D

 26 25  0     1  0  0  0  0  0999 V2000
   -3.0232   -3.6924    1.0038 H   0  0  0  0  0  0  0  0  0  0  0  0
   -3.0082   -2.6684    0.6318 C   0  0  0  0  0  0  0  0  0  0  0  0
   -3.6332   -2.0414    1.2658 H   0  0  0  0  0  0  0  0  0  0  0  0
   -3.3762   -2.6444   -0.3912 H   0  0  0  0  0  0  0  0  0  0  0  0
   -1.5882   -2.1554    0.6658 C   0  0  0  0  0  0  0  0  0  0  0  0
   -0.6832   -2.8764    1.0638 O   0  0  0  0  0  0  0  0  0  0  0  0
   -1.3952   -0.9084    0.2428 N   0  0  0  0  0  0  0  0  0  0  0  0
   -2.1972   -0.3644   -0.0422 H   0  0  0  0  0  0  0  0  0  0  0  0
   -0.1122   -0.1994    0.2658 C   0  0  1  0  0  0  0  0  0  0  0  0
   -0.2295    0.7120    0.8578 H   0  0  0  0  0  0  0  0  0  0  0  0
    0.9422   -1.1025    0.9438 C   0  0  0  0  0  0  0  0  0  0  0  0
    0.9047   -2.0945    0.4952 H   0  0  0  0  0  0  0  0  0  0  0  0
    1.9342   -0.6869    0.7731 H   0  0  0  0  0  0  0  0  0  0  0  0
    0.7301   -1.2862    2.4379 C   0  0  0  0  0  0  0  0  0  0  0  0
    0.4133   -0.3731    3.1802 O   0  0  0  0  0  0  0  0  0  0  0  0
    0.9082   -2.4847    2.9382 N   0  0  0  0  0  0  0  0  0  0  0  0
    0.7440   -2.5797    3.9249 H   0  0  0  0  0  0  0  0  0  0  0  0
    1.1504   -3.2563    2.3458 H   0  0  0  0  0  0  0  0  0  0  0  0
    0.2894    0.2089   -1.1687 C   0  0  0  0  0  0  0  0  0  0  0  0
   -0.4390   -0.0835   -2.1171 O   0  0  0  0  0  0  0  0  0  0  0  0
    1.4406    0.8685   -1.3293 N   0  0  0  0  0  0  0  0  0  0  0  0
    2.0162    1.0015   -0.5039 H   0  0  0  0  0  0  0  0  0  0  0  0
    1.9553    1.3348   -2.6156 C   0  0  0  0  0  0  0  0  0  0  0  0
    1.2169    1.9813   -3.0948 H   0  0  0  0  0  0  0  0  0  0  0  0
    2.8809    1.8930   -2.4683 H   0  0  0  0  0  0  0  0  0  0  0  0
    2.1485    0.4807   -3.2668 H   0  0  0  0  0  0  0  0  0  0  0  0
  5  6  2  0  0  0  0
  5  7  1  0  0  0  0
  2  3  1  0  0  0  0
  2  4  1  0  0  0  0
  2  5  1  0  0  0  0
  1  2  1  0  0  0  0
 19 20  2  0  0  0  0
 19 21  1  0  0  0  0
 16 17  1  0  0  0  0
 16 18  1  0  0  0  0
 14 15  2  0  0  0  0
 14 16  1  0  0  0  0
 11 12  1  0  0  0  0
 11 13  1  0  0  0  0
 11 14  1  0  0  0  0
  9 10  1  0  0  0  0
  9 11  1  0  0  0  0
  9 19  1  0  0  0  0
  7  8  1  0  0  0  0
  7  9  1  0  0  0  0
 23 24  1  0  0  0  0
 23 25  1  0  0  0  0
 23 26  1  0  0  0  0
 21 22  1  0  0  0  0
 21 23  1  0  0  0  0
M  END
$$$$
default_name
  -OEChem-01062215323D

 26 25  0     1  0  0  0  0  0999 V2000
   -3.0232   -3.6924    1.0038 H   0  0  0  0  0  0  0  0  0  0  0  0
   -3.0082   -2.6684    0.6318 C   0  0  0  0  0  0  0  0  0  0  0  0
   -3.6332   -2.0414    1.2658 H   0  0  0  0  0  0  0  0  0  0  0  0
   -3.3762   -2.6444   -0.3912 H   0  0  0  0  0  0  0  0  0  0  0  0
   -1.5882   -2.1554    0.6658 C   0  0  0  0  0  0  0  0  0  0  0  0
   -0.6832   -2.8764    1.0638 O   0  0  0  0  0  0  0  0  0  0  0  0
   -1.3952   -0.9084    0.2428 N   0  0  0  0  0  0  0  0  0  0  0  0
   -2.1972   -0.3644   -0.0422 H   0  0  0  0  0  0  0  0  0  0  0  0
   -0.1122   -0.1994    0.2658 C   0  0  1  0  0  0  0  0  0  0  0  0
   -0.2295    0.7120    0.8578 H   0  0  0  0  0  0  0  0  0  0  0  0
    0.9422   -1.1025    0.9438 C   0  0  0  0  0  0  0  0  0  0  0  0
    0.9047   -2.0945    0.4952 H   0  0  0  0  0  0  0  0  0  0  0  0
    1.9342   -0.6869    0.7731 H   0  0  0  0  0  0  0  0  0  0  0  0
    0.7301   -1.2862    2.4379 C   0  0  0  0  0  0  0  0  0  0  0  0
    0.4133   -0.3731    3.1802 O   0  0  0  0  0  0  0  0  0  0  0  0
    0.9082   -2.4847    2.9382 N   0  0  0  0  0  0  0  0  0  0  0  0
    0.7440   -2.5797    3.9249 H   0  0  0  0  0  0  0  0  0  0  0  0
    1.1504   -3.2563    2.3458 H   0  0  0  0  0  0  0  0  0  0  0  0
    0.2894    0.2089   -1.1687 C   0  0  0  0  0  0  0  0  0  0  0  0
   -0.5439    0.1709   -2.0741 O   0  0  0  0  0  0  0  0  0  0  0  0
    1.5545    0.5857   -1.3779 N   0  0  0  0  0  0  0  0  0  0  0  0
    2.1938    0.5151   -0.5926 H   0  0  0  0  0  0  0  0  0  0  0  0
    2.0886    1.0121   -2.6701 C   0  0  0  0  0  0  0  0  0  0  0  0
    1.5017    1.8501   -3.0524 H   0  0  0  0  0  0  0  0  0  0  0  0
    3.1291    1.3211   -2.5615 H   0  0  0  0  0  0  0  0  0  0  0  0
    2.0291    0.1883   -3.3834 H   0  0  0  0  0  0  0  0  0  0  0  0
  5  6  2  0  0  0  0
  5  7  1  0  0  0  0
  2  3  1  0  0  0  0
  2  4  1  0  0  0  0
  2  5  1  0  0  0  0
  1  2  1  0  0  0  0
 19 20  2  0  0  0  0
 19 21  1  0  0  0  0
 16 17  1  0  0  0  0
 16 18  1  0  0  0  0
 14 15  2  0  0  0  0
 14 16  1  0  0  0  0
 11 12  1  0  0  0  0
 11 13  1  0  0  0  0
 11 14  1  0  0  0  0
  9 10  1  0  0  0  0
  9 11  1  0  0  0  0
  9 19  1  0  0  0  0
  7  8  1  0  0  0  0
  7  9  1  0  0  0  0
 23 24  1  0  0  0  0
 23 25  1  0  0  0  0
 23 26  1  0  0  0  0
 21 22  1  0  0  0  0
 21 23  1  0  0  0  0
M  END
$$$$
default_name
  -OEChem-01062215323D

 26 25  0     1  0  0  0  0  0999 V2000
   -3.0232   -3.6924    1.0038 H   0  0  0  0  0  0  0  0  0  0  0  0
   -3.0082   -2.6684    0.6318 C   0  0  0  0  0  0  0  0  0  0  0  0
   -3.6332   -2.0414    1.2658 H   0  0  0  0  0  0  0  0  0  0  0  0
   -3.3762   -2.6444   -0.3912 H   0  0  0  0  0  0  0  0  0  0  0  0
   -1.5882   -2.1554    0.6658 C   0  0  0  0  0  0  0  0  0  0  0  0
   -0.6832   -2.8764    1.0638 O   0  0  0  0  0  0  0  0  0  0  0  0
   -1.3952   -0.9084    0.2428 N   0  0  0  0  0  0  0  0  0  0  0  0
   -2.1972   -0.3644   -0.0422 H   0  0  0  0  0  0  0  0  0  0  0  0
   -0.1122   -0.1994    0.2658 C   0  0  1  0  0  0  0  0  0  0  0  0
   -0.2295    0.7120    0.8578 H   0  0  0  0  0  0  0  0  0  0  0  0
    0.9422   -1.1025    0.9438 C   0  0  0  0  0  0  0  0  0  0  0  0
    0.9047   -2.0945    0.4952 H   0  0  0  0  0  0  0  0  0  0  0  0
    1.9342   -0.6869    0.7731 H   0  0  0  0  0  0  0  0  0  0  0  0
    0.7301   -1.2862    2.4379 C   0  0  0  0  0  0  0  0  0  0  0  0
    0.4133   -0.3731    3.1802 O   0  0  0  0  0  0  0  0  0  0  0  0
    0.9082   -2.4847    2.9382 N   0  0  0  0  0  0  0  0  0  0  0  0
    0.7440   -2.5797    3.9249 H   0  0  0  0  0  0  0  0  0  0  0  0
    1.1504   -3.2563    2.3458 H   0  0  0  0  0  0  0  0  0  0  0  0
    0.2894    0.2089   -1.1687 C   0  0  0  0  0  0  0  0  0  0  0  0
   -0.5811    0.4390   -2.0082 O   0  0  0  0  0  0  0  0  0  0  0  0
    1.5932    0.2884   -1.4517 N   0  0  0  0  0  0  0  0  0  0  0  0
    2.2423    0.0085   -0.7232 H   0  0  0  0  0  0  0  0  0  0  0  0
    2.1360    0.6719   -2.7536 C   0  0  0  0  0  0  0  0  0  0  0  0
    1.7482    1.6520   -3.0397 H   0  0  0  0  0  0  0  0  0  0  0  0
    3.2250    0.7153   -2.7071 H   0  0  0  0  0  0  0  0  0  0  0  0
    1.8356   -0.0576   -3.5076 H   0  0  0  0  0  0  0  0  0  0  0  0
  5  6  2  0  0  0  0
  5  7  1  0  0  0  0
  2  3  1  0  0  0  0
  2  4  1  0  0  0  0
  2  5  1  0  0  0  0
  1  2  1  0  0  0  0
 19 20  2  0  0  0  0
 19 21  1  0  0  0  0
 16 17  1  0  0  0  0
 16 18  1  0  0  0  0
 14 15  2  0  0  0  0
 14 16  1  0  0  0  0
 11 12  1  0  0  0  0
 11 13  1  0  0  0  0
 11 14  1  0  0  0  0
  9 10  1  0  0  0  0
  9 11  1  0  0  0  0
  9 19  1  0  0  0  0
  7  8  1  0  0  0  0
  7  9  1  0  0  0  0
 23 24  1  0  0  0  0
 23 25  1  0  0  0  0
 23 26  1  0  0  0  0
 21 22  1  0  0  0  0
 21 23  1  0  0  0  0
M  END
$$$$
default_name
  -OEChem-01062215323D

 26 25  0     1  0  0  0  0  0999 V2000
   -3.0232   -3.6924    1.0038 H   0  0  0  0  0  0  0  0  0  0  0  0
   -3.0082   -2.6684    0.6318 C   0  0  0  0  0  0  0  0  0  0  0  0
   -3.6332   -2.0414    1.2658 H   0  0  0  0  0  0  0  0  0  0  0  0
   -3.3762   -2.6444   -0.3912 H   0  0  0  0  0  0  0  0  0  0  0  0
   -1.5882   -2.1554    0.6658 C   0  0  0  0  0  0  0  0  0  0  0  0
   -0.6832   -2.8764    1.0638 O   0  0  0  0  0  0  0  0  0  0  0  0
   -1.3952   -0.9084    0.2428 N   0  0  0  0  0  0  0  0  0  0  0  0
   -2.1972   -0.3644   -0.0422 H   0  0  0  0  0  0  0  0  0  0  0  0
   -0.1122   -0.1994    0.2658 C   0  0  1  0  0  0  0  0  0  0  0  0
   -0.2295    0.7120    0.8578 H   0  0  0  0  0  0  0  0  0  0  0  0
    0.9422   -1.1025    0.9438 C   0  0  0  0  0  0  0  0  0  0  0  0
    0.9047   -2.0945    0.4952 H   0  0  0  0  0  0  0  0  0  0  0  0
    1.9342   -0.6869    0.7731 H   0  0  0  0  0  0  0  0  0  0  0  0
    0.7301   -1.2862    2.4379 C   0  0  0  0  0  0  0  0  0  0  0  0
    0.4133   -0.3731    3.1802 O   0  0  0  0  0  0  0  0  0  0  0  0
    0.9082   -2.4847    2.9382 N   0  0  0  0  0  0  0  0  0  0  0  0
    0.7440   -2.5797    3.9249 H   0  0  0  0  0  0  0  0  0  0  0  0
    1.1504   -3.2563    2.3458 H   0  0  0  0  0  0  0  0  0  0  0  0
    0.2894    0.2089   -1.1687 C   0  0  0  0  0  0  0  0  0  0  0  0
   -0.5481    0.7024   -1.9240 O   0  0  0  0  0  0  0  0  0  0  0  0
    1.5540   -0.0030   -1.5456 N   0  0  0  0  0  0  0  0  0  0  0  0
    2.1584   -0.4837   -0.8868 H   0  0  0  0  0  0  0  0  0  0  0  0
    2.0944    0.3376   -2.8604 C   0  0  0  0  0  0  0  0  0  0  0  0
    1.9395    1.4005   -3.0577 H   0  0  0  0  0  0  0  0  0  0  0  0
    3.1621    0.1168   -2.8950 H   0  0  0  0  0  0  0  0  0  0  0  0
    1.5810   -0.2403   -3.6308 H   0  0  0  0  0  0  0  0  0  0  0  0
  5  6  2  0  0  0  0
  5  7  1  0  0  0  0
  2  3  1  0  0  0  0
  2  4  1  0  0  0  0
  2  5  1  0  0  0  0
  1  2  1  0  0  0  0
 19 20  2  0  0  0  0
 19 21  1  0  0  0  0
 16 17  1  0  0  0  0
 16 18  1  0  0  0  0
 14 15  2  0  0  0  0
 14 16  1  0  0  0  0
 11 12  1  0  0  0  0
 11 13  1  0  0  0  0
 11 14  1  0  0  0  0
  9 10  1  0  0  0  0
  9 11  1  0  0  0  0
  9 19  1  0  0  0  0
  7  8  1  0  0  0  0
  7  9  1  0  0  0  0
 23 24  1  0  0  0  0
 23 25  1  0  0  0  0
 23 26  1  0  0  0  0
 21 22  1  0  0  0  0
 21 23  1  0  0  0  0
M  END
$$$$
default_name
  -OEChem-01062215323D

 26 25  0     1  0  0  0  0  0999 V2000
   -3.0232   -3.6924    1.0038 H   0  0  0  0  0  0  0  0  0  0  0  0
   -3.0082   -2.6684    0.6318 C   0  0  0  0  0  0  0  0  0  0  0  0
   -3.6332   -2.0414    1.2658 H   0  0  0  0  0  0  0  0  0  0  0  0
   -3.3762   -2.6444   -0.3912 H   0  0  0  0  0  0  0  0  0  0  0  0
   -1.5882   -2.1554    0.6658 C   0  0  0  0  0  0  0  0  0  0  0  0
   -0.6832   -2.8764    1.0638 O   0  0  0  0  0  0  0  0  0  0  0  0
   -1.3952   -0.9084    0.2428 N   0  0  0  0  0  0  0  0  0  0  0  0
   -2.1972   -0.3644   -0.0422 H   0  0  0  0  0  0  0  0  0  0  0  0
   -0.1122   -0.1994    0.2658 C   0  0  1  0  0  0  0  0  0  0  0  0
   -0.2295    0.7120    0.8578 H   0  0  0  0  0  0  0  0  0  0  0  0
    0.9422   -1.1025    0.9438 C   0  0  0  0  0  0  0  0  0  0  0  0
    0.9047   -2.0945    0.4952 H   0  0  0  0  0  0  0  0  0  0  0  0
    1.9342   -0.6869    0.7731 H   0  0  0  0  0  0  0  0  0  0  0  0
    0.7301   -1.2862    2.4379 C   0  0  0  0  0  0  0  0  0  0  0  0
    0.4133   -0.3731    3.1802 O   0  0  0  0  0  0  0  0  0  0  0  0
    0.9082   -2.4847    2.9382 N   0  0  0  0  0  0  0  0  0  0  0  0
    0.7440   -2.5797    3.9249 H   0  0  0  0  0  0  0  0  0  0  0  0
    1.1504   -3.2563    2.3458 H   0  0  0  0  0  0  0  0  0  0  0  0
    0.2894    0.2089   -1.1687 C   0  0  0  0  0  0  0  0  0  0  0  0
   -0.4472    0.9433   -1.8272 O   0  0  0  0  0  0  0  0  0  0  0  0
    1.4398   -0.2688   -1.6532 N   0  0  0  0  0  0  0  0  0  0  0  0
    1.9479   -0.9280   -1.0721 H   0  0  0  0  0  0  0  0  0  0  0  0
    1.9665    0.0319   -2.9833 C   0  0  0  0  0  0  0  0  0  0  0  0
    2.0627    1.1129   -3.1051 H   0  0  0  0  0  0  0  0  0  0  0  0
    2.9446   -0.4335   -3.1125 H   0  0  0  0  0  0  0  0  0  0  0  0
    1.2828   -0.3472   -3.7447 H   0  0  0  0  0  0  0  0  0  0  0  0
  5  6  2  0  0  0  0
  5  7  1  0  0  0  0
  2  3  1  0  0  0  0
  2  4  1  0  0  0  0
  2  5  1  0  0  0  0
  1  2  1  0  0  0  0
 19 20  2  0  0  0  0
 19 21  1  0  0  0  0
 16 17  1  0  0  0  0
 16 18  1  0  0  0  0
 14 15  2  0  0  0  0
 14 16  1  0  0  0  0
 11 12  1  0  0  0  0
 11 13  1  0  0  0  0
 11 14  1  0  0  0  0
  9 10  1  0  0  0  0
  9 11  1  0  0  0  0
  9 19  1  0  0  0  0
  7  8  1  0  0  0  0
  7  9  1  0  0  0  0
 23 24  1  0  0  0  0
 23 25  1  0  0  0  0
 23 26  1  0  0  0  0
 21 22  1  0  0  0  0
 21 23  1  0  0  0  0
M  END
$$$$
default_name
  -OEChem-01062215323D

 26 25  0     1  0  0  0  0  0999 V2000
   -3.0232   -3.6924    1.0038 H   0  0  0  0  0  0  0  0  0  0  0  0
   -3.0082   -2.6684    0.6318 C   0  0  0  0  0  0  0  0  0  0  0  0
   -3.6332   -2.0414    1.2658 H   0  0  0  0  0  0  0  0  0  0  0  0
   -3.3762   -2.6444   -0.3912 H   0  0  0  0  0  0  0  0  0  0  0  0
   -1.5882   -2.1554    0.6658 C   0  0  0  0  0  0  0  0  0  0  0  0
   -0.6832   -2.8764    1.0638 O   0  0  0  0  0  0  0  0  0  0  0  0
   -1.3952   -0.9084    0.2428 N   0  0  0  0  0  0  0  0  0  0  0  0
   -2.1972   -0.3644   -0.0422 H   0  0  0  0  0  0  0  0  0  0  0  0
   -0.1122   -0.1994    0.2658 C   0  0  1  0  0  0  0  0  0  0  0  0
   -0.2295    0.7120    0.8578 H   0  0  0  0  0  0  0  0  0  0  0  0
    0.9422   -1.1025    0.9438 C   0  0  0  0  0  0  0  0  0  0  0  0
    0.9047   -2.0945    0.4952 H   0  0  0  0  0  0  0  0  0  0  0  0
    1.9342   -0.6869    0.7731 H   0  0  0  0  0  0  0  0  0  0  0  0
    0.7301   -1.2862    2.4379 C   0  0  0  0  0  0  0  0  0  0  0  0
    0.4133   -0.3731    3.1802 O   0  0  0  0  0  0  0  0  0  0  0  0
    0.9082   -2.4847    2.9382 N   0  0  0  0  0  0  0  0  0  0  0  0
    0.7440   -2.5797    3.9249 H   0  0  0  0  0  0  0  0  0  0  0  0
    1.1504   -3.2563    2.3458 H   0  0  0  0  0  0  0  0  0  0  0  0
    0.2894    0.2089   -1.1687 C   0  0  0  0  0  0  0  0  0  0  0  0
   -0.2851    1.1451   -1.7244 O   0  0  0  0  0  0  0  0  0  0  0  0
    1.2581   -0.4909   -1.7673 N   0  0  0  0  0  0  0  0  0  0  0  0
    1.6251   -1.2940   -1.2667 H   0  0  0  0  0  0  0  0  0  0  0  0
    1.7610   -0.2245   -3.1137 C   0  0  0  0  0  0  0  0  0  0  0  0
    2.1092    0.8086   -3.1787 H   0  0  0  0  0  0  0  0  0  0  0  0
    2.5874   -0.8981   -3.3447 H   0  0  0  0  0  0  0  0  0  0  0  0
    0.9613   -0.3712   -3.8416 H   0  0  0  0  0  0  0  0  0  0  0  0
  5  6  2  0  0  0  0
  5  7  1  0  0  0  0
  2  3  1  0  0  0  0
  2  4  1  0  0  0  0
  2  5  1  0  0  0  0
  1  2  1  0  0  0  0
 19 20  2  0  0  0  0
 19 21  1  0  0  0  0
 16 17  1  0  0  0  0
 16 18  1  0  0  0  0
 14 15  2  0  0  0  0
 14 16  1  0  0  0  0
 11 12  1  0  0  0  0
 11 13  1  0  0  0  0
 11 14  1  0  0  0  0
  9 10  1  0  0  0  0
  9 11  1  0  0  0  0
  9 19  1  0  0  0  0
  7  8  1  0  0  0  0
  7  9  1  0  0  0  0
 23 24  1  0  0  0  0
 23 25  1  0  0  0  0
 23 26  1  0  0  0  0
 21 22  1  0  0  0  0
 21 23  1  0  0  0  0
M  END
$$$$
default_name
  -OEChem-01062215323D

 26 25  0     1  0  0  0  0  0999 V2000
   -3.0232   -3.6924    1.0038 H   0  0  0  0  0  0  0  0  0  0  0  0
   -3.0082   -2.6684    0.6318 C   0  0  0  0  0  0  0  0  0  0  0  0
   -3.6332   -2.0414    1.2658 H   0  0  0  0  0  0  0  0  0  0  0  0
   -3.3762   -2.6444   -0.3912 H   0  0  0  0  0  0  0  0  0  0  0  0
   -1.5882   -2.1554    0.6658 C   0  0  0  0  0  0  0  0  0  0  0  0
   -0.6832   -2.8764    1.0638 O   0  0  0  0  0  0  0  0  0  0  0  0
   -1.3952   -0.9084    0.2428 N   0  0  0  0  0  0  0  0  0  0  0  0
   -2.1972   -0.3644   -0.0422 H   0  0  0  0  0  0  0  0  0  0  0  0
   -0.1122   -0.1994    0.2658 C   0  0  1  0  0  0  0  0  0  0  0  0
   -0.2295    0.7120    0.8578 H   0  0  0  0  0  0  0  0  0  0  0  0
    0.9422   -1.1025    0.9438 C   0  0  0  0  0  0  0  0  0  0  0  0
    0.9047   -2.0945    0.4952 H   0  0  0  0  0  0  0  0  0  0  0  0
    1.9342   -0.6869    0.7731 H   0  0  0  0  0  0  0  0  0  0  0  0
    0.7301   -1.2862    2.4379 C   0  0  0  0  0  0  0  0  0  0  0  0
    0.4133   -0.3731    3.1802 O   0  0  0  0  0  0  0  0  0  0  0  0
    0.9082   -2.4847    2.9382 N   0  0  0  0  0  0  0  0  0  0  0  0
    0.7440   -2.5797    3.9249 H   0  0  0  0  0  0  0  0  0  0  0  0
    1.1504   -3.2563    2.3458 H   0  0  0  0  0  0  0  0  0  0  0  0
    0.2894    0.2089   -1.1687 C   0  0  0  0  0  0  0  0  0  0  0  0
   -0.0731    1.2943   -1.6226 O   0  0  0  0  0  0  0  0  0  0  0  0
    1.0215   -0.6540   -1.8799 N   0  0  0  0  0  0  0  0  0  0  0  0
    1.2120   -1.5569   -1.4571 H   0  0  0  0  0  0  0  0  0  0  0  0
    1.4921   -0.4139   -3.2429 C   0  0  0  0  0  0  0  0  0  0  0  0
    2.0760    0.5085   -3.2734 H   0  0  0  0  0  0  0  0  0  0  0  0
    2.1147   -1.2454   -3.5758 H   0  0  0  0  0  0  0  0  0  0  0  0
    0.6383   -0.3105   -3.9147 H   0  0  0  0  0  0  0  0  0  0  0  0
  5  6  2  0  0  0  0
  5  7  1  0  0  0  0
  2  3  1  0  0  0  0
  2  4  1  0  0  0  0
  2  5  1  0  0  0  0
  1  2  1  0  0  0  0
 19 20  2  0  0  0  0
 19 21  1  0  0  0  0
 16 17  1  0  0  0  0
 16 18  1  0  0  0  0
 14 15  2  0  0  0  0
 14 16  1  0  0  0  0
 11 12  1  0  0  0  0
 11 13  1  0  0  0  0
 11 14  1  0  0  0  0
  9 10  1  0  0  0  0
  9 11  1  0  0  0  0
  9 19  1  0  0  0  0
  7  8  1  0  0  0  0
  7  9  1  0  0  0  0
 23 24  1  0  0  0  0
 23 25  1  0  0  0  0
 23 26  1  0  0  0  0
 21 22  1  0  0  0  0
 21 23  1  0  0  0  0
M  END
$$$$
default_name
  -OEChem-01062215323D

 26 25  0     1  0  0  0  0  0999 V2000
   -3.0232   -3.6924    1.0038 H   0  0  0  0  0  0  0  0  0  0  0  0
   -3.0082   -2.6684    0.6318 C   0  0  0  0  0  0  0  0  0  0  0  0
   -3.6332   -2.0414    1.2658 H   0  0  0  0  0  0  0  0  0  0  0  0
   -3.3762   -2.6444   -0.3912 H   0  0  0  0  0  0  0  0  0  0  0  0
   -1.5882   -2.1554    0.6658 C   0  0  0  0  0  0  0  0  0  0  0  0
   -0.6832   -2.8764    1.0638 O   0  0  0  0  0  0  0  0  0  0  0  0
   -1.3952   -0.9084    0.2428 N   0  0  0  0  0  0  0  0  0  0  0  0
   -2.1972   -0.3644   -0.0422 H   0  0  0  0  0  0  0  0  0  0  0  0
   -0.1122   -0.1994    0.2658 C   0  0  1  0  0  0  0  0  0  0  0  0
   -0.2295    0.7120    0.8578 H   0  0  0  0  0  0  0  0  0  0  0  0
    0.9422   -1.1025    0.9438 C   0  0  0  0  0  0  0  0  0  0  0  0
    0.9047   -2.0945    0.4952 H   0  0  0  0  0  0  0  0  0  0  0  0
    1.9342   -0.6869    0.7731 H   0  0  0  0  0  0  0  0  0  0  0  0
    0.7301   -1.2862    2.4379 C   0  0  0  0  0  0  0  0  0  0  0  0
    0.4133   -0.3731    3.1802 O   0  0  0  0  0  0  0  0  0  0  0  0
    0.9082   -2.4847    2.9382 N   0  0  0  0  0  0  0  0  0  0  0  0
    0.7440   -2.5797    3.9249 H   0  0  0  0  0  0  0  0  0  0  0  0
    1.1504   -3.2563    2.3458 H   0  0  0  0  0  0  0  0  0  0  0  0
    0.2894    0.2089   -1.1687 C   0  0  0  0  0  0  0  0  0  0  0  0
    0.1746    1.3805   -1.5287 O   0  0  0  0  0  0  0  0  0  0  0  0
    0.7460   -0.7471   -1.9835 N   0  0  0  0  0  0  0  0  0  0  0  0
    0.7367   -1.6987   -1.6305 H   0  0  0  0  0  0  0  0  0  0  0  0
    1.1779   -0.5235   -3.3621 C   0  0  0  0  0  0  0  0  0  0  0  0
    1.9653    0.2330   -3.3828 H   0  0  0  0  0  0  0  0  0  0  0  0
    1.5589   -1.4517   -3.7901 H   0  0  0  0  0  0  0  0  0  0  0  0
    0.3359   -0.1694   -3.9592 H   0  0  0  0  0  0  0  0  0  0  0  0
  5  6  2  0  0  0  0
  5  7  1  0  0  0  0
  2  3  1  0  0  0  0
  2  4  1  0  0  0  0
  2  5  1  0  0  0  0
  1  2  1  0  0  0  0
 19 20  2  0  0  0  0
 19 21  1  0  0  0  0
 16 17  1  0  0  0  0
 16 18  1  0  0  0  0
 14 15  2  0  0  0  0
 14 16  1  0  0  0  0
 11 12  1  0  0  0  0
 11 13  1  0  0  0  0
 11 14  1  0  0  0  0
  9 10  1  0  0  0  0
  9 11  1  0  0  0  0
  9 19  1  0  0  0  0
  7  8  1  0  0  0  0
  7  9  1  0  0  0  0
 23 24  1  0  0  0  0
 23 25  1  0  0  0  0
 23 26  1  0  0  0  0
 21 22  1  0  0  0  0
 21 23  1  0  0  0  0
M  END
$$$$
default_name
  -OEChem-01062215323D

 26 25  0     1  0  0  0  0  0999 V2000
   -3.0232   -3.6924    1.0038 H   0  0  0  0  0  0  0  0  0  0  0  0
   -3.0082   -2.6684    0.6318 C   0  0  0  0  0  0  0  0  0  0  0  0
   -3.6332   -2.0414    1.2658 H   0  0  0  0  0  0  0  0  0  0  0  0
   -3.3762   -2.6444   -0.3912 H   0  0  0  0  0  0  0  0  0  0  0  0
   -1.5882   -2.1554    0.6658 C   0  0  0  0  0  0  0  0  0  0  0  0
   -0.6832   -2.8764    1.0638 O   0  0  0  0  0  0  0  0  0  0  0  0
   -1.3952   -0.9084    0.2428 N   0  0  0  0  0  0  0  0  0  0  0  0
   -2.1972   -0.3644   -0.0422 H   0  0  0  0  0  0  0  0  0  0  0  0
   -0.1122   -0.1994    0.2658 C   0  0  1  0  0  0  0  0  0  0  0  0
   -0.2295    0.7120    0.8578 H   0  0  0  0  0  0  0  0  0  0  0  0
    0.9422   -1.1025    0.9438 C   0  0  0  0  0  0  0  0  0  0  0  0
    0.9047   -2.0945    0.4952 H   0  0  0  0  0  0  0  0  0  0  0  0
    1.9342   -0.6869    0.7731 H   0  0  0  0  0  0  0  0  0  0  0  0
    0.7301   -1.2862    2.4379 C   0  0  0  0  0  0  0  0  0  0  0  0
    0.4133   -0.3731    3.1802 O   0  0  0  0  0  0  0  0  0  0  0  0
    0.9082   -2.4847    2.9382 N   0  0  0  0  0  0  0  0  0  0  0  0
    0.7440   -2.5797    3.9249 H   0  0  0  0  0  0  0  0  0  0  0  0
    1.1504   -3.2563    2.3458 H   0  0  0  0  0  0  0  0  0  0  0  0
    0.2894    0.2089   -1.1687 C   0  0  0  0  0  0  0  0  0  0  0  0
    0.4409    1.3979   -1.4492 O   0  0  0  0  0  0  0  0  0  0  0  0
    0.4504   -0.7638   -2.0711 N   0  0  0  0  0  0  0  0  0  0  0  0
    0.2317   -1.7098   -1.7751 H   0  0  0  0  0  0  0  0  0  0  0  0
    0.8399   -0.5458   -3.4630 C   0  0  0  0  0  0  0  0  0  0  0  0
    1.7847    0.0008   -3.4994 H   0  0  0  0  0  0  0  0  0  0  0  0
    0.9578   -1.5029   -3.9730 H   0  0  0  0  0  0  0  0  0  0  0  0
    0.0747    0.0427   -3.9720 H   0  0  0  0  0  0  0  0  0  0  0  0
  5  6  2  0  0  0  0
  5  7  1  0  0  0  0
  2  3  1  0  0  0  0
  2  4  1  0  0  0  0
  2  5  1  0  0  0  0
  1  2  1  0  0  0  0
 19 20  2  0  0  0  0
 19 21  1  0  0  0  0
 16 17  1  0  0  0  0
 16 18  1  0  0  0  0
 14 15  2  0  0  0  0
 14 16  1  0  0  0  0
 11 12  1  0  0  0  0
 11 13  1  0  0  0  0
 11 14  1  0  0  0  0
  9 10  1  0  0  0  0
  9 11  1  0  0  0  0
  9 19  1  0  0  0  0
  7  8  1  0  0  0  0
  7  9  1  0  0  0  0
 23 24  1  0  0  0  0
 23 25  1  0  0  0  0
 23 26  1  0  0  0  0
 21 22  1  0  0  0  0
 21 23  1  0  0  0  0
M  END
$$$$
default_name
  -OEChem-01062215323D

 26 25  0     1  0  0  0  0  0999 V2000
   -3.0232   -3.6924    1.0038 H   0  0  0  0  0  0  0  0  0  0  0  0
   -3.0082   -2.6684    0.6318 C   0  0  0  0  0  0  0  0  0  0  0  0
   -3.6332   -2.0414    1.2658 H   0  0  0  0  0  0  0  0  0  0  0  0
   -3.3762   -2.6444   -0.3912 H   0  0  0  0  0  0  0  0  0  0  0  0
   -1.5882   -2.1554    0.6658 C   0  0  0  0  0  0  0  0  0  0  0  0
   -0.6832   -2.8764    1.0638 O   0  0  0  0  0  0  0  0  0  0  0  0
   -1.3952   -0.9084    0.2428 N   0  0  0  0  0  0  0  0  0  0  0  0
   -2.1972   -0.3644   -0.0422 H   0  0  0  0  0  0  0  0  0  0  0  0
   -0.1122   -0.1994    0.2658 C   0  0  1  0  0  0  0  0  0  0  0  0
   -0.2295    0.7120    0.8578 H   0  0  0  0  0  0  0  0  0  0  0  0
    0.9422   -1.1025    0.9438 C   0  0  0  0  0  0  0  0  0  0  0  0
    0.9047   -2.0945    0.4952 H   0  0  0  0  0  0  0  0  0  0  0  0
    1.9342   -0.6869    0.7731 H   0  0  0  0  0  0  0  0  0  0  0  0
    0.7301   -1.2862    2.4379 C   0  0  0  0  0  0  0  0  0  0  0  0
    0.4133   -0.3731    3.1802 O   0  0  0  0  0  0  0  0  0  0  0  0
    0.9082   -2.4847    2.9382 N   0  0  0  0  0  0  0  0  0  0  0  0
    0.7440   -2.5797    3.9249 H   0  0  0  0  0  0  0  0  0  0  0  0
    1.1504   -3.2563    2.3458 H   0  0  0  0  0  0  0  0  0  0  0  0
    0.2894    0.2089   -1.1687 C   0  0  0  0  0  0  0  0  0  0  0  0
    0.7078    1.3454   -1.3895 O   0  0  0  0  0  0  0  0  0  0  0  0
    0.1549   -0.7031   -2.1365 N   0  0  0  0  0  0  0  0  0  0  0  0
   -0.2686   -1.5894   -1.8809 H   0  0  0  0  0  0  0  0  0  0  0  0
    0.5012   -0.4794   -3.5389 C   0  0  0  0  0  0  0  0  0  0  0  0
    1.5464   -0.1723   -3.6154 H   0  0  0  0  0  0  0  0  0  0  0  0
    0.3523   -1.3956   -4.1120 H   0  0  0  0  0  0  0  0  0  0  0  0
   -0.1275    0.3111   -3.9522 H   0  0  0  0  0  0  0  0  0  0  0  0
  5  6  2  0  0  0  0
  5  7  1  0  0  0  0
  2  3  1  0  0  0  0
  2  4  1  0  0  0  0
  2  5  1  0  0  0  0
  1  2  1  0  0  0  0
 19 20  2  0  0  0  0
 19 21  1  0  0  0  0
 16 17  1  0  0  0  0
 16 18  1  0  0  0  0
 14 15  2  0  0  0  0
 14 16  1  0  0  0  0
 11 12  1  0  0  0  0
 11 13  1  0  0  0  0
 11 14  1  0  0  0  0
  9 10  1  0  0  0  0
  9 11  1  0  0  0  0
  9 19  1  0  0  0  0
  7  8  1  0  0  0  0
  7  9  1  0  0  0  0
 23 24  1  0  0  0  0
 23 25  1  0  0  0  0
 23 26  1  0  0  0  0
 21 22  1  0  0  0  0
 21 23  1  0  0  0  0
M  END
$$$$
default_name
  -OEChem-01062215323D

 26 25  0     1  0  0  0  0  0999 V2000
   -3.0232   -3.6924    1.0038 H   0  0  0  0  0  0  0  0  0  0  0  0
   -3.0082   -2.6684    0.6318 C   0  0  0  0  0  0  0  0  0  0  0  0
   -3.6332   -2.0414    1.2658 H   0  0  0  0  0  0  0  0  0  0  0  0
   -3.3762   -2.6444   -0.3912 H   0  0  0  0  0  0  0  0  0  0  0  0
   -1.5882   -2.1554    0.6658 C   0  0  0  0  0  0  0  0  0  0  0  0
   -0.6832   -2.8764    1.0638 O   0  0  0  0  0  0  0  0  0  0  0  0
   -1.3952   -0.9084    0.2428 N   0  0  0  0  0  0  0  0  0  0  0  0
   -2.1972   -0.3644   -0.0422 H   0  0  0  0  0  0  0  0  0  0  0  0
   -0.1122   -0.1994    0.2658 C   0  0  1  0  0  0  0  0  0  0  0  0
   -0.2295    0.7120    0.8578 H   0  0  0  0  0  0  0  0  0  0  0  0
    0.9422   -1.1025    0.9438 C   0  0  0  0  0  0  0  0  0  0  0  0
    0.9047   -2.0945    0.4952 H   0  0  0  0  0  0  0  0  0  0  0  0
    1.9342   -0.6869    0.7731 H   0  0  0  0  0  0  0  0  0  0  0  0
    0.7301   -1.2862    2.4379 C   0  0  0  0  0  0  0  0  0  0  0  0
    0.4133   -0.3731    3.1802 O   0  0  0  0  0  0  0  0  0  0  0  0
    0.9082   -2.4847    2.9382 N   0  0  0  0  0  0  0  0  0  0  0  0
    0.7440   -2.5797    3.9249 H   0  0  0  0  0  0  0  0  0  0  0  0
    1.1504   -3.2563    2.3458 H   0  0  0  0  0  0  0  0  0  0  0  0
    0.2894    0.2089   -1.1687 C   0  0  0  0  0  0  0  0  0  0  0  0
    0.9571    1.2264   -1.3535 O   0  0  0  0  0  0  0  0  0  0  0  0
   -0.1204   -0.5690   -2.1754 N   0  0  0  0  0  0  0  0  0  0  0  0
   -0.7302   -1.3457   -1.9407 H   0  0  0  0  0  0  0  0  0  0  0  0
    0.1848   -0.3287   -3.5846 C   0  0  0  0  0  0  0  0  0  0  0  0
    1.2668   -0.2743   -3.7227 H   0  0  0  0  0  0  0  0  0  0  0  0
   -0.2162   -1.1371   -4.1975 H   0  0  0  0  0  0  0  0  0  0  0  0
   -0.2570    0.6177   -3.9012 H   0  0  0  0  0  0  0  0  0  0  0  0
  5  6  2  0  0  0  0
  5  7  1  0  0  0  0
  2  3  1  0  0  0  0
  2  4  1  0  0  0  0
  2  5  1  0  0  0  0
  1  2  1  0  0  0  0
 19 20  2  0  0  0  0
 19 21  1  0  0  0  0
 16 17  1  0  0  0  0
 16 18  1  0  0  0  0
 14 15  2  0  0  0  0
 14 16  1  0  0  0  0
 11 12  1  0  0  0  0
 11 13  1  0  0  0  0
 11 14  1  0  0  0  0
  9 10  1  0  0  0  0
  9 11  1  0  0  0  0
  9 19  1  0  0  0  0
  7  8  1  0  0  0  0
  7  9  1  0  0  0  0
 23 24  1  0  0  0  0
 23 25  1  0  0  0  0
 23 26  1  0  0  0  0
 21 22  1  0  0  0  0
 21 23  1  0  0  0  0
M  END
$$$$
default_name
  -OEChem-01062215323D

 26 25  0     1  0  0  0  0  0999 V2000
   -3.0232   -3.6924    1.0038 H   0  0  0  0  0  0  0  0  0  0  0  0
   -3.0082   -2.6684    0.6318 C   0  0  0  0  0  0  0  0  0  0  0  0
   -3.6332   -2.0414    1.2658 H   0  0  0  0  0  0  0  0  0  0  0  0
   -3.3762   -2.6444   -0.3912 H   0  0  0  0  0  0  0  0  0  0  0  0
   -1.5882   -2.1554    0.6658 C   0  0  0  0  0  0  0  0  0  0  0  0
   -0.6832   -2.8764    1.0638 O   0  0  0  0  0  0  0  0  0  0  0  0
   -1.3952   -0.9084    0.2428 N   0  0  0  0  0  0  0  0  0  0  0  0
   -2.1972   -0.3644   -0.0422 H   0  0  0  0  0  0  0  0  0  0  0  0
   -0.1122   -0.1994    0.2658 C   0  0  1  0  0  0  0  0  0  0  0  0
   -0.2295    0.7120    0.8578 H   0  0  0  0  0  0  0  0  0  0  0  0
    0.9422   -1.1025    0.9438 C   0  0  0  0  0  0  0  0  0  0  0  0
    0.9047   -2.0945    0.4952 H   0  0  0  0  0  0  0  0  0  0  0  0
    1.9342   -0.6869    0.7731 H   0  0  0  0  0  0  0  0  0  0  0  0
    0.7301   -1.2862    2.4379 C   0  0  0  0  0  0  0  0  0  0  0  0
    0.4133   -0.3731    3.1802 O   0  0  0  0  0  0  0  0  0  0  0  0
    0.9082   -2.4847    2.9382 N   0  0  0  0  0  0  0  0  0  0  0  0
    0.7440   -2.5797    3.9249 H   0  0  0  0  0  0  0  0  0  0  0  0
    1.1504   -3.2563    2.3458 H   0  0  0  0  0  0  0  0  0  0  0  0
    0.2894    0.2089   -1.1687 C   0  0  0  0  0  0  0  0  0  0  0  0
    1.1718    1.0492   -1.3439 O   0  0  0  0  0  0  0  0  0  0  0  0
   -0.3567   -0.3706   -2.1851 N   0  0  0  0  0  0  0  0  0  0  0  0
   -1.1216   -0.9953   -1.9506 H   0  0  0  0  0  0  0  0  0  0  0  0
   -0.0878   -0.1040   -3.5970 C   0  0  0  0  0  0  0  0  0  0  0  0
    0.9648   -0.2984   -3.8141 H   0  0  0  0  0  0  0  0  0  0  0  0
   -0.7091   -0.7449   -4.2239 H   0  0  0  0  0  0  0  0  0  0  0  0
   -0.3048    0.9415   -3.8224 H   0  0  0  0  0  0  0  0  0  0  0  0
  5  6  2  0  0  0  0
  5  7  1  0  0  0  0
  2  3  1  0  0  0  0
  2  4  1  0  0  0  0
  2  5  1  0  0  0  0
  1  2  1  0  0  0  0
 19 20  2  0  0  0  0
 19 21  1  0  0  0  0
 16 17  1  0  0  0  0
 16 18  1  0  0  0  0
 14 15  2  0  0  0  0
 14 16  1  0  0  0  0
 11 12  1  0  0  0  0
 11 13  1  0  0  0  0
 11 14  1  0  0  0  0
  9 10  1  0  0  0  0
  9 11  1  0  0  0  0
  9 19  1  0  0  0  0
  7  8  1  0  0  0  0
  7  9  1  0  0  0  0
 23 24  1  0  0  0  0
 23 25  1  0  0  0  0
 23 26  1  0  0  0  0
 21 22  1  0  0  0  0
 21 23  1  0  0  0  0
M  END
$$$$
default_name
  -OEChem-01062215323D

 26 25  0     1  0  0  0  0  0999 V2000
   -3.0232   -3.6924    1.0038 H   0  0  0  0  0  0  0  0  0  0  0  0
   -3.0082   -2.6684    0.6318 C   0  0  0  0  0  0  0  0  0  0  0  0
   -3.6332   -2.0414    1.2658 H   0  0  0  0  0  0  0  0  0  0  0  0
   -3.3762   -2.6444   -0.3912 H   0  0  0  0  0  0  0  0  0  0  0  0
   -1.5882   -2.1554    0.6658 C   0  0  0  0  0  0  0  0  0  0  0  0
   -0.6832   -2.8764    1.0638 O   0  0  0  0  0  0  0  0  0  0  0  0
   -1.3952   -0.9084    0.2428 N   0  0  0  0  0  0  0  0  0  0  0  0
   -2.1972   -0.3644   -0.0422 H   0  0  0  0  0  0  0  0  0  0  0  0
   -0.1122   -0.1994    0.2658 C   0  0  1  0  0  0  0  0  0  0  0  0
   -0.2295    0.7120    0.8578 H   0  0  0  0  0  0  0  0  0  0  0  0
    0.9422   -1.1025    0.9438 C   0  0  0  0  0  0  0  0  0  0  0  0
    0.9047   -2.0945    0.4952 H   0  0  0  0  0  0  0  0  0  0  0  0
    1.9342   -0.6869    0.7731 H   0  0  0  0  0  0  0  0  0  0  0  0
    0.7301   -1.2862    2.4379 C   0  0  0  0  0  0  0  0  0  0  0  0
    0.4133   -0.3731    3.1802 O   0  0  0  0  0  0  0  0  0  0  0  0
    0.9082   -2.4847    2.9382 N   0  0  0  0  0  0  0  0  0  0  0  0
    0.7440   -2.5797    3.9249 H   0  0  0  0  0  0  0  0  0  0  0  0
    1.1504   -3.2563    2.3458 H   0  0  0  0  0  0  0  0  0  0  0  0
    0.2894    0.2089   -1.1687 C   0  0  0  0  0  0  0  0  0  0  0  0
    1.3372    0.8258   -1.3611 O   0  0  0  0  0  0  0  0  0  0  0  0
   -0.5380   -0.1215   -2.1650 N   0  0  0  0  0  0  0  0  0  0  0  0
   -1.4161   -0.5622   -1.9097 H   0  0  0  0  0  0  0  0  0  0  0  0
   -0.2978    0.1794   -3.5751 C   0  0  0  0  0  0  0  0  0  0  0  0
    0.6610   -0.2430   -3.8834 H   0  0  0  0  0  0  0  0  0  0  0  0
   -1.0927   -0.2459   -4.1893 H   0  0  0  0  0  0  0  0  0  0  0  0
   -0.2678    1.2605   -3.7213 H   0  0  0  0  0  0  0  0  0  0  0  0
  5  6  2  0  0  0  0
  5  7  1  0  0  0  0
  2  3  1  0  0  0  0
  2  4  1  0  0  0  0
  2  5  1  0  0  0  0
  1  2  1  0  0  0  0
 19 20  2  0  0  0  0
 19 21  1  0  0  0  0
 16 17  1  0  0  0  0
 16 18  1  0  0  0  0
 14 15  2  0  0  0  0
 14 16  1  0  0  0  0
 11 12  1  0  0  0  0
 11 13  1  0  0  0  0
 11 14  1  0  0  0  0
  9 10  1  0  0  0  0
  9 11  1  0  0  0  0
  9 19  1  0  0  0  0
  7  8  1  0  0  0  0
  7  9  1  0  0  0  0
 23 24  1  0  0  0  0
 23 25  1  0  0  0  0
 23 26  1  0  0  0  0
 21 22  1  0  0  0  0
 21 23  1  0  0  0  0
M  END
$$$$
default_name
  -OEChem-01062215323D

 26 25  0     1  0  0  0  0  0999 V2000
   -3.0232   -3.6924    1.0038 H   0  0  0  0  0  0  0  0  0  0  0  0
   -3.0082   -2.6684    0.6318 C   0  0  0  0  0  0  0  0  0  0  0  0
   -3.6332   -2.0414    1.2658 H   0  0  0  0  0  0  0  0  0  0  0  0
   -3.3762   -2.6444   -0.3912 H   0  0  0  0  0  0  0  0  0  0  0  0
   -1.5882   -2.1554    0.6658 C   0  0  0  0  0  0  0  0  0  0  0  0
   -0.6832   -2.8764    1.0638 O   0  0  0  0  0  0  0  0  0  0  0  0
   -1.3952   -0.9084    0.2428 N   0  0  0  0  0  0  0  0  0  0  0  0
   -2.1972   -0.3644   -0.0422 H   0  0  0  0  0  0  0  0  0  0  0  0
   -0.1122   -0.1994    0.2658 C   0  0  1  0  0  0  0  0  0  0  0  0
   -0.2295    0.7120    0.8578 H   0  0  0  0  0  0  0  0  0  0  0  0
    0.9422   -1.1025    0.9438 C   0  0  0  0  0  0  0  0  0  0  0  0
    0.9047   -2.0945    0.4952 H   0  0  0  0  0  0  0  0  0  0  0  0
    1.9342   -0.6869    0.7731 H   0  0  0  0  0  0  0  0  0  0  0  0
    0.7301   -1.2862    2.4379 C   0  0  0  0  0  0  0  0  0  0  0  0
    0.4133   -0.3731    3.1802 O   0  0  0  0  0  0  0  0  0  0  0  0
    0.9082   -2.4847    2.9382 N   0  0  0  0  0  0  0  0  0  0  0  0
    0.7440   -2.5797    3.9249 H   0  0  0  0  0  0  0  0  0  0  0  0
    1.1504   -3.2563    2.3458 H   0  0  0  0  0  0  0  0  0  0  0  0
    0.2894    0.2089   -1.1687 C   0  0  0  0  0  0  0  0  0  0  0  0
    1.4420    0.5714   -1.4042 O   0  0  0  0  0  0  0  0  0  0  0  0
   -0.6519    0.1612   -2.1164 N   0  0  0  0  0  0  0  0  0  0  0  0
   -1.5937   -0.0757   -1.8210 H   0  0  0  0  0  0  0  0  0  0  0  0
   -0.4311    0.5022   -3.5206 C   0  0  0  0  0  0  0  0  0  0  0  0
    0.3762   -0.1117   -3.9257 H   0  0  0  0  0  0  0  0  0  0  0  0
   -1.3410    0.3260   -4.0960 H   0  0  0  0  0  0  0  0  0  0  0  0
   -0.1485    1.5529   -3.6047 H   0  0  0  0  0  0  0  0  0  0  0  0
  5  6  2  0  0  0  0
  5  7  1  0  0  0  0
  2  3  1  0  0  0  0
  2  4  1  0  0  0  0
  2  5  1  0  0  0  0
  1  2  1  0  0  0  0
 19 20  2  0  0  0  0
 19 21  1  0  0  0  0
 16 17  1  0  0  0  0
 16 18  1  0  0  0  0
 14 15  2  0  0  0  0
 14 16  1  0  0  0  0
 11 12  1  0  0  0  0
 11 13  1  0  0  0  0
 11 14  1  0  0  0  0
  9 10  1  0  0  0  0
  9 11  1  0  0  0  0
  9 19  1  0  0  0  0
  7  8  1  0  0  0  0
  7  9  1  0  0  0  0
 23 24  1  0  0  0  0
 23 25  1  0  0  0  0
 23 26  1  0  0  0  0
 21 22  1  0  0  0  0
 21 23  1  0  0  0  0
M  END
$$$$
default_name
  -OEChem-01062215323D

 26 25  0     1  0  0  0  0  0999 V2000
   -3.0232   -3.6924    1.0038 H   0  0  0  0  0  0  0  0  0  0  0  0
   -3.0082   -2.6684    0.6318 C   0  0  0  0  0  0  0  0  0  0  0  0
   -3.6332   -2.0414    1.2658 H   0  0  0  0  0  0  0  0  0  0  0  0
   -3.3762   -2.6444   -0.3912 H   0  0  0  0  0  0  0  0  0  0  0  0
   -1.5882   -2.1554    0.6658 C   0  0  0  0  0  0  0  0  0  0  0  0
   -0.6832   -2.8764    1.0638 O   0  0  0  0  0  0  0  0  0  0  0  0
   -1.3952   -0.9084    0.2428 N   0  0  0  0  0  0  0  0  0  0  0  0
   -2.1972   -0.3644   -0.0422 H   0  0  0  0  0  0  0  0  0  0  0  0
   -0.1122   -0.1994    0.2658 C   0  0  1  0  0  0  0  0  0  0  0  0
   -0.2295    0.7120    0.8578 H   0  0  0  0  0  0  0  0  0  0  0  0
    0.9422   -1.1025    0.9438 C   0  0  0  0  0  0  0  0  0  0  0  0
    0.9047   -2.0945    0.4952 H   0  0  0  0  0  0  0  0  0  0  0  0
    1.9342   -0.6869    0.7731 H   0  0  0  0  0  0  0  0  0  0  0  0
    0.7301   -1.2862    2.4379 C   0  0  0  0  0  0  0  0  0  0  0  0
    0.4133   -0.3731    3.1802 O   0  0  0  0  0  0  0  0  0  0  0  0
    0.9082   -2.4847    2.9382 N   0  0  0  0  0  0  0  0  0  0  0  0
    0.7440   -2.5797    3.9249 H   0  0  0  0  0  0  0  0  0  0  0  0
    1.1504   -3.2563    2.3458 H   0  0  0  0  0  0  0  0  0  0  0  0
    0.2894    0.2089   -1.1687 C   0  0  0  0  0  0  0  0  0  0  0  0
    1.4792    0.3034   -1.4700 O   0  0  0  0  0  0  0  0  0  0  0  0
   -0.6906    0.4585   -2.0426 N   0  0  0  0  0  0  0  0  0  0  0  0
   -1.6421    0.4309   -1.6904 H   0  0  0  0  0  0  0  0  0  0  0  0
   -0.4786    0.8423   -3.4371 C   0  0  0  0  0  0  0  0  0  0  0  0
    0.1297    0.0864   -3.9384 H   0  0  0  0  0  0  0  0  0  0  0  0
   -1.4369    0.9319   -3.9505 H   0  0  0  0  0  0  0  0  0  0  0  0
    0.0451    1.7988   -3.4805 H   0  0  0  0  0  0  0  0  0  0  0  0
  5  6  2  0  0  0  0
  5  7  1  0  0  0  0
  2  3  1  0  0  0  0
  2  4  1  0  0  0  0
  2  5  1  0  0  0  0
  1  2  1  0  0  0  0
 19 20  2  0  0  0  0
 19 21  1  0  0  0  0
 16 17  1  0  0  0  0
 16 18  1  0  0  0  0
 14 15  2  0  0  0  0
 14 16  1  0  0  0  0
 11 12  1  0  0  0  0
 11 13  1  0  0  0  0
 11 14  1  0  0  0  0
  9 10  1  0  0  0  0
  9 11  1  0  0  0  0
  9 19  1  0  0  0  0
  7  8  1  0  0  0  0
  7  9  1  0  0  0  0
 23 24  1  0  0  0  0
 23 25  1  0  0  0  0
 23 26  1  0  0  0  0
 21 22  1  0  0  0  0
 21 23  1  0  0  0  0
M  END
$$$$
default_name
  -OEChem-01062215323D

 26 25  0     1  0  0  0  0  0999 V2000
   -3.0232   -3.6924    1.0038 H   0  0  0  0  0  0  0  0  0  0  0  0
   -3.0082   -2.6684    0.6318 C   0  0  0  0  0  0  0  0  0  0  0  0
   -3.6332   -2.0414    1.2658 H   0  0  0  0  0  0  0  0  0  0  0  0
   -3.3762   -2.6444   -0.3912 H   0  0  0  0  0  0  0  0  0  0  0  0
   -1.5882   -2.1554    0.6658 C   0  0  0  0  0  0  0  0  0  0  0  0
   -0.6832   -2.8764    1.0638 O   0  0  0  0  0  0  0  0  0  0  0  0
   -1.3952   -0.9084    0.2428 N   0  0  0  0  0  0  0  0  0  0  0  0
   -2.1972   -0.3644   -0.0422 H   0  0  0  0  0  0  0  0  0  0  0  0
   -0.1122   -0.1994    0.2658 C   0  0  1  0  0  0  0  0  0  0  0  0
   -0.2295    0.7120    0.8578 H   0  0  0  0  0  0  0  0  0  0  0  0
    0.9422   -1.1025    0.9438 C   0  0  0  0  0  0  0  0  0  0  0  0
    0.9047   -2.0945    0.4952 H   0  0  0  0  0  0  0  0  0  0  0  0
    1.9342   -0.6869    0.7731 H   0  0  0  0  0  0  0  0  0  0  0  0
    0.7301   -1.2862    2.4379 C   0  0  0  0  0  0  0  0  0  0  0  0
    0.4133   -0.3731    3.1802 O   0  0  0  0  0  0  0  0  0  0  0  0
    0.9082   -2.4847    2.9382 N   0  0  0  0  0  0  0  0  0  0  0  0
    0.7440   -2.5797    3.9249 H   0  0  0  0  0  0  0  0  0  0  0  0
    1.1504   -3.2563    2.3458 H   0  0  0  0  0  0  0  0  0  0  0  0
    0.2894    0.2089   -1.1687 C   0  0  0  0  0  0  0  0  0  0  0  0
    1.4462    0.0399   -1.5542 O   0  0  0  0  0  0  0  0  0  0  0  0
   -0.6514    0.7500   -1.9487 N   0  0  0  0  0  0  0  0  0  0  0  0
   -1.5583    0.9231   -1.5269 H   0  0  0  0  0  0  0  0  0  0  0  0
   -0.4369    1.1767   -3.3303 C   0  0  0  0  0  0  0  0  0  0  0  0
   -0.0617    0.3378   -3.9204 H   0  0  0  0  0  0  0  0  0  0  0  0
   -1.3740    1.5303   -3.7626 H   0  0  0  0  0  0  0  0  0  0  0  0
    0.2996    1.9815   -3.3573 H   0  0  0  0  0  0  0  0  0  0  0  0
  5  6  2  0  0  0  0
  5  7  1  0  0  0  0
  2  3  1  0  0  0  0
  2  4  1  0  0  0  0
  2  5  1  0  0  0  0
  1  2  1  0  0  0  0
 19 20  2  0  0  0  0
 19 21  1  0  0  0  0
 16 17  1  0  0  0  0
 16 18  1  0  0  0  0
 14 15  2  0  0  0  0
 14 16  1  0  0  0  0
 11 12  1  0  0  0  0
 11 13  1  0  0  0  0
 11 14  1  0  0  0  0
  9 10  1  0  0  0  0
  9 11  1  0  0  0  0
  9 19  1  0  0  0  0
  7  8  1  0  0  0  0
  7  9  1  0  0  0  0
 23 24  1  0  0  0  0
 23 25  1  0  0  0  0
 23 26  1  0  0  0  0
 21 22  1  0  0  0  0
 21 23  1  0  0  0  0
M  END
$$$$
default_name
  -OEChem-01062215323D

 26 25  0     1  0  0  0  0  0999 V2000
   -3.0232   -3.6924    1.0038 H   0  0  0  0  0  0  0  0  0  0  0  0
   -3.0082   -2.6684    0.6318 C   0  0  0  0  0  0  0  0  0  0  0  0
   -3.6332   -2.0414    1.2658 H   0  0  0  0  0  0  0  0  0  0  0  0
   -3.3762   -2.6444   -0.3912 H   0  0  0  0  0  0  0  0  0  0  0  0
   -1.5882   -2.1554    0.6658 C   0  0  0  0  0  0  0  0  0  0  0  0
   -0.6832   -2.8764    1.0638 O   0  0  0  0  0  0  0  0  0  0  0  0
   -1.3952   -0.9084    0.2428 N   0  0  0  0  0  0  0  0  0  0  0  0
   -2.1972   -0.3644   -0.0422 H   0  0  0  0  0  0  0  0  0  0  0  0
   -0.1122   -0.1994    0.2658 C   0  0  1  0  0  0  0  0  0  0  0  0
   -0.2295    0.7120    0.8578 H   0  0  0  0  0  0  0  0  0  0  0  0
    0.9422   -1.1025    0.9438 C   0  0  0  0  0  0  0  0  0  0  0  0
    0.9047   -2.0945    0.4952 H   0  0  0  0  0  0  0  0  0  0  0  0
    1.9342   -0.6869    0.7731 H   0  0  0  0  0  0  0  0  0  0  0  0
    0.7301   -1.2862    2.4379 C   0  0  0  0  0  0  0  0  0  0  0  0
    0.4133   -0.3731    3.1802 O   0  0  0  0  0  0  0  0  0  0  0  0
    0.9082   -2.4847    2.9382 N   0  0  0  0  0  0  0  0  0  0  0  0
    0.7440   -2.5797    3.9249 H   0  0  0  0  0  0  0  0  0  0  0  0
    1.1504   -3.2563    2.3458 H   0  0  0  0  0  0  0  0  0  0  0  0
    0.2894    0.2089   -1.1687 C   0  0  0  0  0  0  0  0  0  0  0  0
    1.3453   -0.2009   -1.6510 O   0  0  0  0  0  0  0  0  0  0  0  0
   -0.5371    1.0158   -1.8411 N   0  0  0  0  0  0  0  0  0  0  0  0
   -1.3478    1.3674   -1.3415 H   0  0  0  0  0  0  0  0  0  0  0  0
   -0.3090    1.4824   -3.2074 C   0  0  0  0  0  0  0  0  0  0  0  0
   -0.1848    0.6254   -3.8730 H   0  0  0  0  0  0  0  0  0  0  0  0
   -1.1565    2.0806   -3.5451 H   0  0  0  0  0  0  0  0  0  0  0  0
    0.5979    2.0884   -3.2433 H   0  0  0  0  0  0  0  0  0  0  0  0
  5  6  2  0  0  0  0
  5  7  1  0  0  0  0
  2  3  1  0  0  0  0
  2  4  1  0  0  0  0
  2  5  1  0  0  0  0
  1  2  1  0  0  0  0
 19 20  2  0  0  0  0
 19 21  1  0  0  0  0
 16 17  1  0  0  0  0
 16 18  1  0  0  0  0
 14 15  2  0  0  0  0
 14 16  1  0  0  0  0
 11 12  1  0  0  0  0
 11 13  1  0  0  0  0
 11 14  1  0  0  0  0
  9 10  1  0  0  0  0
  9 11  1  0  0  0  0
  9 19  1  0  0  0  0
  7  8  1  0  0  0  0
  7  9  1  0  0  0  0
 23 24  1  0  0  0  0
 23 25  1  0  0  0  0
 23 26  1  0  0  0  0
 21 22  1  0  0  0  0
 21 23  1  0  0  0  0
M  END
$$$$
default_name
  -OEChem-01062215323D

 26 25  0     1  0  0  0  0  0999 V2000
   -3.0232   -3.6924    1.0038 H   0  0  0  0  0  0  0  0  0  0  0  0
   -3.0082   -2.6684    0.6318 C   0  0  0  0  0  0  0  0  0  0  0  0
   -3.6332   -2.0414    1.2658 H   0  0  0  0  0  0  0  0  0  0  0  0
   -3.3762   -2.6444   -0.3912 H   0  0  0  0  0  0  0  0  0  0  0  0
   -1.5882   -2.1554    0.6658 C   0  0  0  0  0  0  0  0  0  0  0  0
   -0.6832   -2.8764    1.0638 O   0  0  0  0  0  0  0  0  0  0  0  0
   -1.3952   -0.9084    0.2428 N   0  0  0  0  0  0  0  0  0  0  0  0
   -2.1972   -0.3644   -0.0422 H   0  0  0  0  0  0  0  0  0  0  0  0
   -0.1122   -0.1994    0.2658 C   0  0  1  0  0  0  0  0  0  0  0  0
   -0.2295    0.7120    0.8578 H   0  0  0  0  0  0  0  0  0  0  0  0
    0.9422   -1.1025    0.9438 C   0  0  0  0  0  0  0  0  0  0  0  0
    0.9047   -2.0945    0.4952 H   0  0  0  0  0  0  0  0  0  0  0  0
    1.9342   -0.6869    0.7731 H   0  0  0  0  0  0  0  0  0  0  0  0
    0.7301   -1.2862    2.4379 C   0  0  0  0  0  0  0  0  0  0  0  0
    0.4133   -0.3731    3.1802 O   0  0  0  0  0  0  0  0  0  0  0  0
    0.9082   -2.4847    2.9382 N   0  0  0  0  0  0  0  0  0  0  0  0
    0.7440   -2.5797    3.9249 H   0  0  0  0  0  0  0  0  0  0  0  0
    1.1504   -3.2563    2.3458 H   0  0  0  0  0  0  0  0  0  0  0  0
    0.2894    0.2089   -1.1687 C   0  0  0  0  0  0  0  0  0  0  0  0
    1.1833   -0.4028   -1.7539 O   0  0  0  0  0  0  0  0  0  0  0  0
   -0.3555    1.2378   -1.7270 N   0  0  0  0  0  0  0  0  0  0  0  0
   -1.0250    1.7334   -1.1470 H   0  0  0  0  0  0  0  0  0  0  0  0
   -0.1036    1.7387   -3.0770 C   0  0  0  0  0  0  0  0  0  0  0  0
   -0.2313    0.9297   -3.7994 H   0  0  0  0  0  0  0  0  0  0  0  0
   -0.7992    2.5452   -3.3129 H   0  0  0  0  0  0  0  0  0  0  0  0
    0.9194    2.1124   -3.1465 H   0  0  0  0  0  0  0  0  0  0  0  0
  5  6  2  0  0  0  0
  5  7  1  0  0  0  0
  2  3  1  0  0  0  0
  2  4  1  0  0  0  0
  2  5  1  0  0  0  0
  1  2  1  0  0  0  0
 19 20  2  0  0  0  0
 19 21  1  0  0  0  0
 16 17  1  0  0  0  0
 16 18  1  0  0  0  0
 14 15  2  0  0  0  0
 14 16  1  0  0  0  0
 11 12  1  0  0  0  0
 11 13  1  0  0  0  0
 11 14  1  0  0  0  0
  9 10  1  0  0  0  0
  9 11  1  0  0  0  0
  9 19  1  0  0  0  0
  7  8  1  0  0  0  0
  7  9  1  0  0  0  0
 23 24  1  0  0  0  0
 23 25  1  0  0  0  0
 23 26  1  0  0  0  0
 21 22  1  0  0  0  0
 21 23  1  0  0  0  0
M  END
$$$$
default_name
  -OEChem-01062215323D

 26 25  0     1  0  0  0  0  0999 V2000
   -3.0232   -3.6924    1.0038 H   0  0  0  0  0  0  0  0  0  0  0  0
   -3.0082   -2.6684    0.6318 C   0  0  0  0  0  0  0  0  0  0  0  0
   -3.6332   -2.0414    1.2658 H   0  0  0  0  0  0  0  0  0  0  0  0
   -3.3762   -2.6444   -0.3912 H   0  0  0  0  0  0  0  0  0  0  0  0
   -1.5882   -2.1554    0.6658 C   0  0  0  0  0  0  0  0  0  0  0  0
   -0.6832   -2.8764    1.0638 O   0  0  0  0  0  0  0  0  0  0  0  0
   -1.3952   -0.9084    0.2428 N   0  0  0  0  0  0  0  0  0  0  0  0
   -2.1972   -0.3644   -0.0422 H   0  0  0  0  0  0  0  0  0  0  0  0
   -0.1122   -0.1994    0.2658 C   0  0  1  0  0  0  0  0  0  0  0  0
   -0.2295    0.7120    0.8578 H   0  0  0  0  0  0  0  0  0  0  0  0
    0.9422   -1.1025    0.9438 C   0  0  0  0  0  0  0  0  0  0  0  0
    0.9047   -2.0945    0.4952 H   0  0  0  0  0  0  0  0  0  0  0  0
    1.9342   -0.6869    0.7731 H   0  0  0  0  0  0  0  0  0  0  0  0
    0.7301   -1.2862    2.4379 C   0  0  0  0  0  0  0  0  0  0  0  0
    0.4133   -0.3731    3.1802 O   0  0  0  0  0  0  0  0  0  0  0  0
    0.9082   -2.4847    2.9382 N   0  0  0  0  0  0  0  0  0  0  0  0
    0.7440   -2.5797    3.9249 H   0  0  0  0  0  0  0  0  0  0  0  0
    1.1504   -3.2563    2.3458 H   0  0  0  0  0  0  0  0  0  0  0  0
    0.2894    0.2089   -1.1687 C   0  0  0  0  0  0  0  0  0  0  0  0
    0.9712   -0.5519   -1.8557 O   0  0  0  0  0  0  0  0  0  0  0  0
   -0.1189    1.4009   -1.6144 N   0  0  0  0  0  0  0  0  0  0  0  0
   -0.6119    1.9963   -0.9565 H   0  0  0  0  0  0  0  0  0  0  0  0
    0.1654    1.9281   -2.9478 C   0  0  0  0  0  0  0  0  0  0  0  0
   -0.1982    1.2298   -3.7047 H   0  0  0  0  0  0  0  0  0  0  0  0
   -0.3266    2.8925   -3.0817 H   0  0  0  0  0  0  0  0  0  0  0  0
    1.2424    2.0517   -3.0734 H   0  0  0  0  0  0  0  0  0  0  0  0
  5  6  2  0  0  0  0
  5  7  1  0  0  0  0
  2  3  1  0  0  0  0
  2  4  1  0  0  0  0
  2  5  1  0  0  0  0
  1  2  1  0  0  0  0
 19 20  2  0  0  0  0
 19 21  1  0  0  0  0
 16 17  1  0  0  0  0
 16 18  1  0  0  0  0
 14 15  2  0  0  0  0
 14 16  1  0  0  0  0
 11 12  1  0  0  0  0
 11 13  1  0  0  0  0
 11 14  1  0  0  0  0
  9 10  1  0  0  0  0
  9 11  1  0  0  0  0
  9 19  1  0  0  0  0
  7  8  1  0  0  0  0
  7  9  1  0  0  0  0
 23 24  1  0  0  0  0
 23 25  1  0  0  0  0
 23 26  1  0  0  0  0
 21 22  1  0  0  0  0
 21 23  1  0  0  0  0
M  END
$$$$
default_name
  -OEChem-01062215323D

 26 25  0     1  0  0  0  0  0999 V2000
   -3.0232   -3.6924    1.0038 H   0  0  0  0  0  0  0  0  0  0  0  0
   -3.0082   -2.6684    0.6318 C   0  0  0  0  0  0  0  0  0  0  0  0
   -3.6332   -2.0414    1.2658 H   0  0  0  0  0  0  0  0  0  0  0  0
   -3.3762   -2.6444   -0.3912 H   0  0  0  0  0  0  0  0  0  0  0  0
   -1.5882   -2.1554    0.6658 C   0  0  0  0  0  0  0  0  0  0  0  0
   -0.6832   -2.8764    1.0638 O   0  0  0  0  0  0  0  0  0  0  0  0
   -1.3952   -0.9084    0.2428 N   0  0  0  0  0  0  0  0  0  0  0  0
   -2.1972   -0.3644   -0.0422 H   0  0  0  0  0  0  0  0  0  0  0  0
   -0.1122   -0.1994    0.2658 C   0  0  1  0  0  0  0  0  0  0  0  0
   -0.2295    0.7120    0.8578 H   0  0  0  0  0  0  0  0  0  0  0  0
    0.9422   -1.1025    0.9438 C   0  0  0  0  0  0  0  0  0  0  0  0
    0.9047   -2.0945    0.4952 H   0  0  0  0  0  0  0  0  0  0  0  0
    1.9342   -0.6869    0.7731 H   0  0  0  0  0  0  0  0  0  0  0  0
    0.7301   -1.2862    2.4379 C   0  0  0  0  0  0  0  0  0  0  0  0
    0.4133   -0.3731    3.1802 O   0  0  0  0  0  0  0  0  0  0  0  0
    0.9082   -2.4847    2.9382 N   0  0  0  0  0  0  0  0  0  0  0  0
    0.7440   -2.5797    3.9249 H   0  0  0  0  0  0  0  0  0  0  0  0
    1.1504   -3.2563    2.3458 H   0  0  0  0  0  0  0  0  0  0  0  0
    0.2894    0.2089   -1.1687 C   0  0  0  0  0  0  0  0  0  0  0  0
    0.7236   -0.6381   -1.9495 O   0  0  0  0  0  0  0  0  0  0  0  0
    0.1566    1.4940   -1.5108 N   0  0  0  0  0  0  0  0  0  0  0  0
   -0.1366    2.1381   -0.7831 H   0  0  0  0  0  0  0  0  0  0  0  0
    0.4796    2.0378   -2.8287 C   0  0  0  0  0  0  0  0  0  0  0  0
   -0.0875    1.5054   -3.5953 H   0  0  0  0  0  0  0  0  0  0  0  0
    0.2292    3.0988   -2.8674 H   0  0  0  0  0  0  0  0  0  0  0  0
    1.5448    1.9106   -3.0289 H   0  0  0  0  0  0  0  0  0  0  0  0
  5  6  2  0  0  0  0
  5  7  1  0  0  0  0
  2  3  1  0  0  0  0
  2  4  1  0  0  0  0
  2  5  1  0  0  0  0
  1  2  1  0  0  0  0
 19 20  2  0  0  0  0
 19 21  1  0  0  0  0
 16 17  1  0  0  0  0
 16 18  1  0  0  0  0
 14 15  2  0  0  0  0
 14 16  1  0  0  0  0
 11 12  1  0  0  0  0
 11 13  1  0  0  0  0
 11 14  1  0  0  0  0
  9 10  1  0  0  0  0
  9 11  1  0  0  0  0
  9 19  1  0  0  0  0
  7  8  1  0  0  0  0
  7  9  1  0  0  0  0
 23 24  1  0  0  0  0
 23 25  1  0  0  0  0
 23 26  1  0  0  0  0
 21 22  1  0  0  0  0
 21 23  1  0  0  0  0
M  END
$$$$
default_name
  -OEChem-01062215323D

 26 25  0     1  0  0  0  0  0999 V2000
   -3.0232   -3.6924    1.0038 H   0  0  0  0  0  0  0  0  0  0  0  0
   -3.0082   -2.6684    0.6318 C   0  0  0  0  0  0  0  0  0  0  0  0
   -3.6332   -2.0414    1.2658 H   0  0  0  0  0  0  0  0  0  0  0  0
   -3.3762   -2.6444   -0.3912 H   0  0  0  0  0  0  0  0  0  0  0  0
   -1.5882   -2.1554    0.6658 C   0  0  0  0  0  0  0  0  0  0  0  0
   -0.6832   -2.8764    1.0638 O   0  0  0  0  0  0  0  0  0  0  0  0
   -1.3952   -0.9084    0.2428 N   0  0  0  0  0  0  0  0  0  0  0  0
   -2.1972   -0.3644   -0.0422 H   0  0  0  0  0  0  0  0  0  0  0  0
   -0.1122   -0.1994    0.2658 C   0  0  1  0  0  0  0  0  0  0  0  0
   -0.2295    0.7120    0.8578 H   0  0  0  0  0  0  0  0  0  0  0  0
    0.9422   -1.1025    0.9438 C   0  0  0  0  0  0  0  0  0  0  0  0
    0.9047   -2.0945    0.4952 H   0  0  0  0  0  0  0  0  0  0  0  0
    1.9342   -0.6869    0.7731 H   0  0  0  0  0  0  0  0  0  0  0  0
    0.7301   -1.2862    2.4379 C   0  0  0  0  0  0  0  0  0  0  0  0
    0.4133   -0.3731    3.1802 O   0  0  0  0  0  0  0  0  0  0  0  0
    0.9082   -2.4847    2.9382 N   0  0  0  0  0  0  0  0  0  0  0  0
    0.7440   -2.5797    3.9249 H   0  0  0  0  0  0  0  0  0  0  0  0
    1.1504   -3.2563    2.3458 H   0  0  0  0  0  0  0  0  0  0  0  0
    0.2894    0.2089   -1.1687 C   0  0  0  0  0  0  0  0  0  0  0  0
    0.4572   -0.6555   -2.0290 O   0  0  0  0  0  0  0  0  0  0  0  0
    0.4522    1.5108   -1.4233 N   0  0  0  0  0  0  0  0  0  0  0  0
    0.3684    2.1492   -0.6386 H   0  0  0  0  0  0  0  0  0  0  0  0
    0.8175    2.0601   -2.7277 C   0  0  0  0  0  0  0  0  0  0  0  0
    0.0932    1.7376   -3.4787 H   0  0  0  0  0  0  0  0  0  0  0  0
    0.8303    3.1500   -2.6846 H   0  0  0  0  0  0  0  0  0  0  0  0
    1.8060    1.6985   -3.0161 H   0  0  0  0  0  0  0  0  0  0  0  0
  5  6  2  0  0  0  0
  5  7  1  0  0  0  0
  2  3  1  0  0  0  0
  2  4  1  0  0  0  0
  2  5  1  0  0  0  0
  1  2  1  0  0  0  0
 19 20  2  0  0  0  0
 19 21  1  0  0  0  0
 16 17  1  0  0  0  0
 16 18  1  0  0  0  0
 14 15  2  0  0  0  0
 14 16  1  0  0  0  0
 11 12  1  0  0  0  0
 11 13  1  0  0  0  0
 11 14  1  0  0  0  0
  9 10  1  0  0  0  0
  9 11  1  0  0  0  0
  9 19  1  0  0  0  0
  7  8  1  0  0  0  0
  7  9  1  0  0  0  0
 23 24  1  0  0  0  0
 23 25  1  0  0  0  0
 23 26  1  0  0  0  0
 21 22  1  0  0  0  0
 21 23  1  0  0  0  0
M  END
$$$$
default_name
  -OEChem-01062215323D

 26 25  0     1  0  0  0  0  0999 V2000
   -3.0232   -3.6924    1.0038 H   0  0  0  0  0  0  0  0  0  0  0  0
   -3.0082   -2.6684    0.6318 C   0  0  0  0  0  0  0  0  0  0  0  0
   -3.6332   -2.0414    1.2658 H   0  0  0  0  0  0  0  0  0  0  0  0
   -3.3762   -2.6444   -0.3912 H   0  0  0  0  0  0  0  0  0  0  0  0
   -1.5882   -2.1554    0.6658 C   0  0  0  0  0  0  0  0  0  0  0  0
   -0.6832   -2.8764    1.0638 O   0  0  0  0  0  0  0  0  0  0  0  0
   -1.3952   -0.9084    0.2428 N   0  0  0  0  0  0  0  0  0  0  0  0
   -2.1972   -0.3644   -0.0422 H   0  0  0  0  0  0  0  0  0  0  0  0
   -0.1122   -0.1994    0.2658 C   0  0  1  0  0  0  0  0  0  0  0  0
   -0.2295    0.7120    0.8578 H   0  0  0  0  0  0  0  0  0  0  0  0
    0.9422   -1.1025    0.9438 C   0  0  0  0  0  0  0  0  0  0  0  0
    0.9047   -2.0945    0.4952 H   0  0  0  0  0  0  0  0  0  0  0  0
    1.9342   -0.6869    0.7731 H   0  0  0  0  0  0  0  0  0  0  0  0
    0.7301   -1.2862    2.4379 C   0  0  0  0  0  0  0  0  0  0  0  0
    0.4133   -0.3731    3.1802 O   0  0  0  0  0  0  0  0  0  0  0  0
    0.9082   -2.4847    2.9382 N   0  0  0  0  0  0  0  0  0  0  0  0
    0.7440   -2.5797    3.9249 H   0  0  0  0  0  0  0  0  0  0  0  0
    1.1504   -3.2563    2.3458 H   0  0  0  0  0  0  0  0  0  0  0  0
    0.2894    0.2089   -1.1687 C   0  0  0  0  0  0  0  0  0  0  0  0
    0.1903   -0.6030   -2.0888 O   0  0  0  0  0  0  0  0  0  0  0  0
    0.7477    1.4500   -1.3578 N   0  0  0  0  0  0  0  0  0  0  0  0
    0.8687    2.0288   -0.5328 H   0  0  0  0  0  0  0  0  0  0  0  0
    1.1563    1.9936   -2.6518 C   0  0  0  0  0  0  0  0  0  0  0  0
    0.3314    1.9106   -3.3628 H   0  0  0  0  0  0  0  0  0  0  0  0
    1.4358    3.0427   -2.5456 H   0  0  0  0  0  0  0  0  0  0  0  0
    2.0082    1.4301   -3.0359 H   0  0  0  0  0  0  0  0  0  0  0  0
  5  6  2  0  0  0  0
  5  7  1  0  0  0  0
  2  3  1  0  0  0  0
  2  4  1  0  0  0  0
  2  5  1  0  0  0  0
  1  2  1  0  0  0  0
 19 20  2  0  0  0  0
 19 21  1  0  0  0  0
 16 17  1  0  0  0  0
 16 18  1  0  0  0  0
 14 15  2  0  0  0  0
 14 16  1  0  0  0  0
 11 12  1  0  0  0  0
 11 13  1  0  0  0  0
 11 14  1  0  0  0  0
  9 10  1  0  0  0  0
  9 11  1  0  0  0  0
  9 19  1  0  0  0  0
  7  8  1  0  0  0  0
  7  9  1  0  0  0  0
 23 24  1  0  0  0  0
 23 25  1  0  0  0  0
 23 26  1  0  0  0  0
 21 22  1  0  0  0  0
 21 23  1  0  0  0  0
M  END
$$$$
default_name
  -OEChem-01062215323D

 26 25  0     1  0  0  0  0  0999 V2000
   -3.0232   -3.6924    1.0038 H   0  0  0  0  0  0  0  0  0  0  0  0
   -3.0082   -2.6684    0.6318 C   0  0  0  0  0  0  0  0  0  0  0  0
   -3.6332   -2.0414    1.2658 H   0  0  0  0  0  0  0  0  0  0  0  0
   -3.3762   -2.6444   -0.3912 H   0  0  0  0  0  0  0  0  0  0  0  0
   -1.5882   -2.1554    0.6658 C   0  0  0  0  0  0  0  0  0  0  0  0
   -0.6832   -2.8764    1.0638 O   0  0  0  0  0  0  0  0  0  0  0  0
   -1.3952   -0.9084    0.2428 N   0  0  0  0  0  0  0  0  0  0  0  0
   -2.1972   -0.3644   -0.0422 H   0  0  0  0  0  0  0  0  0  0  0  0
   -0.1122   -0.1994    0.2658 C   0  0  1  0  0  0  0  0  0  0  0  0
   -0.2295    0.7120    0.8578 H   0  0  0  0  0  0  0  0  0  0  0  0
    0.9422   -1.1025    0.9438 C   0  0  0  0  0  0  0  0  0  0  0  0
    0.9047   -2.0945    0.4952 H   0  0  0  0  0  0  0  0  0  0  0  0
    1.9342   -0.6869    0.7731 H   0  0  0  0  0  0  0  0  0  0  0  0
    0.7301   -1.2862    2.4379 C   0  0  0  0  0  0  0  0  0  0  0  0
    0.4133   -0.3731    3.1802 O   0  0  0  0  0  0  0  0  0  0  0  0
    0.9082   -2.4847    2.9382 N   0  0  0  0  0  0  0  0  0  0  0  0
    0.7440   -2.5797    3.9249 H   0  0  0  0  0  0  0  0  0  0  0  0
    1.1504   -3.2563    2.3458 H   0  0  0  0  0  0  0  0  0  0  0  0
    0.2894    0.2089   -1.1687 C   0  0  0  0  0  0  0  0  0  0  0  0
   -0.0590   -0.4841   -2.1247 O   0  0  0  0  0  0  0  0  0  0  0  0
    1.0230    1.3159   -1.3189 N   0  0  0  0  0  0  0  0  0  0  0  0
    1.3303    1.7851   -0.4729 H   0  0  0  0  0  0  0  0  0  0  0  0
    1.4727    1.8429   -2.6061 C   0  0  0  0  0  0  0  0  0  0  0  0
    0.6111    2.0126   -3.2554 H   0  0  0  0  0  0  0  0  0  0  0  0
    2.0044    2.7842   -2.4600 H   0  0  0  0  0  0  0  0  0  0  0  0
    2.1376    1.1235   -3.0869 H   0  0  0  0  0  0  0  0  0  0  0  0
  5  6  2  0  0  0  0
  5  7  1  0  0  0  0
  2  3  1  0  0  0  0
  2  4  1  0  0  0  0
  2  5  1  0  0  0  0
  1  2  1  0  0  0  0
 19 20  2  0  0  0  0
 19 21  1  0  0  0  0
 16 17  1  0  0  0  0
 16 18  1  0  0  0  0
 14 15  2  0  0  0  0
 14 16  1  0  0  0  0
 11 12  1  0  0  0  0
 11 13  1  0  0  0  0
 11 14  1  0  0  0  0
  9 10  1  0  0  0  0
  9 11  1  0  0  0  0
  9 19  1  0  0  0  0
  7  8  1  0  0  0  0
  7  9  1  0  0  0  0
 23 24  1  0  0  0  0
 23 25  1  0  0  0  0
 23 26  1  0  0  0  0
 21 22  1  0  0  0  0
 21 23  1  0  0  0  0
M  END
$$$$
default_name
  -OEChem-01062215323D

 26 25  0     1  0  0  0  0  0999 V2000
   -3.0232   -3.6924    1.0038 H   0  0  0  0  0  0  0  0  0  0  0  0
   -3.0082   -2.6684    0.6318 C   0  0  0  0  0  0  0  0  0  0  0  0
   -3.6332   -2.0414    1.2658 H   0  0  0  0  0  0  0  0  0  0  0  0
   -3.3762   -2.6444   -0.3912 H   0  0  0  0  0  0  0  0  0  0  0  0
   -1.5882   -2.1554    0.6658 C   0  0  0  0  0  0  0  0  0  0  0  0
   -0.6832   -2.8764    1.0638 O   0  0  0  0  0  0  0  0  0  0  0  0
   -1.3952   -0.9084    0.2428 N   0  0  0  0  0  0  0  0  0  0  0  0
   -2.1972   -0.3644   -0.0422 H   0  0  0  0  0  0  0  0  0  0  0  0
   -0.1122   -0.1994    0.2658 C   0  0  1  0  0  0  0  0  0  0  0  0
   -0.2295    0.7120    0.8578 H   0  0  0  0  0  0  0  0  0  0  0  0
    0.9422   -1.1025    0.9438 C   0  0  0  0  0  0  0  0  0  0  0  0
    0.9047   -2.0945    0.4952 H   0  0  0  0  0  0  0  0  0  0  0  0
    1.9342   -0.6869    0.7731 H   0  0  0  0  0  0  0  0  0  0  0  0
    0.7301   -1.2862    2.4379 C   0  0  0  0  0  0  0  0  0  0  0  0
    0.4133   -0.3731    3.1802 O   0  0  0  0  0  0  0  0  0  0  0  0
    0.9082   -2.4847    2.9382 N   0  0  0  0  0  0  0  0  0  0  0  0
    0.7440   -2.5797    3.9249 H   0  0  0  0  0  0  0  0  0  0  0  0
    1.1504   -3.2563    2.3458 H   0  0  0  0  0  0  0  0  0  0  0  0
    0.2894    0.2089   -1.1687 C   0  0  0  0  0  0  0  0  0  0  0  0
   -0.2736   -0.3069   -2.1344 O   0  0  0  0  0  0  0  0  0  0  0  0
    1.2594    1.1175   -1.3092 N   0  0  0  0  0  0  0  0  0  0  0  0
    1.7217    1.4347   -0.4631 H   0  0  0  0  0  0  0  0  0  0  0  0
    1.7452    1.6182   -2.5937 C   0  0  0  0  0  0  0  0  0  0  0  0
    0.9131    2.0368   -3.1640 H   0  0  0  0  0  0  0  0  0  0  0  0
    2.4972    2.3921   -2.4336 H   0  0  0  0  0  0  0  0  0  0  0  0
    2.1855    0.7997   -3.1657 H   0  0  0  0  0  0  0  0  0  0  0  0
  5  6  2  0  0  0  0
  5  7  1  0  0  0  0
  2  3  1  0  0  0  0
  2  4  1  0  0  0  0
  2  5  1  0  0  0  0
  1  2  1  0  0  0  0
 19 20  2  0  0  0  0
 19 21  1  0  0  0  0
 16 17  1  0  0  0  0
 16 18  1  0  0  0  0
 14 15  2  0  0  0  0
 14 16  1  0  0  0  0
 11 12  1  0  0  0  0
 11 13  1  0  0  0  0
 11 14  1  0  0  0  0
  9 10  1  0  0  0  0
  9 11  1  0  0  0  0
  9 19  1  0  0  0  0
  7  8  1  0  0  0  0
  7  9  1  0  0  0  0
 23 24  1  0  0  0  0
 23 25  1  0  0  0  0
 23 26  1  0  0  0  0
 21 22  1  0  0  0  0
 21 23  1  0  0  0  0
M  END
$$$$
default_name
  -OEChem-01062215323D

 26 25  0     1  0  0  0  0  0999 V2000
   -3.0232   -3.6924    1.0038 H   0  0  0  0  0  0  0  0  0  0  0  0
   -3.0082   -2.6684    0.6318 C   0  0  0  0  0  0  0  0  0  0  0  0
   -3.6332   -2.0414    1.2658 H   0  0  0  0  0  0  0  0  0  0  0  0
   -3.3762   -2.6444   -0.3912 H   0  0  0  0  0  0  0  0  0  0  0  0
   -1.5882   -2.1554    0.6658 C   0  0  0  0  0  0  0  0  0  0  0  0
   -0.6832   -2.8764    1.0638 O   0  0  0  0  0  0  0  0  0  0  0  0
   -1.3952   -0.9084    0.2428 N   0  0  0  0  0  0  0  0  0  0  0  0
   -2.1972   -0.3644   -0.0422 H   0  0  0  0  0  0  0  0  0  0  0  0
   -0.1122   -0.1994    0.2658 C   0  0  1  0  0  0  0  0  0  0  0  0
   -0.1448    0.5521    1.0589 H   0  0  0  0  0  0  0  0  0  0  0  0
    1.0096   -1.2128    0.5844 C   0  0  0  0  0  0  0  0  0  0  0  0
    0.9057   -2.0782   -0.0692 H   0  0  0  0  0  0  0  0  0  0  0  0
    1.9765   -0.7511    0.3901 H   0  0  0  0  0  0  0  0  0  0  0  0
    0.9850   -1.7337    2.0124 C   0  0  0  0  0  0  0  0  0  0  0  0
    0.7734   -1.0182    2.9760 O   0  0  0  0  0  0  0  0  0  0  0  0
    1.2121   -3.0108    2.2017 N   0  0  0  0  0  0  0  0  0  0  0  0
    1.1722   -3.3296    3.1538 H   0  0  0  0  0  0  0  0  0  0  0  0
    1.3699   -3.6238    1.4243 H   0  0  0  0  0  0  0  0  0  0  0  0
    0.1102    0.5302   -1.0774 C   0  0  0  0  0  0  0  0  0  0  0  0
   -0.7346    0.4466   -1.9689 O   0  0  0  0  0  0  0  0  0  0  0  0
    1.2389    1.2302   -1.2265 N   0  0  0  0  0  0  0  0  0  0  0  0
    1.9150    1.1837   -0.4708 H   0  0  0  0  0  0  0  0  0  0  0  0
    1.5927    1.9849   -2.4273 C   0  0  0  0  0  0  0  0  0  0  0  0
    0.8067    2.7093   -2.6515 H   0  0  0  0  0  0  0  0  0  0  0  0
    2.5352    2.5123   -2.2739 H   0  0  0  0  0  0  0  0  0  0  0  0
    1.6937    1.3039   -3.2741 H   0  0  0  0  0  0  0  0  0  0  0  0
  5  6  2  0  0  0  0
  5  7  1  0  0  0  0
  2  3  1  0  0  0  0
  2  4  1  0  0  0  0
  2  5  1  0  0  0  0
  1  2  1  0  0  0  0
 19 20  2  0  0  0  0
 19 21  1  0  0  0  0
 16 17  1  0  0  0  0
 16 18  1  0  0  0  0
 14 15  2  0  0  0  0
 14 16  1  0  0  0  0
 11 12  1  0  0  0  0
 11 13  1  0  0  0  0
 11 14  1  0  0  0  0
  9 10  1  0  0  0  0
  9 11  1  0  0  0  0
  9 19  1  0  0  0  0
  7  8  1  0  0  0  0
  7  9  1  0  0  0  0
 23 24  1  0  0  0  0
 23 25  1  0  0  0  0
 23 26  1  0  0  0  0
 21 22  1  0  0  0  0
 21 23  1  0  0  0  0
M  END
$$$$
default_name
  -OEChem-01062215323D

 26 25  0     1  0  0  0  0  0999 V2000
   -3.0232   -3.6924    1.0038 H   0  0  0  0  0  0  0  0  0  0  0  0
   -3.0082   -2.6684    0.6318 C   0  0  0  0  0  0  0  0  0  0  0  0
   -3.6332   -2.0414    1.2658 H   0  0  0  0  0  0  0  0  0  0  0  0
   -3.3762   -2.6444   -0.3912 H   0  0  0  0  0  0  0  0  0  0  0  0
   -1.5882   -2.1554    0.6658 C   0  0  0  0  0  0  0  0  0  0  0  0
   -0.6832   -2.8764    1.0638 O   0  0  0  0  0  0  0  0  0  0  0  0
   -1.3952   -0.9084    0.2428 N   0  0  0  0  0  0  0  0  0  0  0  0
   -2.1972   -0.3644   -0.0422 H   0  0  0  0  0  0  0  0  0  0  0  0
   -0.1122   -0.1994    0.2658 C   0  0  1  0  0  0  0  0  0  0  0  0
   -0.1448    0.5521    1.0589 H   0  0  0  0  0  0  0  0  0  0  0  0
    1.0096   -1.2128    0.5844 C   0  0  0  0  0  0  0  0  0  0  0  0
    0.9057   -2.0782   -0.0692 H   0  0  0  0  0  0  0  0  0  0  0  0
    1.9765   -0.7511    0.3901 H   0  0  0  0  0  0  0  0  0  0  0  0
    0.9850   -1.7337    2.0124 C   0  0  0  0  0  0  0  0  0  0  0  0
    0.7734   -1.0182    2.9760 O   0  0  0  0  0  0  0  0  0  0  0  0
    1.2121   -3.0108    2.2017 N   0  0  0  0  0  0  0  0  0  0  0  0
    1.1722   -3.3296    3.1538 H   0  0  0  0  0  0  0  0  0  0  0  0
    1.3699   -3.6238    1.4243 H   0  0  0  0  0  0  0  0  0  0  0  0
    0.1102    0.5302   -1.0774 C   0  0  0  0  0  0  0  0  0  0  0  0
   -0.8306    0.6827   -1.8566 O   0  0  0  0  0  0  0  0  0  0  0  0
    1.3428    0.9679   -1.3518 N   0  0  0  0  0  0  0  0  0  0  0  0
    2.0749    0.7333   -0.6889 H   0  0  0  0  0  0  0  0  0  0  0  0
    1.7147    1.6853   -2.5698 C   0  0  0  0  0  0  0  0  0  0  0  0
    1.0932    2.5771   -2.6759 H   0  0  0  0  0  0  0  0  0  0  0  0
    2.7638    1.9810   -2.5246 H   0  0  0  0  0  0  0  0  0  0  0  0
    1.5576    1.0433   -3.4382 H   0  0  0  0  0  0  0  0  0  0  0  0
  5  6  2  0  0  0  0
  5  7  1  0  0  0  0
  2  3  1  0  0  0  0
  2  4  1  0  0  0  0
  2  5  1  0  0  0  0
  1  2  1  0  0  0  0
 19 20  2  0  0  0  0
 19 21  1  0  0  0  0
 16 17  1  0  0  0  0
 16 18  1  0  0  0  0
 14 15  2  0  0  0  0
 14 16  1  0  0  0  0
 11 12  1  0  0  0  0
 11 13  1  0  0  0  0
 11 14  1  0  0  0  0
  9 10  1  0  0  0  0
  9 11  1  0  0  0  0
  9 19  1  0  0  0  0
  7  8  1  0  0  0  0
  7  9  1  0  0  0  0
 23 24  1  0  0  0  0
 23 25  1  0  0  0  0
 23 26  1  0  0  0  0
 21 22  1  0  0  0  0
 21 23  1  0  0  0  0
M  END
$$$$
default_name
  -OEChem-01062215323D

 26 25  0     1  0  0  0  0  0999 V2000
   -3.0232   -3.6924    1.0038 H   0  0  0  0  0  0  0  0  0  0  0  0
   -3.0082   -2.6684    0.6318 C   0  0  0  0  0  0  0  0  0  0  0  0
   -3.6332   -2.0414    1.2658 H   0  0  0  0  0  0  0  0  0  0  0  0
   -3.3762   -2.6444   -0.3912 H   0  0  0  0  0  0  0  0  0  0  0  0
   -1.5882   -2.1554    0.6658 C   0  0  0  0  0  0  0  0  0  0  0  0
   -0.6832   -2.8764    1.0638 O   0  0  0  0  0  0  0  0  0  0  0  0
   -1.3952   -0.9084    0.2428 N   0  0  0  0  0  0  0  0  0  0  0  0
   -2.1972   -0.3644   -0.0422 H   0  0  0  0  0  0  0  0  0  0  0  0
   -0.1122   -0.1994    0.2658 C   0  0  1  0  0  0  0  0  0  0  0  0
   -0.1448    0.5521    1.0589 H   0  0  0  0  0  0  0  0  0  0  0  0
    1.0096   -1.2128    0.5844 C   0  0  0  0  0  0  0  0  0  0  0  0
    0.9057   -2.0782   -0.0692 H   0  0  0  0  0  0  0  0  0  0  0  0
    1.9765   -0.7511    0.3901 H   0  0  0  0  0  0  0  0  0  0  0  0
    0.9850   -1.7337    2.0124 C   0  0  0  0  0  0  0  0  0  0  0  0
    0.7734   -1.0182    2.9760 O   0  0  0  0  0  0  0  0  0  0  0  0
    1.2121   -3.0108    2.2017 N   0  0  0  0  0  0  0  0  0  0  0  0
    1.1722   -3.3296    3.1538 H   0  0  0  0  0  0  0  0  0  0  0  0
    1.3699   -3.6238    1.4243 H   0  0  0  0  0  0  0  0  0  0  0  0
    0.1102    0.5302   -1.0774 C   0  0  0  0  0  0  0  0  0  0  0  0
   -0.8565    0.9281   -1.7275 O   0  0  0  0  0  0  0  0  0  0  0  0
    1.3688    0.6958   -1.4952 N   0  0  0  0  0  0  0  0  0  0  0  0
    2.1014    0.2703   -0.9360 H   0  0  0  0  0  0  0  0  0  0  0  0
    1.7478    1.3739   -2.7336 C   0  0  0  0  0  0  0  0  0  0  0  0
    1.3372    2.3859   -2.7393 H   0  0  0  0  0  0  0  0  0  0  0  0
    2.8344    1.4257   -2.8145 H   0  0  0  0  0  0  0  0  0  0  0  0
    1.3474    0.8284   -3.5898 H   0  0  0  0  0  0  0  0  0  0  0  0
  5  6  2  0  0  0  0
  5  7  1  0  0  0  0
  2  3  1  0  0  0  0
  2  4  1  0  0  0  0
  2  5  1  0  0  0  0
  1  2  1  0  0  0  0
 19 20  2  0  0  0  0
 19 21  1  0  0  0  0
 16 17  1  0  0  0  0
 16 18  1  0  0  0  0
 14 15  2  0  0  0  0
 14 16  1  0  0  0  0
 11 12  1  0  0  0  0
 11 13  1  0  0  0  0
 11 14  1  0  0  0  0
  9 10  1  0  0  0  0
  9 11  1  0  0  0  0
  9 19  1  0  0  0  0
  7  8  1  0  0  0  0
  7  9  1  0  0  0  0
 23 24  1  0  0  0  0
 23 25  1  0  0  0  0
 23 26  1  0  0  0  0
 21 22  1  0  0  0  0
 21 23  1  0  0  0  0
M  END
$$$$
default_name
  -OEChem-01062215323D

 26 25  0     1  0  0  0  0  0999 V2000
   -3.0232   -3.6924    1.0038 H   0  0  0  0  0  0  0  0  0  0  0  0
   -3.0082   -2.6684    0.6318 C   0  0  0  0  0  0  0  0  0  0  0  0
   -3.6332   -2.0414    1.2658 H   0  0  0  0  0  0  0  0  0  0  0  0
   -3.3762   -2.6444   -0.3912 H   0  0  0  0  0  0  0  0  0  0  0  0
   -1.5882   -2.1554    0.6658 C   0  0  0  0  0  0  0  0  0  0  0  0
   -0.6832   -2.8764    1.0638 O   0  0  0  0  0  0  0  0  0  0  0  0
   -1.3952   -0.9084    0.2428 N   0  0  0  0  0  0  0  0  0  0  0  0
   -2.1972   -0.3644   -0.0422 H   0  0  0  0  0  0  0  0  0  0  0  0
   -0.1122   -0.1994    0.2658 C   0  0  1  0  0  0  0  0  0  0  0  0
   -0.1448    0.5521    1.0589 H   0  0  0  0  0  0  0  0  0  0  0  0
    1.0096   -1.2128    0.5844 C   0  0  0  0  0  0  0  0  0  0  0  0
    0.9057   -2.0782   -0.0692 H   0  0  0  0  0  0  0  0  0  0  0  0
    1.9765   -0.7511    0.3901 H   0  0  0  0  0  0  0  0  0  0  0  0
    0.9850   -1.7337    2.0124 C   0  0  0  0  0  0  0  0  0  0  0  0
    0.7734   -1.0182    2.9760 O   0  0  0  0  0  0  0  0  0  0  0  0
    1.2121   -3.0108    2.2017 N   0  0  0  0  0  0  0  0  0  0  0  0
    1.1722   -3.3296    3.1538 H   0  0  0  0  0  0  0  0  0  0  0  0
    1.3699   -3.6238    1.4243 H   0  0  0  0  0  0  0  0  0  0  0  0
    0.1102    0.5302   -1.0774 C   0  0  0  0  0  0  0  0  0  0  0  0
   -0.8104    1.1663   -1.5906 O   0  0  0  0  0  0  0  0  0  0  0  0
    1.3152    0.4325   -1.6471 N   0  0  0  0  0  0  0  0  0  0  0  0
    1.9925   -0.1736   -1.1951 H   0  0  0  0  0  0  0  0  0  0  0  0
    1.6896    1.0717   -2.9073 C   0  0  0  0  0  0  0  0  0  0  0  0
    1.5222    2.1486   -2.8376 H   0  0  0  0  0  0  0  0  0  0  0  0
    2.7421    0.8842   -3.1239 H   0  0  0  0  0  0  0  0  0  0  0  0
    1.0775    0.6737   -3.7185 H   0  0  0  0  0  0  0  0  0  0  0  0
  5  6  2  0  0  0  0
  5  7  1  0  0  0  0
  2  3  1  0  0  0  0
  2  4  1  0  0  0  0
  2  5  1  0  0  0  0
  1  2  1  0  0  0  0
 19 20  2  0  0  0  0
 19 21  1  0  0  0  0
 16 17  1  0  0  0  0
 16 18  1  0  0  0  0
 14 15  2  0  0  0  0
 14 16  1  0  0  0  0
 11 12  1  0  0  0  0
 11 13  1  0  0  0  0
 11 14  1  0  0  0  0
  9 10  1  0  0  0  0
  9 11  1  0  0  0  0
  9 19  1  0  0  0  0
  7  8  1  0  0  0  0
  7  9  1  0  0  0  0
 23 24  1  0  0  0  0
 23 25  1  0  0  0  0
 23 26  1  0  0  0  0
 21 22  1  0  0  0  0
 21 23  1  0  0  0  0
M  END
$$$$
default_name
  -OEChem-01062215323D

 26 25  0     1  0  0  0  0  0999 V2000
   -3.0232   -3.6924    1.0038 H   0  0  0  0  0  0  0  0  0  0  0  0
   -3.0082   -2.6684    0.6318 C   0  0  0  0  0  0  0  0  0  0  0  0
   -3.6332   -2.0414    1.2658 H   0  0  0  0  0  0  0  0  0  0  0  0
   -3.3762   -2.6444   -0.3912 H   0  0  0  0  0  0  0  0  0  0  0  0
   -1.5882   -2.1554    0.6658 C   0  0  0  0  0  0  0  0  0  0  0  0
   -0.6832   -2.8764    1.0638 O   0  0  0  0  0  0  0  0  0  0  0  0
   -1.3952   -0.9084    0.2428 N   0  0  0  0  0  0  0  0  0  0  0  0
   -2.1972   -0.3644   -0.0422 H   0  0  0  0  0  0  0  0  0  0  0  0
   -0.1122   -0.1994    0.2658 C   0  0  1  0  0  0  0  0  0  0  0  0
   -0.1448    0.5521    1.0589 H   0  0  0  0  0  0  0  0  0  0  0  0
    1.0096   -1.2128    0.5844 C   0  0  0  0  0  0  0  0  0  0  0  0
    0.9057   -2.0782   -0.0692 H   0  0  0  0  0  0  0  0  0  0  0  0
    1.9765   -0.7511    0.3901 H   0  0  0  0  0  0  0  0  0  0  0  0
    0.9850   -1.7337    2.0124 C   0  0  0  0  0  0  0  0  0  0  0  0
    0.7734   -1.0182    2.9760 O   0  0  0  0  0  0  0  0  0  0  0  0
    1.2121   -3.0108    2.2017 N   0  0  0  0  0  0  0  0  0  0  0  0
    1.1722   -3.3296    3.1538 H   0  0  0  0  0  0  0  0  0  0  0  0
    1.3699   -3.6238    1.4243 H   0  0  0  0  0  0  0  0  0  0  0  0
    0.1102    0.5302   -1.0774 C   0  0  0  0  0  0  0  0  0  0  0  0
   -0.6956    1.3808   -1.4550 O   0  0  0  0  0  0  0  0  0  0  0  0
    1.1856    0.1958   -1.7971 N   0  0  0  0  0  0  0  0  0  0  0  0
    1.7558   -0.5682   -1.4487 H   0  0  0  0  0  0  0  0  0  0  0  0
    1.5441    0.7993   -3.0793 C   0  0  0  0  0  0  0  0  0  0  0  0
    1.6354    1.8815   -2.9639 H   0  0  0  0  0  0  0  0  0  0  0  0
    2.4934    0.3934   -3.4317 H   0  0  0  0  0  0  0  0  0  0  0  0
    0.7663    0.5898   -3.8156 H   0  0  0  0  0  0  0  0  0  0  0  0
  5  6  2  0  0  0  0
  5  7  1  0  0  0  0
  2  3  1  0  0  0  0
  2  4  1  0  0  0  0
  2  5  1  0  0  0  0
  1  2  1  0  0  0  0
 19 20  2  0  0  0  0
 19 21  1  0  0  0  0
 16 17  1  0  0  0  0
 16 18  1  0  0  0  0
 14 15  2  0  0  0  0
 14 16  1  0  0  0  0
 11 12  1  0  0  0  0
 11 13  1  0  0  0  0
 11 14  1  0  0  0  0
  9 10  1  0  0  0  0
  9 11  1  0  0  0  0
  9 19  1  0  0  0  0
  7  8  1  0  0  0  0
  7  9  1  0  0  0  0
 23 24  1  0  0  0  0
 23 25  1  0  0  0  0
 23 26  1  0  0  0  0
 21 22  1  0  0  0  0
 21 23  1  0  0  0  0
M  END
$$$$
default_name
  -OEChem-01062215323D

 26 25  0     1  0  0  0  0  0999 V2000
   -3.0232   -3.6924    1.0038 H   0  0  0  0  0  0  0  0  0  0  0  0
   -3.0082   -2.6684    0.6318 C   0  0  0  0  0  0  0  0  0  0  0  0
   -3.6332   -2.0414    1.2658 H   0  0  0  0  0  0  0  0  0  0  0  0
   -3.3762   -2.6444   -0.3912 H   0  0  0  0  0  0  0  0  0  0  0  0
   -1.5882   -2.1554    0.6658 C   0  0  0  0  0  0  0  0  0  0  0  0
   -0.6832   -2.8764    1.0638 O   0  0  0  0  0  0  0  0  0  0  0  0
   -1.3952   -0.9084    0.2428 N   0  0  0  0  0  0  0  0  0  0  0  0
   -2.1972   -0.3644   -0.0422 H   0  0  0  0  0  0  0  0  0  0  0  0
   -0.1122   -0.1994    0.2658 C   0  0  1  0  0  0  0  0  0  0  0  0
   -0.1448    0.5521    1.0589 H   0  0  0  0  0  0  0  0  0  0  0  0
    1.0096   -1.2128    0.5844 C   0  0  0  0  0  0  0  0  0  0  0  0
    0.9057   -2.0782   -0.0692 H   0  0  0  0  0  0  0  0  0  0  0  0
    1.9765   -0.7511    0.3901 H   0  0  0  0  0  0  0  0  0  0  0  0
    0.9850   -1.7337    2.0124 C   0  0  0  0  0  0  0  0  0  0  0  0
    0.7734   -1.0182    2.9760 O   0  0  0  0  0  0  0  0  0  0  0  0
    1.2121   -3.0108    2.2017 N   0  0  0  0  0  0  0  0  0  0  0  0
    1.1722   -3.3296    3.1538 H   0  0  0  0  0  0  0  0  0  0  0  0
    1.3699   -3.6238    1.4243 H   0  0  0  0  0  0  0  0  0  0  0  0
    0.1102    0.5302   -1.0774 C   0  0  0  0  0  0  0  0  0  0  0  0
   -0.5199    1.5571   -1.3302 O   0  0  0  0  0  0  0  0  0  0  0  0
    0.9887    0.0020   -1.9350 N   0  0  0  0  0  0  0  0  0  0  0  0
    1.4073   -0.8866   -1.6793 H   0  0  0  0  0  0  0  0  0  0  0  0
    1.3212    0.5754   -3.2379 C   0  0  0  0  0  0  0  0  0  0  0  0
    1.6692    1.6027   -3.1098 H   0  0  0  0  0  0  0  0  0  0  0  0
    2.1050   -0.0131   -3.7168 H   0  0  0  0  0  0  0  0  0  0  0  0
    0.4349    0.5824   -3.8745 H   0  0  0  0  0  0  0  0  0  0  0  0
  5  6  2  0  0  0  0
  5  7  1  0  0  0  0
  2  3  1  0  0  0  0
  2  4  1  0  0  0  0
  2  5  1  0  0  0  0
  1  2  1  0  0  0  0
 19 20  2  0  0  0  0
 19 21  1  0  0  0  0
 16 17  1  0  0  0  0
 16 18  1  0  0  0  0
 14 15  2  0  0  0  0
 14 16  1  0  0  0  0
 11 12  1  0  0  0  0
 11 13  1  0  0  0  0
 11 14  1  0  0  0  0
  9 10  1  0  0  0  0
  9 11  1  0  0  0  0
  9 19  1  0  0  0  0
  7  8  1  0  0  0  0
  7  9  1  0  0  0  0
 23 24  1  0  0  0  0
 23 25  1  0  0  0  0
 23 26  1  0  0  0  0
 21 22  1  0  0  0  0
 21 23  1  0  0  0  0
M  END
$$$$
default_name
  -OEChem-01062215323D

 26 25  0     1  0  0  0  0  0999 V2000
   -3.0232   -3.6924    1.0038 H   0  0  0  0  0  0  0  0  0  0  0  0
   -3.0082   -2.6684    0.6318 C   0  0  0  0  0  0  0  0  0  0  0  0
   -3.6332   -2.0414    1.2658 H   0  0  0  0  0  0  0  0  0  0  0  0
   -3.3762   -2.6444   -0.3912 H   0  0  0  0  0  0  0  0  0  0  0  0
   -1.5882   -2.1554    0.6658 C   0  0  0  0  0  0  0  0  0  0  0  0
   -0.6832   -2.8764    1.0638 O   0  0  0  0  0  0  0  0  0  0  0  0
   -1.3952   -0.9084    0.2428 N   0  0  0  0  0  0  0  0  0  0  0  0
   -2.1972   -0.3644   -0.0422 H   0  0  0  0  0  0  0  0  0  0  0  0
   -0.1122   -0.1994    0.2658 C   0  0  1  0  0  0  0  0  0  0  0  0
   -0.1448    0.5521    1.0589 H   0  0  0  0  0  0  0  0  0  0  0  0
    1.0096   -1.2128    0.5844 C   0  0  0  0  0  0  0  0  0  0  0  0
    0.9057   -2.0782   -0.0692 H   0  0  0  0  0  0  0  0  0  0  0  0
    1.9765   -0.7511    0.3901 H   0  0  0  0  0  0  0  0  0  0  0  0
    0.9850   -1.7337    2.0124 C   0  0  0  0  0  0  0  0  0  0  0  0
    0.7734   -1.0182    2.9760 O   0  0  0  0  0  0  0  0  0  0  0  0
    1.2121   -3.0108    2.2017 N   0  0  0  0  0  0  0  0  0  0  0  0
    1.1722   -3.3296    3.1538 H   0  0  0  0  0  0  0  0  0  0  0  0
    1.3699   -3.6238    1.4243 H   0  0  0  0  0  0  0  0  0  0  0  0
    0.1102    0.5302   -1.0774 C   0  0  0  0  0  0  0  0  0  0  0  0
   -0.2952    1.6832   -1.2245 O   0  0  0  0  0  0  0  0  0  0  0  0
    0.7381   -0.1357   -2.0513 N   0  0  0  0  0  0  0  0  0  0  0  0
    0.9709   -1.1072   -1.8714 H   0  0  0  0  0  0  0  0  0  0  0  0
    1.0362    0.4152   -3.3721 C   0  0  0  0  0  0  0  0  0  0  0  0
    1.6213    1.3312   -3.2652 H   0  0  0  0  0  0  0  0  0  0  0  0
    1.6035   -0.3078   -3.9599 H   0  0  0  0  0  0  0  0  0  0  0  0
    0.1059    0.6521   -3.8911 H   0  0  0  0  0  0  0  0  0  0  0  0
  5  6  2  0  0  0  0
  5  7  1  0  0  0  0
  2  3  1  0  0  0  0
  2  4  1  0  0  0  0
  2  5  1  0  0  0  0
  1  2  1  0  0  0  0
 19 20  2  0  0  0  0
 19 21  1  0  0  0  0
 16 17  1  0  0  0  0
 16 18  1  0  0  0  0
 14 15  2  0  0  0  0
 14 16  1  0  0  0  0
 11 12  1  0  0  0  0
 11 13  1  0  0  0  0
 11 14  1  0  0  0  0
  9 10  1  0  0  0  0
  9 11  1  0  0  0  0
  9 19  1  0  0  0  0
  7  8  1  0  0  0  0
  7  9  1  0  0  0  0
 23 24  1  0  0  0  0
 23 25  1  0  0  0  0
 23 26  1  0  0  0  0
 21 22  1  0  0  0  0
 21 23  1  0  0  0  0
M  END
$$$$
default_name
  -OEChem-01062215323D

 26 25  0     1  0  0  0  0  0999 V2000
   -3.0232   -3.6924    1.0038 H   0  0  0  0  0  0  0  0  0  0  0  0
   -3.0082   -2.6684    0.6318 C   0  0  0  0  0  0  0  0  0  0  0  0
   -3.6332   -2.0414    1.2658 H   0  0  0  0  0  0  0  0  0  0  0  0
   -3.3762   -2.6444   -0.3912 H   0  0  0  0  0  0  0  0  0  0  0  0
   -1.5882   -2.1554    0.6658 C   0  0  0  0  0  0  0  0  0  0  0  0
   -0.6832   -2.8764    1.0638 O   0  0  0  0  0  0  0  0  0  0  0  0
   -1.3952   -0.9084    0.2428 N   0  0  0  0  0  0  0  0  0  0  0  0
   -2.1972   -0.3644   -0.0422 H   0  0  0  0  0  0  0  0  0  0  0  0
   -0.1122   -0.1994    0.2658 C   0  0  1  0  0  0  0  0  0  0  0  0
   -0.1448    0.5521    1.0589 H   0  0  0  0  0  0  0  0  0  0  0  0
    1.0096   -1.2128    0.5844 C   0  0  0  0  0  0  0  0  0  0  0  0
    0.9057   -2.0782   -0.0692 H   0  0  0  0  0  0  0  0  0  0  0  0
    1.9765   -0.7511    0.3901 H   0  0  0  0  0  0  0  0  0  0  0  0
    0.9850   -1.7337    2.0124 C   0  0  0  0  0  0  0  0  0  0  0  0
    0.7734   -1.0182    2.9760 O   0  0  0  0  0  0  0  0  0  0  0  0
    1.2121   -3.0108    2.2017 N   0  0  0  0  0  0  0  0  0  0  0  0
    1.1722   -3.3296    3.1538 H   0  0  0  0  0  0  0  0  0  0  0  0
    1.3699   -3.6238    1.4243 H   0  0  0  0  0  0  0  0  0  0  0  0
    0.1102    0.5302   -1.0774 C   0  0  0  0  0  0  0  0  0  0  0  0
   -0.0368    1.7505   -1.1451 O   0  0  0  0  0  0  0  0  0  0  0  0
    0.4509   -0.2080   -2.1381 N   0  0  0  0  0  0  0  0  0  0  0  0
    0.4762   -1.2149   -2.0118 H   0  0  0  0  0  0  0  0  0  0  0  0
    0.7084    0.3296   -3.4728 C   0  0  0  0  0  0  0  0  0  0  0  0
    1.4949    1.0855   -3.4195 H   0  0  0  0  0  0  0  0  0  0  0  0
    1.0230   -0.4705   -4.1443 H   0  0  0  0  0  0  0  0  0  0  0  0
   -0.1982    0.7940   -3.8643 H   0  0  0  0  0  0  0  0  0  0  0  0
  5  6  2  0  0  0  0
  5  7  1  0  0  0  0
  2  3  1  0  0  0  0
  2  4  1  0  0  0  0
  2  5  1  0  0  0  0
  1  2  1  0  0  0  0
 19 20  2  0  0  0  0
 19 21  1  0  0  0  0
 16 17  1  0  0  0  0
 16 18  1  0  0  0  0
 14 15  2  0  0  0  0
 14 16  1  0  0  0  0
 11 12  1  0  0  0  0
 11 13  1  0  0  0  0
 11 14  1  0  0  0  0
  9 10  1  0  0  0  0
  9 11  1  0  0  0  0
  9 19  1  0  0  0  0
  7  8  1  0  0  0  0
  7  9  1  0  0  0  0
 23 24  1  0  0  0  0
 23 25  1  0  0  0  0
 23 26  1  0  0  0  0
 21 22  1  0  0  0  0
 21 23  1  0  0  0  0
M  END
$$$$
default_name
  -OEChem-01062215323D

 26 25  0     1  0  0  0  0  0999 V2000
   -3.0232   -3.6924    1.0038 H   0  0  0  0  0  0  0  0  0  0  0  0
   -3.0082   -2.6684    0.6318 C   0  0  0  0  0  0  0  0  0  0  0  0
   -3.6332   -2.0414    1.2658 H   0  0  0  0  0  0  0  0  0  0  0  0
   -3.3762   -2.6444   -0.3912 H   0  0  0  0  0  0  0  0  0  0  0  0
   -1.5882   -2.1554    0.6658 C   0  0  0  0  0  0  0  0  0  0  0  0
   -0.6832   -2.8764    1.0638 O   0  0  0  0  0  0  0  0  0  0  0  0
   -1.3952   -0.9084    0.2428 N   0  0  0  0  0  0  0  0  0  0  0  0
   -2.1972   -0.3644   -0.0422 H   0  0  0  0  0  0  0  0  0  0  0  0
   -0.1122   -0.1994    0.2658 C   0  0  1  0  0  0  0  0  0  0  0  0
   -0.1448    0.5521    1.0589 H   0  0  0  0  0  0  0  0  0  0  0  0
    1.0096   -1.2128    0.5844 C   0  0  0  0  0  0  0  0  0  0  0  0
    0.9057   -2.0782   -0.0692 H   0  0  0  0  0  0  0  0  0  0  0  0
    1.9765   -0.7511    0.3901 H   0  0  0  0  0  0  0  0  0  0  0  0
    0.9850   -1.7337    2.0124 C   0  0  0  0  0  0  0  0  0  0  0  0
    0.7734   -1.0182    2.9760 O   0  0  0  0  0  0  0  0  0  0  0  0
    1.2121   -3.0108    2.2017 N   0  0  0  0  0  0  0  0  0  0  0  0
    1.1722   -3.3296    3.1538 H   0  0  0  0  0  0  0  0  0  0  0  0
    1.3699   -3.6238    1.4243 H   0  0  0  0  0  0  0  0  0  0  0  0
    0.1102    0.5302   -1.0774 C   0  0  0  0  0  0  0  0  0  0  0  0
    0.2376    1.7544   -1.0976 O   0  0  0  0  0  0  0  0  0  0  0  0
    0.1465   -0.2100   -2.1896 N   0  0  0  0  0  0  0  0  0  0  0  0
   -0.0431   -1.2023   -2.0909 H   0  0  0  0  0  0  0  0  0  0  0  0
    0.3602    0.3244   -3.5333 C   0  0  0  0  0  0  0  0  0  0  0  0
    1.2986    0.8825   -3.5623 H   0  0  0  0  0  0  0  0  0  0  0  0
    0.4032   -0.4901   -4.2576 H   0  0  0  0  0  0  0  0  0  0  0  0
   -0.4567    0.9986   -3.7960 H   0  0  0  0  0  0  0  0  0  0  0  0
  5  6  2  0  0  0  0
  5  7  1  0  0  0  0
  2  3  1  0  0  0  0
  2  4  1  0  0  0  0
  2  5  1  0  0  0  0
  1  2  1  0  0  0  0
 19 20  2  0  0  0  0
 19 21  1  0  0  0  0
 16 17  1  0  0  0  0
 16 18  1  0  0  0  0
 14 15  2  0  0  0  0
 14 16  1  0  0  0  0
 11 12  1  0  0  0  0
 11 13  1  0  0  0  0
 11 14  1  0  0  0  0
  9 10  1  0  0  0  0
  9 11  1  0  0  0  0
  9 19  1  0  0  0  0
  7  8  1  0  0  0  0
  7  9  1  0  0  0  0
 23 24  1  0  0  0  0
 23 25  1  0  0  0  0
 23 26  1  0  0  0  0
 21 22  1  0  0  0  0
 21 23  1  0  0  0  0
M  END
$$$$
default_name
  -OEChem-01062215323D

 26 25  0     1  0  0  0  0  0999 V2000
   -3.0232   -3.6924    1.0038 H   0  0  0  0  0  0  0  0  0  0  0  0
   -3.0082   -2.6684    0.6318 C   0  0  0  0  0  0  0  0  0  0  0  0
   -3.6332   -2.0414    1.2658 H   0  0  0  0  0  0  0  0  0  0  0  0
   -3.3762   -2.6444   -0.3912 H   0  0  0  0  0  0  0  0  0  0  0  0
   -1.5882   -2.1554    0.6658 C   0  0  0  0  0  0  0  0  0  0  0  0
   -0.6832   -2.8764    1.0638 O   0  0  0  0  0  0  0  0  0  0  0  0
   -1.3952   -0.9084    0.2428 N   0  0  0  0  0  0  0  0  0  0  0  0
   -2.1972   -0.3644   -0.0422 H   0  0  0  0  0  0  0  0  0  0  0  0
   -0.1122   -0.1994    0.2658 C   0  0  1  0  0  0  0  0  0  0  0  0
   -0.1448    0.5521    1.0589 H   0  0  0  0  0  0  0  0  0  0  0  0
    1.0096   -1.2128    0.5844 C   0  0  0  0  0  0  0  0  0  0  0  0
    0.9057   -2.0782   -0.0692 H   0  0  0  0  0  0  0  0  0  0  0  0
    1.9765   -0.7511    0.3901 H   0  0  0  0  0  0  0  0  0  0  0  0
    0.9850   -1.7337    2.0124 C   0  0  0  0  0  0  0  0  0  0  0  0
    0.7734   -1.0182    2.9760 O   0  0  0  0  0  0  0  0  0  0  0  0
    1.2121   -3.0108    2.2017 N   0  0  0  0  0  0  0  0  0  0  0  0
    1.1722   -3.3296    3.1538 H   0  0  0  0  0  0  0  0  0  0  0  0
    1.3699   -3.6238    1.4243 H   0  0  0  0  0  0  0  0  0  0  0  0
    0.1102    0.5302   -1.0774 C   0  0  0  0  0  0  0  0  0  0  0  0
    0.5093    1.6947   -1.0850 O   0  0  0  0  0  0  0  0  0  0  0  0
   -0.1542   -0.1415   -2.2022 N   0  0  0  0  0  0  0  0  0  0  0  0
   -0.5515   -1.0703   -2.1034 H   0  0  0  0  0  0  0  0  0  0  0  0
    0.0154    0.4001   -3.5493 C   0  0  0  0  0  0  0  0  0  0  0  0
    1.0459    0.7358   -3.6838 H   0  0  0  0  0  0  0  0  0  0  0  0
   -0.2138   -0.3654   -4.2920 H   0  0  0  0  0  0  0  0  0  0  0  0
   -0.6521    1.2518   -3.6908 H   0  0  0  0  0  0  0  0  0  0  0  0
  5  6  2  0  0  0  0
  5  7  1  0  0  0  0
  2  3  1  0  0  0  0
  2  4  1  0  0  0  0
  2  5  1  0  0  0  0
  1  2  1  0  0  0  0
 19 20  2  0  0  0  0
 19 21  1  0  0  0  0
 16 17  1  0  0  0  0
 16 18  1  0  0  0  0
 14 15  2  0  0  0  0
 14 16  1  0  0  0  0
 11 12  1  0  0  0  0
 11 13  1  0  0  0  0
 11 14  1  0  0  0  0
  9 10  1  0  0  0  0
  9 11  1  0  0  0  0
  9 19  1  0  0  0  0
  7  8  1  0  0  0  0
  7  9  1  0  0  0  0
 23 24  1  0  0  0  0
 23 25  1  0  0  0  0
 23 26  1  0  0  0  0
 21 22  1  0  0  0  0
 21 23  1  0  0  0  0
M  END
$$$$
default_name
  -OEChem-01062215323D

 26 25  0     1  0  0  0  0  0999 V2000
   -3.0232   -3.6924    1.0038 H   0  0  0  0  0  0  0  0  0  0  0  0
   -3.0082   -2.6684    0.6318 C   0  0  0  0  0  0  0  0  0  0  0  0
   -3.6332   -2.0414    1.2658 H   0  0  0  0  0  0  0  0  0  0  0  0
   -3.3762   -2.6444   -0.3912 H   0  0  0  0  0  0  0  0  0  0  0  0
   -1.5882   -2.1554    0.6658 C   0  0  0  0  0  0  0  0  0  0  0  0
   -0.6832   -2.8764    1.0638 O   0  0  0  0  0  0  0  0  0  0  0  0
   -1.3952   -0.9084    0.2428 N   0  0  0  0  0  0  0  0  0  0  0  0
   -2.1972   -0.3644   -0.0422 H   0  0  0  0  0  0  0  0  0  0  0  0
   -0.1122   -0.1994    0.2658 C   0  0  1  0  0  0  0  0  0  0  0  0
   -0.1448    0.5521    1.0589 H   0  0  0  0  0  0  0  0  0  0  0  0
    1.0096   -1.2128    0.5844 C   0  0  0  0  0  0  0  0  0  0  0  0
    0.9057   -2.0782   -0.0692 H   0  0  0  0  0  0  0  0  0  0  0  0
    1.9765   -0.7511    0.3901 H   0  0  0  0  0  0  0  0  0  0  0  0
    0.9850   -1.7337    2.0124 C   0  0  0  0  0  0  0  0  0  0  0  0
    0.7734   -1.0182    2.9760 O   0  0  0  0  0  0  0  0  0  0  0  0
    1.2121   -3.0108    2.2017 N   0  0  0  0  0  0  0  0  0  0  0  0
    1.1722   -3.3296    3.1538 H   0  0  0  0  0  0  0  0  0  0  0  0
    1.3699   -3.6238    1.4243 H   0  0  0  0  0  0  0  0  0  0  0  0
    0.1102    0.5302   -1.0774 C   0  0  0  0  0  0  0  0  0  0  0  0
    0.7599    1.5753   -1.1084 O   0  0  0  0  0  0  0  0  0  0  0  0
   -0.4309   -0.0072   -2.1750 N   0  0  0  0  0  0  0  0  0  0  0  0
   -1.0144   -0.8280   -2.0484 H   0  0  0  0  0  0  0  0  0  0  0  0
   -0.3027    0.5513   -3.5198 C   0  0  0  0  0  0  0  0  0  0  0  0
    0.7539    0.6555   -3.7758 H   0  0  0  0  0  0  0  0  0  0  0  0
   -0.7859   -0.1047   -4.2452 H   0  0  0  0  0  0  0  0  0  0  0  0
   -0.7709    1.5364   -3.5559 H   0  0  0  0  0  0  0  0  0  0  0  0
  5  6  2  0  0  0  0
  5  7  1  0  0  0  0
  2  3  1  0  0  0  0
  2  4  1  0  0  0  0
  2  5  1  0  0  0  0
  1  2  1  0  0  0  0
 19 20  2  0  0  0  0
 19 21  1  0  0  0  0
 16 17  1  0  0  0  0
 16 18  1  0  0  0  0
 14 15  2  0  0  0  0
 14 16  1  0  0  0  0
 11 12  1  0  0  0  0
 11 13  1  0  0  0  0
 11 14  1  0  0  0  0
  9 10  1  0  0  0  0
  9 11  1  0  0  0  0
  9 19  1  0  0  0  0
  7  8  1  0  0  0  0
  7  9  1  0  0  0  0
 23 24  1  0  0  0  0
 23 25  1  0  0  0  0
 23 26  1  0  0  0  0
 21 22  1  0  0  0  0
 21 23  1  0  0  0  0
M  END
$$$$
default_name
  -OEChem-01062215323D

 26 25  0     1  0  0  0  0  0999 V2000
   -3.0232   -3.6924    1.0038 H   0  0  0  0  0  0  0  0  0  0  0  0
   -3.0082   -2.6684    0.6318 C   0  0  0  0  0  0  0  0  0  0  0  0
   -3.6332   -2.0414    1.2658 H   0  0  0  0  0  0  0  0  0  0  0  0
   -3.3762   -2.6444   -0.3912 H   0  0  0  0  0  0  0  0  0  0  0  0
   -1.5882   -2.1554    0.6658 C   0  0  0  0  0  0  0  0  0  0  0  0
   -0.6832   -2.8764    1.0638 O   0  0  0  0  0  0  0  0  0  0  0  0
   -1.3952   -0.9084    0.2428 N   0  0  0  0  0  0  0  0  0  0  0  0
   -2.1972   -0.3644   -0.0422 H   0  0  0  0  0  0  0  0  0  0  0  0
   -0.1122   -0.1994    0.2658 C   0  0  1  0  0  0  0  0  0  0  0  0
   -0.1448    0.5521    1.0589 H   0  0  0  0  0  0  0  0  0  0  0  0
    1.0096   -1.2128    0.5844 C   0  0  0  0  0  0  0  0  0  0  0  0
    0.9057   -2.0782   -0.0692 H   0  0  0  0  0  0  0  0  0  0  0  0
    1.9765   -0.7511    0.3901 H   0  0  0  0  0  0  0  0  0  0  0  0
    0.9850   -1.7337    2.0124 C   0  0  0  0  0  0  0  0  0  0  0  0
    0.7734   -1.0182    2.9760 O   0  0  0  0  0  0  0  0  0  0  0  0
    1.2121   -3.0108    2.2017 N   0  0  0  0  0  0  0  0  0  0  0  0
    1.1722   -3.3296    3.1538 H   0  0  0  0  0  0  0  0  0  0  0  0
    1.3699   -3.6238    1.4243 H   0  0  0  0  0  0  0  0  0  0  0  0
    0.1102    0.5302   -1.0774 C   0  0  0  0  0  0  0  0  0  0  0  0
    0.9722    1.4045   -1.1660 O   0  0  0  0  0  0  0  0  0  0  0  0
   -0.6645    0.1838   -2.1099 N   0  0  0  0  0  0  0  0  0  0  0  0
   -1.4003   -0.4918   -1.9297 H   0  0  0  0  0  0  0  0  0  0  0  0
   -0.5723    0.7679   -3.4468 C   0  0  0  0  0  0  0  0  0  0  0  0
    0.4426    0.6471   -3.8319 H   0  0  0  0  0  0  0  0  0  0  0  0
   -1.2741    0.2740   -4.1203 H   0  0  0  0  0  0  0  0  0  0  0  0
   -0.8051    1.8331   -3.4004 H   0  0  0  0  0  0  0  0  0  0  0  0
  5  6  2  0  0  0  0
  5  7  1  0  0  0  0
  2  3  1  0  0  0  0
  2  4  1  0  0  0  0
  2  5  1  0  0  0  0
  1  2  1  0  0  0  0
 19 20  2  0  0  0  0
 19 21  1  0  0  0  0
 16 17  1  0  0  0  0
 16 18  1  0  0  0  0
 14 15  2  0  0  0  0
 14 16  1  0  0  0  0
 11 12  1  0  0  0  0
 11 13  1  0  0  0  0
 11 14  1  0  0  0  0
  9 10  1  0  0  0  0
  9 11  1  0  0  0  0
  9 19  1  0  0  0  0
  7  8  1  0  0  0  0
  7  9  1  0  0  0  0
 23 24  1  0  0  0  0
 23 25  1  0  0  0  0
 23 26  1  0  0  0  0
 21 22  1  0  0  0  0
 21 23  1  0  0  0  0
M  END
$$$$
default_name
  -OEChem-01062215323D

 26 25  0     1  0  0  0  0  0999 V2000
   -3.0232   -3.6924    1.0038 H   0  0  0  0  0  0  0  0  0  0  0  0
   -3.0082   -2.6684    0.6318 C   0  0  0  0  0  0  0  0  0  0  0  0
   -3.6332   -2.0414    1.2658 H   0  0  0  0  0  0  0  0  0  0  0  0
   -3.3762   -2.6444   -0.3912 H   0  0  0  0  0  0  0  0  0  0  0  0
   -1.5882   -2.1554    0.6658 C   0  0  0  0  0  0  0  0  0  0  0  0
   -0.6832   -2.8764    1.0638 O   0  0  0  0  0  0  0  0  0  0  0  0
   -1.3952   -0.9084    0.2428 N   0  0  0  0  0  0  0  0  0  0  0  0
   -2.1972   -0.3644   -0.0422 H   0  0  0  0  0  0  0  0  0  0  0  0
   -0.1122   -0.1994    0.2658 C   0  0  1  0  0  0  0  0  0  0  0  0
   -0.1448    0.5521    1.0589 H   0  0  0  0  0  0  0  0  0  0  0  0
    1.0096   -1.2128    0.5844 C   0  0  0  0  0  0  0  0  0  0  0  0
    0.9057   -2.0782   -0.0692 H   0  0  0  0  0  0  0  0  0  0  0  0
    1.9765   -0.7511    0.3901 H   0  0  0  0  0  0  0  0  0  0  0  0
    0.9850   -1.7337    2.0124 C   0  0  0  0  0  0  0  0  0  0  0  0
    0.7734   -1.0182    2.9760 O   0  0  0  0  0  0  0  0  0  0  0  0
    1.2121   -3.0108    2.2017 N   0  0  0  0  0  0  0  0  0  0  0  0
    1.1722   -3.3296    3.1538 H   0  0  0  0  0  0  0  0  0  0  0  0
    1.3699   -3.6238    1.4243 H   0  0  0  0  0  0  0  0  0  0  0  0
    0.1102    0.5302   -1.0774 C   0  0  0  0  0  0  0  0  0  0  0  0
    1.1318    1.1939   -1.2540 O   0  0  0  0  0  0  0  0  0  0  0  0
   -0.8392    0.4185   -2.0114 N   0  0  0  0  0  0  0  0  0  0  0  0
   -1.6828   -0.0846   -1.7553 H   0  0  0  0  0  0  0  0  0  0  0  0
   -0.7750    1.0351   -3.3352 C   0  0  0  0  0  0  0  0  0  0  0  0
    0.1331    0.7112   -3.8483 H   0  0  0  0  0  0  0  0  0  0  0  0
   -1.6451    0.7451   -3.9258 H   0  0  0  0  0  0  0  0  0  0  0  0
   -0.7524    2.1216   -3.2350 H   0  0  0  0  0  0  0  0  0  0  0  0
  5  6  2  0  0  0  0
  5  7  1  0  0  0  0
  2  3  1  0  0  0  0
  2  4  1  0  0  0  0
  2  5  1  0  0  0  0
  1  2  1  0  0  0  0
 19 20  2  0  0  0  0
 19 21  1  0  0  0  0
 16 17  1  0  0  0  0
 16 18  1  0  0  0  0
 14 15  2  0  0  0  0
 14 16  1  0  0  0  0
 11 12  1  0  0  0  0
 11 13  1  0  0  0  0
 11 14  1  0  0  0  0
  9 10  1  0  0  0  0
  9 11  1  0  0  0  0
  9 19  1  0  0  0  0
  7  8  1  0  0  0  0
  7  9  1  0  0  0  0
 23 24  1  0  0  0  0
 23 25  1  0  0  0  0
 23 26  1  0  0  0  0
 21 22  1  0  0  0  0
 21 23  1  0  0  0  0
M  END
$$$$
default_name
  -OEChem-01062215323D

 26 25  0     1  0  0  0  0  0999 V2000
   -3.0232   -3.6924    1.0038 H   0  0  0  0  0  0  0  0  0  0  0  0
   -3.0082   -2.6684    0.6318 C   0  0  0  0  0  0  0  0  0  0  0  0
   -3.6332   -2.0414    1.2658 H   0  0  0  0  0  0  0  0  0  0  0  0
   -3.3762   -2.6444   -0.3912 H   0  0  0  0  0  0  0  0  0  0  0  0
   -1.5882   -2.1554    0.6658 C   0  0  0  0  0  0  0  0  0  0  0  0
   -0.6832   -2.8764    1.0638 O   0  0  0  0  0  0  0  0  0  0  0  0
   -1.3952   -0.9084    0.2428 N   0  0  0  0  0  0  0  0  0  0  0  0
   -2.1972   -0.3644   -0.0422 H   0  0  0  0  0  0  0  0  0  0  0  0
   -0.1122   -0.1994    0.2658 C   0  0  1  0  0  0  0  0  0  0  0  0
   -0.1448    0.5521    1.0589 H   0  0  0  0  0  0  0  0  0  0  0  0
    1.0096   -1.2128    0.5844 C   0  0  0  0  0  0  0  0  0  0  0  0
    0.9057   -2.0782   -0.0692 H   0  0  0  0  0  0  0  0  0  0  0  0
    1.9765   -0.7511    0.3901 H   0  0  0  0  0  0  0  0  0  0  0  0
    0.9850   -1.7337    2.0124 C   0  0  0  0  0  0  0  0  0  0  0  0
    0.7734   -1.0182    2.9760 O   0  0  0  0  0  0  0  0  0  0  0  0
    1.2121   -3.0108    2.2017 N   0  0  0  0  0  0  0  0  0  0  0  0
    1.1722   -3.3296    3.1538 H   0  0  0  0  0  0  0  0  0  0  0  0
    1.3699   -3.6238    1.4243 H   0  0  0  0  0  0  0  0  0  0  0  0
    0.1102    0.5302   -1.0774 C   0  0  0  0  0  0  0  0  0  0  0  0
    1.2278    0.9578   -1.3663 O   0  0  0  0  0  0  0  0  0  0  0  0
   -0.9431    0.6808   -1.8861 N   0  0  0  0  0  0  0  0  0  0  0  0
   -1.8427    0.3658   -1.5371 H   0  0  0  0  0  0  0  0  0  0  0  0
   -0.8970    1.3346   -3.1927 C   0  0  0  0  0  0  0  0  0  0  0  0
   -0.1534    0.8433   -3.8240 H   0  0  0  0  0  0  0  0  0  0  0  0
   -1.8737    1.2764   -3.6751 H   0  0  0  0  0  0  0  0  0  0  0  0
   -0.6163    2.3822   -3.0709 H   0  0  0  0  0  0  0  0  0  0  0  0
  5  6  2  0  0  0  0
  5  7  1  0  0  0  0
  2  3  1  0  0  0  0
  2  4  1  0  0  0  0
  2  5  1  0  0  0  0
  1  2  1  0  0  0  0
 19 20  2  0  0  0  0
 19 21  1  0  0  0  0
 16 17  1  0  0  0  0
 16 18  1  0  0  0  0
 14 15  2  0  0  0  0
 14 16  1  0  0  0  0
 11 12  1  0  0  0  0
 11 13  1  0  0  0  0
 11 14  1  0  0  0  0
  9 10  1  0  0  0  0
  9 11  1  0  0  0  0
  9 19  1  0  0  0  0
  7  8  1  0  0  0  0
  7  9  1  0  0  0  0
 23 24  1  0  0  0  0
 23 25  1  0  0  0  0
 23 26  1  0  0  0  0
 21 22  1  0  0  0  0
 21 23  1  0  0  0  0
M  END
$$$$
default_name
  -OEChem-01062215323D

 26 25  0     1  0  0  0  0  0999 V2000
   -3.0232   -3.6924    1.0038 H   0  0  0  0  0  0  0  0  0  0  0  0
   -3.0082   -2.6684    0.6318 C   0  0  0  0  0  0  0  0  0  0  0  0
   -3.6332   -2.0414    1.2658 H   0  0  0  0  0  0  0  0  0  0  0  0
   -3.3762   -2.6444   -0.3912 H   0  0  0  0  0  0  0  0  0  0  0  0
   -1.5882   -2.1554    0.6658 C   0  0  0  0  0  0  0  0  0  0  0  0
   -0.6832   -2.8764    1.0638 O   0  0  0  0  0  0  0  0  0  0  0  0
   -1.3952   -0.9084    0.2428 N   0  0  0  0  0  0  0  0  0  0  0  0
   -2.1972   -0.3644   -0.0422 H   0  0  0  0  0  0  0  0  0  0  0  0
   -0.1122   -0.1994    0.2658 C   0  0  1  0  0  0  0  0  0  0  0  0
   -0.1448    0.5521    1.0589 H   0  0  0  0  0  0  0  0  0  0  0  0
    1.0096   -1.2128    0.5844 C   0  0  0  0  0  0  0  0  0  0  0  0
    0.9057   -2.0782   -0.0692 H   0  0  0  0  0  0  0  0  0  0  0  0
    1.9765   -0.7511    0.3901 H   0  0  0  0  0  0  0  0  0  0  0  0
    0.9850   -1.7337    2.0124 C   0  0  0  0  0  0  0  0  0  0  0  0
    0.7734   -1.0182    2.9760 O   0  0  0  0  0  0  0  0  0  0  0  0
    1.2121   -3.0108    2.2017 N   0  0  0  0  0  0  0  0  0  0  0  0
    1.1722   -3.3296    3.1538 H   0  0  0  0  0  0  0  0  0  0  0  0
    1.3699   -3.6238    1.4243 H   0  0  0  0  0  0  0  0  0  0  0  0
    0.1102    0.5302   -1.0774 C   0  0  0  0  0  0  0  0  0  0  0  0
    1.2537    0.7124   -1.4954 O   0  0  0  0  0  0  0  0  0  0  0  0
   -0.9691    0.9529   -1.7427 N   0  0  0  0  0  0  0  0  0  0  0  0
   -1.8692    0.8288   -1.2901 H   0  0  0  0  0  0  0  0  0  0  0  0
   -0.9301    1.6461   -3.0290 C   0  0  0  0  0  0  0  0  0  0  0  0
   -0.3975    1.0345   -3.7605 H   0  0  0  0  0  0  0  0  0  0  0  0
   -1.9443    1.8318   -3.3851 H   0  0  0  0  0  0  0  0  0  0  0  0
   -0.4061    2.5971   -2.9194 H   0  0  0  0  0  0  0  0  0  0  0  0
  5  6  2  0  0  0  0
  5  7  1  0  0  0  0
  2  3  1  0  0  0  0
  2  4  1  0  0  0  0
  2  5  1  0  0  0  0
  1  2  1  0  0  0  0
 19 20  2  0  0  0  0
 19 21  1  0  0  0  0
 16 17  1  0  0  0  0
 16 18  1  0  0  0  0
 14 15  2  0  0  0  0
 14 16  1  0  0  0  0
 11 12  1  0  0  0  0
 11 13  1  0  0  0  0
 11 14  1  0  0  0  0
  9 10  1  0  0  0  0
  9 11  1  0  0  0  0
  9 19  1  0  0  0  0
  7  8  1  0  0  0  0
  7  9  1  0  0  0  0
 23 24  1  0  0  0  0
 23 25  1  0  0  0  0
 23 26  1  0  0  0  0
 21 22  1  0  0  0  0
 21 23  1  0  0  0  0
M  END
$$$$
default_name
  -OEChem-01062215323D

 26 25  0     1  0  0  0  0  0999 V2000
   -3.0232   -3.6924    1.0038 H   0  0  0  0  0  0  0  0  0  0  0  0
   -3.0082   -2.6684    0.6318 C   0  0  0  0  0  0  0  0  0  0  0  0
   -3.6332   -2.0414    1.2658 H   0  0  0  0  0  0  0  0  0  0  0  0
   -3.3762   -2.6444   -0.3912 H   0  0  0  0  0  0  0  0  0  0  0  0
   -1.5882   -2.1554    0.6658 C   0  0  0  0  0  0  0  0  0  0  0  0
   -0.6832   -2.8764    1.0638 O   0  0  0  0  0  0  0  0  0  0  0  0
   -1.3952   -0.9084    0.2428 N   0  0  0  0  0  0  0  0  0  0  0  0
   -2.1972   -0.3644   -0.0422 H   0  0  0  0  0  0  0  0  0  0  0  0
   -0.1122   -0.1994    0.2658 C   0  0  1  0  0  0  0  0  0  0  0  0
   -0.1448    0.5521    1.0589 H   0  0  0  0  0  0  0  0  0  0  0  0
    1.0096   -1.2128    0.5844 C   0  0  0  0  0  0  0  0  0  0  0  0
    0.9057   -2.0782   -0.0692 H   0  0  0  0  0  0  0  0  0  0  0  0
    1.9765   -0.7511    0.3901 H   0  0  0  0  0  0  0  0  0  0  0  0
    0.9850   -1.7337    2.0124 C   0  0  0  0  0  0  0  0  0  0  0  0
    0.7734   -1.0182    2.9760 O   0  0  0  0  0  0  0  0  0  0  0  0
    1.2121   -3.0108    2.2017 N   0  0  0  0  0  0  0  0  0  0  0  0
    1.1722   -3.3296    3.1538 H   0  0  0  0  0  0  0  0  0  0  0  0
    1.3699   -3.6238    1.4243 H   0  0  0  0  0  0  0  0  0  0  0  0
    0.1102    0.5302   -1.0774 C   0  0  0  0  0  0  0  0  0  0  0  0
    1.2076    0.4743   -1.6323 O   0  0  0  0  0  0  0  0  0  0  0  0
   -0.9155    1.2162   -1.5908 N   0  0  0  0  0  0  0  0  0  0  0  0
   -1.7603    1.2727   -1.0309 H   0  0  0  0  0  0  0  0  0  0  0  0
   -0.8719    1.9483   -2.8552 C   0  0  0  0  0  0  0  0  0  0  0  0
   -0.5824    1.2718   -3.6623 H   0  0  0  0  0  0  0  0  0  0  0  0
   -1.8521    2.3732   -3.0758 H   0  0  0  0  0  0  0  0  0  0  0  0
   -0.1362    2.7519   -2.7907 H   0  0  0  0  0  0  0  0  0  0  0  0
  5  6  2  0  0  0  0
  5  7  1  0  0  0  0
  2  3  1  0  0  0  0
  2  4  1  0  0  0  0
  2  5  1  0  0  0  0
  1  2  1  0  0  0  0
 19 20  2  0  0  0  0
 19 21  1  0  0  0  0
 16 17  1  0  0  0  0
 16 18  1  0  0  0  0
 14 15  2  0  0  0  0
 14 16  1  0  0  0  0
 11 12  1  0  0  0  0
 11 13  1  0  0  0  0
 11 14  1  0  0  0  0
  9 10  1  0  0  0  0
  9 11  1  0  0  0  0
  9 19  1  0  0  0  0
  7  8  1  0  0  0  0
  7  9  1  0  0  0  0
 23 24  1  0  0  0  0
 23 25  1  0  0  0  0
 23 26  1  0  0  0  0
 21 22  1  0  0  0  0
 21 23  1  0  0  0  0
M  END
$$$$
default_name
  -OEChem-01062215323D

 26 25  0     1  0  0  0  0  0999 V2000
   -3.0232   -3.6924    1.0038 H   0  0  0  0  0  0  0  0  0  0  0  0
   -3.0082   -2.6684    0.6318 C   0  0  0  0  0  0  0  0  0  0  0  0
   -3.6332   -2.0414    1.2658 H   0  0  0  0  0  0  0  0  0  0  0  0
   -3.3762   -2.6444   -0.3912 H   0  0  0  0  0  0  0  0  0  0  0  0
   -1.5882   -2.1554    0.6658 C   0  0  0  0  0  0  0  0  0  0  0  0
   -0.6832   -2.8764    1.0638 O   0  0  0  0  0  0  0  0  0  0  0  0
   -1.3952   -0.9084    0.2428 N   0  0  0  0  0  0  0  0  0  0  0  0
   -2.1972   -0.3644   -0.0422 H   0  0  0  0  0  0  0  0  0  0  0  0
   -0.1122   -0.1994    0.2658 C   0  0  1  0  0  0  0  0  0  0  0  0
   -0.1448    0.5521    1.0589 H   0  0  0  0  0  0  0  0  0  0  0  0
    1.0096   -1.2128    0.5844 C   0  0  0  0  0  0  0  0  0  0  0  0
    0.9057   -2.0782   -0.0692 H   0  0  0  0  0  0  0  0  0  0  0  0
    1.9765   -0.7511    0.3901 H   0  0  0  0  0  0  0  0  0  0  0  0
    0.9850   -1.7337    2.0124 C   0  0  0  0  0  0  0  0  0  0  0  0
    0.7734   -1.0182    2.9760 O   0  0  0  0  0  0  0  0  0  0  0  0
    1.2121   -3.0108    2.2017 N   0  0  0  0  0  0  0  0  0  0  0  0
    1.1722   -3.3296    3.1538 H   0  0  0  0  0  0  0  0  0  0  0  0
    1.3699   -3.6238    1.4243 H   0  0  0  0  0  0  0  0  0  0  0  0
    0.1102    0.5302   -1.0774 C   0  0  0  0  0  0  0  0  0  0  0  0
    1.0928    0.2597   -1.7678 O   0  0  0  0  0  0  0  0  0  0  0  0
   -0.7858    1.4529   -1.4408 N   0  0  0  0  0  0  0  0  0  0  0  0
   -1.5236    1.6673   -0.7774 H   0  0  0  0  0  0  0  0  0  0  0  0
   -0.7264    2.2207   -2.6832 C   0  0  0  0  0  0  0  0  0  0  0  0
   -0.6956    1.5390   -3.5359 H   0  0  0  0  0  0  0  0  0  0  0  0
   -1.6033    2.8640   -2.7680 H   0  0  0  0  0  0  0  0  0  0  0  0
    0.1750    2.8357   -2.6936 H   0  0  0  0  0  0  0  0  0  0  0  0
  5  6  2  0  0  0  0
  5  7  1  0  0  0  0
  2  3  1  0  0  0  0
  2  4  1  0  0  0  0
  2  5  1  0  0  0  0
  1  2  1  0  0  0  0
 19 20  2  0  0  0  0
 19 21  1  0  0  0  0
 16 17  1  0  0  0  0
 16 18  1  0  0  0  0
 14 15  2  0  0  0  0
 14 16  1  0  0  0  0
 11 12  1  0  0  0  0
 11 13  1  0  0  0  0
 11 14  1  0  0  0  0
  9 10  1  0  0  0  0
  9 11  1  0  0  0  0
  9 19  1  0  0  0  0
  7  8  1  0  0  0  0
  7  9  1  0  0  0  0
 23 24  1  0  0  0  0
 23 25  1  0  0  0  0
 23 26  1  0  0  0  0
 21 22  1  0  0  0  0
 21 23  1  0  0  0  0
M  END
$$$$
default_name
  -OEChem-01062215323D

 26 25  0     1  0  0  0  0  0999 V2000
   -3.0232   -3.6924    1.0038 H   0  0  0  0  0  0  0  0  0  0  0  0
   -3.0082   -2.6684    0.6318 C   0  0  0  0  0  0  0  0  0  0  0  0
   -3.6332   -2.0414    1.2658 H   0  0  0  0  0  0  0  0  0  0  0  0
   -3.3762   -2.6444   -0.3912 H   0  0  0  0  0  0  0  0  0  0  0  0
   -1.5882   -2.1554    0.6658 C   0  0  0  0  0  0  0  0  0  0  0  0
   -0.6832   -2.8764    1.0638 O   0  0  0  0  0  0  0  0  0  0  0  0
   -1.3952   -0.9084    0.2428 N   0  0  0  0  0  0  0  0  0  0  0  0
   -2.1972   -0.3644   -0.0422 H   0  0  0  0  0  0  0  0  0  0  0  0
   -0.1122   -0.1994    0.2658 C   0  0  1  0  0  0  0  0  0  0  0  0
   -0.1448    0.5521    1.0589 H   0  0  0  0  0  0  0  0  0  0  0  0
    1.0096   -1.2128    0.5844 C   0  0  0  0  0  0  0  0  0  0  0  0
    0.9057   -2.0782   -0.0692 H   0  0  0  0  0  0  0  0  0  0  0  0
    1.9765   -0.7511    0.3901 H   0  0  0  0  0  0  0  0  0  0  0  0
    0.9850   -1.7337    2.0124 C   0  0  0  0  0  0  0  0  0  0  0  0
    0.7734   -1.0182    2.9760 O   0  0  0  0  0  0  0  0  0  0  0  0
    1.2121   -3.0108    2.2017 N   0  0  0  0  0  0  0  0  0  0  0  0
    1.1722   -3.3296    3.1538 H   0  0  0  0  0  0  0  0  0  0  0  0
    1.3699   -3.6238    1.4243 H   0  0  0  0  0  0  0  0  0  0  0  0
    0.1102    0.5302   -1.0774 C   0  0  0  0  0  0  0  0  0  0  0  0
    0.9171    0.0834   -1.8927 O   0  0  0  0  0  0  0  0  0  0  0  0
   -0.5890    1.6466   -1.3029 N   0  0  0  0  0  0  0  0  0  0  0  0
   -1.1752    1.9857   -0.5467 H   0  0  0  0  0  0  0  0  0  0  0  0
   -0.5035    2.4446   -2.5247 C   0  0  0  0  0  0  0  0  0  0  0  0
   -0.7294    1.8178   -3.3901 H   0  0  0  0  0  0  0  0  0  0  0  0
   -1.2149    3.2705   -2.4829 H   0  0  0  0  0  0  0  0  0  0  0  0
    0.5064    2.8431   -2.6347 H   0  0  0  0  0  0  0  0  0  0  0  0
  5  6  2  0  0  0  0
  5  7  1  0  0  0  0
  2  3  1  0  0  0  0
  2  4  1  0  0  0  0
  2  5  1  0  0  0  0
  1  2  1  0  0  0  0
 19 20  2  0  0  0  0
 19 21  1  0  0  0  0
 16 17  1  0  0  0  0
 16 18  1  0  0  0  0
 14 15  2  0  0  0  0
 14 16  1  0  0  0  0
 11 12  1  0  0  0  0
 11 13  1  0  0  0  0
 11 14  1  0  0  0  0
  9 10  1  0  0  0  0
  9 11  1  0  0  0  0
  9 19  1  0  0  0  0
  7  8  1  0  0  0  0
  7  9  1  0  0  0  0
 23 24  1  0  0  0  0
 23 25  1  0  0  0  0
 23 26  1  0  0  0  0
 21 22  1  0  0  0  0
 21 23  1  0  0  0  0
M  END
$$$$
default_name
  -OEChem-01062215323D

 26 25  0     1  0  0  0  0  0999 V2000
   -3.0232   -3.6924    1.0038 H   0  0  0  0  0  0  0  0  0  0  0  0
   -3.0082   -2.6684    0.6318 C   0  0  0  0  0  0  0  0  0  0  0  0
   -3.6332   -2.0414    1.2658 H   0  0  0  0  0  0  0  0  0  0  0  0
   -3.3762   -2.6444   -0.3912 H   0  0  0  0  0  0  0  0  0  0  0  0
   -1.5882   -2.1554    0.6658 C   0  0  0  0  0  0  0  0  0  0  0  0
   -0.6832   -2.8764    1.0638 O   0  0  0  0  0  0  0  0  0  0  0  0
   -1.3952   -0.9084    0.2428 N   0  0  0  0  0  0  0  0  0  0  0  0
   -2.1972   -0.3644   -0.0422 H   0  0  0  0  0  0  0  0  0  0  0  0
   -0.1122   -0.1994    0.2658 C   0  0  1  0  0  0  0  0  0  0  0  0
   -0.1448    0.5521    1.0589 H   0  0  0  0  0  0  0  0  0  0  0  0
    1.0096   -1.2128    0.5844 C   0  0  0  0  0  0  0  0  0  0  0  0
    0.9057   -2.0782   -0.0692 H   0  0  0  0  0  0  0  0  0  0  0  0
    1.9765   -0.7511    0.3901 H   0  0  0  0  0  0  0  0  0  0  0  0
    0.9850   -1.7337    2.0124 C   0  0  0  0  0  0  0  0  0  0  0  0
    0.7734   -1.0182    2.9760 O   0  0  0  0  0  0  0  0  0  0  0  0
    1.2121   -3.0108    2.2017 N   0  0  0  0  0  0  0  0  0  0  0  0
    1.1722   -3.3296    3.1538 H   0  0  0  0  0  0  0  0  0  0  0  0
    1.3699   -3.6238    1.4243 H   0  0  0  0  0  0  0  0  0  0  0  0
    0.1102    0.5302   -1.0774 C   0  0  0  0  0  0  0  0  0  0  0  0
    0.6924   -0.0427   -1.9984 O   0  0  0  0  0  0  0  0  0  0  0  0
   -0.3384    1.7844   -1.1866 N   0  0  0  0  0  0  0  0  0  0  0  0
   -0.7387    2.2063   -0.3547 H   0  0  0  0  0  0  0  0  0  0  0  0
   -0.2185    2.6048   -2.3905 C   0  0  0  0  0  0  0  0  0  0  0  0
   -0.6815    2.0892   -3.2347 H   0  0  0  0  0  0  0  0  0  0  0  0
   -0.7134    3.5652   -2.2398 H   0  0  0  0  0  0  0  0  0  0  0  0
    0.8354    2.7735   -2.6181 H   0  0  0  0  0  0  0  0  0  0  0  0
  5  6  2  0  0  0  0
  5  7  1  0  0  0  0
  2  3  1  0  0  0  0
  2  4  1  0  0  0  0
  2  5  1  0  0  0  0
  1  2  1  0  0  0  0
 19 20  2  0  0  0  0
 19 21  1  0  0  0  0
 16 17  1  0  0  0  0
 16 18  1  0  0  0  0
 14 15  2  0  0  0  0
 14 16  1  0  0  0  0
 11 12  1  0  0  0  0
 11 13  1  0  0  0  0
 11 14  1  0  0  0  0
  9 10  1  0  0  0  0
  9 11  1  0  0  0  0
  9 19  1  0  0  0  0
  7  8  1  0  0  0  0
  7  9  1  0  0  0  0
 23 24  1  0  0  0  0
 23 25  1  0  0  0  0
 23 26  1  0  0  0  0
 21 22  1  0  0  0  0
 21 23  1  0  0  0  0
M  END
$$$$
default_name
  -OEChem-01062215323D

 26 25  0     1  0  0  0  0  0999 V2000
   -3.0232   -3.6924    1.0038 H   0  0  0  0  0  0  0  0  0  0  0  0
   -3.0082   -2.6684    0.6318 C   0  0  0  0  0  0  0  0  0  0  0  0
   -3.6332   -2.0414    1.2658 H   0  0  0  0  0  0  0  0  0  0  0  0
   -3.3762   -2.6444   -0.3912 H   0  0  0  0  0  0  0  0  0  0  0  0
   -1.5882   -2.1554    0.6658 C   0  0  0  0  0  0  0  0  0  0  0  0
   -0.6832   -2.8764    1.0638 O   0  0  0  0  0  0  0  0  0  0  0  0
   -1.3952   -0.9084    0.2428 N   0  0  0  0  0  0  0  0  0  0  0  0
   -2.1972   -0.3644   -0.0422 H   0  0  0  0  0  0  0  0  0  0  0  0
   -0.1122   -0.1994    0.2658 C   0  0  1  0  0  0  0  0  0  0  0  0
   -0.1448    0.5521    1.0589 H   0  0  0  0  0  0  0  0  0  0  0  0
    1.0096   -1.2128    0.5844 C   0  0  0  0  0  0  0  0  0  0  0  0
    0.9057   -2.0782   -0.0692 H   0  0  0  0  0  0  0  0  0  0  0  0
    1.9765   -0.7511    0.3901 H   0  0  0  0  0  0  0  0  0  0  0  0
    0.9850   -1.7337    2.0124 C   0  0  0  0  0  0  0  0  0  0  0  0
    0.7734   -1.0182    2.9760 O   0  0  0  0  0  0  0  0  0  0  0  0
    1.2121   -3.0108    2.2017 N   0  0  0  0  0  0  0  0  0  0  0  0
    1.1722   -3.3296    3.1538 H   0  0  0  0  0  0  0  0  0  0  0  0
    1.3699   -3.6238    1.4243 H   0  0  0  0  0  0  0  0  0  0  0  0
    0.1102    0.5302   -1.0774 C   0  0  0  0  0  0  0  0  0  0  0  0
    0.4340   -0.1100   -2.0777 O   0  0  0  0  0  0  0  0  0  0  0  0
   -0.0512    1.8567   -1.0998 N   0  0  0  0  0  0  0  0  0  0  0  0
   -0.2440    2.3140   -0.2143 H   0  0  0  0  0  0  0  0  0  0  0  0
    0.1093    2.6904   -2.2897 C   0  0  0  0  0  0  0  0  0  0  0  0
   -0.5551    2.3349   -3.0803 H   0  0  0  0  0  0  0  0  0  0  0  0
   -0.1330    3.7279   -2.0553 H   0  0  0  0  0  0  0  0  0  0  0  0
    1.1395    2.6315   -2.6448 H   0  0  0  0  0  0  0  0  0  0  0  0
  5  6  2  0  0  0  0
  5  7  1  0  0  0  0
  2  3  1  0  0  0  0
  2  4  1  0  0  0  0
  2  5  1  0  0  0  0
  1  2  1  0  0  0  0
 19 20  2  0  0  0  0
 19 21  1  0  0  0  0
 16 17  1  0  0  0  0
 16 18  1  0  0  0  0
 14 15  2  0  0  0  0
 14 16  1  0  0  0  0
 11 12  1  0  0  0  0
 11 13  1  0  0  0  0
 11 14  1  0  0  0  0
  9 10  1  0  0  0  0
  9 11  1  0  0  0  0
  9 19  1  0  0  0  0
  7  8  1  0  0  0  0
  7  9  1  0  0  0  0
 23 24  1  0  0  0  0
 23 25  1  0  0  0  0
 23 26  1  0  0  0  0
 21 22  1  0  0  0  0
 21 23  1  0  0  0  0
M  END
$$$$
default_name
  -OEChem-01062215323D

 26 25  0     1  0  0  0  0  0999 V2000
   -3.0232   -3.6924    1.0038 H   0  0  0  0  0  0  0  0  0  0  0  0
   -3.0082   -2.6684    0.6318 C   0  0  0  0  0  0  0  0  0  0  0  0
   -3.6332   -2.0414    1.2658 H   0  0  0  0  0  0  0  0  0  0  0  0
   -3.3762   -2.6444   -0.3912 H   0  0  0  0  0  0  0  0  0  0  0  0
   -1.5882   -2.1554    0.6658 C   0  0  0  0  0  0  0  0  0  0  0  0
   -0.6832   -2.8764    1.0638 O   0  0  0  0  0  0  0  0  0  0  0  0
   -1.3952   -0.9084    0.2428 N   0  0  0  0  0  0  0  0  0  0  0  0
   -2.1972   -0.3644   -0.0422 H   0  0  0  0  0  0  0  0  0  0  0  0
   -0.1122   -0.1994    0.2658 C   0  0  1  0  0  0  0  0  0  0  0  0
   -0.1448    0.5521    1.0589 H   0  0  0  0  0  0  0  0  0  0  0  0
    1.0096   -1.2128    0.5844 C   0  0  0  0  0  0  0  0  0  0  0  0
    0.9057   -2.0782   -0.0692 H   0  0  0  0  0  0  0  0  0  0  0  0
    1.9765   -0.7511    0.3901 H   0  0  0  0  0  0  0  0  0  0  0  0
    0.9850   -1.7337    2.0124 C   0  0  0  0  0  0  0  0  0  0  0  0
    0.7734   -1.0182    2.9760 O   0  0  0  0  0  0  0  0  0  0  0  0
    1.2121   -3.0108    2.2017 N   0  0  0  0  0  0  0  0  0  0  0  0
    1.1722   -3.3296    3.1538 H   0  0  0  0  0  0  0  0  0  0  0  0
    1.3699   -3.6238    1.4243 H   0  0  0  0  0  0  0  0  0  0  0  0
    0.1102    0.5302   -1.0774 C   0  0  0  0  0  0  0  0  0  0  0  0
    0.1596   -0.1139   -2.1253 O   0  0  0  0  0  0  0  0  0  0  0  0
    0.2532    1.8587   -1.0483 N   0  0  0  0  0  0  0  0  0  0  0  0
    0.2753    2.3014   -0.1351 H   0  0  0  0  0  0  0  0  0  0  0  0
    0.4574    2.6956   -2.2293 C   0  0  0  0  0  0  0  0  0  0  0  0
   -0.3589    2.5380   -2.9375 H   0  0  0  0  0  0  0  0  0  0  0  0
    0.4868    3.7475   -1.9421 H   0  0  0  0  0  0  0  0  0  0  0  0
    1.3980    2.4269   -2.7131 H   0  0  0  0  0  0  0  0  0  0  0  0
  5  6  2  0  0  0  0
  5  7  1  0  0  0  0
  2  3  1  0  0  0  0
  2  4  1  0  0  0  0
  2  5  1  0  0  0  0
  1  2  1  0  0  0  0
 19 20  2  0  0  0  0
 19 21  1  0  0  0  0
 16 17  1  0  0  0  0
 16 18  1  0  0  0  0
 14 15  2  0  0  0  0
 14 16  1  0  0  0  0
 11 12  1  0  0  0  0
 11 13  1  0  0  0  0
 11 14  1  0  0  0  0
  9 10  1  0  0  0  0
  9 11  1  0  0  0  0
  9 19  1  0  0  0  0
  7  8  1  0  0  0  0
  7  9  1  0  0  0  0
 23 24  1  0  0  0  0
 23 25  1  0  0  0  0
 23 26  1  0  0  0  0
 21 22  1  0  0  0  0
 21 23  1  0  0  0  0
M  END
$$$$
default_name
  -OEChem-01062215323D

 26 25  0     1  0  0  0  0  0999 V2000
   -3.0232   -3.6924    1.0038 H   0  0  0  0  0  0  0  0  0  0  0  0
   -3.0082   -2.6684    0.6318 C   0  0  0  0  0  0  0  0  0  0  0  0
   -3.6332   -2.0414    1.2658 H   0  0  0  0  0  0  0  0  0  0  0  0
   -3.3762   -2.6444   -0.3912 H   0  0  0  0  0  0  0  0  0  0  0  0
   -1.5882   -2.1554    0.6658 C   0  0  0  0  0  0  0  0  0  0  0  0
   -0.6832   -2.8764    1.0638 O   0  0  0  0  0  0  0  0  0  0  0  0
   -1.3952   -0.9084    0.2428 N   0  0  0  0  0  0  0  0  0  0  0  0
   -2.1972   -0.3644   -0.0422 H   0  0  0  0  0  0  0  0  0  0  0  0
   -0.1122   -0.1994    0.2658 C   0  0  1  0  0  0  0  0  0  0  0  0
   -0.1448    0.5521    1.0589 H   0  0  0  0  0  0  0  0  0  0  0  0
    1.0096   -1.2128    0.5844 C   0  0  0  0  0  0  0  0  0  0  0  0
    0.9057   -2.0782   -0.0692 H   0  0  0  0  0  0  0  0  0  0  0  0
    1.9765   -0.7511    0.3901 H   0  0  0  0  0  0  0  0  0  0  0  0
    0.9850   -1.7337    2.0124 C   0  0  0  0  0  0  0  0  0  0  0  0
    0.7734   -1.0182    2.9760 O   0  0  0  0  0  0  0  0  0  0  0  0
    1.2121   -3.0108    2.2017 N   0  0  0  0  0  0  0  0  0  0  0  0
    1.1722   -3.3296    3.1538 H   0  0  0  0  0  0  0  0  0  0  0  0
    1.3699   -3.6238    1.4243 H   0  0  0  0  0  0  0  0  0  0  0  0
    0.1102    0.5302   -1.0774 C   0  0  0  0  0  0  0  0  0  0  0  0
   -0.1121   -0.0542   -2.1378 O   0  0  0  0  0  0  0  0  0  0  0  0
    0.5539    1.7902   -1.0357 N   0  0  0  0  0  0  0  0  0  0  0  0
    0.7837    2.1694   -0.1226 H   0  0  0  0  0  0  0  0  0  0  0  0
    0.8023    2.6199   -2.2133 C   0  0  0  0  0  0  0  0  0  0  0  0
   -0.1061    2.6847   -2.8160 H   0  0  0  0  0  0  0  0  0  0  0  0
    1.1038    3.6228   -1.9077 H   0  0  0  0  0  0  0  0  0  0  0  0
    1.5934    2.1737   -2.8183 H   0  0  0  0  0  0  0  0  0  0  0  0
  5  6  2  0  0  0  0
  5  7  1  0  0  0  0
  2  3  1  0  0  0  0
  2  4  1  0  0  0  0
  2  5  1  0  0  0  0
  1  2  1  0  0  0  0
 19 20  2  0  0  0  0
 19 21  1  0  0  0  0
 16 17  1  0  0  0  0
 16 18  1  0  0  0  0
 14 15  2  0  0  0  0
 14 16  1  0  0  0  0
 11 12  1  0  0  0  0
 11 13  1  0  0  0  0
 11 14  1  0  0  0  0
  9 10  1  0  0  0  0
  9 11  1  0  0  0  0
  9 19  1  0  0  0  0
  7  8  1  0  0  0  0
  7  9  1  0  0  0  0
 23 24  1  0  0  0  0
 23 25  1  0  0  0  0
 23 26  1  0  0  0  0
 21 22  1  0  0  0  0
 21 23  1  0  0  0  0
M  END
$$$$
default_name
  -OEChem-01062215323D

 26 25  0     1  0  0  0  0  0999 V2000
   -3.0232   -3.6924    1.0038 H   0  0  0  0  0  0  0  0  0  0  0  0
   -3.0082   -2.6684    0.6318 C   0  0  0  0  0  0  0  0  0  0  0  0
   -3.6332   -2.0414    1.2658 H   0  0  0  0  0  0  0  0  0  0  0  0
   -3.3762   -2.6444   -0.3912 H   0  0  0  0  0  0  0  0  0  0  0  0
   -1.5882   -2.1554    0.6658 C   0  0  0  0  0  0  0  0  0  0  0  0
   -0.6832   -2.8764    1.0638 O   0  0  0  0  0  0  0  0  0  0  0  0
   -1.3952   -0.9084    0.2428 N   0  0  0  0  0  0  0  0  0  0  0  0
   -2.1972   -0.3644   -0.0422 H   0  0  0  0  0  0  0  0  0  0  0  0
   -0.1122   -0.1994    0.2658 C   0  0  1  0  0  0  0  0  0  0  0  0
   -0.1448    0.5521    1.0589 H   0  0  0  0  0  0  0  0  0  0  0  0
    1.0096   -1.2128    0.5844 C   0  0  0  0  0  0  0  0  0  0  0  0
    0.9057   -2.0782   -0.0692 H   0  0  0  0  0  0  0  0  0  0  0  0
    1.9765   -0.7511    0.3901 H   0  0  0  0  0  0  0  0  0  0  0  0
    0.9850   -1.7337    2.0124 C   0  0  0  0  0  0  0  0  0  0  0  0
    0.7734   -1.0182    2.9760 O   0  0  0  0  0  0  0  0  0  0  0  0
    1.2121   -3.0108    2.2017 N   0  0  0  0  0  0  0  0  0  0  0  0
    1.1722   -3.3296    3.1538 H   0  0  0  0  0  0  0  0  0  0  0  0
    1.3699   -3.6238    1.4243 H   0  0  0  0  0  0  0  0  0  0  0  0
    0.1102    0.5302   -1.0774 C   0  0  0  0  0  0  0  0  0  0  0  0
   -0.3627    0.0652   -2.1145 O   0  0  0  0  0  0  0  0  0  0  0  0
    0.8306    1.6558   -1.0629 N   0  0  0  0  0  0  0  0  0  0  0  0
    1.2466    1.9271   -0.1776 H   0  0  0  0  0  0  0  0  0  0  0  0
    1.1204    2.4687   -2.2428 C   0  0  0  0  0  0  0  0  0  0  0  0
    0.1859    2.7649   -2.7241 H   0  0  0  0  0  0  0  0  0  0  0  0
    1.6759    3.3621   -1.9545 H   0  0  0  0  0  0  0  0  0  0  0  0
    1.7122    1.8891   -2.9533 H   0  0  0  0  0  0  0  0  0  0  0  0
  5  6  2  0  0  0  0
  5  7  1  0  0  0  0
  2  3  1  0  0  0  0
  2  4  1  0  0  0  0
  2  5  1  0  0  0  0
  1  2  1  0  0  0  0
 19 20  2  0  0  0  0
 19 21  1  0  0  0  0
 16 17  1  0  0  0  0
 16 18  1  0  0  0  0
 14 15  2  0  0  0  0
 14 16  1  0  0  0  0
 11 12  1  0  0  0  0
 11 13  1  0  0  0  0
 11 14  1  0  0  0  0
  9 10  1  0  0  0  0
  9 11  1  0  0  0  0
  9 19  1  0  0  0  0
  7  8  1  0  0  0  0
  7  9  1  0  0  0  0
 23 24  1  0  0  0  0
 23 25  1  0  0  0  0
 23 26  1  0  0  0  0
 21 22  1  0  0  0  0
 21 23  1  0  0  0  0
M  END
$$$$
default_name
  -OEChem-01062215323D

 26 25  0     1  0  0  0  0  0999 V2000
   -3.0232   -3.6924    1.0038 H   0  0  0  0  0  0  0  0  0  0  0  0
   -3.0082   -2.6684    0.6318 C   0  0  0  0  0  0  0  0  0  0  0  0
   -3.6332   -2.0414    1.2658 H   0  0  0  0  0  0  0  0  0  0  0  0
   -3.3762   -2.6444   -0.3912 H   0  0  0  0  0  0  0  0  0  0  0  0
   -1.5882   -2.1554    0.6658 C   0  0  0  0  0  0  0  0  0  0  0  0
   -0.6832   -2.8764    1.0638 O   0  0  0  0  0  0  0  0  0  0  0  0
   -1.3952   -0.9084    0.2428 N   0  0  0  0  0  0  0  0  0  0  0  0
   -2.1972   -0.3644   -0.0422 H   0  0  0  0  0  0  0  0  0  0  0  0
   -0.1122   -0.1994    0.2658 C   0  0  1  0  0  0  0  0  0  0  0  0
   -0.1448    0.5521    1.0589 H   0  0  0  0  0  0  0  0  0  0  0  0
    1.0096   -1.2128    0.5844 C   0  0  0  0  0  0  0  0  0  0  0  0
    0.9057   -2.0782   -0.0692 H   0  0  0  0  0  0  0  0  0  0  0  0
    1.9765   -0.7511    0.3901 H   0  0  0  0  0  0  0  0  0  0  0  0
    0.9850   -1.7337    2.0124 C   0  0  0  0  0  0  0  0  0  0  0  0
    0.7734   -1.0182    2.9760 O   0  0  0  0  0  0  0  0  0  0  0  0
    1.2121   -3.0108    2.2017 N   0  0  0  0  0  0  0  0  0  0  0  0
    1.1722   -3.3296    3.1538 H   0  0  0  0  0  0  0  0  0  0  0  0
    1.3699   -3.6238    1.4243 H   0  0  0  0  0  0  0  0  0  0  0  0
    0.1102    0.5302   -1.0774 C   0  0  0  0  0  0  0  0  0  0  0  0
   -0.5750    0.2360   -2.0569 O   0  0  0  0  0  0  0  0  0  0  0  0
    1.0642    1.4648   -1.1280 N   0  0  0  0  0  0  0  0  0  0  0  0
    1.6324    1.5909   -0.2964 H   0  0  0  0  0  0  0  0  0  0  0  0
    1.3900    2.2521   -2.3158 C   0  0  0  0  0  0  0  0  0  0  0  0
    0.4972    2.7733   -2.6680 H   0  0  0  0  0  0  0  0  0  0  0  0
    2.1641    2.9834   -2.0794 H   0  0  0  0  0  0  0  0  0  0  0  0
    1.7464    1.5924   -3.1087 H   0  0  0  0  0  0  0  0  0  0  0  0
  5  6  2  0  0  0  0
  5  7  1  0  0  0  0
  2  3  1  0  0  0  0
  2  4  1  0  0  0  0
  2  5  1  0  0  0  0
  1  2  1  0  0  0  0
 19 20  2  0  0  0  0
 19 21  1  0  0  0  0
 16 17  1  0  0  0  0
 16 18  1  0  0  0  0
 14 15  2  0  0  0  0
 14 16  1  0  0  0  0
 11 12  1  0  0  0  0
 11 13  1  0  0  0  0
 11 14  1  0  0  0  0
  9 10  1  0  0  0  0
  9 11  1  0  0  0  0
  9 19  1  0  0  0  0
  7  8  1  0  0  0  0
  7  9  1  0  0  0  0
 23 24  1  0  0  0  0
 23 25  1  0  0  0  0
 23 26  1  0  0  0  0
 21 22  1  0  0  0  0
 21 23  1  0  0  0  0
M  END
$$$$
default_name
  -OEChem-01062215323D

 26 25  0     1  0  0  0  0  0999 V2000
   -3.0232   -3.6924    1.0038 H   0  0  0  0  0  0  0  0  0  0  0  0
   -3.0082   -2.6684    0.6318 C   0  0  0  0  0  0  0  0  0  0  0  0
   -3.6332   -2.0414    1.2658 H   0  0  0  0  0  0  0  0  0  0  0  0
   -3.3762   -2.6444   -0.3912 H   0  0  0  0  0  0  0  0  0  0  0  0
   -1.5882   -2.1554    0.6658 C   0  0  0  0  0  0  0  0  0  0  0  0
   -0.6832   -2.8764    1.0638 O   0  0  0  0  0  0  0  0  0  0  0  0
   -1.3952   -0.9084    0.2428 N   0  0  0  0  0  0  0  0  0  0  0  0
   -2.1972   -0.3644   -0.0422 H   0  0  0  0  0  0  0  0  0  0  0  0
   -0.1122   -0.1994    0.2658 C   0  0  1  0  0  0  0  0  0  0  0  0
   -0.0371    0.3524    1.2063 H   0  0  0  0  0  0  0  0  0  0  0  0
    1.0302   -1.2377    0.2039 C   0  0  0  0  0  0  0  0  0  0  0  0
    0.8361   -1.9345   -0.6108 H   0  0  0  0  0  0  0  0  0  0  0  0
    1.9698   -0.7262    0.0003 H   0  0  0  0  0  0  0  0  0  0  0  0
    1.1798   -2.0685    1.4681 C   0  0  0  0  0  0  0  0  0  0  0  0
    1.0984   -1.5936    2.5875 O   0  0  0  0  0  0  0  0  0  0  0  0
    1.4157   -3.3509    1.3331 N   0  0  0  0  0  0  0  0  0  0  0  0
    1.4924   -3.8776    2.1854 H   0  0  0  0  0  0  0  0  0  0  0  0
    1.4682   -3.7691    0.4235 H   0  0  0  0  0  0  0  0  0  0  0  0
   -0.0528    0.8191   -0.8939 C   0  0  0  0  0  0  0  0  0  0  0  0
   -1.0037    0.9238   -1.6687 O   0  0  0  0  0  0  0  0  0  0  0  0
    1.0555    1.5555   -1.0200 N   0  0  0  0  0  0  0  0  0  0  0  0
    1.8206    1.3517   -0.3848 H   0  0  0  0  0  0  0  0  0  0  0  0
    1.2633    2.5687   -2.0529 C   0  0  0  0  0  0  0  0  0  0  0  0
    0.4630    3.3103   -2.0072 H   0  0  0  0  0  0  0  0  0  0  0  0
    2.2231    3.0650   -1.9026 H   0  0  0  0  0  0  0  0  0  0  0  0
    1.2501    2.0990   -3.0378 H   0  0  0  0  0  0  0  0  0  0  0  0
  5  6  2  0  0  0  0
  5  7  1  0  0  0  0
  2  3  1  0  0  0  0
  2  4  1  0  0  0  0
  2  5  1  0  0  0  0
  1  2  1  0  0  0  0
 19 20  2  0  0  0  0
 19 21  1  0  0  0  0
 16 17  1  0  0  0  0
 16 18  1  0  0  0  0
 14 15  2  0  0  0  0
 14 16  1  0  0  0  0
 11 12  1  0  0  0  0
 11 13  1  0  0  0  0
 11 14  1  0  0  0  0
  9 10  1  0  0  0  0
  9 11  1  0  0  0  0
  9 19  1  0  0  0  0
  7  8  1  0  0  0  0
  7  9  1  0  0  0  0
 23 24  1  0  0  0  0
 23 25  1  0  0  0  0
 23 26  1  0  0  0  0
 21 22  1  0  0  0  0
 21 23  1  0  0  0  0
M  END
$$$$
default_name
  -OEChem-01062215323D

 26 25  0     1  0  0  0  0  0999 V2000
   -3.0232   -3.6924    1.0038 H   0  0  0  0  0  0  0  0  0  0  0  0
   -3.0082   -2.6684    0.6318 C   0  0  0  0  0  0  0  0  0  0  0  0
   -3.6332   -2.0414    1.2658 H   0  0  0  0  0  0  0  0  0  0  0  0
   -3.3762   -2.6444   -0.3912 H   0  0  0  0  0  0  0  0  0  0  0  0
   -1.5882   -2.1554    0.6658 C   0  0  0  0  0  0  0  0  0  0  0  0
   -0.6832   -2.8764    1.0638 O   0  0  0  0  0  0  0  0  0  0  0  0
   -1.3952   -0.9084    0.2428 N   0  0  0  0  0  0  0  0  0  0  0  0
   -2.1972   -0.3644   -0.0422 H   0  0  0  0  0  0  0  0  0  0  0  0
   -0.1122   -0.1994    0.2658 C   0  0  1  0  0  0  0  0  0  0  0  0
   -0.0371    0.3524    1.2063 H   0  0  0  0  0  0  0  0  0  0  0  0
    1.0302   -1.2377    0.2039 C   0  0  0  0  0  0  0  0  0  0  0  0
    0.8361   -1.9345   -0.6108 H   0  0  0  0  0  0  0  0  0  0  0  0
    1.9698   -0.7262    0.0003 H   0  0  0  0  0  0  0  0  0  0  0  0
    1.1798   -2.0685    1.4681 C   0  0  0  0  0  0  0  0  0  0  0  0
    1.0984   -1.5936    2.5875 O   0  0  0  0  0  0  0  0  0  0  0  0
    1.4157   -3.3509    1.3331 N   0  0  0  0  0  0  0  0  0  0  0  0
    1.4924   -3.8776    2.1854 H   0  0  0  0  0  0  0  0  0  0  0  0
    1.4682   -3.7691    0.4235 H   0  0  0  0  0  0  0  0  0  0  0  0
   -0.0528    0.8191   -0.8939 C   0  0  0  0  0  0  0  0  0  0  0  0
   -1.0824    1.1266   -1.4947 O   0  0  0  0  0  0  0  0  0  0  0  0
    1.1401    1.3303   -1.2134 N   0  0  0  0  0  0  0  0  0  0  0  0
    1.9472    0.9654   -0.7177 H   0  0  0  0  0  0  0  0  0  0  0  0
    1.3634    2.3115   -2.2737 C   0  0  0  0  0  0  0  0  0  0  0  0
    0.7428    3.1924   -2.0964 H   0  0  0  0  0  0  0  0  0  0  0  0
    2.4129    2.6085   -2.2938 H   0  0  0  0  0  0  0  0  0  0  0  0
    1.0918    1.8798   -3.2385 H   0  0  0  0  0  0  0  0  0  0  0  0
  5  6  2  0  0  0  0
  5  7  1  0  0  0  0
  2  3  1  0  0  0  0
  2  4  1  0  0  0  0
  2  5  1  0  0  0  0
  1  2  1  0  0  0  0
 19 20  2  0  0  0  0
 19 21  1  0  0  0  0
 16 17  1  0  0  0  0
 16 18  1  0  0  0  0
 14 15  2  0  0  0  0
 14 16  1  0  0  0  0
 11 12  1  0  0  0  0
 11 13  1  0  0  0  0
 11 14  1  0  0  0  0
  9 10  1  0  0  0  0
  9 11  1  0  0  0  0
  9 19  1  0  0  0  0
  7  8  1  0  0  0  0
  7  9  1  0  0  0  0
 23 24  1  0  0  0  0
 23 25  1  0  0  0  0
 23 26  1  0  0  0  0
 21 22  1  0  0  0  0
 21 23  1  0  0  0  0
M  END
$$$$
default_name
  -OEChem-01062215323D

 26 25  0     1  0  0  0  0  0999 V2000
   -3.0232   -3.6924    1.0038 H   0  0  0  0  0  0  0  0  0  0  0  0
   -3.0082   -2.6684    0.6318 C   0  0  0  0  0  0  0  0  0  0  0  0
   -3.6332   -2.0414    1.2658 H   0  0  0  0  0  0  0  0  0  0  0  0
   -3.3762   -2.6444   -0.3912 H   0  0  0  0  0  0  0  0  0  0  0  0
   -1.5882   -2.1554    0.6658 C   0  0  0  0  0  0  0  0  0  0  0  0
   -0.6832   -2.8764    1.0638 O   0  0  0  0  0  0  0  0  0  0  0  0
   -1.3952   -0.9084    0.2428 N   0  0  0  0  0  0  0  0  0  0  0  0
   -2.1972   -0.3644   -0.0422 H   0  0  0  0  0  0  0  0  0  0  0  0
   -0.1122   -0.1994    0.2658 C   0  0  1  0  0  0  0  0  0  0  0  0
   -0.0371    0.3524    1.2063 H   0  0  0  0  0  0  0  0  0  0  0  0
    1.0302   -1.2377    0.2039 C   0  0  0  0  0  0  0  0  0  0  0  0
    0.8361   -1.9345   -0.6108 H   0  0  0  0  0  0  0  0  0  0  0  0
    1.9698   -0.7262    0.0003 H   0  0  0  0  0  0  0  0  0  0  0  0
    1.1798   -2.0685    1.4681 C   0  0  0  0  0  0  0  0  0  0  0  0
    1.0984   -1.5936    2.5875 O   0  0  0  0  0  0  0  0  0  0  0  0
    1.4157   -3.3509    1.3331 N   0  0  0  0  0  0  0  0  0  0  0  0
    1.4924   -3.8776    2.1854 H   0  0  0  0  0  0  0  0  0  0  0  0
    1.4682   -3.7691    0.4235 H   0  0  0  0  0  0  0  0  0  0  0  0
   -0.0528    0.8191   -0.8939 C   0  0  0  0  0  0  0  0  0  0  0  0
   -1.0893    1.3359   -1.3111 O   0  0  0  0  0  0  0  0  0  0  0  0
    1.1451    1.0982   -1.4169 N   0  0  0  0  0  0  0  0  0  0  0  0
    1.9376    0.5709   -1.0646 H   0  0  0  0  0  0  0  0  0  0  0  0
    1.3724    2.0458   -2.5066 C   0  0  0  0  0  0  0  0  0  0  0  0
    0.9749    3.0251   -2.2314 H   0  0  0  0  0  0  0  0  0  0  0  0
    2.4407    2.1346   -2.7086 H   0  0  0  0  0  0  0  0  0  0  0  0
    0.8620    1.7008   -3.4074 H   0  0  0  0  0  0  0  0  0  0  0  0
  5  6  2  0  0  0  0
  5  7  1  0  0  0  0
  2  3  1  0  0  0  0
  2  4  1  0  0  0  0
  2  5  1  0  0  0  0
  1  2  1  0  0  0  0
 19 20  2  0  0  0  0
 19 21  1  0  0  0  0
 16 17  1  0  0  0  0
 16 18  1  0  0  0  0
 14 15  2  0  0  0  0
 14 16  1  0  0  0  0
 11 12  1  0  0  0  0
 11 13  1  0  0  0  0
 11 14  1  0  0  0  0
  9 10  1  0  0  0  0
  9 11  1  0  0  0  0
  9 19  1  0  0  0  0
  7  8  1  0  0  0  0
  7  9  1  0  0  0  0
 23 24  1  0  0  0  0
 23 25  1  0  0  0  0
 23 26  1  0  0  0  0
 21 22  1  0  0  0  0
 21 23  1  0  0  0  0
M  END
$$$$
default_name
  -OEChem-01062215323D

 26 25  0     1  0  0  0  0  0999 V2000
   -3.0232   -3.6924    1.0038 H   0  0  0  0  0  0  0  0  0  0  0  0
   -3.0082   -2.6684    0.6318 C   0  0  0  0  0  0  0  0  0  0  0  0
   -3.6332   -2.0414    1.2658 H   0  0  0  0  0  0  0  0  0  0  0  0
   -3.3762   -2.6444   -0.3912 H   0  0  0  0  0  0  0  0  0  0  0  0
   -1.5882   -2.1554    0.6658 C   0  0  0  0  0  0  0  0  0  0  0  0
   -0.6832   -2.8764    1.0638 O   0  0  0  0  0  0  0  0  0  0  0  0
   -1.3952   -0.9084    0.2428 N   0  0  0  0  0  0  0  0  0  0  0  0
   -2.1972   -0.3644   -0.0422 H   0  0  0  0  0  0  0  0  0  0  0  0
   -0.1122   -0.1994    0.2658 C   0  0  1  0  0  0  0  0  0  0  0  0
   -0.0371    0.3524    1.2063 H   0  0  0  0  0  0  0  0  0  0  0  0
    1.0302   -1.2377    0.2039 C   0  0  0  0  0  0  0  0  0  0  0  0
    0.8361   -1.9345   -0.6108 H   0  0  0  0  0  0  0  0  0  0  0  0
    1.9698   -0.7262    0.0003 H   0  0  0  0  0  0  0  0  0  0  0  0
    1.1798   -2.0685    1.4681 C   0  0  0  0  0  0  0  0  0  0  0  0
    1.0984   -1.5936    2.5875 O   0  0  0  0  0  0  0  0  0  0  0  0
    1.4157   -3.3509    1.3331 N   0  0  0  0  0  0  0  0  0  0  0  0
    1.4924   -3.8776    2.1854 H   0  0  0  0  0  0  0  0  0  0  0  0
    1.4682   -3.7691    0.4235 H   0  0  0  0  0  0  0  0  0  0  0  0
   -0.0528    0.8191   -0.8939 C   0  0  0  0  0  0  0  0  0  0  0  0
   -1.0239    1.5377   -1.1306 O   0  0  0  0  0  0  0  0  0  0  0  0
    1.0700    0.8751   -1.6167 N   0  0  0  0  0  0  0  0  0  0  0  0
    1.7924    0.1952   -1.4020 H   0  0  0  0  0  0  0  0  0  0  0  0
    1.2897    1.7897   -2.7357 C   0  0  0  0  0  0  0  0  0  0  0  0
    1.1436    2.8197   -2.4032 H   0  0  0  0  0  0  0  0  0  0  0  0
    2.3047    1.6756   -3.1187 H   0  0  0  0  0  0  0  0  0  0  0  0
    0.5765    1.5743   -3.5332 H   0  0  0  0  0  0  0  0  0  0  0  0
  5  6  2  0  0  0  0
  5  7  1  0  0  0  0
  2  3  1  0  0  0  0
  2  4  1  0  0  0  0
  2  5  1  0  0  0  0
  1  2  1  0  0  0  0
 19 20  2  0  0  0  0
 19 21  1  0  0  0  0
 16 17  1  0  0  0  0
 16 18  1  0  0  0  0
 14 15  2  0  0  0  0
 14 16  1  0  0  0  0
 11 12  1  0  0  0  0
 11 13  1  0  0  0  0
 11 14  1  0  0  0  0
  9 10  1  0  0  0  0
  9 11  1  0  0  0  0
  9 19  1  0  0  0  0
  7  8  1  0  0  0  0
  7  9  1  0  0  0  0
 23 24  1  0  0  0  0
 23 25  1  0  0  0  0
 23 26  1  0  0  0  0
 21 22  1  0  0  0  0
 21 23  1  0  0  0  0
M  END
$$$$
default_name
  -OEChem-01062215323D

 26 25  0     1  0  0  0  0  0999 V2000
   -3.0232   -3.6924    1.0038 H   0  0  0  0  0  0  0  0  0  0  0  0
   -3.0082   -2.6684    0.6318 C   0  0  0  0  0  0  0  0  0  0  0  0
   -3.6332   -2.0414    1.2658 H   0  0  0  0  0  0  0  0  0  0  0  0
   -3.3762   -2.6444   -0.3912 H   0  0  0  0  0  0  0  0  0  0  0  0
   -1.5882   -2.1554    0.6658 C   0  0  0  0  0  0  0  0  0  0  0  0
   -0.6832   -2.8764    1.0638 O   0  0  0  0  0  0  0  0  0  0  0  0
   -1.3952   -0.9084    0.2428 N   0  0  0  0  0  0  0  0  0  0  0  0
   -2.1972   -0.3644   -0.0422 H   0  0  0  0  0  0  0  0  0  0  0  0
   -0.1122   -0.1994    0.2658 C   0  0  1  0  0  0  0  0  0  0  0  0
   -0.0371    0.3524    1.2063 H   0  0  0  0  0  0  0  0  0  0  0  0
    1.0302   -1.2377    0.2039 C   0  0  0  0  0  0  0  0  0  0  0  0
    0.8361   -1.9345   -0.6108 H   0  0  0  0  0  0  0  0  0  0  0  0
    1.9698   -0.7262    0.0003 H   0  0  0  0  0  0  0  0  0  0  0  0
    1.1798   -2.0685    1.4681 C   0  0  0  0  0  0  0  0  0  0  0  0
    1.0984   -1.5936    2.5875 O   0  0  0  0  0  0  0  0  0  0  0  0
    1.4157   -3.3509    1.3331 N   0  0  0  0  0  0  0  0  0  0  0  0
    1.4924   -3.8776    2.1854 H   0  0  0  0  0  0  0  0  0  0  0  0
    1.4682   -3.7691    0.4235 H   0  0  0  0  0  0  0  0  0  0  0  0
   -0.0528    0.8191   -0.8939 C   0  0  0  0  0  0  0  0  0  0  0  0
   -0.8908    1.7181   -0.9653 O   0  0  0  0  0  0  0  0  0  0  0  0
    0.9201    0.6762   -1.7991 N   0  0  0  0  0  0  0  0  0  0  0  0
    1.5217   -0.1361   -1.7068 H   0  0  0  0  0  0  0  0  0  0  0  0
    1.1209    1.5607   -2.9455 C   0  0  0  0  0  0  0  0  0  0  0  0
    1.2372    2.5902   -2.6000 H   0  0  0  0  0  0  0  0  0  0  0  0
    2.0142    1.2627   -3.4962 H   0  0  0  0  0  0  0  0  0  0  0  0
    0.2547    1.5088   -3.6072 H   0  0  0  0  0  0  0  0  0  0  0  0
  5  6  2  0  0  0  0
  5  7  1  0  0  0  0
  2  3  1  0  0  0  0
  2  4  1  0  0  0  0
  2  5  1  0  0  0  0
  1  2  1  0  0  0  0
 19 20  2  0  0  0  0
 19 21  1  0  0  0  0
 16 17  1  0  0  0  0
 16 18  1  0  0  0  0
 14 15  2  0  0  0  0
 14 16  1  0  0  0  0
 11 12  1  0  0  0  0
 11 13  1  0  0  0  0
 11 14  1  0  0  0  0
  9 10  1  0  0  0  0
  9 11  1  0  0  0  0
  9 19  1  0  0  0  0
  7  8  1  0  0  0  0
  7  9  1  0  0  0  0
 23 24  1  0  0  0  0
 23 25  1  0  0  0  0
 23 26  1  0  0  0  0
 21 22  1  0  0  0  0
 21 23  1  0  0  0  0
M  END
$$$$
default_name
  -OEChem-01062215323D

 26 25  0     1  0  0  0  0  0999 V2000
   -3.0232   -3.6924    1.0038 H   0  0  0  0  0  0  0  0  0  0  0  0
   -3.0082   -2.6684    0.6318 C   0  0  0  0  0  0  0  0  0  0  0  0
   -3.6332   -2.0414    1.2658 H   0  0  0  0  0  0  0  0  0  0  0  0
   -3.3762   -2.6444   -0.3912 H   0  0  0  0  0  0  0  0  0  0  0  0
   -1.5882   -2.1554    0.6658 C   0  0  0  0  0  0  0  0  0  0  0  0
   -0.6832   -2.8764    1.0638 O   0  0  0  0  0  0  0  0  0  0  0  0
   -1.3952   -0.9084    0.2428 N   0  0  0  0  0  0  0  0  0  0  0  0
   -2.1972   -0.3644   -0.0422 H   0  0  0  0  0  0  0  0  0  0  0  0
   -0.1122   -0.1994    0.2658 C   0  0  1  0  0  0  0  0  0  0  0  0
   -0.0371    0.3524    1.2063 H   0  0  0  0  0  0  0  0  0  0  0  0
    1.0302   -1.2377    0.2039 C   0  0  0  0  0  0  0  0  0  0  0  0
    0.8361   -1.9345   -0.6108 H   0  0  0  0  0  0  0  0  0  0  0  0
    1.9698   -0.7262    0.0003 H   0  0  0  0  0  0  0  0  0  0  0  0
    1.1798   -2.0685    1.4681 C   0  0  0  0  0  0  0  0  0  0  0  0
    1.0984   -1.5936    2.5875 O   0  0  0  0  0  0  0  0  0  0  0  0
    1.4157   -3.3509    1.3331 N   0  0  0  0  0  0  0  0  0  0  0  0
    1.4924   -3.8776    2.1854 H   0  0  0  0  0  0  0  0  0  0  0  0
    1.4682   -3.7691    0.4235 H   0  0  0  0  0  0  0  0  0  0  0  0
   -0.0528    0.8191   -0.8939 C   0  0  0  0  0  0  0  0  0  0  0  0
   -0.6989    1.8648   -0.8267 O   0  0  0  0  0  0  0  0  0  0  0  0
    0.7055    0.5150   -1.9516 N   0  0  0  0  0  0  0  0  0  0  0  0
    1.1437   -0.4005   -1.9584 H   0  0  0  0  0  0  0  0  0  0  0  0
    0.8776    1.3744   -3.1216 C   0  0  0  0  0  0  0  0  0  0  0  0
    1.2496    2.3523   -2.8083 H   0  0  0  0  0  0  0  0  0  0  0  0
    1.5889    0.9241   -3.8154 H   0  0  0  0  0  0  0  0  0  0  0  0
   -0.0816    1.5088   -3.6244 H   0  0  0  0  0  0  0  0  0  0  0  0
  5  6  2  0  0  0  0
  5  7  1  0  0  0  0
  2  3  1  0  0  0  0
  2  4  1  0  0  0  0
  2  5  1  0  0  0  0
  1  2  1  0  0  0  0
 19 20  2  0  0  0  0
 19 21  1  0  0  0  0
 16 17  1  0  0  0  0
 16 18  1  0  0  0  0
 14 15  2  0  0  0  0
 14 16  1  0  0  0  0
 11 12  1  0  0  0  0
 11 13  1  0  0  0  0
 11 14  1  0  0  0  0
  9 10  1  0  0  0  0
  9 11  1  0  0  0  0
  9 19  1  0  0  0  0
  7  8  1  0  0  0  0
  7  9  1  0  0  0  0
 23 24  1  0  0  0  0
 23 25  1  0  0  0  0
 23 26  1  0  0  0  0
 21 22  1  0  0  0  0
 21 23  1  0  0  0  0
M  END
$$$$
default_name
  -OEChem-01062215323D

 26 25  0     1  0  0  0  0  0999 V2000
   -3.0232   -3.6924    1.0038 H   0  0  0  0  0  0  0  0  0  0  0  0
   -3.0082   -2.6684    0.6318 C   0  0  0  0  0  0  0  0  0  0  0  0
   -3.6332   -2.0414    1.2658 H   0  0  0  0  0  0  0  0  0  0  0  0
   -3.3762   -2.6444   -0.3912 H   0  0  0  0  0  0  0  0  0  0  0  0
   -1.5882   -2.1554    0.6658 C   0  0  0  0  0  0  0  0  0  0  0  0
   -0.6832   -2.8764    1.0638 O   0  0  0  0  0  0  0  0  0  0  0  0
   -1.3952   -0.9084    0.2428 N   0  0  0  0  0  0  0  0  0  0  0  0
   -2.1972   -0.3644   -0.0422 H   0  0  0  0  0  0  0  0  0  0  0  0
   -0.1122   -0.1994    0.2658 C   0  0  1  0  0  0  0  0  0  0  0  0
   -0.0371    0.3524    1.2063 H   0  0  0  0  0  0  0  0  0  0  0  0
    1.0302   -1.2377    0.2039 C   0  0  0  0  0  0  0  0  0  0  0  0
    0.8361   -1.9345   -0.6108 H   0  0  0  0  0  0  0  0  0  0  0  0
    1.9698   -0.7262    0.0003 H   0  0  0  0  0  0  0  0  0  0  0  0
    1.1798   -2.0685    1.4681 C   0  0  0  0  0  0  0  0  0  0  0  0
    1.0984   -1.5936    2.5875 O   0  0  0  0  0  0  0  0  0  0  0  0
    1.4157   -3.3509    1.3331 N   0  0  0  0  0  0  0  0  0  0  0  0
    1.4924   -3.8776    2.1854 H   0  0  0  0  0  0  0  0  0  0  0  0
    1.4682   -3.7691    0.4235 H   0  0  0  0  0  0  0  0  0  0  0  0
   -0.0528    0.8191   -0.8939 C   0  0  0  0  0  0  0  0  0  0  0  0
   -0.4614    1.9679   -0.7240 O   0  0  0  0  0  0  0  0  0  0  0  0
    0.4409    0.4026   -2.0640 N   0  0  0  0  0  0  0  0  0  0  0  0
    0.6843   -0.5800   -2.1395 H   0  0  0  0  0  0  0  0  0  0  0  0
    0.5764    1.2434   -3.2520 C   0  0  0  0  0  0  0  0  0  0  0  0
    1.1797    2.1221   -3.0140 H   0  0  0  0  0  0  0  0  0  0  0  0
    1.0578    0.6828   -4.0544 H   0  0  0  0  0  0  0  0  0  0  0  0
   -0.4093    1.5743   -3.5836 H   0  0  0  0  0  0  0  0  0  0  0  0
  5  6  2  0  0  0  0
  5  7  1  0  0  0  0
  2  3  1  0  0  0  0
  2  4  1  0  0  0  0
  2  5  1  0  0  0  0
  1  2  1  0  0  0  0
 19 20  2  0  0  0  0
 19 21  1  0  0  0  0
 16 17  1  0  0  0  0
 16 18  1  0  0  0  0
 14 15  2  0  0  0  0
 14 16  1  0  0  0  0
 11 12  1  0  0  0  0
 11 13  1  0  0  0  0
 11 14  1  0  0  0  0
  9 10  1  0  0  0  0
  9 11  1  0  0  0  0
  9 19  1  0  0  0  0
  7  8  1  0  0  0  0
  7  9  1  0  0  0  0
 23 24  1  0  0  0  0
 23 25  1  0  0  0  0
 23 26  1  0  0  0  0
 21 22  1  0  0  0  0
 21 23  1  0  0  0  0
M  END
$$$$
default_name
  -OEChem-01062215323D

 26 25  0     1  0  0  0  0  0999 V2000
   -3.0232   -3.6924    1.0038 H   0  0  0  0  0  0  0  0  0  0  0  0
   -3.0082   -2.6684    0.6318 C   0  0  0  0  0  0  0  0  0  0  0  0
   -3.6332   -2.0414    1.2658 H   0  0  0  0  0  0  0  0  0  0  0  0
   -3.3762   -2.6444   -0.3912 H   0  0  0  0  0  0  0  0  0  0  0  0
   -1.5882   -2.1554    0.6658 C   0  0  0  0  0  0  0  0  0  0  0  0
   -0.6832   -2.8764    1.0638 O   0  0  0  0  0  0  0  0  0  0  0  0
   -1.3952   -0.9084    0.2428 N   0  0  0  0  0  0  0  0  0  0  0  0
   -2.1972   -0.3644   -0.0422 H   0  0  0  0  0  0  0  0  0  0  0  0
   -0.1122   -0.1994    0.2658 C   0  0  1  0  0  0  0  0  0  0  0  0
   -0.0371    0.3524    1.2063 H   0  0  0  0  0  0  0  0  0  0  0  0
    1.0302   -1.2377    0.2039 C   0  0  0  0  0  0  0  0  0  0  0  0
    0.8361   -1.9345   -0.6108 H   0  0  0  0  0  0  0  0  0  0  0  0
    1.9698   -0.7262    0.0003 H   0  0  0  0  0  0  0  0  0  0  0  0
    1.1798   -2.0685    1.4681 C   0  0  0  0  0  0  0  0  0  0  0  0
    1.0984   -1.5936    2.5875 O   0  0  0  0  0  0  0  0  0  0  0  0
    1.4157   -3.3509    1.3331 N   0  0  0  0  0  0  0  0  0  0  0  0
    1.4924   -3.8776    2.1854 H   0  0  0  0  0  0  0  0  0  0  0  0
    1.4682   -3.7691    0.4235 H   0  0  0  0  0  0  0  0  0  0  0  0
   -0.0528    0.8191   -0.8939 C   0  0  0  0  0  0  0  0  0  0  0  0
   -0.1945    2.0202   -0.6643 O   0  0  0  0  0  0  0  0  0  0  0  0
    0.1443    0.3465   -2.1284 N   0  0  0  0  0  0  0  0  0  0  0  0
    0.1748   -0.6622   -2.2378 H   0  0  0  0  0  0  0  0  0  0  0  0
    0.2377    1.1768   -3.3279 C   0  0  0  0  0  0  0  0  0  0  0  0
    1.0323    1.9155   -3.2030 H   0  0  0  0  0  0  0  0  0  0  0  0
    0.4571    0.5554   -4.1971 H   0  0  0  0  0  0  0  0  0  0  0  0
   -0.7061    1.7009   -3.4877 H   0  0  0  0  0  0  0  0  0  0  0  0
  5  6  2  0  0  0  0
  5  7  1  0  0  0  0
  2  3  1  0  0  0  0
  2  4  1  0  0  0  0
  2  5  1  0  0  0  0
  1  2  1  0  0  0  0
 19 20  2  0  0  0  0
 19 21  1  0  0  0  0
 16 17  1  0  0  0  0
 16 18  1  0  0  0  0
 14 15  2  0  0  0  0
 14 16  1  0  0  0  0
 11 12  1  0  0  0  0
 11 13  1  0  0  0  0
 11 14  1  0  0  0  0
  9 10  1  0  0  0  0
  9 11  1  0  0  0  0
  9 19  1  0  0  0  0
  7  8  1  0  0  0  0
  7  9  1  0  0  0  0
 23 24  1  0  0  0  0
 23 25  1  0  0  0  0
 23 26  1  0  0  0  0
 21 22  1  0  0  0  0
 21 23  1  0  0  0  0
M  END
$$$$
default_name
  -OEChem-01062215323D

 26 25  0     1  0  0  0  0  0999 V2000
   -3.0232   -3.6924    1.0038 H   0  0  0  0  0  0  0  0  0  0  0  0
   -3.0082   -2.6684    0.6318 C   0  0  0  0  0  0  0  0  0  0  0  0
   -3.6332   -2.0414    1.2658 H   0  0  0  0  0  0  0  0  0  0  0  0
   -3.3762   -2.6444   -0.3912 H   0  0  0  0  0  0  0  0  0  0  0  0
   -1.5882   -2.1554    0.6658 C   0  0  0  0  0  0  0  0  0  0  0  0
   -0.6832   -2.8764    1.0638 O   0  0  0  0  0  0  0  0  0  0  0  0
   -1.3952   -0.9084    0.2428 N   0  0  0  0  0  0  0  0  0  0  0  0
   -2.1972   -0.3644   -0.0422 H   0  0  0  0  0  0  0  0  0  0  0  0
   -0.1122   -0.1994    0.2658 C   0  0  1  0  0  0  0  0  0  0  0  0
   -0.0371    0.3524    1.2063 H   0  0  0  0  0  0  0  0  0  0  0  0
    1.0302   -1.2377    0.2039 C   0  0  0  0  0  0  0  0  0  0  0  0
    0.8361   -1.9345   -0.6108 H   0  0  0  0  0  0  0  0  0  0  0  0
    1.9698   -0.7262    0.0003 H   0  0  0  0  0  0  0  0  0  0  0  0
    1.1798   -2.0685    1.4681 C   0  0  0  0  0  0  0  0  0  0  0  0
    1.0984   -1.5936    2.5875 O   0  0  0  0  0  0  0  0  0  0  0  0
    1.4157   -3.3509    1.3331 N   0  0  0  0  0  0  0  0  0  0  0  0
    1.4924   -3.8776    2.1854 H   0  0  0  0  0  0  0  0  0  0  0  0
    1.4682   -3.7691    0.4235 H   0  0  0  0  0  0  0  0  0  0  0  0
   -0.0528    0.8191   -0.8939 C   0  0  0  0  0  0  0  0  0  0  0  0
    0.0838    2.0184   -0.6517 O   0  0  0  0  0  0  0  0  0  0  0  0
   -0.1642    0.3506   -2.1406 N   0  0  0  0  0  0  0  0  0  0  0  0
   -0.3501   -0.6416   -2.2467 H   0  0  0  0  0  0  0  0  0  0  0  0
   -0.1154    1.1790   -3.3440 C   0  0  0  0  0  0  0  0  0  0  0  0
    0.8176    1.7464   -3.3625 H   0  0  0  0  0  0  0  0  0  0  0  0
   -0.1722    0.5504   -4.2337 H   0  0  0  0  0  0  0  0  0  0  0  0
   -0.9519    1.8799   -3.3431 H   0  0  0  0  0  0  0  0  0  0  0  0
  5  6  2  0  0  0  0
  5  7  1  0  0  0  0
  2  3  1  0  0  0  0
  2  4  1  0  0  0  0
  2  5  1  0  0  0  0
  1  2  1  0  0  0  0
 19 20  2  0  0  0  0
 19 21  1  0  0  0  0
 16 17  1  0  0  0  0
 16 18  1  0  0  0  0
 14 15  2  0  0  0  0
 14 16  1  0  0  0  0
 11 12  1  0  0  0  0
 11 13  1  0  0  0  0
 11 14  1  0  0  0  0
  9 10  1  0  0  0  0
  9 11  1  0  0  0  0
  9 19  1  0  0  0  0
  7  8  1  0  0  0  0
  7  9  1  0  0  0  0
 23 24  1  0  0  0  0
 23 25  1  0  0  0  0
 23 26  1  0  0  0  0
 21 22  1  0  0  0  0
 21 23  1  0  0  0  0
M  END
$$$$
default_name
  -OEChem-01062215323D

 26 25  0     1  0  0  0  0  0999 V2000
   -3.0232   -3.6924    1.0038 H   0  0  0  0  0  0  0  0  0  0  0  0
   -3.0082   -2.6684    0.6318 C   0  0  0  0  0  0  0  0  0  0  0  0
   -3.6332   -2.0414    1.2658 H   0  0  0  0  0  0  0  0  0  0  0  0
   -3.3762   -2.6444   -0.3912 H   0  0  0  0  0  0  0  0  0  0  0  0
   -1.5882   -2.1554    0.6658 C   0  0  0  0  0  0  0  0  0  0  0  0
   -0.6832   -2.8764    1.0638 O   0  0  0  0  0  0  0  0  0  0  0  0
   -1.3952   -0.9084    0.2428 N   0  0  0  0  0  0  0  0  0  0  0  0
   -2.1972   -0.3644   -0.0422 H   0  0  0  0  0  0  0  0  0  0  0  0
   -0.1122   -0.1994    0.2658 C   0  0  1  0  0  0  0  0  0  0  0  0
   -0.0371    0.3524    1.2063 H   0  0  0  0  0  0  0  0  0  0  0  0
    1.0302   -1.2377    0.2039 C   0  0  0  0  0  0  0  0  0  0  0  0
    0.8361   -1.9345   -0.6108 H   0  0  0  0  0  0  0  0  0  0  0  0
    1.9698   -0.7262    0.0003 H   0  0  0  0  0  0  0  0  0  0  0  0
    1.1798   -2.0685    1.4681 C   0  0  0  0  0  0  0  0  0  0  0  0
    1.0984   -1.5936    2.5875 O   0  0  0  0  0  0  0  0  0  0  0  0
    1.4157   -3.3509    1.3331 N   0  0  0  0  0  0  0  0  0  0  0  0
    1.4924   -3.8776    2.1854 H   0  0  0  0  0  0  0  0  0  0  0  0
    1.4682   -3.7691    0.4235 H   0  0  0  0  0  0  0  0  0  0  0  0
   -0.0528    0.8191   -0.8939 C   0  0  0  0  0  0  0  0  0  0  0  0
    0.3543    1.9624   -0.6870 O   0  0  0  0  0  0  0  0  0  0  0  0
   -0.4634    0.4146   -2.0997 N   0  0  0  0  0  0  0  0  0  0  0  0
   -0.8547   -0.5197   -2.1654 H   0  0  0  0  0  0  0  0  0  0  0  0
   -0.4588    1.2499   -3.2993 C   0  0  0  0  0  0  0  0  0  0  0  0
    0.5501    1.6264   -3.4816 H   0  0  0  0  0  0  0  0  0  0  0  0
   -0.7873    0.6683   -4.1617 H   0  0  0  0  0  0  0  0  0  0  0  0
   -1.1298    2.0991   -3.1597 H   0  0  0  0  0  0  0  0  0  0  0  0
  5  6  2  0  0  0  0
  5  7  1  0  0  0  0
  2  3  1  0  0  0  0
  2  4  1  0  0  0  0
  2  5  1  0  0  0  0
  1  2  1  0  0  0  0
 19 20  2  0  0  0  0
 19 21  1  0  0  0  0
 16 17  1  0  0  0  0
 16 18  1  0  0  0  0
 14 15  2  0  0  0  0
 14 16  1  0  0  0  0
 11 12  1  0  0  0  0
 11 13  1  0  0  0  0
 11 14  1  0  0  0  0
  9 10  1  0  0  0  0
  9 11  1  0  0  0  0
  9 19  1  0  0  0  0
  7  8  1  0  0  0  0
  7  9  1  0  0  0  0
 23 24  1  0  0  0  0
 23 25  1  0  0  0  0
 23 26  1  0  0  0  0
 21 22  1  0  0  0  0
 21 23  1  0  0  0  0
M  END
$$$$
default_name
  -OEChem-01062215323D

 26 25  0     1  0  0  0  0  0999 V2000
   -3.0232   -3.6924    1.0038 H   0  0  0  0  0  0  0  0  0  0  0  0
   -3.0082   -2.6684    0.6318 C   0  0  0  0  0  0  0  0  0  0  0  0
   -3.6332   -2.0414    1.2658 H   0  0  0  0  0  0  0  0  0  0  0  0
   -3.3762   -2.6444   -0.3912 H   0  0  0  0  0  0  0  0  0  0  0  0
   -1.5882   -2.1554    0.6658 C   0  0  0  0  0  0  0  0  0  0  0  0
   -0.6832   -2.8764    1.0638 O   0  0  0  0  0  0  0  0  0  0  0  0
   -1.3952   -0.9084    0.2428 N   0  0  0  0  0  0  0  0  0  0  0  0
   -2.1972   -0.3644   -0.0422 H   0  0  0  0  0  0  0  0  0  0  0  0
   -0.1122   -0.1994    0.2658 C   0  0  1  0  0  0  0  0  0  0  0  0
   -0.0371    0.3524    1.2063 H   0  0  0  0  0  0  0  0  0  0  0  0
    1.0302   -1.2377    0.2039 C   0  0  0  0  0  0  0  0  0  0  0  0
    0.8361   -1.9345   -0.6108 H   0  0  0  0  0  0  0  0  0  0  0  0
    1.9698   -0.7262    0.0003 H   0  0  0  0  0  0  0  0  0  0  0  0
    1.1798   -2.0685    1.4681 C   0  0  0  0  0  0  0  0  0  0  0  0
    1.0984   -1.5936    2.5875 O   0  0  0  0  0  0  0  0  0  0  0  0
    1.4157   -3.3509    1.3331 N   0  0  0  0  0  0  0  0  0  0  0  0
    1.4924   -3.8776    2.1854 H   0  0  0  0  0  0  0  0  0  0  0  0
    1.4682   -3.7691    0.4235 H   0  0  0  0  0  0  0  0  0  0  0  0
   -0.0528    0.8191   -0.8939 C   0  0  0  0  0  0  0  0  0  0  0  0
    0.5987    1.8560   -0.7679 O   0  0  0  0  0  0  0  0  0  0  0  0
   -0.7330    0.5342   -2.0085 N   0  0  0  0  0  0  0  0  0  0  0  0
   -1.3045   -0.3047   -1.9996 H   0  0  0  0  0  0  0  0  0  0  0  0
   -0.7690    1.3847   -3.1968 C   0  0  0  0  0  0  0  0  0  0  0  0
    0.2481    1.5636   -3.5522 H   0  0  0  0  0  0  0  0  0  0  0  0
   -1.3462    0.9009   -3.9860 H   0  0  0  0  0  0  0  0  0  0  0  0
   -1.2278    2.3436   -2.9499 H   0  0  0  0  0  0  0  0  0  0  0  0
  5  6  2  0  0  0  0
  5  7  1  0  0  0  0
  2  3  1  0  0  0  0
  2  4  1  0  0  0  0
  2  5  1  0  0  0  0
  1  2  1  0  0  0  0
 19 20  2  0  0  0  0
 19 21  1  0  0  0  0
 16 17  1  0  0  0  0
 16 18  1  0  0  0  0
 14 15  2  0  0  0  0
 14 16  1  0  0  0  0
 11 12  1  0  0  0  0
 11 13  1  0  0  0  0
 11 14  1  0  0  0  0
  9 10  1  0  0  0  0
  9 11  1  0  0  0  0
  9 19  1  0  0  0  0
  7  8  1  0  0  0  0
  7  9  1  0  0  0  0
 23 24  1  0  0  0  0
 23 25  1  0  0  0  0
 23 26  1  0  0  0  0
 21 22  1  0  0  0  0
 21 23  1  0  0  0  0
M  END
$$$$
default_name
  -OEChem-01062215323D

 26 25  0     1  0  0  0  0  0999 V2000
   -3.0232   -3.6924    1.0038 H   0  0  0  0  0  0  0  0  0  0  0  0
   -3.0082   -2.6684    0.6318 C   0  0  0  0  0  0  0  0  0  0  0  0
   -3.6332   -2.0414    1.2658 H   0  0  0  0  0  0  0  0  0  0  0  0
   -3.3762   -2.6444   -0.3912 H   0  0  0  0  0  0  0  0  0  0  0  0
   -1.5882   -2.1554    0.6658 C   0  0  0  0  0  0  0  0  0  0  0  0
   -0.6832   -2.8764    1.0638 O   0  0  0  0  0  0  0  0  0  0  0  0
   -1.3952   -0.9084    0.2428 N   0  0  0  0  0  0  0  0  0  0  0  0
   -2.1972   -0.3644   -0.0422 H   0  0  0  0  0  0  0  0  0  0  0  0
   -0.1122   -0.1994    0.2658 C   0  0  1  0  0  0  0  0  0  0  0  0
   -0.0371    0.3524    1.2063 H   0  0  0  0  0  0  0  0  0  0  0  0
    1.0302   -1.2377    0.2039 C   0  0  0  0  0  0  0  0  0  0  0  0
    0.8361   -1.9345   -0.6108 H   0  0  0  0  0  0  0  0  0  0  0  0
    1.9698   -0.7262    0.0003 H   0  0  0  0  0  0  0  0  0  0  0  0
    1.1798   -2.0685    1.4681 C   0  0  0  0  0  0  0  0  0  0  0  0
    1.0984   -1.5936    2.5875 O   0  0  0  0  0  0  0  0  0  0  0  0
    1.4157   -3.3509    1.3331 N   0  0  0  0  0  0  0  0  0  0  0  0
    1.4924   -3.8776    2.1854 H   0  0  0  0  0  0  0  0  0  0  0  0
    1.4682   -3.7691    0.4235 H   0  0  0  0  0  0  0  0  0  0  0  0
   -0.0528    0.8191   -0.8939 C   0  0  0  0  0  0  0  0  0  0  0  0
    0.8003    1.7067   -0.8887 O   0  0  0  0  0  0  0  0  0  0  0  0
   -0.9546    0.7011   -1.8732 N   0  0  0  0  0  0  0  0  0  0  0  0
   -1.6689   -0.0112   -1.7606 H   0  0  0  0  0  0  0  0  0  0  0  0
   -1.0250    1.5741   -3.0436 C   0  0  0  0  0  0  0  0  0  0  0  0
   -0.0679    1.5624   -3.5695 H   0  0  0  0  0  0  0  0  0  0  0  0
   -1.8109    1.2325   -3.7186 H   0  0  0  0  0  0  0  0  0  0  0  0
   -1.2391    2.5967   -2.7282 H   0  0  0  0  0  0  0  0  0  0  0  0
  5  6  2  0  0  0  0
  5  7  1  0  0  0  0
  2  3  1  0  0  0  0
  2  4  1  0  0  0  0
  2  5  1  0  0  0  0
  1  2  1  0  0  0  0
 19 20  2  0  0  0  0
 19 21  1  0  0  0  0
 16 17  1  0  0  0  0
 16 18  1  0  0  0  0
 14 15  2  0  0  0  0
 14 16  1  0  0  0  0
 11 12  1  0  0  0  0
 11 13  1  0  0  0  0
 11 14  1  0  0  0  0
  9 10  1  0  0  0  0
  9 11  1  0  0  0  0
  9 19  1  0  0  0  0
  7  8  1  0  0  0  0
  7  9  1  0  0  0  0
 23 24  1  0  0  0  0
 23 25  1  0  0  0  0
 23 26  1  0  0  0  0
 21 22  1  0  0  0  0
 21 23  1  0  0  0  0
M  END
$$$$
default_name
  -OEChem-01062215323D

 26 25  0     1  0  0  0  0  0999 V2000
   -3.0232   -3.6924    1.0038 H   0  0  0  0  0  0  0  0  0  0  0  0
   -3.0082   -2.6684    0.6318 C   0  0  0  0  0  0  0  0  0  0  0  0
   -3.6332   -2.0414    1.2658 H   0  0  0  0  0  0  0  0  0  0  0  0
   -3.3762   -2.6444   -0.3912 H   0  0  0  0  0  0  0  0  0  0  0  0
   -1.5882   -2.1554    0.6658 C   0  0  0  0  0  0  0  0  0  0  0  0
   -0.6832   -2.8764    1.0638 O   0  0  0  0  0  0  0  0  0  0  0  0
   -1.3952   -0.9084    0.2428 N   0  0  0  0  0  0  0  0  0  0  0  0
   -2.1972   -0.3644   -0.0422 H   0  0  0  0  0  0  0  0  0  0  0  0
   -0.1122   -0.1994    0.2658 C   0  0  1  0  0  0  0  0  0  0  0  0
   -0.0371    0.3524    1.2063 H   0  0  0  0  0  0  0  0  0  0  0  0
    1.0302   -1.2377    0.2039 C   0  0  0  0  0  0  0  0  0  0  0  0
    0.8361   -1.9345   -0.6108 H   0  0  0  0  0  0  0  0  0  0  0  0
    1.9698   -0.7262    0.0003 H   0  0  0  0  0  0  0  0  0  0  0  0
    1.1798   -2.0685    1.4681 C   0  0  0  0  0  0  0  0  0  0  0  0
    1.0984   -1.5936    2.5875 O   0  0  0  0  0  0  0  0  0  0  0  0
    1.4157   -3.3509    1.3331 N   0  0  0  0  0  0  0  0  0  0  0  0
    1.4924   -3.8776    2.1854 H   0  0  0  0  0  0  0  0  0  0  0  0
    1.4682   -3.7691    0.4235 H   0  0  0  0  0  0  0  0  0  0  0  0
   -0.0528    0.8191   -0.8939 C   0  0  0  0  0  0  0  0  0  0  0  0
    0.9454    1.5244   -1.0414 O   0  0  0  0  0  0  0  0  0  0  0  0
   -1.1131    0.9041   -1.7031 N   0  0  0  0  0  0  0  0  0  0  0  0
   -1.9230    0.3407   -1.4646 H   0  0  0  0  0  0  0  0  0  0  0  0
   -1.2093    1.8053   -2.8500 C   0  0  0  0  0  0  0  0  0  0  0  0
   -0.3763    1.6227   -3.5323 H   0  0  0  0  0  0  0  0  0  0  0  0
   -2.1497    1.6405   -3.3777 H   0  0  0  0  0  0  0  0  0  0  0  0
   -1.1630    2.8412   -2.5096 H   0  0  0  0  0  0  0  0  0  0  0  0
  5  6  2  0  0  0  0
  5  7  1  0  0  0  0
  2  3  1  0  0  0  0
  2  4  1  0  0  0  0
  2  5  1  0  0  0  0
  1  2  1  0  0  0  0
 19 20  2  0  0  0  0
 19 21  1  0  0  0  0
 16 17  1  0  0  0  0
 16 18  1  0  0  0  0
 14 15  2  0  0  0  0
 14 16  1  0  0  0  0
 11 12  1  0  0  0  0
 11 13  1  0  0  0  0
 11 14  1  0  0  0  0
  9 10  1  0  0  0  0
  9 11  1  0  0  0  0
  9 19  1  0  0  0  0
  7  8  1  0  0  0  0
  7  9  1  0  0  0  0
 23 24  1  0  0  0  0
 23 25  1  0  0  0  0
 23 26  1  0  0  0  0
 21 22  1  0  0  0  0
 21 23  1  0  0  0  0
M  END
$$$$
default_name
  -OEChem-01062215323D

 26 25  0     1  0  0  0  0  0999 V2000
   -3.0232   -3.6924    1.0038 H   0  0  0  0  0  0  0  0  0  0  0  0
   -3.0082   -2.6684    0.6318 C   0  0  0  0  0  0  0  0  0  0  0  0
   -3.6332   -2.0414    1.2658 H   0  0  0  0  0  0  0  0  0  0  0  0
   -3.3762   -2.6444   -0.3912 H   0  0  0  0  0  0  0  0  0  0  0  0
   -1.5882   -2.1554    0.6658 C   0  0  0  0  0  0  0  0  0  0  0  0
   -0.6832   -2.8764    1.0638 O   0  0  0  0  0  0  0  0  0  0  0  0
   -1.3952   -0.9084    0.2428 N   0  0  0  0  0  0  0  0  0  0  0  0
   -2.1972   -0.3644   -0.0422 H   0  0  0  0  0  0  0  0  0  0  0  0
   -0.1122   -0.1994    0.2658 C   0  0  1  0  0  0  0  0  0  0  0  0
   -0.0371    0.3524    1.2063 H   0  0  0  0  0  0  0  0  0  0  0  0
    1.0302   -1.2377    0.2039 C   0  0  0  0  0  0  0  0  0  0  0  0
    0.8361   -1.9345   -0.6108 H   0  0  0  0  0  0  0  0  0  0  0  0
    1.9698   -0.7262    0.0003 H   0  0  0  0  0  0  0  0  0  0  0  0
    1.1798   -2.0685    1.4681 C   0  0  0  0  0  0  0  0  0  0  0  0
    1.0984   -1.5936    2.5875 O   0  0  0  0  0  0  0  0  0  0  0  0
    1.4157   -3.3509    1.3331 N   0  0  0  0  0  0  0  0  0  0  0  0
    1.4924   -3.8776    2.1854 H   0  0  0  0  0  0  0  0  0  0  0  0
    1.4682   -3.7691    0.4235 H   0  0  0  0  0  0  0  0  0  0  0  0
   -0.0528    0.8191   -0.8939 C   0  0  0  0  0  0  0  0  0  0  0  0
    1.0241    1.3217   -1.2154 O   0  0  0  0  0  0  0  0  0  0  0  0
   -1.1977    1.1293   -1.5096 N   0  0  0  0  0  0  0  0  0  0  0  0
   -2.0496    0.7270   -1.1317 H   0  0  0  0  0  0  0  0  0  0  0  0
   -1.3094    2.0626   -2.6292 C   0  0  0  0  0  0  0  0  0  0  0  0
   -0.6561    1.7406   -3.4431 H   0  0  0  0  0  0  0  0  0  0  0  0
   -2.3395    2.0970   -2.9865 H   0  0  0  0  0  0  0  0  0  0  0  0
   -1.0047    3.0604   -2.3090 H   0  0  0  0  0  0  0  0  0  0  0  0
  5  6  2  0  0  0  0
  5  7  1  0  0  0  0
  2  3  1  0  0  0  0
  2  4  1  0  0  0  0
  2  5  1  0  0  0  0
  1  2  1  0  0  0  0
 19 20  2  0  0  0  0
 19 21  1  0  0  0  0
 16 17  1  0  0  0  0
 16 18  1  0  0  0  0
 14 15  2  0  0  0  0
 14 16  1  0  0  0  0
 11 12  1  0  0  0  0
 11 13  1  0  0  0  0
 11 14  1  0  0  0  0
  9 10  1  0  0  0  0
  9 11  1  0  0  0  0
  9 19  1  0  0  0  0
  7  8  1  0  0  0  0
  7  9  1  0  0  0  0
 23 24  1  0  0  0  0
 23 25  1  0  0  0  0
 23 26  1  0  0  0  0
 21 22  1  0  0  0  0
 21 23  1  0  0  0  0
M  END
$$$$
default_name
  -OEChem-01062215323D

 26 25  0     1  0  0  0  0  0999 V2000
   -3.0232   -3.6924    1.0038 H   0  0  0  0  0  0  0  0  0  0  0  0
   -3.0082   -2.6684    0.6318 C   0  0  0  0  0  0  0  0  0  0  0  0
   -3.6332   -2.0414    1.2658 H   0  0  0  0  0  0  0  0  0  0  0  0
   -3.3762   -2.6444   -0.3912 H   0  0  0  0  0  0  0  0  0  0  0  0
   -1.5882   -2.1554    0.6658 C   0  0  0  0  0  0  0  0  0  0  0  0
   -0.6832   -2.8764    1.0638 O   0  0  0  0  0  0  0  0  0  0  0  0
   -1.3952   -0.9084    0.2428 N   0  0  0  0  0  0  0  0  0  0  0  0
   -2.1972   -0.3644   -0.0422 H   0  0  0  0  0  0  0  0  0  0  0  0
   -0.1122   -0.1994    0.2658 C   0  0  1  0  0  0  0  0  0  0  0  0
   -0.0371    0.3524    1.2063 H   0  0  0  0  0  0  0  0  0  0  0  0
    1.0302   -1.2377    0.2039 C   0  0  0  0  0  0  0  0  0  0  0  0
    0.8361   -1.9345   -0.6108 H   0  0  0  0  0  0  0  0  0  0  0  0
    1.9698   -0.7262    0.0003 H   0  0  0  0  0  0  0  0  0  0  0  0
    1.1798   -2.0685    1.4681 C   0  0  0  0  0  0  0  0  0  0  0  0
    1.0984   -1.5936    2.5875 O   0  0  0  0  0  0  0  0  0  0  0  0
    1.4157   -3.3509    1.3331 N   0  0  0  0  0  0  0  0  0  0  0  0
    1.4924   -3.8776    2.1854 H   0  0  0  0  0  0  0  0  0  0  0  0
    1.4682   -3.7691    0.4235 H   0  0  0  0  0  0  0  0  0  0  0  0
   -0.0528    0.8191   -0.8939 C   0  0  0  0  0  0  0  0  0  0  0  0
    1.0309    1.1123   -1.3989 O   0  0  0  0  0  0  0  0  0  0  0  0
   -1.2027    1.3614   -1.3061 N   0  0  0  0  0  0  0  0  0  0  0  0
   -2.0400    1.1215   -0.7848 H   0  0  0  0  0  0  0  0  0  0  0  0
   -1.3184    2.3283   -2.3963 C   0  0  0  0  0  0  0  0  0  0  0  0
   -0.8883    1.9080   -3.3080 H   0  0  0  0  0  0  0  0  0  0  0  0
   -2.3674    2.5709   -2.5717 H   0  0  0  0  0  0  0  0  0  0  0  0
   -0.7750    3.2393   -2.1401 H   0  0  0  0  0  0  0  0  0  0  0  0
  5  6  2  0  0  0  0
  5  7  1  0  0  0  0
  2  3  1  0  0  0  0
  2  4  1  0  0  0  0
  2  5  1  0  0  0  0
  1  2  1  0  0  0  0
 19 20  2  0  0  0  0
 19 21  1  0  0  0  0
 16 17  1  0  0  0  0
 16 18  1  0  0  0  0
 14 15  2  0  0  0  0
 14 16  1  0  0  0  0
 11 12  1  0  0  0  0
 11 13  1  0  0  0  0
 11 14  1  0  0  0  0
  9 10  1  0  0  0  0
  9 11  1  0  0  0  0
  9 19  1  0  0  0  0
  7  8  1  0  0  0  0
  7  9  1  0  0  0  0
 23 24  1  0  0  0  0
 23 25  1  0  0  0  0
 23 26  1  0  0  0  0
 21 22  1  0  0  0  0
 21 23  1  0  0  0  0
M  END
$$$$
default_name
  -OEChem-01062215323D

 26 25  0     1  0  0  0  0  0999 V2000
   -3.0232   -3.6924    1.0038 H   0  0  0  0  0  0  0  0  0  0  0  0
   -3.0082   -2.6684    0.6318 C   0  0  0  0  0  0  0  0  0  0  0  0
   -3.6332   -2.0414    1.2658 H   0  0  0  0  0  0  0  0  0  0  0  0
   -3.3762   -2.6444   -0.3912 H   0  0  0  0  0  0  0  0  0  0  0  0
   -1.5882   -2.1554    0.6658 C   0  0  0  0  0  0  0  0  0  0  0  0
   -0.6832   -2.8764    1.0638 O   0  0  0  0  0  0  0  0  0  0  0  0
   -1.3952   -0.9084    0.2428 N   0  0  0  0  0  0  0  0  0  0  0  0
   -2.1972   -0.3644   -0.0422 H   0  0  0  0  0  0  0  0  0  0  0  0
   -0.1122   -0.1994    0.2658 C   0  0  1  0  0  0  0  0  0  0  0  0
   -0.0371    0.3524    1.2063 H   0  0  0  0  0  0  0  0  0  0  0  0
    1.0302   -1.2377    0.2039 C   0  0  0  0  0  0  0  0  0  0  0  0
    0.8361   -1.9345   -0.6108 H   0  0  0  0  0  0  0  0  0  0  0  0
    1.9698   -0.7262    0.0003 H   0  0  0  0  0  0  0  0  0  0  0  0
    1.1798   -2.0685    1.4681 C   0  0  0  0  0  0  0  0  0  0  0  0
    1.0984   -1.5936    2.5875 O   0  0  0  0  0  0  0  0  0  0  0  0
    1.4157   -3.3509    1.3331 N   0  0  0  0  0  0  0  0  0  0  0  0
    1.4924   -3.8776    2.1854 H   0  0  0  0  0  0  0  0  0  0  0  0
    1.4682   -3.7691    0.4235 H   0  0  0  0  0  0  0  0  0  0  0  0
   -0.0528    0.8191   -0.8939 C   0  0  0  0  0  0  0  0  0  0  0  0
    0.9656    0.9105   -1.5795 O   0  0  0  0  0  0  0  0  0  0  0  0
   -1.1277    1.5845   -1.1063 N   0  0  0  0  0  0  0  0  0  0  0  0
   -1.8949    1.4971   -0.4474 H   0  0  0  0  0  0  0  0  0  0  0  0
   -1.2357    2.5843   -2.1672 C   0  0  0  0  0  0  0  0  0  0  0  0
   -1.0569    2.1134   -3.1362 H   0  0  0  0  0  0  0  0  0  0  0  0
   -2.2314    3.0299   -2.1616 H   0  0  0  0  0  0  0  0  0  0  0  0
   -0.4895    3.3659   -2.0143 H   0  0  0  0  0  0  0  0  0  0  0  0
  5  6  2  0  0  0  0
  5  7  1  0  0  0  0
  2  3  1  0  0  0  0
  2  4  1  0  0  0  0
  2  5  1  0  0  0  0
  1  2  1  0  0  0  0
 19 20  2  0  0  0  0
 19 21  1  0  0  0  0
 16 17  1  0  0  0  0
 16 18  1  0  0  0  0
 14 15  2  0  0  0  0
 14 16  1  0  0  0  0
 11 12  1  0  0  0  0
 11 13  1  0  0  0  0
 11 14  1  0  0  0  0
  9 10  1  0  0  0  0
  9 11  1  0  0  0  0
  9 19  1  0  0  0  0
  7  8  1  0  0  0  0
  7  9  1  0  0  0  0
 23 24  1  0  0  0  0
 23 25  1  0  0  0  0
 23 26  1  0  0  0  0
 21 22  1  0  0  0  0
 21 23  1  0  0  0  0
M  END
$$$$
default_name
  -OEChem-01062215323D

 26 25  0     1  0  0  0  0  0999 V2000
   -3.0232   -3.6924    1.0038 H   0  0  0  0  0  0  0  0  0  0  0  0
   -3.0082   -2.6684    0.6318 C   0  0  0  0  0  0  0  0  0  0  0  0
   -3.6332   -2.0414    1.2658 H   0  0  0  0  0  0  0  0  0  0  0  0
   -3.3762   -2.6444   -0.3912 H   0  0  0  0  0  0  0  0  0  0  0  0
   -1.5882   -2.1554    0.6658 C   0  0  0  0  0  0  0  0  0  0  0  0
   -0.6832   -2.8764    1.0638 O   0  0  0  0  0  0  0  0  0  0  0  0
   -1.3952   -0.9084    0.2428 N   0  0  0  0  0  0  0  0  0  0  0  0
   -2.1972   -0.3644   -0.0422 H   0  0  0  0  0  0  0  0  0  0  0  0
   -0.1122   -0.1994    0.2658 C   0  0  1  0  0  0  0  0  0  0  0  0
   -0.0371    0.3524    1.2063 H   0  0  0  0  0  0  0  0  0  0  0  0
    1.0302   -1.2377    0.2039 C   0  0  0  0  0  0  0  0  0  0  0  0
    0.8361   -1.9345   -0.6108 H   0  0  0  0  0  0  0  0  0  0  0  0
    1.9698   -0.7262    0.0003 H   0  0  0  0  0  0  0  0  0  0  0  0
    1.1798   -2.0685    1.4681 C   0  0  0  0  0  0  0  0  0  0  0  0
    1.0984   -1.5936    2.5875 O   0  0  0  0  0  0  0  0  0  0  0  0
    1.4157   -3.3509    1.3331 N   0  0  0  0  0  0  0  0  0  0  0  0
    1.4924   -3.8776    2.1854 H   0  0  0  0  0  0  0  0  0  0  0  0
    1.4682   -3.7691    0.4235 H   0  0  0  0  0  0  0  0  0  0  0  0
   -0.0528    0.8191   -0.8939 C   0  0  0  0  0  0  0  0  0  0  0  0
    0.8325    0.7301   -1.7447 O   0  0  0  0  0  0  0  0  0  0  0  0
   -0.9778    1.7834   -0.9240 N   0  0  0  0  0  0  0  0  0  0  0  0
   -1.6241    1.8285   -0.1426 H   0  0  0  0  0  0  0  0  0  0  0  0
   -1.0669    2.8133   -1.9574 C   0  0  0  0  0  0  0  0  0  0  0  0
   -1.1506    2.3429   -2.9395 H   0  0  0  0  0  0  0  0  0  0  0  0
   -1.9408    3.4428   -1.7841 H   0  0  0  0  0  0  0  0  0  0  0  0
   -0.1676    3.4314   -1.9403 H   0  0  0  0  0  0  0  0  0  0  0  0
  5  6  2  0  0  0  0
  5  7  1  0  0  0  0
  2  3  1  0  0  0  0
  2  4  1  0  0  0  0
  2  5  1  0  0  0  0
  1  2  1  0  0  0  0
 19 20  2  0  0  0  0
 19 21  1  0  0  0  0
 16 17  1  0  0  0  0
 16 18  1  0  0  0  0
 14 15  2  0  0  0  0
 14 16  1  0  0  0  0
 11 12  1  0  0  0  0
 11 13  1  0  0  0  0
 11 14  1  0  0  0  0
  9 10  1  0  0  0  0
  9 11  1  0  0  0  0
  9 19  1  0  0  0  0
  7  8  1  0  0  0  0
  7  9  1  0  0  0  0
 23 24  1  0  0  0  0
 23 25  1  0  0  0  0
 23 26  1  0  0  0  0
 21 22  1  0  0  0  0
 21 23  1  0  0  0  0
M  END
$$$$
default_name
  -OEChem-01062215323D

 26 25  0     1  0  0  0  0  0999 V2000
   -3.0232   -3.6924    1.0038 H   0  0  0  0  0  0  0  0  0  0  0  0
   -3.0082   -2.6684    0.6318 C   0  0  0  0  0  0  0  0  0  0  0  0
   -3.6332   -2.0414    1.2658 H   0  0  0  0  0  0  0  0  0  0  0  0
   -3.3762   -2.6444   -0.3912 H   0  0  0  0  0  0  0  0  0  0  0  0
   -1.5882   -2.1554    0.6658 C   0  0  0  0  0  0  0  0  0  0  0  0
   -0.6832   -2.8764    1.0638 O   0  0  0  0  0  0  0  0  0  0  0  0
   -1.3952   -0.9084    0.2428 N   0  0  0  0  0  0  0  0  0  0  0  0
   -2.1972   -0.3644   -0.0422 H   0  0  0  0  0  0  0  0  0  0  0  0
   -0.1122   -0.1994    0.2658 C   0  0  1  0  0  0  0  0  0  0  0  0
   -0.0371    0.3524    1.2063 H   0  0  0  0  0  0  0  0  0  0  0  0
    1.0302   -1.2377    0.2039 C   0  0  0  0  0  0  0  0  0  0  0  0
    0.8361   -1.9345   -0.6108 H   0  0  0  0  0  0  0  0  0  0  0  0
    1.9698   -0.7262    0.0003 H   0  0  0  0  0  0  0  0  0  0  0  0
    1.1798   -2.0685    1.4681 C   0  0  0  0  0  0  0  0  0  0  0  0
    1.0984   -1.5936    2.5875 O   0  0  0  0  0  0  0  0  0  0  0  0
    1.4157   -3.3509    1.3331 N   0  0  0  0  0  0  0  0  0  0  0  0
    1.4924   -3.8776    2.1854 H   0  0  0  0  0  0  0  0  0  0  0  0
    1.4682   -3.7691    0.4235 H   0  0  0  0  0  0  0  0  0  0  0  0
   -0.0528    0.8191   -0.8939 C   0  0  0  0  0  0  0  0  0  0  0  0
    0.6406    0.5834   -1.8834 O   0  0  0  0  0  0  0  0  0  0  0  0
   -0.7632    1.9446   -0.7714 N   0  0  0  0  0  0  0  0  0  0  0  0
   -1.2461    2.0929    0.1090 H   0  0  0  0  0  0  0  0  0  0  0  0
   -0.8236    2.9997   -1.7813 C   0  0  0  0  0  0  0  0  0  0  0  0
   -1.1629    2.5808   -2.7311 H   0  0  0  0  0  0  0  0  0  0  0  0
   -1.5155    3.7814   -1.4649 H   0  0  0  0  0  0  0  0  0  0  0  0
    0.1686    3.4313   -1.9231 H   0  0  0  0  0  0  0  0  0  0  0  0
  5  6  2  0  0  0  0
  5  7  1  0  0  0  0
  2  3  1  0  0  0  0
  2  4  1  0  0  0  0
  2  5  1  0  0  0  0
  1  2  1  0  0  0  0
 19 20  2  0  0  0  0
 19 21  1  0  0  0  0
 16 17  1  0  0  0  0
 16 18  1  0  0  0  0
 14 15  2  0  0  0  0
 14 16  1  0  0  0  0
 11 12  1  0  0  0  0
 11 13  1  0  0  0  0
 11 14  1  0  0  0  0
  9 10  1  0  0  0  0
  9 11  1  0  0  0  0
  9 19  1  0  0  0  0
  7  8  1  0  0  0  0
  7  9  1  0  0  0  0
 23 24  1  0  0  0  0
 23 25  1  0  0  0  0
 23 26  1  0  0  0  0
 21 22  1  0  0  0  0
 21 23  1  0  0  0  0
M  END
$$$$
default_name
  -OEChem-01062215323D

 26 25  0     1  0  0  0  0  0999 V2000
   -3.0232   -3.6924    1.0038 H   0  0  0  0  0  0  0  0  0  0  0  0
   -3.0082   -2.6684    0.6318 C   0  0  0  0  0  0  0  0  0  0  0  0
   -3.6332   -2.0414    1.2658 H   0  0  0  0  0  0  0  0  0  0  0  0
   -3.3762   -2.6444   -0.3912 H   0  0  0  0  0  0  0  0  0  0  0  0
   -1.5882   -2.1554    0.6658 C   0  0  0  0  0  0  0  0  0  0  0  0
   -0.6832   -2.8764    1.0638 O   0  0  0  0  0  0  0  0  0  0  0  0
   -1.3952   -0.9084    0.2428 N   0  0  0  0  0  0  0  0  0  0  0  0
   -2.1972   -0.3644   -0.0422 H   0  0  0  0  0  0  0  0  0  0  0  0
   -0.1122   -0.1994    0.2658 C   0  0  1  0  0  0  0  0  0  0  0  0
   -0.0371    0.3524    1.2063 H   0  0  0  0  0  0  0  0  0  0  0  0
    1.0302   -1.2377    0.2039 C   0  0  0  0  0  0  0  0  0  0  0  0
    0.8361   -1.9345   -0.6108 H   0  0  0  0  0  0  0  0  0  0  0  0
    1.9698   -0.7262    0.0003 H   0  0  0  0  0  0  0  0  0  0  0  0
    1.1798   -2.0685    1.4681 C   0  0  0  0  0  0  0  0  0  0  0  0
    1.0984   -1.5936    2.5875 O   0  0  0  0  0  0  0  0  0  0  0  0
    1.4157   -3.3509    1.3331 N   0  0  0  0  0  0  0  0  0  0  0  0
    1.4924   -3.8776    2.1854 H   0  0  0  0  0  0  0  0  0  0  0  0
    1.4682   -3.7691    0.4235 H   0  0  0  0  0  0  0  0  0  0  0  0
   -0.0528    0.8191   -0.8939 C   0  0  0  0  0  0  0  0  0  0  0  0
    0.4031    0.4803   -1.9861 O   0  0  0  0  0  0  0  0  0  0  0  0
   -0.4986    2.0570   -0.6591 N   0  0  0  0  0  0  0  0  0  0  0  0
   -0.7867    2.2723    0.2901 H   0  0  0  0  0  0  0  0  0  0  0  0
   -0.5223    3.1306   -1.6509 C   0  0  0  0  0  0  0  0  0  0  0  0
   -1.0930    2.8109   -2.5255 H   0  0  0  0  0  0  0  0  0  0  0  0
   -0.9844    4.0227   -1.2258 H   0  0  0  0  0  0  0  0  0  0  0  0
    0.4963    3.3658   -1.9639 H   0  0  0  0  0  0  0  0  0  0  0  0
  5  6  2  0  0  0  0
  5  7  1  0  0  0  0
  2  3  1  0  0  0  0
  2  4  1  0  0  0  0
  2  5  1  0  0  0  0
  1  2  1  0  0  0  0
 19 20  2  0  0  0  0
 19 21  1  0  0  0  0
 16 17  1  0  0  0  0
 16 18  1  0  0  0  0
 14 15  2  0  0  0  0
 14 16  1  0  0  0  0
 11 12  1  0  0  0  0
 11 13  1  0  0  0  0
 11 14  1  0  0  0  0
  9 10  1  0  0  0  0
  9 11  1  0  0  0  0
  9 19  1  0  0  0  0
  7  8  1  0  0  0  0
  7  9  1  0  0  0  0
 23 24  1  0  0  0  0
 23 25  1  0  0  0  0
 23 26  1  0  0  0  0
 21 22  1  0  0  0  0
 21 23  1  0  0  0  0
M  END
$$$$
default_name
  -OEChem-01062215323D

 26 25  0     1  0  0  0  0  0999 V2000
   -3.0232   -3.6924    1.0038 H   0  0  0  0  0  0  0  0  0  0  0  0
   -3.0082   -2.6684    0.6318 C   0  0  0  0  0  0  0  0  0  0  0  0
   -3.6332   -2.0414    1.2658 H   0  0  0  0  0  0  0  0  0  0  0  0
   -3.3762   -2.6444   -0.3912 H   0  0  0  0  0  0  0  0  0  0  0  0
   -1.5882   -2.1554    0.6658 C   0  0  0  0  0  0  0  0  0  0  0  0
   -0.6832   -2.8764    1.0638 O   0  0  0  0  0  0  0  0  0  0  0  0
   -1.3952   -0.9084    0.2428 N   0  0  0  0  0  0  0  0  0  0  0  0
   -2.1972   -0.3644   -0.0422 H   0  0  0  0  0  0  0  0  0  0  0  0
   -0.1122   -0.1994    0.2658 C   0  0  1  0  0  0  0  0  0  0  0  0
   -0.0371    0.3524    1.2063 H   0  0  0  0  0  0  0  0  0  0  0  0
    1.0302   -1.2377    0.2039 C   0  0  0  0  0  0  0  0  0  0  0  0
    0.8361   -1.9345   -0.6108 H   0  0  0  0  0  0  0  0  0  0  0  0
    1.9698   -0.7262    0.0003 H   0  0  0  0  0  0  0  0  0  0  0  0
    1.1798   -2.0685    1.4681 C   0  0  0  0  0  0  0  0  0  0  0  0
    1.0984   -1.5936    2.5875 O   0  0  0  0  0  0  0  0  0  0  0  0
    1.4157   -3.3509    1.3331 N   0  0  0  0  0  0  0  0  0  0  0  0
    1.4924   -3.8776    2.1854 H   0  0  0  0  0  0  0  0  0  0  0  0
    1.4682   -3.7691    0.4235 H   0  0  0  0  0  0  0  0  0  0  0  0
   -0.0528    0.8191   -0.8939 C   0  0  0  0  0  0  0  0  0  0  0  0
    0.1362    0.4280   -2.0458 O   0  0  0  0  0  0  0  0  0  0  0  0
   -0.2019    2.1131   -0.5946 N   0  0  0  0  0  0  0  0  0  0  0  0
   -0.2772    2.3545    0.3884 H   0  0  0  0  0  0  0  0  0  0  0  0
   -0.1836    3.1972   -1.5750 C   0  0  0  0  0  0  0  0  0  0  0  0
   -0.9457    3.0176   -2.3364 H   0  0  0  0  0  0  0  0  0  0  0  0
   -0.3838    4.1501   -1.0831 H   0  0  0  0  0  0  0  0  0  0  0  0
    0.7932    3.2392   -2.0598 H   0  0  0  0  0  0  0  0  0  0  0  0
  5  6  2  0  0  0  0
  5  7  1  0  0  0  0
  2  3  1  0  0  0  0
  2  4  1  0  0  0  0
  2  5  1  0  0  0  0
  1  2  1  0  0  0  0
 19 20  2  0  0  0  0
 19 21  1  0  0  0  0
 16 17  1  0  0  0  0
 16 18  1  0  0  0  0
 14 15  2  0  0  0  0
 14 16  1  0  0  0  0
 11 12  1  0  0  0  0
 11 13  1  0  0  0  0
 11 14  1  0  0  0  0
  9 10  1  0  0  0  0
  9 11  1  0  0  0  0
  9 19  1  0  0  0  0
  7  8  1  0  0  0  0
  7  9  1  0  0  0  0
 23 24  1  0  0  0  0
 23 25  1  0  0  0  0
 23 26  1  0  0  0  0
 21 22  1  0  0  0  0
 21 23  1  0  0  0  0
M  END
$$$$
default_name
  -OEChem-01062215323D

 26 25  0     1  0  0  0  0  0999 V2000
   -3.0232   -3.6924    1.0038 H   0  0  0  0  0  0  0  0  0  0  0  0
   -3.0082   -2.6684    0.6318 C   0  0  0  0  0  0  0  0  0  0  0  0
   -3.6332   -2.0414    1.2658 H   0  0  0  0  0  0  0  0  0  0  0  0
   -3.3762   -2.6444   -0.3912 H   0  0  0  0  0  0  0  0  0  0  0  0
   -1.5882   -2.1554    0.6658 C   0  0  0  0  0  0  0  0  0  0  0  0
   -0.6832   -2.8764    1.0638 O   0  0  0  0  0  0  0  0  0  0  0  0
   -1.3952   -0.9084    0.2428 N   0  0  0  0  0  0  0  0  0  0  0  0
   -2.1972   -0.3644   -0.0422 H   0  0  0  0  0  0  0  0  0  0  0  0
   -0.1122   -0.1994    0.2658 C   0  0  1  0  0  0  0  0  0  0  0  0
   -0.0371    0.3524    1.2063 H   0  0  0  0  0  0  0  0  0  0  0  0
    1.0302   -1.2377    0.2039 C   0  0  0  0  0  0  0  0  0  0  0  0
    0.8361   -1.9345   -0.6108 H   0  0  0  0  0  0  0  0  0  0  0  0
    1.9698   -0.7262    0.0003 H   0  0  0  0  0  0  0  0  0  0  0  0
    1.1798   -2.0685    1.4681 C   0  0  0  0  0  0  0  0  0  0  0  0
    1.0984   -1.5936    2.5875 O   0  0  0  0  0  0  0  0  0  0  0  0
    1.4157   -3.3509    1.3331 N   0  0  0  0  0  0  0  0  0  0  0  0
    1.4924   -3.8776    2.1854 H   0  0  0  0  0  0  0  0  0  0  0  0
    1.4682   -3.7691    0.4235 H   0  0  0  0  0  0  0  0  0  0  0  0
   -0.0528    0.8191   -0.8939 C   0  0  0  0  0  0  0  0  0  0  0  0
   -0.1421    0.4299   -2.0584 O   0  0  0  0  0  0  0  0  0  0  0  0
    0.1065    2.1090   -0.5824 N   0  0  0  0  0  0  0  0  0  0  0  0
    0.2477    2.3340    0.3973 H   0  0  0  0  0  0  0  0  0  0  0  0
    0.1694    3.1950   -1.5589 C   0  0  0  0  0  0  0  0  0  0  0  0
   -0.7310    3.1867   -2.1769 H   0  0  0  0  0  0  0  0  0  0  0  0
    0.2456    4.1551   -1.0465 H   0  0  0  0  0  0  0  0  0  0  0  0
    1.0389    3.0603   -2.2044 H   0  0  0  0  0  0  0  0  0  0  0  0
  5  6  2  0  0  0  0
  5  7  1  0  0  0  0
  2  3  1  0  0  0  0
  2  4  1  0  0  0  0
  2  5  1  0  0  0  0
  1  2  1  0  0  0  0
 19 20  2  0  0  0  0
 19 21  1  0  0  0  0
 16 17  1  0  0  0  0
 16 18  1  0  0  0  0
 14 15  2  0  0  0  0
 14 16  1  0  0  0  0
 11 12  1  0  0  0  0
 11 13  1  0  0  0  0
 11 14  1  0  0  0  0
  9 10  1  0  0  0  0
  9 11  1  0  0  0  0
  9 19  1  0  0  0  0
  7  8  1  0  0  0  0
  7  9  1  0  0  0  0
 23 24  1  0  0  0  0
 23 25  1  0  0  0  0
 23 26  1  0  0  0  0
 21 22  1  0  0  0  0
 21 23  1  0  0  0  0
M  END
$$$$
default_name
  -OEChem-01062215323D

 26 25  0     1  0  0  0  0  0999 V2000
   -3.0232   -3.6924    1.0038 H   0  0  0  0  0  0  0  0  0  0  0  0
   -3.0082   -2.6684    0.6318 C   0  0  0  0  0  0  0  0  0  0  0  0
   -3.6332   -2.0414    1.2658 H   0  0  0  0  0  0  0  0  0  0  0  0
   -3.3762   -2.6444   -0.3912 H   0  0  0  0  0  0  0  0  0  0  0  0
   -1.5882   -2.1554    0.6658 C   0  0  0  0  0  0  0  0  0  0  0  0
   -0.6832   -2.8764    1.0638 O   0  0  0  0  0  0  0  0  0  0  0  0
   -1.3952   -0.9084    0.2428 N   0  0  0  0  0  0  0  0  0  0  0  0
   -2.1972   -0.3644   -0.0422 H   0  0  0  0  0  0  0  0  0  0  0  0
   -0.1122   -0.1994    0.2658 C   0  0  1  0  0  0  0  0  0  0  0  0
   -0.0371    0.3524    1.2063 H   0  0  0  0  0  0  0  0  0  0  0  0
    1.0302   -1.2377    0.2039 C   0  0  0  0  0  0  0  0  0  0  0  0
    0.8361   -1.9345   -0.6108 H   0  0  0  0  0  0  0  0  0  0  0  0
    1.9698   -0.7262    0.0003 H   0  0  0  0  0  0  0  0  0  0  0  0
    1.1798   -2.0685    1.4681 C   0  0  0  0  0  0  0  0  0  0  0  0
    1.0984   -1.5936    2.5875 O   0  0  0  0  0  0  0  0  0  0  0  0
    1.4157   -3.3509    1.3331 N   0  0  0  0  0  0  0  0  0  0  0  0
    1.4924   -3.8776    2.1854 H   0  0  0  0  0  0  0  0  0  0  0  0
    1.4682   -3.7691    0.4235 H   0  0  0  0  0  0  0  0  0  0  0  0
   -0.0528    0.8191   -0.8939 C   0  0  0  0  0  0  0  0  0  0  0  0
   -0.4126    0.4859   -2.0230 O   0  0  0  0  0  0  0  0  0  0  0  0
    0.4057    2.0450   -0.6233 N   0  0  0  0  0  0  0  0  0  0  0  0
    0.7523    2.2121    0.3160 H   0  0  0  0  0  0  0  0  0  0  0  0
    0.5128    3.1241   -1.6035 C   0  0  0  0  0  0  0  0  0  0  0  0
   -0.4635    3.3067   -2.0578 H   0  0  0  0  0  0  0  0  0  0  0  0
    0.8607    4.0372   -1.1185 H   0  0  0  0  0  0  0  0  0  0  0  0
    1.2169    2.8411   -2.3878 H   0  0  0  0  0  0  0  0  0  0  0  0
  5  6  2  0  0  0  0
  5  7  1  0  0  0  0
  2  3  1  0  0  0  0
  2  4  1  0  0  0  0
  2  5  1  0  0  0  0
  1  2  1  0  0  0  0
 19 20  2  0  0  0  0
 19 21  1  0  0  0  0
 16 17  1  0  0  0  0
 16 18  1  0  0  0  0
 14 15  2  0  0  0  0
 14 16  1  0  0  0  0
 11 12  1  0  0  0  0
 11 13  1  0  0  0  0
 11 14  1  0  0  0  0
  9 10  1  0  0  0  0
  9 11  1  0  0  0  0
  9 19  1  0  0  0  0
  7  8  1  0  0  0  0
  7  9  1  0  0  0  0
 23 24  1  0  0  0  0
 23 25  1  0  0  0  0
 23 26  1  0  0  0  0
 21 22  1  0  0  0  0
 21 23  1  0  0  0  0
M  END
$$$$
default_name
  -OEChem-01062215323D

 26 25  0     1  0  0  0  0  0999 V2000
   -3.0232   -3.6924    1.0038 H   0  0  0  0  0  0  0  0  0  0  0  0
   -3.0082   -2.6684    0.6318 C   0  0  0  0  0  0  0  0  0  0  0  0
   -3.6332   -2.0414    1.2658 H   0  0  0  0  0  0  0  0  0  0  0  0
   -3.3762   -2.6444   -0.3912 H   0  0  0  0  0  0  0  0  0  0  0  0
   -1.5882   -2.1554    0.6658 C   0  0  0  0  0  0  0  0  0  0  0  0
   -0.6832   -2.8764    1.0638 O   0  0  0  0  0  0  0  0  0  0  0  0
   -1.3952   -0.9084    0.2428 N   0  0  0  0  0  0  0  0  0  0  0  0
   -2.1972   -0.3644   -0.0422 H   0  0  0  0  0  0  0  0  0  0  0  0
   -0.1122   -0.1994    0.2658 C   0  0  1  0  0  0  0  0  0  0  0  0
   -0.0371    0.3524    1.2063 H   0  0  0  0  0  0  0  0  0  0  0  0
    1.0302   -1.2377    0.2039 C   0  0  0  0  0  0  0  0  0  0  0  0
    0.8361   -1.9345   -0.6108 H   0  0  0  0  0  0  0  0  0  0  0  0
    1.9698   -0.7262    0.0003 H   0  0  0  0  0  0  0  0  0  0  0  0
    1.1798   -2.0685    1.4681 C   0  0  0  0  0  0  0  0  0  0  0  0
    1.0984   -1.5936    2.5875 O   0  0  0  0  0  0  0  0  0  0  0  0
    1.4157   -3.3509    1.3331 N   0  0  0  0  0  0  0  0  0  0  0  0
    1.4924   -3.8776    2.1854 H   0  0  0  0  0  0  0  0  0  0  0  0
    1.4682   -3.7691    0.4235 H   0  0  0  0  0  0  0  0  0  0  0  0
   -0.0528    0.8191   -0.8939 C   0  0  0  0  0  0  0  0  0  0  0  0
   -0.6570    0.5922   -1.9422 O   0  0  0  0  0  0  0  0  0  0  0  0
    0.6753    1.9254   -0.7145 N   0  0  0  0  0  0  0  0  0  0  0  0
    1.2021    1.9970    0.1502 H   0  0  0  0  0  0  0  0  0  0  0  0
    0.8230    2.9893   -1.7060 C   0  0  0  0  0  0  0  0  0  0  0  0
   -0.1614    3.3695   -1.9872 H   0  0  0  0  0  0  0  0  0  0  0  0
    1.4196    3.8046   -1.2942 H   0  0  0  0  0  0  0  0  0  0  0  0
    1.3148    2.5966   -2.5975 H   0  0  0  0  0  0  0  0  0  0  0  0
  5  6  2  0  0  0  0
  5  7  1  0  0  0  0
  2  3  1  0  0  0  0
  2  4  1  0  0  0  0
  2  5  1  0  0  0  0
  1  2  1  0  0  0  0
 19 20  2  0  0  0  0
 19 21  1  0  0  0  0
 16 17  1  0  0  0  0
 16 18  1  0  0  0  0
 14 15  2  0  0  0  0
 14 16  1  0  0  0  0
 11 12  1  0  0  0  0
 11 13  1  0  0  0  0
 11 14  1  0  0  0  0
  9 10  1  0  0  0  0
  9 11  1  0  0  0  0
  9 19  1  0  0  0  0
  7  8  1  0  0  0  0
  7  9  1  0  0  0  0
 23 24  1  0  0  0  0
 23 25  1  0  0  0  0
 23 26  1  0  0  0  0
 21 22  1  0  0  0  0
 21 23  1  0  0  0  0
M  END
$$$$
default_name
  -OEChem-01062215323D

 26 25  0     1  0  0  0  0  0999 V2000
   -3.0232   -3.6924    1.0038 H   0  0  0  0  0  0  0  0  0  0  0  0
   -3.0082   -2.6684    0.6318 C   0  0  0  0  0  0  0  0  0  0  0  0
   -3.6332   -2.0414    1.2658 H   0  0  0  0  0  0  0  0  0  0  0  0
   -3.3762   -2.6444   -0.3912 H   0  0  0  0  0  0  0  0  0  0  0  0
   -1.5882   -2.1554    0.6658 C   0  0  0  0  0  0  0  0  0  0  0  0
   -0.6832   -2.8764    1.0638 O   0  0  0  0  0  0  0  0  0  0  0  0
   -1.3952   -0.9084    0.2428 N   0  0  0  0  0  0  0  0  0  0  0  0
   -2.1972   -0.3644   -0.0422 H   0  0  0  0  0  0  0  0  0  0  0  0
   -0.1122   -0.1994    0.2658 C   0  0  1  0  0  0  0  0  0  0  0  0
   -0.0371    0.3524    1.2063 H   0  0  0  0  0  0  0  0  0  0  0  0
    1.0302   -1.2377    0.2039 C   0  0  0  0  0  0  0  0  0  0  0  0
    0.8361   -1.9345   -0.6108 H   0  0  0  0  0  0  0  0  0  0  0  0
    1.9698   -0.7262    0.0003 H   0  0  0  0  0  0  0  0  0  0  0  0
    1.1798   -2.0685    1.4681 C   0  0  0  0  0  0  0  0  0  0  0  0
    1.0984   -1.5936    2.5875 O   0  0  0  0  0  0  0  0  0  0  0  0
    1.4157   -3.3509    1.3331 N   0  0  0  0  0  0  0  0  0  0  0  0
    1.4924   -3.8776    2.1854 H   0  0  0  0  0  0  0  0  0  0  0  0
    1.4682   -3.7691    0.4235 H   0  0  0  0  0  0  0  0  0  0  0  0
   -0.0528    0.8191   -0.8939 C   0  0  0  0  0  0  0  0  0  0  0  0
   -0.8586    0.7416   -1.8213 O   0  0  0  0  0  0  0  0  0  0  0  0
    0.8969    1.7585   -0.8498 N   0  0  0  0  0  0  0  0  0  0  0  0
    1.5664    1.7036   -0.0888 H   0  0  0  0  0  0  0  0  0  0  0  0
    1.0790    2.7999   -1.8593 C   0  0  0  0  0  0  0  0  0  0  0  0
    0.1545    3.3707   -1.9699 H   0  0  0  0  0  0  0  0  0  0  0  0
    1.8843    3.4729   -1.5617 H   0  0  0  0  0  0  0  0  0  0  0  0
    1.3262    2.3435   -2.8192 H   0  0  0  0  0  0  0  0  0  0  0  0
  5  6  2  0  0  0  0
  5  7  1  0  0  0  0
  2  3  1  0  0  0  0
  2  4  1  0  0  0  0
  2  5  1  0  0  0  0
  1  2  1  0  0  0  0
 19 20  2  0  0  0  0
 19 21  1  0  0  0  0
 16 17  1  0  0  0  0
 16 18  1  0  0  0  0
 14 15  2  0  0  0  0
 14 16  1  0  0  0  0
 11 12  1  0  0  0  0
 11 13  1  0  0  0  0
 11 14  1  0  0  0  0
  9 10  1  0  0  0  0
  9 11  1  0  0  0  0
  9 19  1  0  0  0  0
  7  8  1  0  0  0  0
  7  9  1  0  0  0  0
 23 24  1  0  0  0  0
 23 25  1  0  0  0  0
 23 26  1  0  0  0  0
 21 22  1  0  0  0  0
 21 23  1  0  0  0  0
M  END
$$$$
default_name
  -OEChem-01062215323D

 26 25  0     1  0  0  0  0  0999 V2000
   -3.0232   -3.6924    1.0038 H   0  0  0  0  0  0  0  0  0  0  0  0
   -3.0082   -2.6684    0.6318 C   0  0  0  0  0  0  0  0  0  0  0  0
   -3.6332   -2.0414    1.2658 H   0  0  0  0  0  0  0  0  0  0  0  0
   -3.3762   -2.6444   -0.3912 H   0  0  0  0  0  0  0  0  0  0  0  0
   -1.5882   -2.1554    0.6658 C   0  0  0  0  0  0  0  0  0  0  0  0
   -0.6832   -2.8764    1.0638 O   0  0  0  0  0  0  0  0  0  0  0  0
   -1.3952   -0.9084    0.2428 N   0  0  0  0  0  0  0  0  0  0  0  0
   -2.1972   -0.3644   -0.0422 H   0  0  0  0  0  0  0  0  0  0  0  0
   -0.1122   -0.1994    0.2658 C   0  0  1  0  0  0  0  0  0  0  0  0
    0.0862    0.1266    1.2901 H   0  0  0  0  0  0  0  0  0  0  0  0
    1.0026   -1.1755   -0.1719 C   0  0  0  0  0  0  0  0  0  0  0  0
    0.7004   -1.6734   -1.0926 H   0  0  0  0  0  0  0  0  0  0  0  0
    1.9143   -0.6139   -0.3698 H   0  0  0  0  0  0  0  0  0  0  0  0
    1.3012   -2.2679    0.8422 C   0  0  0  0  0  0  0  0  0  0  0  0
    1.3659   -2.0601    2.0413 O   0  0  0  0  0  0  0  0  0  0  0  0
    1.5049   -3.4818    0.3916 N   0  0  0  0  0  0  0  0  0  0  0  0
    1.6826   -4.1862    1.0858 H   0  0  0  0  0  0  0  0  0  0  0  0
    1.4384   -3.6824   -0.5884 H   0  0  0  0  0  0  0  0  0  0  0  0
   -0.1884    1.0560   -0.6309 C   0  0  0  0  0  0  0  0  0  0  0  0
   -1.2280    1.3157   -1.2369 O   0  0  0  0  0  0  0  0  0  0  0  0
    0.9028    1.8221   -0.7238 N   0  0  0  0  0  0  0  0  0  0  0  0
    1.7395    1.4941   -0.2520 H   0  0  0  0  0  0  0  0  0  0  0  0
    0.9897    3.0464   -1.5177 C   0  0  0  0  0  0  0  0  0  0  0  0
    0.2092    3.7436   -1.2056 H   0  0  0  0  0  0  0  0  0  0  0  0
    1.9658    3.5135   -1.3797 H   0  0  0  0  0  0  0  0  0  0  0  0
    0.8480    2.8116   -2.5740 H   0  0  0  0  0  0  0  0  0  0  0  0
  5  6  2  0  0  0  0
  5  7  1  0  0  0  0
  2  3  1  0  0  0  0
  2  4  1  0  0  0  0
  2  5  1  0  0  0  0
  1  2  1  0  0  0  0
 19 20  2  0  0  0  0
 19 21  1  0  0  0  0
 16 17  1  0  0  0  0
 16 18  1  0  0  0  0
 14 15  2  0  0  0  0
 14 16  1  0  0  0  0
 11 12  1  0  0  0  0
 11 13  1  0  0  0  0
 11 14  1  0  0  0  0
  9 10  1  0  0  0  0
  9 11  1  0  0  0  0
  9 19  1  0  0  0  0
  7  8  1  0  0  0  0
  7  9  1  0  0  0  0
 23 24  1  0  0  0  0
 23 25  1  0  0  0  0
 23 26  1  0  0  0  0
 21 22  1  0  0  0  0
 21 23  1  0  0  0  0
M  END
$$$$
default_name
  -OEChem-01062215323D

 26 25  0     1  0  0  0  0  0999 V2000
   -3.0232   -3.6924    1.0038 H   0  0  0  0  0  0  0  0  0  0  0  0
   -3.0082   -2.6684    0.6318 C   0  0  0  0  0  0  0  0  0  0  0  0
   -3.6332   -2.0414    1.2658 H   0  0  0  0  0  0  0  0  0  0  0  0
   -3.3762   -2.6444   -0.3912 H   0  0  0  0  0  0  0  0  0  0  0  0
   -1.5882   -2.1554    0.6658 C   0  0  0  0  0  0  0  0  0  0  0  0
   -0.6832   -2.8764    1.0638 O   0  0  0  0  0  0  0  0  0  0  0  0
   -1.3952   -0.9084    0.2428 N   0  0  0  0  0  0  0  0  0  0  0  0
   -2.1972   -0.3644   -0.0422 H   0  0  0  0  0  0  0  0  0  0  0  0
   -0.1122   -0.1994    0.2658 C   0  0  1  0  0  0  0  0  0  0  0  0
    0.0862    0.1266    1.2901 H   0  0  0  0  0  0  0  0  0  0  0  0
    1.0026   -1.1755   -0.1719 C   0  0  0  0  0  0  0  0  0  0  0  0
    0.7004   -1.6734   -1.0926 H   0  0  0  0  0  0  0  0  0  0  0  0
    1.9143   -0.6139   -0.3698 H   0  0  0  0  0  0  0  0  0  0  0  0
    1.3012   -2.2679    0.8422 C   0  0  0  0  0  0  0  0  0  0  0  0
    1.3659   -2.0601    2.0413 O   0  0  0  0  0  0  0  0  0  0  0  0
    1.5049   -3.4818    0.3916 N   0  0  0  0  0  0  0  0  0  0  0  0
    1.6826   -4.1862    1.0858 H   0  0  0  0  0  0  0  0  0  0  0  0
    1.4384   -3.6824   -0.5884 H   0  0  0  0  0  0  0  0  0  0  0  0
   -0.1884    1.0560   -0.6309 C   0  0  0  0  0  0  0  0  0  0  0  0
   -1.2821    1.4723   -1.0130 O   0  0  0  0  0  0  0  0  0  0  0  0
    0.9601    1.6481   -0.9723 N   0  0  0  0  0  0  0  0  0  0  0  0
    1.8193    1.1955   -0.6768 H   0  0  0  0  0  0  0  0  0  0  0  0
    1.0586    2.8477   -1.8018 C   0  0  0  0  0  0  0  0  0  0  0  0
    0.4743    3.6541   -1.3534 H   0  0  0  0  0  0  0  0  0  0  0  0
    2.1002    3.1610   -1.8847 H   0  0  0  0  0  0  0  0  0  0  0  0
    0.6635    2.6406   -2.7977 H   0  0  0  0  0  0  0  0  0  0  0  0
  5  6  2  0  0  0  0
  5  7  1  0  0  0  0
  2  3  1  0  0  0  0
  2  4  1  0  0  0  0
  2  5  1  0  0  0  0
  1  2  1  0  0  0  0
 19 20  2  0  0  0  0
 19 21  1  0  0  0  0
 16 17  1  0  0  0  0
 16 18  1  0  0  0  0
 14 15  2  0  0  0  0
 14 16  1  0  0  0  0
 11 12  1  0  0  0  0
 11 13  1  0  0  0  0
 11 14  1  0  0  0  0
  9 10  1  0  0  0  0
  9 11  1  0  0  0  0
  9 19  1  0  0  0  0
  7  8  1  0  0  0  0
  7  9  1  0  0  0  0
 23 24  1  0  0  0  0
 23 25  1  0  0  0  0
 23 26  1  0  0  0  0
 21 22  1  0  0  0  0
 21 23  1  0  0  0  0
M  END
$$$$
default_name
  -OEChem-01062215323D

 26 25  0     1  0  0  0  0  0999 V2000
   -3.0232   -3.6924    1.0038 H   0  0  0  0  0  0  0  0  0  0  0  0
   -3.0082   -2.6684    0.6318 C   0  0  0  0  0  0  0  0  0  0  0  0
   -3.6332   -2.0414    1.2658 H   0  0  0  0  0  0  0  0  0  0  0  0
   -3.3762   -2.6444   -0.3912 H   0  0  0  0  0  0  0  0  0  0  0  0
   -1.5882   -2.1554    0.6658 C   0  0  0  0  0  0  0  0  0  0  0  0
   -0.6832   -2.8764    1.0638 O   0  0  0  0  0  0  0  0  0  0  0  0
   -1.3952   -0.9084    0.2428 N   0  0  0  0  0  0  0  0  0  0  0  0
   -2.1972   -0.3644   -0.0422 H   0  0  0  0  0  0  0  0  0  0  0  0
   -0.1122   -0.1994    0.2658 C   0  0  1  0  0  0  0  0  0  0  0  0
    0.0862    0.1266    1.2901 H   0  0  0  0  0  0  0  0  0  0  0  0
    1.0026   -1.1755   -0.1719 C   0  0  0  0  0  0  0  0  0  0  0  0
    0.7004   -1.6734   -1.0926 H   0  0  0  0  0  0  0  0  0  0  0  0
    1.9143   -0.6139   -0.3698 H   0  0  0  0  0  0  0  0  0  0  0  0
    1.3012   -2.2679    0.8422 C   0  0  0  0  0  0  0  0  0  0  0  0
    1.3659   -2.0601    2.0413 O   0  0  0  0  0  0  0  0  0  0  0  0
    1.5049   -3.4818    0.3916 N   0  0  0  0  0  0  0  0  0  0  0  0
    1.6826   -4.1862    1.0858 H   0  0  0  0  0  0  0  0  0  0  0  0
    1.4384   -3.6824   -0.5884 H   0  0  0  0  0  0  0  0  0  0  0  0
   -0.1884    1.0560   -0.6309 C   0  0  0  0  0  0  0  0  0  0  0  0
   -1.2637    1.6346   -0.7874 O   0  0  0  0  0  0  0  0  0  0  0  0
    0.9371    1.4683   -1.2221 N   0  0  0  0  0  0  0  0  0  0  0  0
    1.7621    0.8897   -1.1002 H   0  0  0  0  0  0  0  0  0  0  0  0
    1.0355    2.6418   -2.0881 C   0  0  0  0  0  0  0  0  0  0  0  0
    0.6859    3.5260   -1.5508 H   0  0  0  0  0  0  0  0  0  0  0  0
    2.0708    2.7938   -2.3963 H   0  0  0  0  0  0  0  0  0  0  0  0
    0.4125    2.5003   -2.9729 H   0  0  0  0  0  0  0  0  0  0  0  0
  5  6  2  0  0  0  0
  5  7  1  0  0  0  0
  2  3  1  0  0  0  0
  2  4  1  0  0  0  0
  2  5  1  0  0  0  0
  1  2  1  0  0  0  0
 19 20  2  0  0  0  0
 19 21  1  0  0  0  0
 16 17  1  0  0  0  0
 16 18  1  0  0  0  0
 14 15  2  0  0  0  0
 14 16  1  0  0  0  0
 11 12  1  0  0  0  0
 11 13  1  0  0  0  0
 11 14  1  0  0  0  0
  9 10  1  0  0  0  0
  9 11  1  0  0  0  0
  9 19  1  0  0  0  0
  7  8  1  0  0  0  0
  7  9  1  0  0  0  0
 23 24  1  0  0  0  0
 23 25  1  0  0  0  0
 23 26  1  0  0  0  0
 21 22  1  0  0  0  0
 21 23  1  0  0  0  0
M  END
$$$$
default_name
  -OEChem-01062215323D

 26 25  0     1  0  0  0  0  0999 V2000
   -3.0232   -3.6924    1.0038 H   0  0  0  0  0  0  0  0  0  0  0  0
   -3.0082   -2.6684    0.6318 C   0  0  0  0  0  0  0  0  0  0  0  0
   -3.6332   -2.0414    1.2658 H   0  0  0  0  0  0  0  0  0  0  0  0
   -3.3762   -2.6444   -0.3912 H   0  0  0  0  0  0  0  0  0  0  0  0
   -1.5882   -2.1554    0.6658 C   0  0  0  0  0  0  0  0  0  0  0  0
   -0.6832   -2.8764    1.0638 O   0  0  0  0  0  0  0  0  0  0  0  0
   -1.3952   -0.9084    0.2428 N   0  0  0  0  0  0  0  0  0  0  0  0
   -2.1972   -0.3644   -0.0422 H   0  0  0  0  0  0  0  0  0  0  0  0
   -0.1122   -0.1994    0.2658 C   0  0  1  0  0  0  0  0  0  0  0  0
    0.0862    0.1266    1.2901 H   0  0  0  0  0  0  0  0  0  0  0  0
    1.0026   -1.1755   -0.1719 C   0  0  0  0  0  0  0  0  0  0  0  0
    0.7004   -1.6734   -1.0926 H   0  0  0  0  0  0  0  0  0  0  0  0
    1.9143   -0.6139   -0.3698 H   0  0  0  0  0  0  0  0  0  0  0  0
    1.3012   -2.2679    0.8422 C   0  0  0  0  0  0  0  0  0  0  0  0
    1.3659   -2.0601    2.0413 O   0  0  0  0  0  0  0  0  0  0  0  0
    1.5049   -3.4818    0.3916 N   0  0  0  0  0  0  0  0  0  0  0  0
    1.6826   -4.1862    1.0858 H   0  0  0  0  0  0  0  0  0  0  0  0
    1.4384   -3.6824   -0.5884 H   0  0  0  0  0  0  0  0  0  0  0  0
   -0.1884    1.0560   -0.6309 C   0  0  0  0  0  0  0  0  0  0  0  0
   -1.1741    1.7914   -0.5754 O   0  0  0  0  0  0  0  0  0  0  0  0
    0.8352    1.2948   -1.4563 N   0  0  0  0  0  0  0  0  0  0  0  0
    1.5718    0.5974   -1.4932 H   0  0  0  0  0  0  0  0  0  0  0  0
    0.9220    2.4427   -2.3572 C   0  0  0  0  0  0  0  0  0  0  0  0
    0.8295    3.3679   -1.7843 H   0  0  0  0  0  0  0  0  0  0  0  0
    1.8797    2.4370   -2.8796 H   0  0  0  0  0  0  0  0  0  0  0  0
    0.1121    2.4002   -3.0874 H   0  0  0  0  0  0  0  0  0  0  0  0
  5  6  2  0  0  0  0
  5  7  1  0  0  0  0
  2  3  1  0  0  0  0
  2  4  1  0  0  0  0
  2  5  1  0  0  0  0
  1  2  1  0  0  0  0
 19 20  2  0  0  0  0
 19 21  1  0  0  0  0
 16 17  1  0  0  0  0
 16 18  1  0  0  0  0
 14 15  2  0  0  0  0
 14 16  1  0  0  0  0
 11 12  1  0  0  0  0
 11 13  1  0  0  0  0
 11 14  1  0  0  0  0
  9 10  1  0  0  0  0
  9 11  1  0  0  0  0
  9 19  1  0  0  0  0
  7  8  1  0  0  0  0
  7  9  1  0  0  0  0
 23 24  1  0  0  0  0
 23 25  1  0  0  0  0
 23 26  1  0  0  0  0
 21 22  1  0  0  0  0
 21 23  1  0  0  0  0
M  END
$$$$
default_name
  -OEChem-01062215323D

 26 25  0     1  0  0  0  0  0999 V2000
   -3.0232   -3.6924    1.0038 H   0  0  0  0  0  0  0  0  0  0  0  0
   -3.0082   -2.6684    0.6318 C   0  0  0  0  0  0  0  0  0  0  0  0
   -3.6332   -2.0414    1.2658 H   0  0  0  0  0  0  0  0  0  0  0  0
   -3.3762   -2.6444   -0.3912 H   0  0  0  0  0  0  0  0  0  0  0  0
   -1.5882   -2.1554    0.6658 C   0  0  0  0  0  0  0  0  0  0  0  0
   -0.6832   -2.8764    1.0638 O   0  0  0  0  0  0  0  0  0  0  0  0
   -1.3952   -0.9084    0.2428 N   0  0  0  0  0  0  0  0  0  0  0  0
   -2.1972   -0.3644   -0.0422 H   0  0  0  0  0  0  0  0  0  0  0  0
   -0.1122   -0.1994    0.2658 C   0  0  1  0  0  0  0  0  0  0  0  0
    0.0862    0.1266    1.2901 H   0  0  0  0  0  0  0  0  0  0  0  0
    1.0026   -1.1755   -0.1719 C   0  0  0  0  0  0  0  0  0  0  0  0
    0.7004   -1.6734   -1.0926 H   0  0  0  0  0  0  0  0  0  0  0  0
    1.9143   -0.6139   -0.3698 H   0  0  0  0  0  0  0  0  0  0  0  0
    1.3012   -2.2679    0.8422 C   0  0  0  0  0  0  0  0  0  0  0  0
    1.3659   -2.0601    2.0413 O   0  0  0  0  0  0  0  0  0  0  0  0
    1.5049   -3.4818    0.3916 N   0  0  0  0  0  0  0  0  0  0  0  0
    1.6826   -4.1862    1.0858 H   0  0  0  0  0  0  0  0  0  0  0  0
    1.4384   -3.6824   -0.5884 H   0  0  0  0  0  0  0  0  0  0  0  0
   -0.1884    1.0560   -0.6309 C   0  0  0  0  0  0  0  0  0  0  0  0
   -1.0194    1.9322   -0.3915 O   0  0  0  0  0  0  0  0  0  0  0  0
    0.6615    1.1396   -1.6589 N   0  0  0  0  0  0  0  0  0  0  0  0
    1.2615    0.3387   -1.8290 H   0  0  0  0  0  0  0  0  0  0  0  0
    0.7259    2.2641   -2.5907 C   0  0  0  0  0  0  0  0  0  0  0  0
    0.8953    3.1907   -2.0380 H   0  0  0  0  0  0  0  0  0  0  0  0
    1.5397    2.1149   -3.3017 H   0  0  0  0  0  0  0  0  0  0  0  0
   -0.2171    2.3472   -3.1336 H   0  0  0  0  0  0  0  0  0  0  0  0
  5  6  2  0  0  0  0
  5  7  1  0  0  0  0
  2  3  1  0  0  0  0
  2  4  1  0  0  0  0
  2  5  1  0  0  0  0
  1  2  1  0  0  0  0
 19 20  2  0  0  0  0
 19 21  1  0  0  0  0
 16 17  1  0  0  0  0
 16 18  1  0  0  0  0
 14 15  2  0  0  0  0
 14 16  1  0  0  0  0
 11 12  1  0  0  0  0
 11 13  1  0  0  0  0
 11 14  1  0  0  0  0
  9 10  1  0  0  0  0
  9 11  1  0  0  0  0
  9 19  1  0  0  0  0
  7  8  1  0  0  0  0
  7  9  1  0  0  0  0
 23 24  1  0  0  0  0
 23 25  1  0  0  0  0
 23 26  1  0  0  0  0
 21 22  1  0  0  0  0
 21 23  1  0  0  0  0
M  END
$$$$
default_name
  -OEChem-01062215323D

 26 25  0     1  0  0  0  0  0999 V2000
   -3.0232   -3.6924    1.0038 H   0  0  0  0  0  0  0  0  0  0  0  0
   -3.0082   -2.6684    0.6318 C   0  0  0  0  0  0  0  0  0  0  0  0
   -3.6332   -2.0414    1.2658 H   0  0  0  0  0  0  0  0  0  0  0  0
   -3.3762   -2.6444   -0.3912 H   0  0  0  0  0  0  0  0  0  0  0  0
   -1.5882   -2.1554    0.6658 C   0  0  0  0  0  0  0  0  0  0  0  0
   -0.6832   -2.8764    1.0638 O   0  0  0  0  0  0  0  0  0  0  0  0
   -1.3952   -0.9084    0.2428 N   0  0  0  0  0  0  0  0  0  0  0  0
   -2.1972   -0.3644   -0.0422 H   0  0  0  0  0  0  0  0  0  0  0  0
   -0.1122   -0.1994    0.2658 C   0  0  1  0  0  0  0  0  0  0  0  0
    0.0862    0.1266    1.2901 H   0  0  0  0  0  0  0  0  0  0  0  0
    1.0026   -1.1755   -0.1719 C   0  0  0  0  0  0  0  0  0  0  0  0
    0.7004   -1.6734   -1.0926 H   0  0  0  0  0  0  0  0  0  0  0  0
    1.9143   -0.6139   -0.3698 H   0  0  0  0  0  0  0  0  0  0  0  0
    1.3012   -2.2679    0.8422 C   0  0  0  0  0  0  0  0  0  0  0  0
    1.3659   -2.0601    2.0413 O   0  0  0  0  0  0  0  0  0  0  0  0
    1.5049   -3.4818    0.3916 N   0  0  0  0  0  0  0  0  0  0  0  0
    1.6826   -4.1862    1.0858 H   0  0  0  0  0  0  0  0  0  0  0  0
    1.4384   -3.6824   -0.5884 H   0  0  0  0  0  0  0  0  0  0  0  0
   -0.1884    1.0560   -0.6309 C   0  0  0  0  0  0  0  0  0  0  0  0
   -0.8101    2.0472   -0.2482 O   0  0  0  0  0  0  0  0  0  0  0  0
    0.4278    1.0132   -1.8160 N   0  0  0  0  0  0  0  0  0  0  0  0
    0.8522    0.1312   -2.0848 H   0  0  0  0  0  0  0  0  0  0  0  0
    0.4605    2.1179   -2.7727 C   0  0  0  0  0  0  0  0  0  0  0  0
    0.8789    3.0063   -2.2948 H   0  0  0  0  0  0  0  0  0  0  0  0
    1.0742    1.8495   -3.6337 H   0  0  0  0  0  0  0  0  0  0  0  0
   -0.5528    2.3449   -3.1083 H   0  0  0  0  0  0  0  0  0  0  0  0
  5  6  2  0  0  0  0
  5  7  1  0  0  0  0
  2  3  1  0  0  0  0
  2  4  1  0  0  0  0
  2  5  1  0  0  0  0
  1  2  1  0  0  0  0
 19 20  2  0  0  0  0
 19 21  1  0  0  0  0
 16 17  1  0  0  0  0
 16 18  1  0  0  0  0
 14 15  2  0  0  0  0
 14 16  1  0  0  0  0
 11 12  1  0  0  0  0
 11 13  1  0  0  0  0
 11 14  1  0  0  0  0
  9 10  1  0  0  0  0
  9 11  1  0  0  0  0
  9 19  1  0  0  0  0
  7  8  1  0  0  0  0
  7  9  1  0  0  0  0
 23 24  1  0  0  0  0
 23 25  1  0  0  0  0
 23 26  1  0  0  0  0
 21 22  1  0  0  0  0
 21 23  1  0  0  0  0
M  END
$$$$
default_name
  -OEChem-01062215323D

 26 25  0     1  0  0  0  0  0999 V2000
   -3.0232   -3.6924    1.0038 H   0  0  0  0  0  0  0  0  0  0  0  0
   -3.0082   -2.6684    0.6318 C   0  0  0  0  0  0  0  0  0  0  0  0
   -3.6332   -2.0414    1.2658 H   0  0  0  0  0  0  0  0  0  0  0  0
   -3.3762   -2.6444   -0.3912 H   0  0  0  0  0  0  0  0  0  0  0  0
   -1.5882   -2.1554    0.6658 C   0  0  0  0  0  0  0  0  0  0  0  0
   -0.6832   -2.8764    1.0638 O   0  0  0  0  0  0  0  0  0  0  0  0
   -1.3952   -0.9084    0.2428 N   0  0  0  0  0  0  0  0  0  0  0  0
   -2.1972   -0.3644   -0.0422 H   0  0  0  0  0  0  0  0  0  0  0  0
   -0.1122   -0.1994    0.2658 C   0  0  1  0  0  0  0  0  0  0  0  0
    0.0862    0.1266    1.2901 H   0  0  0  0  0  0  0  0  0  0  0  0
    1.0026   -1.1755   -0.1719 C   0  0  0  0  0  0  0  0  0  0  0  0
    0.7004   -1.6734   -1.0926 H   0  0  0  0  0  0  0  0  0  0  0  0
    1.9143   -0.6139   -0.3698 H   0  0  0  0  0  0  0  0  0  0  0  0
    1.3012   -2.2679    0.8422 C   0  0  0  0  0  0  0  0  0  0  0  0
    1.3659   -2.0601    2.0413 O   0  0  0  0  0  0  0  0  0  0  0  0
    1.5049   -3.4818    0.3916 N   0  0  0  0  0  0  0  0  0  0  0  0
    1.6826   -4.1862    1.0858 H   0  0  0  0  0  0  0  0  0  0  0  0
    1.4384   -3.6824   -0.5884 H   0  0  0  0  0  0  0  0  0  0  0  0
   -0.1884    1.0560   -0.6309 C   0  0  0  0  0  0  0  0  0  0  0  0
   -0.5605    2.1288   -0.1553 O   0  0  0  0  0  0  0  0  0  0  0  0
    0.1500    0.9242   -1.9171 N   0  0  0  0  0  0  0  0  0  0  0  0
    0.3718   -0.0111   -2.2432 H   0  0  0  0  0  0  0  0  0  0  0  0
    0.1439    2.0144   -2.8908 C   0  0  0  0  0  0  0  0  0  0  0  0
    0.7814    2.8274   -2.5369 H   0  0  0  0  0  0  0  0  0  0  0  0
    0.5148    1.6588   -3.8531 H   0  0  0  0  0  0  0  0  0  0  0  0
   -0.8721    2.3935   -3.0132 H   0  0  0  0  0  0  0  0  0  0  0  0
  5  6  2  0  0  0  0
  5  7  1  0  0  0  0
  2  3  1  0  0  0  0
  2  4  1  0  0  0  0
  2  5  1  0  0  0  0
  1  2  1  0  0  0  0
 19 20  2  0  0  0  0
 19 21  1  0  0  0  0
 16 17  1  0  0  0  0
 16 18  1  0  0  0  0
 14 15  2  0  0  0  0
 14 16  1  0  0  0  0
 11 12  1  0  0  0  0
 11 13  1  0  0  0  0
 11 14  1  0  0  0  0
  9 10  1  0  0  0  0
  9 11  1  0  0  0  0
  9 19  1  0  0  0  0
  7  8  1  0  0  0  0
  7  9  1  0  0  0  0
 23 24  1  0  0  0  0
 23 25  1  0  0  0  0
 23 26  1  0  0  0  0
 21 22  1  0  0  0  0
 21 23  1  0  0  0  0
M  END
$$$$
default_name
  -OEChem-01062215323D

 26 25  0     1  0  0  0  0  0999 V2000
   -3.0232   -3.6924    1.0038 H   0  0  0  0  0  0  0  0  0  0  0  0
   -3.0082   -2.6684    0.6318 C   0  0  0  0  0  0  0  0  0  0  0  0
   -3.6332   -2.0414    1.2658 H   0  0  0  0  0  0  0  0  0  0  0  0
   -3.3762   -2.6444   -0.3912 H   0  0  0  0  0  0  0  0  0  0  0  0
   -1.5882   -2.1554    0.6658 C   0  0  0  0  0  0  0  0  0  0  0  0
   -0.6832   -2.8764    1.0638 O   0  0  0  0  0  0  0  0  0  0  0  0
   -1.3952   -0.9084    0.2428 N   0  0  0  0  0  0  0  0  0  0  0  0
   -2.1972   -0.3644   -0.0422 H   0  0  0  0  0  0  0  0  0  0  0  0
   -0.1122   -0.1994    0.2658 C   0  0  1  0  0  0  0  0  0  0  0  0
    0.0862    0.1266    1.2901 H   0  0  0  0  0  0  0  0  0  0  0  0
    1.0026   -1.1755   -0.1719 C   0  0  0  0  0  0  0  0  0  0  0  0
    0.7004   -1.6734   -1.0926 H   0  0  0  0  0  0  0  0  0  0  0  0
    1.9143   -0.6139   -0.3698 H   0  0  0  0  0  0  0  0  0  0  0  0
    1.3012   -2.2679    0.8422 C   0  0  0  0  0  0  0  0  0  0  0  0
    1.3659   -2.0601    2.0413 O   0  0  0  0  0  0  0  0  0  0  0  0
    1.5049   -3.4818    0.3916 N   0  0  0  0  0  0  0  0  0  0  0  0
    1.6826   -4.1862    1.0858 H   0  0  0  0  0  0  0  0  0  0  0  0
    1.4384   -3.6824   -0.5884 H   0  0  0  0  0  0  0  0  0  0  0  0
   -0.1884    1.0560   -0.6309 C   0  0  0  0  0  0  0  0  0  0  0  0
   -0.2877    2.1712   -0.1190 O   0  0  0  0  0  0  0  0  0  0  0  0
   -0.1529    0.8786   -1.9551 N   0  0  0  0  0  0  0  0  0  0  0  0
   -0.1468   -0.0784   -2.2933 H   0  0  0  0  0  0  0  0  0  0  0  0
   -0.2024    1.9604   -2.9370 C   0  0  0  0  0  0  0  0  0  0  0  0
    0.6093    2.6662   -2.7480 H   0  0  0  0  0  0  0  0  0  0  0  0
   -0.1003    1.5559   -3.9450 H   0  0  0  0  0  0  0  0  0  0  0  0
   -1.1533    2.4895   -2.8548 H   0  0  0  0  0  0  0  0  0  0  0  0
  5  6  2  0  0  0  0
  5  7  1  0  0  0  0
  2  3  1  0  0  0  0
  2  4  1  0  0  0  0
  2  5  1  0  0  0  0
  1  2  1  0  0  0  0
 19 20  2  0  0  0  0
 19 21  1  0  0  0  0
 16 17  1  0  0  0  0
 16 18  1  0  0  0  0
 14 15  2  0  0  0  0
 14 16  1  0  0  0  0
 11 12  1  0  0  0  0
 11 13  1  0  0  0  0
 11 14  1  0  0  0  0
  9 10  1  0  0  0  0
  9 11  1  0  0  0  0
  9 19  1  0  0  0  0
  7  8  1  0  0  0  0
  7  9  1  0  0  0  0
 23 24  1  0  0  0  0
 23 25  1  0  0  0  0
 23 26  1  0  0  0  0
 21 22  1  0  0  0  0
 21 23  1  0  0  0  0
M  END
$$$$
default_name
  -OEChem-01062215323D

 26 25  0     1  0  0  0  0  0999 V2000
   -3.0232   -3.6924    1.0038 H   0  0  0  0  0  0  0  0  0  0  0  0
   -3.0082   -2.6684    0.6318 C   0  0  0  0  0  0  0  0  0  0  0  0
   -3.6332   -2.0414    1.2658 H   0  0  0  0  0  0  0  0  0  0  0  0
   -3.3762   -2.6444   -0.3912 H   0  0  0  0  0  0  0  0  0  0  0  0
   -1.5882   -2.1554    0.6658 C   0  0  0  0  0  0  0  0  0  0  0  0
   -0.6832   -2.8764    1.0638 O   0  0  0  0  0  0  0  0  0  0  0  0
   -1.3952   -0.9084    0.2428 N   0  0  0  0  0  0  0  0  0  0  0  0
   -2.1972   -0.3644   -0.0422 H   0  0  0  0  0  0  0  0  0  0  0  0
   -0.1122   -0.1994    0.2658 C   0  0  1  0  0  0  0  0  0  0  0  0
    0.0862    0.1266    1.2901 H   0  0  0  0  0  0  0  0  0  0  0  0
    1.0026   -1.1755   -0.1719 C   0  0  0  0  0  0  0  0  0  0  0  0
    0.7004   -1.6734   -1.0926 H   0  0  0  0  0  0  0  0  0  0  0  0
    1.9143   -0.6139   -0.3698 H   0  0  0  0  0  0  0  0  0  0  0  0
    1.3012   -2.2679    0.8422 C   0  0  0  0  0  0  0  0  0  0  0  0
    1.3659   -2.0601    2.0413 O   0  0  0  0  0  0  0  0  0  0  0  0
    1.5049   -3.4818    0.3916 N   0  0  0  0  0  0  0  0  0  0  0  0
    1.6826   -4.1862    1.0858 H   0  0  0  0  0  0  0  0  0  0  0  0
    1.4384   -3.6824   -0.5884 H   0  0  0  0  0  0  0  0  0  0  0  0
   -0.1884    1.0560   -0.6309 C   0  0  0  0  0  0  0  0  0  0  0  0
   -0.0101    2.1717   -0.1420 O   0  0  0  0  0  0  0  0  0  0  0  0
   -0.4604    0.8797   -1.9275 N   0  0  0  0  0  0  0  0  0  0  0  0
   -0.6685   -0.0661   -2.2317 H   0  0  0  0  0  0  0  0  0  0  0  0
   -0.5546    1.9597   -2.9081 C   0  0  0  0  0  0  0  0  0  0  0  0
    0.3745    2.5337   -2.9136 H   0  0  0  0  0  0  0  0  0  0  0  0
   -0.7293    1.5477   -3.9029 H   0  0  0  0  0  0  0  0  0  0  0  0
   -1.3770    2.6266   -2.6439 H   0  0  0  0  0  0  0  0  0  0  0  0
  5  6  2  0  0  0  0
  5  7  1  0  0  0  0
  2  3  1  0  0  0  0
  2  4  1  0  0  0  0
  2  5  1  0  0  0  0
  1  2  1  0  0  0  0
 19 20  2  0  0  0  0
 19 21  1  0  0  0  0
 16 17  1  0  0  0  0
 16 18  1  0  0  0  0
 14 15  2  0  0  0  0
 14 16  1  0  0  0  0
 11 12  1  0  0  0  0
 11 13  1  0  0  0  0
 11 14  1  0  0  0  0
  9 10  1  0  0  0  0
  9 11  1  0  0  0  0
  9 19  1  0  0  0  0
  7  8  1  0  0  0  0
  7  9  1  0  0  0  0
 23 24  1  0  0  0  0
 23 25  1  0  0  0  0
 23 26  1  0  0  0  0
 21 22  1  0  0  0  0
 21 23  1  0  0  0  0
M  END
$$$$
default_name
  -OEChem-01062215323D

 26 25  0     1  0  0  0  0  0999 V2000
   -3.0232   -3.6924    1.0038 H   0  0  0  0  0  0  0  0  0  0  0  0
   -3.0082   -2.6684    0.6318 C   0  0  0  0  0  0  0  0  0  0  0  0
   -3.6332   -2.0414    1.2658 H   0  0  0  0  0  0  0  0  0  0  0  0
   -3.3762   -2.6444   -0.3912 H   0  0  0  0  0  0  0  0  0  0  0  0
   -1.5882   -2.1554    0.6658 C   0  0  0  0  0  0  0  0  0  0  0  0
   -0.6832   -2.8764    1.0638 O   0  0  0  0  0  0  0  0  0  0  0  0
   -1.3952   -0.9084    0.2428 N   0  0  0  0  0  0  0  0  0  0  0  0
   -2.1972   -0.3644   -0.0422 H   0  0  0  0  0  0  0  0  0  0  0  0
   -0.1122   -0.1994    0.2658 C   0  0  1  0  0  0  0  0  0  0  0  0
    0.0862    0.1266    1.2901 H   0  0  0  0  0  0  0  0  0  0  0  0
    1.0026   -1.1755   -0.1719 C   0  0  0  0  0  0  0  0  0  0  0  0
    0.7004   -1.6734   -1.0926 H   0  0  0  0  0  0  0  0  0  0  0  0
    1.9143   -0.6139   -0.3698 H   0  0  0  0  0  0  0  0  0  0  0  0
    1.3012   -2.2679    0.8422 C   0  0  0  0  0  0  0  0  0  0  0  0
    1.3659   -2.0601    2.0413 O   0  0  0  0  0  0  0  0  0  0  0  0
    1.5049   -3.4818    0.3916 N   0  0  0  0  0  0  0  0  0  0  0  0
    1.6826   -4.1862    1.0858 H   0  0  0  0  0  0  0  0  0  0  0  0
    1.4384   -3.6824   -0.5884 H   0  0  0  0  0  0  0  0  0  0  0  0
   -0.1884    1.0560   -0.6309 C   0  0  0  0  0  0  0  0  0  0  0  0
    0.2533    2.1301   -0.2225 O   0  0  0  0  0  0  0  0  0  0  0  0
   -0.7514    0.9273   -1.8361 N   0  0  0  0  0  0  0  0  0  0  0  0
   -1.1575    0.0250   -2.0627 H   0  0  0  0  0  0  0  0  0  0  0  0
   -0.8889    2.0123   -2.8060 C   0  0  0  0  0  0  0  0  0  0  0  0
    0.0929    2.4388   -3.0226 H   0  0  0  0  0  0  0  0  0  0  0  0
   -1.3292    1.6349   -3.7300 H   0  0  0  0  0  0  0  0  0  0  0  0
   -1.5282    2.7953   -2.3949 H   0  0  0  0  0  0  0  0  0  0  0  0
  5  6  2  0  0  0  0
  5  7  1  0  0  0  0
  2  3  1  0  0  0  0
  2  4  1  0  0  0  0
  2  5  1  0  0  0  0
  1  2  1  0  0  0  0
 19 20  2  0  0  0  0
 19 21  1  0  0  0  0
 16 17  1  0  0  0  0
 16 18  1  0  0  0  0
 14 15  2  0  0  0  0
 14 16  1  0  0  0  0
 11 12  1  0  0  0  0
 11 13  1  0  0  0  0
 11 14  1  0  0  0  0
  9 10  1  0  0  0  0
  9 11  1  0  0  0  0
  9 19  1  0  0  0  0
  7  8  1  0  0  0  0
  7  9  1  0  0  0  0
 23 24  1  0  0  0  0
 23 25  1  0  0  0  0
 23 26  1  0  0  0  0
 21 22  1  0  0  0  0
 21 23  1  0  0  0  0
M  END
$$$$
default_name
  -OEChem-01062215323D

 26 25  0     1  0  0  0  0  0999 V2000
   -3.0232   -3.6924    1.0038 H   0  0  0  0  0  0  0  0  0  0  0  0
   -3.0082   -2.6684    0.6318 C   0  0  0  0  0  0  0  0  0  0  0  0
   -3.6332   -2.0414    1.2658 H   0  0  0  0  0  0  0  0  0  0  0  0
   -3.3762   -2.6444   -0.3912 H   0  0  0  0  0  0  0  0  0  0  0  0
   -1.5882   -2.1554    0.6658 C   0  0  0  0  0  0  0  0  0  0  0  0
   -0.6832   -2.8764    1.0638 O   0  0  0  0  0  0  0  0  0  0  0  0
   -1.3952   -0.9084    0.2428 N   0  0  0  0  0  0  0  0  0  0  0  0
   -2.1972   -0.3644   -0.0422 H   0  0  0  0  0  0  0  0  0  0  0  0
   -0.1122   -0.1994    0.2658 C   0  0  1  0  0  0  0  0  0  0  0  0
    0.0862    0.1266    1.2901 H   0  0  0  0  0  0  0  0  0  0  0  0
    1.0026   -1.1755   -0.1719 C   0  0  0  0  0  0  0  0  0  0  0  0
    0.7004   -1.6734   -1.0926 H   0  0  0  0  0  0  0  0  0  0  0  0
    1.9143   -0.6139   -0.3698 H   0  0  0  0  0  0  0  0  0  0  0  0
    1.3012   -2.2679    0.8422 C   0  0  0  0  0  0  0  0  0  0  0  0
    1.3659   -2.0601    2.0413 O   0  0  0  0  0  0  0  0  0  0  0  0
    1.5049   -3.4818    0.3916 N   0  0  0  0  0  0  0  0  0  0  0  0
    1.6826   -4.1862    1.0858 H   0  0  0  0  0  0  0  0  0  0  0  0
    1.4384   -3.6824   -0.5884 H   0  0  0  0  0  0  0  0  0  0  0  0
   -0.1884    1.0560   -0.6309 C   0  0  0  0  0  0  0  0  0  0  0  0
    0.4844    2.0494   -0.3552 O   0  0  0  0  0  0  0  0  0  0  0  0
   -1.0062    1.0181   -1.6873 N   0  0  0  0  0  0  0  0  0  0  0  0
   -1.5807    0.1886   -1.7977 H   0  0  0  0  0  0  0  0  0  0  0  0
   -1.1824    2.1146   -2.6378 C   0  0  0  0  0  0  0  0  0  0  0  0
   -0.2162    2.3880   -3.0673 H   0  0  0  0  0  0  0  0  0  0  0  0
   -1.8592    1.8114   -3.4378 H   0  0  0  0  0  0  0  0  0  0  0  0
   -1.5966    2.9841   -2.1246 H   0  0  0  0  0  0  0  0  0  0  0  0
  5  6  2  0  0  0  0
  5  7  1  0  0  0  0
  2  3  1  0  0  0  0
  2  4  1  0  0  0  0
  2  5  1  0  0  0  0
  1  2  1  0  0  0  0
 19 20  2  0  0  0  0
 19 21  1  0  0  0  0
 16 17  1  0  0  0  0
 16 18  1  0  0  0  0
 14 15  2  0  0  0  0
 14 16  1  0  0  0  0
 11 12  1  0  0  0  0
 11 13  1  0  0  0  0
 11 14  1  0  0  0  0
  9 10  1  0  0  0  0
  9 11  1  0  0  0  0
  9 19  1  0  0  0  0
  7  8  1  0  0  0  0
  7  9  1  0  0  0  0
 23 24  1  0  0  0  0
 23 25  1  0  0  0  0
 23 26  1  0  0  0  0
 21 22  1  0  0  0  0
 21 23  1  0  0  0  0
M  END
$$$$
default_name
  -OEChem-01062215323D

 26 25  0     1  0  0  0  0  0999 V2000
   -3.0232   -3.6924    1.0038 H   0  0  0  0  0  0  0  0  0  0  0  0
   -3.0082   -2.6684    0.6318 C   0  0  0  0  0  0  0  0  0  0  0  0
   -3.6332   -2.0414    1.2658 H   0  0  0  0  0  0  0  0  0  0  0  0
   -3.3762   -2.6444   -0.3912 H   0  0  0  0  0  0  0  0  0  0  0  0
   -1.5882   -2.1554    0.6658 C   0  0  0  0  0  0  0  0  0  0  0  0
   -0.6832   -2.8764    1.0638 O   0  0  0  0  0  0  0  0  0  0  0  0
   -1.3952   -0.9084    0.2428 N   0  0  0  0  0  0  0  0  0  0  0  0
   -2.1972   -0.3644   -0.0422 H   0  0  0  0  0  0  0  0  0  0  0  0
   -0.1122   -0.1994    0.2658 C   0  0  1  0  0  0  0  0  0  0  0  0
    0.0862    0.1266    1.2901 H   0  0  0  0  0  0  0  0  0  0  0  0
    1.0026   -1.1755   -0.1719 C   0  0  0  0  0  0  0  0  0  0  0  0
    0.7004   -1.6734   -1.0926 H   0  0  0  0  0  0  0  0  0  0  0  0
    1.9143   -0.6139   -0.3698 H   0  0  0  0  0  0  0  0  0  0  0  0
    1.3012   -2.2679    0.8422 C   0  0  0  0  0  0  0  0  0  0  0  0
    1.3659   -2.0601    2.0413 O   0  0  0  0  0  0  0  0  0  0  0  0
    1.5049   -3.4818    0.3916 N   0  0  0  0  0  0  0  0  0  0  0  0
    1.6826   -4.1862    1.0858 H   0  0  0  0  0  0  0  0  0  0  0  0
    1.4384   -3.6824   -0.5884 H   0  0  0  0  0  0  0  0  0  0  0  0
   -0.1884    1.0560   -0.6309 C   0  0  0  0  0  0  0  0  0  0  0  0
    0.6677    1.9350   -0.5310 O   0  0  0  0  0  0  0  0  0  0  0  0
   -1.2073    1.1460   -1.4911 N   0  0  0  0  0  0  0  0  0  0  0  0
   -1.9091    0.4136   -1.4548 H   0  0  0  0  0  0  0  0  0  0  0  0
   -1.4151    2.2597   -2.4149 C   0  0  0  0  0  0  0  0  0  0  0  0
   -0.5319    2.3849   -3.0449 H   0  0  0  0  0  0  0  0  0  0  0  0
   -2.2831    2.0652   -3.0463 H   0  0  0  0  0  0  0  0  0  0  0  0
   -1.5773    3.1803   -1.8517 H   0  0  0  0  0  0  0  0  0  0  0  0
  5  6  2  0  0  0  0
  5  7  1  0  0  0  0
  2  3  1  0  0  0  0
  2  4  1  0  0  0  0
  2  5  1  0  0  0  0
  1  2  1  0  0  0  0
 19 20  2  0  0  0  0
 19 21  1  0  0  0  0
 16 17  1  0  0  0  0
 16 18  1  0  0  0  0
 14 15  2  0  0  0  0
 14 16  1  0  0  0  0
 11 12  1  0  0  0  0
 11 13  1  0  0  0  0
 11 14  1  0  0  0  0
  9 10  1  0  0  0  0
  9 11  1  0  0  0  0
  9 19  1  0  0  0  0
  7  8  1  0  0  0  0
  7  9  1  0  0  0  0
 23 24  1  0  0  0  0
 23 25  1  0  0  0  0
 23 26  1  0  0  0  0
 21 22  1  0  0  0  0
 21 23  1  0  0  0  0
M  END
$$$$
default_name
  -OEChem-01062215323D

 26 25  0     1  0  0  0  0  0999 V2000
   -3.0232   -3.6924    1.0038 H   0  0  0  0  0  0  0  0  0  0  0  0
   -3.0082   -2.6684    0.6318 C   0  0  0  0  0  0  0  0  0  0  0  0
   -3.6332   -2.0414    1.2658 H   0  0  0  0  0  0  0  0  0  0  0  0
   -3.3762   -2.6444   -0.3912 H   0  0  0  0  0  0  0  0  0  0  0  0
   -1.5882   -2.1554    0.6658 C   0  0  0  0  0  0  0  0  0  0  0  0
   -0.6832   -2.8764    1.0638 O   0  0  0  0  0  0  0  0  0  0  0  0
   -1.3952   -0.9084    0.2428 N   0  0  0  0  0  0  0  0  0  0  0  0
   -2.1972   -0.3644   -0.0422 H   0  0  0  0  0  0  0  0  0  0  0  0
   -0.1122   -0.1994    0.2658 C   0  0  1  0  0  0  0  0  0  0  0  0
    0.0862    0.1266    1.2901 H   0  0  0  0  0  0  0  0  0  0  0  0
    1.0026   -1.1755   -0.1719 C   0  0  0  0  0  0  0  0  0  0  0  0
    0.7004   -1.6734   -1.0926 H   0  0  0  0  0  0  0  0  0  0  0  0
    1.9143   -0.6139   -0.3698 H   0  0  0  0  0  0  0  0  0  0  0  0
    1.3012   -2.2679    0.8422 C   0  0  0  0  0  0  0  0  0  0  0  0
    1.3659   -2.0601    2.0413 O   0  0  0  0  0  0  0  0  0  0  0  0
    1.5049   -3.4818    0.3916 N   0  0  0  0  0  0  0  0  0  0  0  0
    1.6826   -4.1862    1.0858 H   0  0  0  0  0  0  0  0  0  0  0  0
    1.4384   -3.6824   -0.5884 H   0  0  0  0  0  0  0  0  0  0  0  0
   -0.1884    1.0560   -0.6309 C   0  0  0  0  0  0  0  0  0  0  0  0
    0.7906    1.7947   -0.7378 O   0  0  0  0  0  0  0  0  0  0  0  0
   -1.3411    1.3023   -1.2609 N   0  0  0  0  0  0  0  0  0  0  0  0
   -2.1204    0.6846   -1.0573 H   0  0  0  0  0  0  0  0  0  0  0  0
   -1.5713    2.4377   -2.1524 C   0  0  0  0  0  0  0  0  0  0  0  0
   -0.8325    2.4296   -2.9568 H   0  0  0  0  0  0  0  0  0  0  0  0
   -2.5722    2.3791   -2.5823 H   0  0  0  0  0  0  0  0  0  0  0  0
   -1.4718    3.3703   -1.5946 H   0  0  0  0  0  0  0  0  0  0  0  0
  5  6  2  0  0  0  0
  5  7  1  0  0  0  0
  2  3  1  0  0  0  0
  2  4  1  0  0  0  0
  2  5  1  0  0  0  0
  1  2  1  0  0  0  0
 19 20  2  0  0  0  0
 19 21  1  0  0  0  0
 16 17  1  0  0  0  0
 16 18  1  0  0  0  0
 14 15  2  0  0  0  0
 14 16  1  0  0  0  0
 11 12  1  0  0  0  0
 11 13  1  0  0  0  0
 11 14  1  0  0  0  0
  9 10  1  0  0  0  0
  9 11  1  0  0  0  0
  9 19  1  0  0  0  0
  7  8  1  0  0  0  0
  7  9  1  0  0  0  0
 23 24  1  0  0  0  0
 23 25  1  0  0  0  0
 23 26  1  0  0  0  0
 21 22  1  0  0  0  0
 21 23  1  0  0  0  0
M  END
$$$$
default_name
  -OEChem-01062215323D

 26 25  0     1  0  0  0  0  0999 V2000
   -3.0232   -3.6924    1.0038 H   0  0  0  0  0  0  0  0  0  0  0  0
   -3.0082   -2.6684    0.6318 C   0  0  0  0  0  0  0  0  0  0  0  0
   -3.6332   -2.0414    1.2658 H   0  0  0  0  0  0  0  0  0  0  0  0
   -3.3762   -2.6444   -0.3912 H   0  0  0  0  0  0  0  0  0  0  0  0
   -1.5882   -2.1554    0.6658 C   0  0  0  0  0  0  0  0  0  0  0  0
   -0.6832   -2.8764    1.0638 O   0  0  0  0  0  0  0  0  0  0  0  0
   -1.3952   -0.9084    0.2428 N   0  0  0  0  0  0  0  0  0  0  0  0
   -2.1972   -0.3644   -0.0422 H   0  0  0  0  0  0  0  0  0  0  0  0
   -0.1122   -0.1994    0.2658 C   0  0  1  0  0  0  0  0  0  0  0  0
    0.0862    0.1266    1.2901 H   0  0  0  0  0  0  0  0  0  0  0  0
    1.0026   -1.1755   -0.1719 C   0  0  0  0  0  0  0  0  0  0  0  0
    0.7004   -1.6734   -1.0926 H   0  0  0  0  0  0  0  0  0  0  0  0
    1.9143   -0.6139   -0.3698 H   0  0  0  0  0  0  0  0  0  0  0  0
    1.3012   -2.2679    0.8422 C   0  0  0  0  0  0  0  0  0  0  0  0
    1.3659   -2.0601    2.0413 O   0  0  0  0  0  0  0  0  0  0  0  0
    1.5049   -3.4818    0.3916 N   0  0  0  0  0  0  0  0  0  0  0  0
    1.6826   -4.1862    1.0858 H   0  0  0  0  0  0  0  0  0  0  0  0
    1.4384   -3.6824   -0.5884 H   0  0  0  0  0  0  0  0  0  0  0  0
   -0.1884    1.0560   -0.6309 C   0  0  0  0  0  0  0  0  0  0  0  0
    0.8447    1.6381   -0.9617 O   0  0  0  0  0  0  0  0  0  0  0  0
   -1.3984    1.4763   -1.0125 N   0  0  0  0  0  0  0  0  0  0  0  0
   -2.2001    0.9832   -0.6325 H   0  0  0  0  0  0  0  0  0  0  0  0
   -1.6401    2.6364   -1.8684 C   0  0  0  0  0  0  0  0  0  0  0  0
   -1.0977    2.5191   -2.8090 H   0  0  0  0  0  0  0  0  0  0  0  0
   -2.7066    2.7317   -2.0772 H   0  0  0  0  0  0  0  0  0  0  0  0
   -1.2873    3.5413   -1.3708 H   0  0  0  0  0  0  0  0  0  0  0  0
  5  6  2  0  0  0  0
  5  7  1  0  0  0  0
  2  3  1  0  0  0  0
  2  4  1  0  0  0  0
  2  5  1  0  0  0  0
  1  2  1  0  0  0  0
 19 20  2  0  0  0  0
 19 21  1  0  0  0  0
 16 17  1  0  0  0  0
 16 18  1  0  0  0  0
 14 15  2  0  0  0  0
 14 16  1  0  0  0  0
 11 12  1  0  0  0  0
 11 13  1  0  0  0  0
 11 14  1  0  0  0  0
  9 10  1  0  0  0  0
  9 11  1  0  0  0  0
  9 19  1  0  0  0  0
  7  8  1  0  0  0  0
  7  9  1  0  0  0  0
 23 24  1  0  0  0  0
 23 25  1  0  0  0  0
 23 26  1  0  0  0  0
 21 22  1  0  0  0  0
 21 23  1  0  0  0  0
M  END
$$$$
default_name
  -OEChem-01062215323D

 26 25  0     1  0  0  0  0  0999 V2000
   -3.0232   -3.6924    1.0038 H   0  0  0  0  0  0  0  0  0  0  0  0
   -3.0082   -2.6684    0.6318 C   0  0  0  0  0  0  0  0  0  0  0  0
   -3.6332   -2.0414    1.2658 H   0  0  0  0  0  0  0  0  0  0  0  0
   -3.3762   -2.6444   -0.3912 H   0  0  0  0  0  0  0  0  0  0  0  0
   -1.5882   -2.1554    0.6658 C   0  0  0  0  0  0  0  0  0  0  0  0
   -0.6832   -2.8764    1.0638 O   0  0  0  0  0  0  0  0  0  0  0  0
   -1.3952   -0.9084    0.2428 N   0  0  0  0  0  0  0  0  0  0  0  0
   -2.1972   -0.3644   -0.0422 H   0  0  0  0  0  0  0  0  0  0  0  0
   -0.1122   -0.1994    0.2658 C   0  0  1  0  0  0  0  0  0  0  0  0
    0.0862    0.1266    1.2901 H   0  0  0  0  0  0  0  0  0  0  0  0
    1.0026   -1.1755   -0.1719 C   0  0  0  0  0  0  0  0  0  0  0  0
    0.7004   -1.6734   -1.0926 H   0  0  0  0  0  0  0  0  0  0  0  0
    1.9143   -0.6139   -0.3698 H   0  0  0  0  0  0  0  0  0  0  0  0
    1.3012   -2.2679    0.8422 C   0  0  0  0  0  0  0  0  0  0  0  0
    1.3659   -2.0601    2.0413 O   0  0  0  0  0  0  0  0  0  0  0  0
    1.5049   -3.4818    0.3916 N   0  0  0  0  0  0  0  0  0  0  0  0
    1.6826   -4.1862    1.0858 H   0  0  0  0  0  0  0  0  0  0  0  0
    1.4384   -3.6824   -0.5884 H   0  0  0  0  0  0  0  0  0  0  0  0
   -0.1884    1.0560   -0.6309 C   0  0  0  0  0  0  0  0  0  0  0  0
    0.8263    1.4758   -1.1873 O   0  0  0  0  0  0  0  0  0  0  0  0
   -1.3753    1.6561   -0.7626 N   0  0  0  0  0  0  0  0  0  0  0  0
   -2.1429    1.2890   -0.2091 H   0  0  0  0  0  0  0  0  0  0  0  0
   -1.6170    2.8423   -1.5820 C   0  0  0  0  0  0  0  0  0  0  0  0
   -1.3093    2.6472   -2.6116 H   0  0  0  0  0  0  0  0  0  0  0  0
   -2.6772    3.0989   -1.5656 H   0  0  0  0  0  0  0  0  0  0  0  0
   -1.0363    3.6816   -1.1957 H   0  0  0  0  0  0  0  0  0  0  0  0
  5  6  2  0  0  0  0
  5  7  1  0  0  0  0
  2  3  1  0  0  0  0
  2  4  1  0  0  0  0
  2  5  1  0  0  0  0
  1  2  1  0  0  0  0
 19 20  2  0  0  0  0
 19 21  1  0  0  0  0
 16 17  1  0  0  0  0
 16 18  1  0  0  0  0
 14 15  2  0  0  0  0
 14 16  1  0  0  0  0
 11 12  1  0  0  0  0
 11 13  1  0  0  0  0
 11 14  1  0  0  0  0
  9 10  1  0  0  0  0
  9 11  1  0  0  0  0
  9 19  1  0  0  0  0
  7  8  1  0  0  0  0
  7  9  1  0  0  0  0
 23 24  1  0  0  0  0
 23 25  1  0  0  0  0
 23 26  1  0  0  0  0
 21 22  1  0  0  0  0
 21 23  1  0  0  0  0
M  END
$$$$
default_name
  -OEChem-01062215323D

 26 25  0     1  0  0  0  0  0999 V2000
   -3.0232   -3.6924    1.0038 H   0  0  0  0  0  0  0  0  0  0  0  0
   -3.0082   -2.6684    0.6318 C   0  0  0  0  0  0  0  0  0  0  0  0
   -3.6332   -2.0414    1.2658 H   0  0  0  0  0  0  0  0  0  0  0  0
   -3.3762   -2.6444   -0.3912 H   0  0  0  0  0  0  0  0  0  0  0  0
   -1.5882   -2.1554    0.6658 C   0  0  0  0  0  0  0  0  0  0  0  0
   -0.6832   -2.8764    1.0638 O   0  0  0  0  0  0  0  0  0  0  0  0
   -1.3952   -0.9084    0.2428 N   0  0  0  0  0  0  0  0  0  0  0  0
   -2.1972   -0.3644   -0.0422 H   0  0  0  0  0  0  0  0  0  0  0  0
   -0.1122   -0.1994    0.2658 C   0  0  1  0  0  0  0  0  0  0  0  0
    0.0862    0.1266    1.2901 H   0  0  0  0  0  0  0  0  0  0  0  0
    1.0026   -1.1755   -0.1719 C   0  0  0  0  0  0  0  0  0  0  0  0
    0.7004   -1.6734   -1.0926 H   0  0  0  0  0  0  0  0  0  0  0  0
    1.9143   -0.6139   -0.3698 H   0  0  0  0  0  0  0  0  0  0  0  0
    1.3012   -2.2679    0.8422 C   0  0  0  0  0  0  0  0  0  0  0  0
    1.3659   -2.0601    2.0413 O   0  0  0  0  0  0  0  0  0  0  0  0
    1.5049   -3.4818    0.3916 N   0  0  0  0  0  0  0  0  0  0  0  0
    1.6826   -4.1862    1.0858 H   0  0  0  0  0  0  0  0  0  0  0  0
    1.4384   -3.6824   -0.5884 H   0  0  0  0  0  0  0  0  0  0  0  0
   -0.1884    1.0560   -0.6309 C   0  0  0  0  0  0  0  0  0  0  0  0
    0.7367    1.3189   -1.3993 O   0  0  0  0  0  0  0  0  0  0  0  0
   -1.2735    1.8296   -0.5284 N   0  0  0  0  0  0  0  0  0  0  0  0
   -1.9527    1.5813    0.1839 H   0  0  0  0  0  0  0  0  0  0  0  0
   -1.5035    3.0414   -1.3129 C   0  0  0  0  0  0  0  0  0  0  0  0
   -1.4529    2.8053   -2.3780 H   0  0  0  0  0  0  0  0  0  0  0  0
   -2.4860    3.4556   -1.0824 H   0  0  0  0  0  0  0  0  0  0  0  0
   -0.7360    3.7817   -1.0811 H   0  0  0  0  0  0  0  0  0  0  0  0
  5  6  2  0  0  0  0
  5  7  1  0  0  0  0
  2  3  1  0  0  0  0
  2  4  1  0  0  0  0
  2  5  1  0  0  0  0
  1  2  1  0  0  0  0
 19 20  2  0  0  0  0
 19 21  1  0  0  0  0
 16 17  1  0  0  0  0
 16 18  1  0  0  0  0
 14 15  2  0  0  0  0
 14 16  1  0  0  0  0
 11 12  1  0  0  0  0
 11 13  1  0  0  0  0
 11 14  1  0  0  0  0
  9 10  1  0  0  0  0
  9 11  1  0  0  0  0
  9 19  1  0  0  0  0
  7  8  1  0  0  0  0
  7  9  1  0  0  0  0
 23 24  1  0  0  0  0
 23 25  1  0  0  0  0
 23 26  1  0  0  0  0
 21 22  1  0  0  0  0
 21 23  1  0  0  0  0
M  END
$$$$
default_name
  -OEChem-01062215323D

 26 25  0     1  0  0  0  0  0999 V2000
   -3.0232   -3.6924    1.0038 H   0  0  0  0  0  0  0  0  0  0  0  0
   -3.0082   -2.6684    0.6318 C   0  0  0  0  0  0  0  0  0  0  0  0
   -3.6332   -2.0414    1.2658 H   0  0  0  0  0  0  0  0  0  0  0  0
   -3.3762   -2.6444   -0.3912 H   0  0  0  0  0  0  0  0  0  0  0  0
   -1.5882   -2.1554    0.6658 C   0  0  0  0  0  0  0  0  0  0  0  0
   -0.6832   -2.8764    1.0638 O   0  0  0  0  0  0  0  0  0  0  0  0
   -1.3952   -0.9084    0.2428 N   0  0  0  0  0  0  0  0  0  0  0  0
   -2.1972   -0.3644   -0.0422 H   0  0  0  0  0  0  0  0  0  0  0  0
   -0.1122   -0.1994    0.2658 C   0  0  1  0  0  0  0  0  0  0  0  0
    0.0862    0.1266    1.2901 H   0  0  0  0  0  0  0  0  0  0  0  0
    1.0026   -1.1755   -0.1719 C   0  0  0  0  0  0  0  0  0  0  0  0
    0.7004   -1.6734   -1.0926 H   0  0  0  0  0  0  0  0  0  0  0  0
    1.9143   -0.6139   -0.3698 H   0  0  0  0  0  0  0  0  0  0  0  0
    1.3012   -2.2679    0.8422 C   0  0  0  0  0  0  0  0  0  0  0  0
    1.3659   -2.0601    2.0413 O   0  0  0  0  0  0  0  0  0  0  0  0
    1.5049   -3.4818    0.3916 N   0  0  0  0  0  0  0  0  0  0  0  0
    1.6826   -4.1862    1.0858 H   0  0  0  0  0  0  0  0  0  0  0  0
    1.4384   -3.6824   -0.5884 H   0  0  0  0  0  0  0  0  0  0  0  0
   -0.1884    1.0560   -0.6309 C   0  0  0  0  0  0  0  0  0  0  0  0
    0.5820    1.1782   -1.5832 O   0  0  0  0  0  0  0  0  0  0  0  0
   -1.0998    1.9848   -0.3259 N   0  0  0  0  0  0  0  0  0  0  0  0
   -1.6423    1.8400    0.5197 H   0  0  0  0  0  0  0  0  0  0  0  0
   -1.3074    3.2200   -1.0794 C   0  0  0  0  0  0  0  0  0  0  0  0
   -1.5187    2.9825   -2.1243 H   0  0  0  0  0  0  0  0  0  0  0  0
   -2.1460    3.7777   -0.6603 H   0  0  0  0  0  0  0  0  0  0  0  0
   -0.4067    3.8347   -1.0349 H   0  0  0  0  0  0  0  0  0  0  0  0
  5  6  2  0  0  0  0
  5  7  1  0  0  0  0
  2  3  1  0  0  0  0
  2  4  1  0  0  0  0
  2  5  1  0  0  0  0
  1  2  1  0  0  0  0
 19 20  2  0  0  0  0
 19 21  1  0  0  0  0
 16 17  1  0  0  0  0
 16 18  1  0  0  0  0
 14 15  2  0  0  0  0
 14 16  1  0  0  0  0
 11 12  1  0  0  0  0
 11 13  1  0  0  0  0
 11 14  1  0  0  0  0
  9 10  1  0  0  0  0
  9 11  1  0  0  0  0
  9 19  1  0  0  0  0
  7  8  1  0  0  0  0
  7  9  1  0  0  0  0
 23 24  1  0  0  0  0
 23 25  1  0  0  0  0
 23 26  1  0  0  0  0
 21 22  1  0  0  0  0
 21 23  1  0  0  0  0
M  END
$$$$
default_name
  -OEChem-01062215323D

 26 25  0     1  0  0  0  0  0999 V2000
   -3.0232   -3.6924    1.0038 H   0  0  0  0  0  0  0  0  0  0  0  0
   -3.0082   -2.6684    0.6318 C   0  0  0  0  0  0  0  0  0  0  0  0
   -3.6332   -2.0414    1.2658 H   0  0  0  0  0  0  0  0  0  0  0  0
   -3.3762   -2.6444   -0.3912 H   0  0  0  0  0  0  0  0  0  0  0  0
   -1.5882   -2.1554    0.6658 C   0  0  0  0  0  0  0  0  0  0  0  0
   -0.6832   -2.8764    1.0638 O   0  0  0  0  0  0  0  0  0  0  0  0
   -1.3952   -0.9084    0.2428 N   0  0  0  0  0  0  0  0  0  0  0  0
   -2.1972   -0.3644   -0.0422 H   0  0  0  0  0  0  0  0  0  0  0  0
   -0.1122   -0.1994    0.2658 C   0  0  1  0  0  0  0  0  0  0  0  0
    0.0862    0.1266    1.2901 H   0  0  0  0  0  0  0  0  0  0  0  0
    1.0026   -1.1755   -0.1719 C   0  0  0  0  0  0  0  0  0  0  0  0
    0.7004   -1.6734   -1.0926 H   0  0  0  0  0  0  0  0  0  0  0  0
    1.9143   -0.6139   -0.3698 H   0  0  0  0  0  0  0  0  0  0  0  0
    1.3012   -2.2679    0.8422 C   0  0  0  0  0  0  0  0  0  0  0  0
    1.3659   -2.0601    2.0413 O   0  0  0  0  0  0  0  0  0  0  0  0
    1.5049   -3.4818    0.3916 N   0  0  0  0  0  0  0  0  0  0  0  0
    1.6826   -4.1862    1.0858 H   0  0  0  0  0  0  0  0  0  0  0  0
    1.4384   -3.6824   -0.5884 H   0  0  0  0  0  0  0  0  0  0  0  0
   -0.1884    1.0560   -0.6309 C   0  0  0  0  0  0  0  0  0  0  0  0
    0.3727    1.0631   -1.7266 O   0  0  0  0  0  0  0  0  0  0  0  0
   -0.8661    2.1112   -0.1687 N   0  0  0  0  0  0  0  0  0  0  0  0
   -1.2330    2.0476    0.7755 H   0  0  0  0  0  0  0  0  0  0  0  0
   -1.0420    3.3662   -0.8974 C   0  0  0  0  0  0  0  0  0  0  0  0
   -1.5023    3.1669   -1.8676 H   0  0  0  0  0  0  0  0  0  0  0  0
   -1.6805    4.0431   -0.3283 H   0  0  0  0  0  0  0  0  0  0  0  0
   -0.0710    3.8370   -1.0602 H   0  0  0  0  0  0  0  0  0  0  0  0
  5  6  2  0  0  0  0
  5  7  1  0  0  0  0
  2  3  1  0  0  0  0
  2  4  1  0  0  0  0
  2  5  1  0  0  0  0
  1  2  1  0  0  0  0
 19 20  2  0  0  0  0
 19 21  1  0  0  0  0
 16 17  1  0  0  0  0
 16 18  1  0  0  0  0
 14 15  2  0  0  0  0
 14 16  1  0  0  0  0
 11 12  1  0  0  0  0
 11 13  1  0  0  0  0
 11 14  1  0  0  0  0
  9 10  1  0  0  0  0
  9 11  1  0  0  0  0
  9 19  1  0  0  0  0
  7  8  1  0  0  0  0
  7  9  1  0  0  0  0
 23 24  1  0  0  0  0
 23 25  1  0  0  0  0
 23 26  1  0  0  0  0
 21 22  1  0  0  0  0
 21 23  1  0  0  0  0
M  END
$$$$
default_name
  -OEChem-01062215323D

 26 25  0     1  0  0  0  0  0999 V2000
   -3.0232   -3.6924    1.0038 H   0  0  0  0  0  0  0  0  0  0  0  0
   -3.0082   -2.6684    0.6318 C   0  0  0  0  0  0  0  0  0  0  0  0
   -3.6332   -2.0414    1.2658 H   0  0  0  0  0  0  0  0  0  0  0  0
   -3.3762   -2.6444   -0.3912 H   0  0  0  0  0  0  0  0  0  0  0  0
   -1.5882   -2.1554    0.6658 C   0  0  0  0  0  0  0  0  0  0  0  0
   -0.6832   -2.8764    1.0638 O   0  0  0  0  0  0  0  0  0  0  0  0
   -1.3952   -0.9084    0.2428 N   0  0  0  0  0  0  0  0  0  0  0  0
   -2.1972   -0.3644   -0.0422 H   0  0  0  0  0  0  0  0  0  0  0  0
   -0.1122   -0.1994    0.2658 C   0  0  1  0  0  0  0  0  0  0  0  0
    0.0862    0.1266    1.2901 H   0  0  0  0  0  0  0  0  0  0  0  0
    1.0026   -1.1755   -0.1719 C   0  0  0  0  0  0  0  0  0  0  0  0
    0.7004   -1.6734   -1.0926 H   0  0  0  0  0  0  0  0  0  0  0  0
    1.9143   -0.6139   -0.3698 H   0  0  0  0  0  0  0  0  0  0  0  0
    1.3012   -2.2679    0.8422 C   0  0  0  0  0  0  0  0  0  0  0  0
    1.3659   -2.0601    2.0413 O   0  0  0  0  0  0  0  0  0  0  0  0
    1.5049   -3.4818    0.3916 N   0  0  0  0  0  0  0  0  0  0  0  0
    1.6826   -4.1862    1.0858 H   0  0  0  0  0  0  0  0  0  0  0  0
    1.4384   -3.6824   -0.5884 H   0  0  0  0  0  0  0  0  0  0  0  0
   -0.1884    1.0560   -0.6309 C   0  0  0  0  0  0  0  0  0  0  0  0
    0.1231    0.9816   -1.8195 O   0  0  0  0  0  0  0  0  0  0  0  0
   -0.5883    2.2002   -0.0677 N   0  0  0  0  0  0  0  0  0  0  0  0
   -0.7527    2.1898    0.9339 H   0  0  0  0  0  0  0  0  0  0  0  0
   -0.7254    3.4697   -0.7793 C   0  0  0  0  0  0  0  0  0  0  0  0
   -1.4047    3.3457   -1.6254 H   0  0  0  0  0  0  0  0  0  0  0  0
   -1.1211    4.2338   -0.1088 H   0  0  0  0  0  0  0  0  0  0  0  0
    0.2483    3.7884   -1.1553 H   0  0  0  0  0  0  0  0  0  0  0  0
  5  6  2  0  0  0  0
  5  7  1  0  0  0  0
  2  3  1  0  0  0  0
  2  4  1  0  0  0  0
  2  5  1  0  0  0  0
  1  2  1  0  0  0  0
 19 20  2  0  0  0  0
 19 21  1  0  0  0  0
 16 17  1  0  0  0  0
 16 18  1  0  0  0  0
 14 15  2  0  0  0  0
 14 16  1  0  0  0  0
 11 12  1  0  0  0  0
 11 13  1  0  0  0  0
 11 14  1  0  0  0  0
  9 10  1  0  0  0  0
  9 11  1  0  0  0  0
  9 19  1  0  0  0  0
  7  8  1  0  0  0  0
  7  9  1  0  0  0  0
 23 24  1  0  0  0  0
 23 25  1  0  0  0  0
 23 26  1  0  0  0  0
 21 22  1  0  0  0  0
 21 23  1  0  0  0  0
M  END
$$$$
default_name
  -OEChem-01062215323D

 26 25  0     1  0  0  0  0  0999 V2000
   -3.0232   -3.6924    1.0038 H   0  0  0  0  0  0  0  0  0  0  0  0
   -3.0082   -2.6684    0.6318 C   0  0  0  0  0  0  0  0  0  0  0  0
   -3.6332   -2.0414    1.2658 H   0  0  0  0  0  0  0  0  0  0  0  0
   -3.3762   -2.6444   -0.3912 H   0  0  0  0  0  0  0  0  0  0  0  0
   -1.5882   -2.1554    0.6658 C   0  0  0  0  0  0  0  0  0  0  0  0
   -0.6832   -2.8764    1.0638 O   0  0  0  0  0  0  0  0  0  0  0  0
   -1.3952   -0.9084    0.2428 N   0  0  0  0  0  0  0  0  0  0  0  0
   -2.1972   -0.3644   -0.0422 H   0  0  0  0  0  0  0  0  0  0  0  0
   -0.1122   -0.1994    0.2658 C   0  0  1  0  0  0  0  0  0  0  0  0
    0.0862    0.1266    1.2901 H   0  0  0  0  0  0  0  0  0  0  0  0
    1.0026   -1.1755   -0.1719 C   0  0  0  0  0  0  0  0  0  0  0  0
    0.7004   -1.6734   -1.0926 H   0  0  0  0  0  0  0  0  0  0  0  0
    1.9143   -0.6139   -0.3698 H   0  0  0  0  0  0  0  0  0  0  0  0
    1.3012   -2.2679    0.8422 C   0  0  0  0  0  0  0  0  0  0  0  0
    1.3659   -2.0601    2.0413 O   0  0  0  0  0  0  0  0  0  0  0  0
    1.5049   -3.4818    0.3916 N   0  0  0  0  0  0  0  0  0  0  0  0
    1.6826   -4.1862    1.0858 H   0  0  0  0  0  0  0  0  0  0  0  0
    1.4384   -3.6824   -0.5884 H   0  0  0  0  0  0  0  0  0  0  0  0
   -0.1884    1.0560   -0.6309 C   0  0  0  0  0  0  0  0  0  0  0  0
   -0.1497    0.9392   -1.8557 O   0  0  0  0  0  0  0  0  0  0  0  0
   -0.2853    2.2458   -0.0297 N   0  0  0  0  0  0  0  0  0  0  0  0
   -0.2340    2.2571    0.9840 H   0  0  0  0  0  0  0  0  0  0  0  0
   -0.3791    3.5237   -0.7332 C   0  0  0  0  0  0  0  0  0  0  0  0
   -1.2327    3.5070   -1.4143 H   0  0  0  0  0  0  0  0  0  0  0  0
   -0.5060    4.3368   -0.0170 H   0  0  0  0  0  0  0  0  0  0  0  0
    0.5294    3.6924   -1.3137 H   0  0  0  0  0  0  0  0  0  0  0  0
  5  6  2  0  0  0  0
  5  7  1  0  0  0  0
  2  3  1  0  0  0  0
  2  4  1  0  0  0  0
  2  5  1  0  0  0  0
  1  2  1  0  0  0  0
 19 20  2  0  0  0  0
 19 21  1  0  0  0  0
 16 17  1  0  0  0  0
 16 18  1  0  0  0  0
 14 15  2  0  0  0  0
 14 16  1  0  0  0  0
 11 12  1  0  0  0  0
 11 13  1  0  0  0  0
 11 14  1  0  0  0  0
  9 10  1  0  0  0  0
  9 11  1  0  0  0  0
  9 19  1  0  0  0  0
  7  8  1  0  0  0  0
  7  9  1  0  0  0  0
 23 24  1  0  0  0  0
 23 25  1  0  0  0  0
 23 26  1  0  0  0  0
 21 22  1  0  0  0  0
 21 23  1  0  0  0  0
M  END
$$$$
default_name
  -OEChem-01062215323D

 26 25  0     1  0  0  0  0  0999 V2000
   -3.0232   -3.6924    1.0038 H   0  0  0  0  0  0  0  0  0  0  0  0
   -3.0082   -2.6684    0.6318 C   0  0  0  0  0  0  0  0  0  0  0  0
   -3.6332   -2.0414    1.2658 H   0  0  0  0  0  0  0  0  0  0  0  0
   -3.3762   -2.6444   -0.3912 H   0  0  0  0  0  0  0  0  0  0  0  0
   -1.5882   -2.1554    0.6658 C   0  0  0  0  0  0  0  0  0  0  0  0
   -0.6832   -2.8764    1.0638 O   0  0  0  0  0  0  0  0  0  0  0  0
   -1.3952   -0.9084    0.2428 N   0  0  0  0  0  0  0  0  0  0  0  0
   -2.1972   -0.3644   -0.0422 H   0  0  0  0  0  0  0  0  0  0  0  0
   -0.1122   -0.1994    0.2658 C   0  0  1  0  0  0  0  0  0  0  0  0
    0.0862    0.1266    1.2901 H   0  0  0  0  0  0  0  0  0  0  0  0
    1.0026   -1.1755   -0.1719 C   0  0  0  0  0  0  0  0  0  0  0  0
    0.7004   -1.6734   -1.0926 H   0  0  0  0  0  0  0  0  0  0  0  0
    1.9143   -0.6139   -0.3698 H   0  0  0  0  0  0  0  0  0  0  0  0
    1.3012   -2.2679    0.8422 C   0  0  0  0  0  0  0  0  0  0  0  0
    1.3659   -2.0601    2.0413 O   0  0  0  0  0  0  0  0  0  0  0  0
    1.5049   -3.4818    0.3916 N   0  0  0  0  0  0  0  0  0  0  0  0
    1.6826   -4.1862    1.0858 H   0  0  0  0  0  0  0  0  0  0  0  0
    1.4384   -3.6824   -0.5884 H   0  0  0  0  0  0  0  0  0  0  0  0
   -0.1884    1.0560   -0.6309 C   0  0  0  0  0  0  0  0  0  0  0  0
   -0.4273    0.9387   -1.8328 O   0  0  0  0  0  0  0  0  0  0  0  0
    0.0221    2.2447   -0.0573 N   0  0  0  0  0  0  0  0  0  0  0  0
    0.2876    2.2448    0.9224 H   0  0  0  0  0  0  0  0  0  0  0  0
   -0.0269    3.5244   -0.7621 C   0  0  0  0  0  0  0  0  0  0  0  0
   -0.9978    3.6395   -1.2487 H   0  0  0  0  0  0  0  0  0  0  0  0
    0.1230    4.3449   -0.0590 H   0  0  0  0  0  0  0  0  0  0  0  0
    0.7532    3.5553   -1.5247 H   0  0  0  0  0  0  0  0  0  0  0  0
  5  6  2  0  0  0  0
  5  7  1  0  0  0  0
  2  3  1  0  0  0  0
  2  4  1  0  0  0  0
  2  5  1  0  0  0  0
  1  2  1  0  0  0  0
 19 20  2  0  0  0  0
 19 21  1  0  0  0  0
 16 17  1  0  0  0  0
 16 18  1  0  0  0  0
 14 15  2  0  0  0  0
 14 16  1  0  0  0  0
 11 12  1  0  0  0  0
 11 13  1  0  0  0  0
 11 14  1  0  0  0  0
  9 10  1  0  0  0  0
  9 11  1  0  0  0  0
  9 19  1  0  0  0  0
  7  8  1  0  0  0  0
  7  9  1  0  0  0  0
 23 24  1  0  0  0  0
 23 25  1  0  0  0  0
 23 26  1  0  0  0  0
 21 22  1  0  0  0  0
 21 23  1  0  0  0  0
M  END
$$$$
default_name
  -OEChem-01062215323D

 26 25  0     1  0  0  0  0  0999 V2000
   -3.0232   -3.6924    1.0038 H   0  0  0  0  0  0  0  0  0  0  0  0
   -3.0082   -2.6684    0.6318 C   0  0  0  0  0  0  0  0  0  0  0  0
   -3.6332   -2.0414    1.2658 H   0  0  0  0  0  0  0  0  0  0  0  0
   -3.3762   -2.6444   -0.3912 H   0  0  0  0  0  0  0  0  0  0  0  0
   -1.5882   -2.1554    0.6658 C   0  0  0  0  0  0  0  0  0  0  0  0
   -0.6832   -2.8764    1.0638 O   0  0  0  0  0  0  0  0  0  0  0  0
   -1.3952   -0.9084    0.2428 N   0  0  0  0  0  0  0  0  0  0  0  0
   -2.1972   -0.3644   -0.0422 H   0  0  0  0  0  0  0  0  0  0  0  0
   -0.1122   -0.1994    0.2658 C   0  0  1  0  0  0  0  0  0  0  0  0
    0.0862    0.1266    1.2901 H   0  0  0  0  0  0  0  0  0  0  0  0
    1.0026   -1.1755   -0.1719 C   0  0  0  0  0  0  0  0  0  0  0  0
    0.7004   -1.6734   -1.0926 H   0  0  0  0  0  0  0  0  0  0  0  0
    1.9143   -0.6139   -0.3698 H   0  0  0  0  0  0  0  0  0  0  0  0
    1.3012   -2.2679    0.8422 C   0  0  0  0  0  0  0  0  0  0  0  0
    1.3659   -2.0601    2.0413 O   0  0  0  0  0  0  0  0  0  0  0  0
    1.5049   -3.4818    0.3916 N   0  0  0  0  0  0  0  0  0  0  0  0
    1.6826   -4.1862    1.0858 H   0  0  0  0  0  0  0  0  0  0  0  0
    1.4384   -3.6824   -0.5884 H   0  0  0  0  0  0  0  0  0  0  0  0
   -0.1884    1.0560   -0.6309 C   0  0  0  0  0  0  0  0  0  0  0  0
   -0.6907    0.9803   -1.7522 O   0  0  0  0  0  0  0  0  0  0  0  0
    0.3131    2.1972   -0.1486 N   0  0  0  0  0  0  0  0  0  0  0  0
    0.7767    2.1537    0.7533 H   0  0  0  0  0  0  0  0  0  0  0  0
    0.3074    3.4718   -0.8642 C   0  0  0  0  0  0  0  0  0  0  0  0
   -0.7163    3.7344   -1.1398 H   0  0  0  0  0  0  0  0  0  0  0  0
    0.7229    4.2578   -0.2320 H   0  0  0  0  0  0  0  0  0  0  0  0
    0.9044    3.3866   -1.7737 H   0  0  0  0  0  0  0  0  0  0  0  0
  5  6  2  0  0  0  0
  5  7  1  0  0  0  0
  2  3  1  0  0  0  0
  2  4  1  0  0  0  0
  2  5  1  0  0  0  0
  1  2  1  0  0  0  0
 19 20  2  0  0  0  0
 19 21  1  0  0  0  0
 16 17  1  0  0  0  0
 16 18  1  0  0  0  0
 14 15  2  0  0  0  0
 14 16  1  0  0  0  0
 11 12  1  0  0  0  0
 11 13  1  0  0  0  0
 11 14  1  0  0  0  0
  9 10  1  0  0  0  0
  9 11  1  0  0  0  0
  9 19  1  0  0  0  0
  7  8  1  0  0  0  0
  7  9  1  0  0  0  0
 23 24  1  0  0  0  0
 23 25  1  0  0  0  0
 23 26  1  0  0  0  0
 21 22  1  0  0  0  0
 21 23  1  0  0  0  0
M  END
$$$$
default_name
  -OEChem-01062215323D

 26 25  0     1  0  0  0  0  0999 V2000
   -3.0232   -3.6924    1.0038 H   0  0  0  0  0  0  0  0  0  0  0  0
   -3.0082   -2.6684    0.6318 C   0  0  0  0  0  0  0  0  0  0  0  0
   -3.6332   -2.0414    1.2658 H   0  0  0  0  0  0  0  0  0  0  0  0
   -3.3762   -2.6444   -0.3912 H   0  0  0  0  0  0  0  0  0  0  0  0
   -1.5882   -2.1554    0.6658 C   0  0  0  0  0  0  0  0  0  0  0  0
   -0.6832   -2.8764    1.0638 O   0  0  0  0  0  0  0  0  0  0  0  0
   -1.3952   -0.9084    0.2428 N   0  0  0  0  0  0  0  0  0  0  0  0
   -2.1972   -0.3644   -0.0422 H   0  0  0  0  0  0  0  0  0  0  0  0
   -0.1122   -0.1994    0.2658 C   0  0  1  0  0  0  0  0  0  0  0  0
    0.0862    0.1266    1.2901 H   0  0  0  0  0  0  0  0  0  0  0  0
    1.0026   -1.1755   -0.1719 C   0  0  0  0  0  0  0  0  0  0  0  0
    0.7004   -1.6734   -1.0926 H   0  0  0  0  0  0  0  0  0  0  0  0
    1.9143   -0.6139   -0.3698 H   0  0  0  0  0  0  0  0  0  0  0  0
    1.3012   -2.2679    0.8422 C   0  0  0  0  0  0  0  0  0  0  0  0
    1.3659   -2.0601    2.0413 O   0  0  0  0  0  0  0  0  0  0  0  0
    1.5049   -3.4818    0.3916 N   0  0  0  0  0  0  0  0  0  0  0  0
    1.6826   -4.1862    1.0858 H   0  0  0  0  0  0  0  0  0  0  0  0
    1.4384   -3.6824   -0.5884 H   0  0  0  0  0  0  0  0  0  0  0  0
   -0.1884    1.0560   -0.6309 C   0  0  0  0  0  0  0  0  0  0  0  0
   -0.9219    1.0610   -1.6195 O   0  0  0  0  0  0  0  0  0  0  0  0
    0.5679    2.1063   -0.2975 N   0  0  0  0  0  0  0  0  0  0  0  0
    1.1998    1.9901    0.4883 H   0  0  0  0  0  0  0  0  0  0  0  0
    0.6009    3.3695   -1.0324 C   0  0  0  0  0  0  0  0  0  0  0  0
   -0.4071    3.7851   -1.0950 H   0  0  0  0  0  0  0  0  0  0  0  0
    1.2529    4.0813   -0.5242 H   0  0  0  0  0  0  0  0  0  0  0  0
    0.9727    3.1978   -2.0439 H   0  0  0  0  0  0  0  0  0  0  0  0
  5  6  2  0  0  0  0
  5  7  1  0  0  0  0
  2  3  1  0  0  0  0
  2  4  1  0  0  0  0
  2  5  1  0  0  0  0
  1  2  1  0  0  0  0
 19 20  2  0  0  0  0
 19 21  1  0  0  0  0
 16 17  1  0  0  0  0
 16 18  1  0  0  0  0
 14 15  2  0  0  0  0
 14 16  1  0  0  0  0
 11 12  1  0  0  0  0
 11 13  1  0  0  0  0
 11 14  1  0  0  0  0
  9 10  1  0  0  0  0
  9 11  1  0  0  0  0
  9 19  1  0  0  0  0
  7  8  1  0  0  0  0
  7  9  1  0  0  0  0
 23 24  1  0  0  0  0
 23 25  1  0  0  0  0
 23 26  1  0  0  0  0
 21 22  1  0  0  0  0
 21 23  1  0  0  0  0
M  END
$$$$
default_name
  -OEChem-01062215323D

 26 25  0     1  0  0  0  0  0999 V2000
   -3.0232   -3.6924    1.0038 H   0  0  0  0  0  0  0  0  0  0  0  0
   -3.0082   -2.6684    0.6318 C   0  0  0  0  0  0  0  0  0  0  0  0
   -3.6332   -2.0414    1.2658 H   0  0  0  0  0  0  0  0  0  0  0  0
   -3.3762   -2.6444   -0.3912 H   0  0  0  0  0  0  0  0  0  0  0  0
   -1.5882   -2.1554    0.6658 C   0  0  0  0  0  0  0  0  0  0  0  0
   -0.6832   -2.8764    1.0638 O   0  0  0  0  0  0  0  0  0  0  0  0
   -1.3952   -0.9084    0.2428 N   0  0  0  0  0  0  0  0  0  0  0  0
   -2.1972   -0.3644   -0.0422 H   0  0  0  0  0  0  0  0  0  0  0  0
   -0.1122   -0.1994    0.2658 C   0  0  1  0  0  0  0  0  0  0  0  0
    0.0862    0.1266    1.2901 H   0  0  0  0  0  0  0  0  0  0  0  0
    1.0026   -1.1755   -0.1719 C   0  0  0  0  0  0  0  0  0  0  0  0
    0.7004   -1.6734   -1.0926 H   0  0  0  0  0  0  0  0  0  0  0  0
    1.9143   -0.6139   -0.3698 H   0  0  0  0  0  0  0  0  0  0  0  0
    1.3012   -2.2679    0.8422 C   0  0  0  0  0  0  0  0  0  0  0  0
    1.3659   -2.0601    2.0413 O   0  0  0  0  0  0  0  0  0  0  0  0
    1.5049   -3.4818    0.3916 N   0  0  0  0  0  0  0  0  0  0  0  0
    1.6826   -4.1862    1.0858 H   0  0  0  0  0  0  0  0  0  0  0  0
    1.4384   -3.6824   -0.5884 H   0  0  0  0  0  0  0  0  0  0  0  0
   -0.1884    1.0560   -0.6309 C   0  0  0  0  0  0  0  0  0  0  0  0
   -1.1051    1.1754   -1.4438 O   0  0  0  0  0  0  0  0  0  0  0  0
    0.7690    1.9784   -0.4937 N   0  0  0  0  0  0  0  0  0  0  0  0
    1.5282    1.7652    0.1454 H   0  0  0  0  0  0  0  0  0  0  0  0
    0.8336    3.2244   -1.2553 C   0  0  0  0  0  0  0  0  0  0  0  0
   -0.0915    3.7883   -1.1175 H   0  0  0  0  0  0  0  0  0  0  0  0
    1.6768    3.8274   -0.9156 H   0  0  0  0  0  0  0  0  0  0  0  0
    0.9534    3.0016   -2.3169 H   0  0  0  0  0  0  0  0  0  0  0  0
  5  6  2  0  0  0  0
  5  7  1  0  0  0  0
  2  3  1  0  0  0  0
  2  4  1  0  0  0  0
  2  5  1  0  0  0  0
  1  2  1  0  0  0  0
 19 20  2  0  0  0  0
 19 21  1  0  0  0  0
 16 17  1  0  0  0  0
 16 18  1  0  0  0  0
 14 15  2  0  0  0  0
 14 16  1  0  0  0  0
 11 12  1  0  0  0  0
 11 13  1  0  0  0  0
 11 14  1  0  0  0  0
  9 10  1  0  0  0  0
  9 11  1  0  0  0  0
  9 19  1  0  0  0  0
  7  8  1  0  0  0  0
  7  9  1  0  0  0  0
 23 24  1  0  0  0  0
 23 25  1  0  0  0  0
 23 26  1  0  0  0  0
 21 22  1  0  0  0  0
 21 23  1  0  0  0  0
M  END
$$$$
