default_name
  -OEChem-02102213163D

 26 25  0     1  0  0  0  0  0999 V2000
   -3.0232   -3.6924    1.0038 H   0  0  0  0  0  0  0  0  0  0  0  0
   -3.0082   -2.6684    0.6318 C   0  0  0  0  0  0  0  0  0  0  0  0
   -3.6332   -2.0414    1.2658 H   0  0  0  0  0  0  0  0  0  0  0  0
   -3.3762   -2.6444   -0.3912 H   0  0  0  0  0  0  0  0  0  0  0  0
   -1.5882   -2.1554    0.6658 C   0  0  0  0  0  0  0  0  0  0  0  0
   -0.6832   -2.8764    1.0638 O   0  0  0  0  0  0  0  0  0  0  0  0
   -1.3952   -0.9084    0.2428 N   0  0  0  0  0  0  0  0  0  0  0  0
   -2.1972   -0.3644   -0.0422 H   0  0  0  0  0  0  0  0  0  0  0  0
   -0.1122   -0.1994    0.2658 C   0  0  1  0  0  0  0  0  0  0  0  0
    0.5635   -0.7260    0.9446 H   0  0  0  0  0  0  0  0  0  0  0  0
    0.4924   -0.2204   -1.1558 C   0  0  0  0  0  0  0  0  0  0  0  0
    0.6541   -1.2539   -1.4602 H   0  0  0  0  0  0  0  0  0  0  0  0
   -0.2103    0.2355   -1.8517 H   0  0  0  0  0  0  0  0  0  0  0  0
    1.8334    0.4869   -1.2679 C   0  0  0  0  0  0  0  0  0  0  0  0
    2.4551    0.5686   -2.3129 O   0  0  0  0  0  0  0  0  0  0  0  0
    2.3361    1.0208   -0.1813 N   0  0  0  0  0  0  0  0  0  0  0  0
    3.2145    1.4965   -0.2892 H   0  0  0  0  0  0  0  0  0  0  0  0
    1.8355    0.9838    0.6865 H   0  0  0  0  0  0  0  0  0  0  0  0
   -0.3126    1.2341    0.8050 C   0  0  0  0  0  0  0  0  0  0  0  0
   -1.2484    1.9199    0.3934 O   0  0  0  0  0  0  0  0  0  0  0  0
    0.5615    1.6875    1.7087 N   0  0  0  0  0  0  0  0  0  0  0  0
    1.3461    1.0849    1.9358 H   0  0  0  0  0  0  0  0  0  0  0  0
    0.5043    3.0121    2.3242 C   0  0  0  0  0  0  0  0  0  0  0  0
   -0.4649    3.1514    2.8080 H   0  0  0  0  0  0  0  0  0  0  0  0
    1.2959    3.1139    3.0678 H   0  0  0  0  0  0  0  0  0  0  0  0
    0.6273    3.7799    1.5584 H   0  0  0  0  0  0  0  0  0  0  0  0
  5  6  2  0  0  0  0
  5  7  1  0  0  0  0
  2  3  1  0  0  0  0
  2  4  1  0  0  0  0
  2  5  1  0  0  0  0
  1  2  1  0  0  0  0
 19 20  2  0  0  0  0
 19 21  1  0  0  0  0
 16 17  1  0  0  0  0
 16 18  1  0  0  0  0
 14 15  2  0  0  0  0
 14 16  1  0  0  0  0
 11 12  1  0  0  0  0
 11 13  1  0  0  0  0
 11 14  1  0  0  0  0
  9 10  1  0  0  0  0
  9 11  1  0  0  0  0
  9 19  1  0  0  0  0
  7  8  1  0  0  0  0
  7  9  1  0  0  0  0
 23 24  1  0  0  0  0
 23 25  1  0  0  0  0
 23 26  1  0  0  0  0
 21 22  1  0  0  0  0
 21 23  1  0  0  0  0
M  END
$$$$
default_name
  -OEChem-02102213163D

 26 25  0     1  0  0  0  0  0999 V2000
   -3.0232   -3.6924    1.0038 H   0  0  0  0  0  0  0  0  0  0  0  0
   -3.0082   -2.6684    0.6318 C   0  0  0  0  0  0  0  0  0  0  0  0
   -3.6332   -2.0414    1.2658 H   0  0  0  0  0  0  0  0  0  0  0  0
   -3.3762   -2.6444   -0.3912 H   0  0  0  0  0  0  0  0  0  0  0  0
   -1.5882   -2.1554    0.6658 C   0  0  0  0  0  0  0  0  0  0  0  0
   -0.6832   -2.8764    1.0638 O   0  0  0  0  0  0  0  0  0  0  0  0
   -1.3952   -0.9084    0.2428 N   0  0  0  0  0  0  0  0  0  0  0  0
   -2.1972   -0.3644   -0.0422 H   0  0  0  0  0  0  0  0  0  0  0  0
   -0.1122   -0.1994    0.2658 C   0  0  1  0  0  0  0  0  0  0  0  0
    0.5635   -0.7260    0.9446 H   0  0  0  0  0  0  0  0  0  0  0  0
    0.4924   -0.2204   -1.1558 C   0  0  0  0  0  0  0  0  0  0  0  0
    0.6541   -1.2539   -1.4602 H   0  0  0  0  0  0  0  0  0  0  0  0
   -0.2103    0.2355   -1.8517 H   0  0  0  0  0  0  0  0  0  0  0  0
    1.8334    0.4869   -1.2679 C   0  0  0  0  0  0  0  0  0  0  0  0
    2.3295    0.8030   -2.3352 O   0  0  0  0  0  0  0  0  0  0  0  0
    2.4784    0.7547   -0.1585 N   0  0  0  0  0  0  0  0  0  0  0  0
    3.3531    1.2380   -0.2624 H   0  0  0  0  0  0  0  0  0  0  0  0
    2.0829    0.5221    0.7329 H   0  0  0  0  0  0  0  0  0  0  0  0
   -0.3126    1.2341    0.8050 C   0  0  0  0  0  0  0  0  0  0  0  0
   -1.2484    1.9199    0.3934 O   0  0  0  0  0  0  0  0  0  0  0  0
    0.5615    1.6875    1.7087 N   0  0  0  0  0  0  0  0  0  0  0  0
    1.3461    1.0849    1.9358 H   0  0  0  0  0  0  0  0  0  0  0  0
    0.5043    3.0121    2.3242 C   0  0  0  0  0  0  0  0  0  0  0  0
   -0.4649    3.1514    2.8080 H   0  0  0  0  0  0  0  0  0  0  0  0
    1.2959    3.1139    3.0678 H   0  0  0  0  0  0  0  0  0  0  0  0
    0.6273    3.7799    1.5584 H   0  0  0  0  0  0  0  0  0  0  0  0
  5  6  2  0  0  0  0
  5  7  1  0  0  0  0
  2  3  1  0  0  0  0
  2  4  1  0  0  0  0
  2  5  1  0  0  0  0
  1  2  1  0  0  0  0
 19 20  2  0  0  0  0
 19 21  1  0  0  0  0
 16 17  1  0  0  0  0
 16 18  1  0  0  0  0
 14 15  2  0  0  0  0
 14 16  1  0  0  0  0
 11 12  1  0  0  0  0
 11 13  1  0  0  0  0
 11 14  1  0  0  0  0
  9 10  1  0  0  0  0
  9 11  1  0  0  0  0
  9 19  1  0  0  0  0
  7  8  1  0  0  0  0
  7  9  1  0  0  0  0
 23 24  1  0  0  0  0
 23 25  1  0  0  0  0
 23 26  1  0  0  0  0
 21 22  1  0  0  0  0
 21 23  1  0  0  0  0
M  END
$$$$
default_name
  -OEChem-02102213163D

 26 25  0     1  0  0  0  0  0999 V2000
   -3.0232   -3.6924    1.0038 H   0  0  0  0  0  0  0  0  0  0  0  0
   -3.0082   -2.6684    0.6318 C   0  0  0  0  0  0  0  0  0  0  0  0
   -3.6332   -2.0414    1.2658 H   0  0  0  0  0  0  0  0  0  0  0  0
   -3.3762   -2.6444   -0.3912 H   0  0  0  0  0  0  0  0  0  0  0  0
   -1.5882   -2.1554    0.6658 C   0  0  0  0  0  0  0  0  0  0  0  0
   -0.6832   -2.8764    1.0638 O   0  0  0  0  0  0  0  0  0  0  0  0
   -1.3952   -0.9084    0.2428 N   0  0  0  0  0  0  0  0  0  0  0  0
   -2.1972   -0.3644   -0.0422 H   0  0  0  0  0  0  0  0  0  0  0  0
   -0.1122   -0.1994    0.2658 C   0  0  1  0  0  0  0  0  0  0  0  0
    0.5635   -0.7260    0.9446 H   0  0  0  0  0  0  0  0  0  0  0  0
    0.4924   -0.2204   -1.1558 C   0  0  0  0  0  0  0  0  0  0  0  0
    0.6541   -1.2539   -1.4602 H   0  0  0  0  0  0  0  0  0  0  0  0
   -0.2103    0.2355   -1.8517 H   0  0  0  0  0  0  0  0  0  0  0  0
    1.8334    0.4869   -1.2679 C   0  0  0  0  0  0  0  0  0  0  0  0
    2.2101    1.0370   -2.2881 O   0  0  0  0  0  0  0  0  0  0  0  0
    2.6135    0.4897   -0.2144 N   0  0  0  0  0  0  0  0  0  0  0  0
    3.4853    0.9794   -0.3123 H   0  0  0  0  0  0  0  0  0  0  0  0
    2.3187    0.0607    0.6424 H   0  0  0  0  0  0  0  0  0  0  0  0
   -0.3126    1.2341    0.8050 C   0  0  0  0  0  0  0  0  0  0  0  0
   -1.2484    1.9199    0.3934 O   0  0  0  0  0  0  0  0  0  0  0  0
    0.5615    1.6875    1.7087 N   0  0  0  0  0  0  0  0  0  0  0  0
    1.3461    1.0849    1.9358 H   0  0  0  0  0  0  0  0  0  0  0  0
    0.5043    3.0121    2.3242 C   0  0  0  0  0  0  0  0  0  0  0  0
   -0.4649    3.1514    2.8080 H   0  0  0  0  0  0  0  0  0  0  0  0
    1.2959    3.1139    3.0678 H   0  0  0  0  0  0  0  0  0  0  0  0
    0.6273    3.7799    1.5584 H   0  0  0  0  0  0  0  0  0  0  0  0
  5  6  2  0  0  0  0
  5  7  1  0  0  0  0
  2  3  1  0  0  0  0
  2  4  1  0  0  0  0
  2  5  1  0  0  0  0
  1  2  1  0  0  0  0
 19 20  2  0  0  0  0
 19 21  1  0  0  0  0
 16 17  1  0  0  0  0
 16 18  1  0  0  0  0
 14 15  2  0  0  0  0
 14 16  1  0  0  0  0
 11 12  1  0  0  0  0
 11 13  1  0  0  0  0
 11 14  1  0  0  0  0
  9 10  1  0  0  0  0
  9 11  1  0  0  0  0
  9 19  1  0  0  0  0
  7  8  1  0  0  0  0
  7  9  1  0  0  0  0
 23 24  1  0  0  0  0
 23 25  1  0  0  0  0
 23 26  1  0  0  0  0
 21 22  1  0  0  0  0
 21 23  1  0  0  0  0
M  END
$$$$
default_name
  -OEChem-02102213163D

 26 25  0     1  0  0  0  0  0999 V2000
   -3.0232   -3.6924    1.0038 H   0  0  0  0  0  0  0  0  0  0  0  0
   -3.0082   -2.6684    0.6318 C   0  0  0  0  0  0  0  0  0  0  0  0
   -3.6332   -2.0414    1.2658 H   0  0  0  0  0  0  0  0  0  0  0  0
   -3.3762   -2.6444   -0.3912 H   0  0  0  0  0  0  0  0  0  0  0  0
   -1.5882   -2.1554    0.6658 C   0  0  0  0  0  0  0  0  0  0  0  0
   -0.6832   -2.8764    1.0638 O   0  0  0  0  0  0  0  0  0  0  0  0
   -1.3952   -0.9084    0.2428 N   0  0  0  0  0  0  0  0  0  0  0  0
   -2.1972   -0.3644   -0.0422 H   0  0  0  0  0  0  0  0  0  0  0  0
   -0.1122   -0.1994    0.2658 C   0  0  1  0  0  0  0  0  0  0  0  0
    0.5635   -0.7260    0.9446 H   0  0  0  0  0  0  0  0  0  0  0  0
    0.4924   -0.2204   -1.1558 C   0  0  0  0  0  0  0  0  0  0  0  0
    0.6541   -1.2539   -1.4602 H   0  0  0  0  0  0  0  0  0  0  0  0
   -0.2103    0.2355   -1.8517 H   0  0  0  0  0  0  0  0  0  0  0  0
    1.8334    0.4869   -1.2679 C   0  0  0  0  0  0  0  0  0  0  0  0
    2.1048    1.2545   -2.1747 O   0  0  0  0  0  0  0  0  0  0  0  0
    2.7322    0.2439   -0.3451 N   0  0  0  0  0  0  0  0  0  0  0  0
    3.6021    0.7386   -0.4353 H   0  0  0  0  0  0  0  0  0  0  0  0
    2.5267   -0.3687    0.4214 H   0  0  0  0  0  0  0  0  0  0  0  0
   -0.3126    1.2341    0.8050 C   0  0  0  0  0  0  0  0  0  0  0  0
   -1.2484    1.9199    0.3934 O   0  0  0  0  0  0  0  0  0  0  0  0
    0.5615    1.6875    1.7087 N   0  0  0  0  0  0  0  0  0  0  0  0
    1.3461    1.0849    1.9358 H   0  0  0  0  0  0  0  0  0  0  0  0
    0.5043    3.0121    2.3242 C   0  0  0  0  0  0  0  0  0  0  0  0
   -0.4649    3.1514    2.8080 H   0  0  0  0  0  0  0  0  0  0  0  0
    1.2959    3.1139    3.0678 H   0  0  0  0  0  0  0  0  0  0  0  0
    0.6273    3.7799    1.5584 H   0  0  0  0  0  0  0  0  0  0  0  0
  5  6  2  0  0  0  0
  5  7  1  0  0  0  0
  2  3  1  0  0  0  0
  2  4  1  0  0  0  0
  2  5  1  0  0  0  0
  1  2  1  0  0  0  0
 19 20  2  0  0  0  0
 19 21  1  0  0  0  0
 16 17  1  0  0  0  0
 16 18  1  0  0  0  0
 14 15  2  0  0  0  0
 14 16  1  0  0  0  0
 11 12  1  0  0  0  0
 11 13  1  0  0  0  0
 11 14  1  0  0  0  0
  9 10  1  0  0  0  0
  9 11  1  0  0  0  0
  9 19  1  0  0  0  0
  7  8  1  0  0  0  0
  7  9  1  0  0  0  0
 23 24  1  0  0  0  0
 23 25  1  0  0  0  0
 23 26  1  0  0  0  0
 21 22  1  0  0  0  0
 21 23  1  0  0  0  0
M  END
$$$$
default_name
  -OEChem-02102213163D

 26 25  0     1  0  0  0  0  0999 V2000
   -3.0232   -3.6924    1.0038 H   0  0  0  0  0  0  0  0  0  0  0  0
   -3.0082   -2.6684    0.6318 C   0  0  0  0  0  0  0  0  0  0  0  0
   -3.6332   -2.0414    1.2658 H   0  0  0  0  0  0  0  0  0  0  0  0
   -3.3762   -2.6444   -0.3912 H   0  0  0  0  0  0  0  0  0  0  0  0
   -1.5882   -2.1554    0.6658 C   0  0  0  0  0  0  0  0  0  0  0  0
   -0.6832   -2.8764    1.0638 O   0  0  0  0  0  0  0  0  0  0  0  0
   -1.3952   -0.9084    0.2428 N   0  0  0  0  0  0  0  0  0  0  0  0
   -2.1972   -0.3644   -0.0422 H   0  0  0  0  0  0  0  0  0  0  0  0
   -0.1122   -0.1994    0.2658 C   0  0  1  0  0  0  0  0  0  0  0  0
    0.5635   -0.7260    0.9446 H   0  0  0  0  0  0  0  0  0  0  0  0
    0.4924   -0.2204   -1.1558 C   0  0  0  0  0  0  0  0  0  0  0  0
    0.6541   -1.2539   -1.4602 H   0  0  0  0  0  0  0  0  0  0  0  0
   -0.2103    0.2355   -1.8517 H   0  0  0  0  0  0  0  0  0  0  0  0
    1.8334    0.4869   -1.2679 C   0  0  0  0  0  0  0  0  0  0  0  0
    2.0210    1.4407   -2.0029 O   0  0  0  0  0  0  0  0  0  0  0  0
    2.8264    0.0340   -0.5418 N   0  0  0  0  0  0  0  0  0  0  0  0
    3.6955    0.5318   -0.6233 H   0  0  0  0  0  0  0  0  0  0  0  0
    2.6929   -0.7371    0.0848 H   0  0  0  0  0  0  0  0  0  0  0  0
   -0.3126    1.2341    0.8050 C   0  0  0  0  0  0  0  0  0  0  0  0
   -1.2484    1.9199    0.3934 O   0  0  0  0  0  0  0  0  0  0  0  0
    0.5615    1.6875    1.7087 N   0  0  0  0  0  0  0  0  0  0  0  0
    1.3461    1.0849    1.9358 H   0  0  0  0  0  0  0  0  0  0  0  0
    0.5043    3.0121    2.3242 C   0  0  0  0  0  0  0  0  0  0  0  0
   -0.4649    3.1514    2.8080 H   0  0  0  0  0  0  0  0  0  0  0  0
    1.2959    3.1139    3.0678 H   0  0  0  0  0  0  0  0  0  0  0  0
    0.6273    3.7799    1.5584 H   0  0  0  0  0  0  0  0  0  0  0  0
  5  6  2  0  0  0  0
  5  7  1  0  0  0  0
  2  3  1  0  0  0  0
  2  4  1  0  0  0  0
  2  5  1  0  0  0  0
  1  2  1  0  0  0  0
 19 20  2  0  0  0  0
 19 21  1  0  0  0  0
 16 17  1  0  0  0  0
 16 18  1  0  0  0  0
 14 15  2  0  0  0  0
 14 16  1  0  0  0  0
 11 12  1  0  0  0  0
 11 13  1  0  0  0  0
 11 14  1  0  0  0  0
  9 10  1  0  0  0  0
  9 11  1  0  0  0  0
  9 19  1  0  0  0  0
  7  8  1  0  0  0  0
  7  9  1  0  0  0  0
 23 24  1  0  0  0  0
 23 25  1  0  0  0  0
 23 26  1  0  0  0  0
 21 22  1  0  0  0  0
 21 23  1  0  0  0  0
M  END
$$$$
default_name
  -OEChem-02102213163D

 26 25  0     1  0  0  0  0  0999 V2000
   -3.0232   -3.6924    1.0038 H   0  0  0  0  0  0  0  0  0  0  0  0
   -3.0082   -2.6684    0.6318 C   0  0  0  0  0  0  0  0  0  0  0  0
   -3.6332   -2.0414    1.2658 H   0  0  0  0  0  0  0  0  0  0  0  0
   -3.3762   -2.6444   -0.3912 H   0  0  0  0  0  0  0  0  0  0  0  0
   -1.5882   -2.1554    0.6658 C   0  0  0  0  0  0  0  0  0  0  0  0
   -0.6832   -2.8764    1.0638 O   0  0  0  0  0  0  0  0  0  0  0  0
   -1.3952   -0.9084    0.2428 N   0  0  0  0  0  0  0  0  0  0  0  0
   -2.1972   -0.3644   -0.0422 H   0  0  0  0  0  0  0  0  0  0  0  0
   -0.1122   -0.1994    0.2658 C   0  0  1  0  0  0  0  0  0  0  0  0
    0.5635   -0.7260    0.9446 H   0  0  0  0  0  0  0  0  0  0  0  0
    0.4924   -0.2204   -1.1558 C   0  0  0  0  0  0  0  0  0  0  0  0
    0.6541   -1.2539   -1.4602 H   0  0  0  0  0  0  0  0  0  0  0  0
   -0.2103    0.2355   -1.8517 H   0  0  0  0  0  0  0  0  0  0  0  0
    1.8334    0.4869   -1.2679 C   0  0  0  0  0  0  0  0  0  0  0  0
    1.9642    1.5829   -1.7844 O   0  0  0  0  0  0  0  0  0  0  0  0
    2.8898   -0.1256   -0.7911 N   0  0  0  0  0  0  0  0  0  0  0  0
    3.7591    0.3732   -0.8633 H   0  0  0  0  0  0  0  0  0  0  0  0
    2.8058   -1.0192   -0.3445 H   0  0  0  0  0  0  0  0  0  0  0  0
   -0.3126    1.2341    0.8050 C   0  0  0  0  0  0  0  0  0  0  0  0
   -1.2484    1.9199    0.3934 O   0  0  0  0  0  0  0  0  0  0  0  0
    0.5615    1.6875    1.7087 N   0  0  0  0  0  0  0  0  0  0  0  0
    1.3461    1.0849    1.9358 H   0  0  0  0  0  0  0  0  0  0  0  0
    0.5043    3.0121    2.3242 C   0  0  0  0  0  0  0  0  0  0  0  0
   -0.4649    3.1514    2.8080 H   0  0  0  0  0  0  0  0  0  0  0  0
    1.2959    3.1139    3.0678 H   0  0  0  0  0  0  0  0  0  0  0  0
    0.6273    3.7799    1.5584 H   0  0  0  0  0  0  0  0  0  0  0  0
  5  6  2  0  0  0  0
  5  7  1  0  0  0  0
  2  3  1  0  0  0  0
  2  4  1  0  0  0  0
  2  5  1  0  0  0  0
  1  2  1  0  0  0  0
 19 20  2  0  0  0  0
 19 21  1  0  0  0  0
 16 17  1  0  0  0  0
 16 18  1  0  0  0  0
 14 15  2  0  0  0  0
 14 16  1  0  0  0  0
 11 12  1  0  0  0  0
 11 13  1  0  0  0  0
 11 14  1  0  0  0  0
  9 10  1  0  0  0  0
  9 11  1  0  0  0  0
  9 19  1  0  0  0  0
  7  8  1  0  0  0  0
  7  9  1  0  0  0  0
 23 24  1  0  0  0  0
 23 25  1  0  0  0  0
 23 26  1  0  0  0  0
 21 22  1  0  0  0  0
 21 23  1  0  0  0  0
M  END
$$$$
default_name
  -OEChem-02102213163D

 26 25  0     1  0  0  0  0  0999 V2000
   -3.0232   -3.6924    1.0038 H   0  0  0  0  0  0  0  0  0  0  0  0
   -3.0082   -2.6684    0.6318 C   0  0  0  0  0  0  0  0  0  0  0  0
   -3.6332   -2.0414    1.2658 H   0  0  0  0  0  0  0  0  0  0  0  0
   -3.3762   -2.6444   -0.3912 H   0  0  0  0  0  0  0  0  0  0  0  0
   -1.5882   -2.1554    0.6658 C   0  0  0  0  0  0  0  0  0  0  0  0
   -0.6832   -2.8764    1.0638 O   0  0  0  0  0  0  0  0  0  0  0  0
   -1.3952   -0.9084    0.2428 N   0  0  0  0  0  0  0  0  0  0  0  0
   -2.1972   -0.3644   -0.0422 H   0  0  0  0  0  0  0  0  0  0  0  0
   -0.1122   -0.1994    0.2658 C   0  0  1  0  0  0  0  0  0  0  0  0
    0.5635   -0.7260    0.9446 H   0  0  0  0  0  0  0  0  0  0  0  0
    0.4924   -0.2204   -1.1558 C   0  0  0  0  0  0  0  0  0  0  0  0
    0.6541   -1.2539   -1.4602 H   0  0  0  0  0  0  0  0  0  0  0  0
   -0.2103    0.2355   -1.8517 H   0  0  0  0  0  0  0  0  0  0  0  0
    1.8334    0.4869   -1.2679 C   0  0  0  0  0  0  0  0  0  0  0  0
    1.9384    1.6715   -1.5340 O   0  0  0  0  0  0  0  0  0  0  0  0
    2.9179   -0.2240   -1.0759 N   0  0  0  0  0  0  0  0  0  0  0  0
    3.7886    0.2736   -1.1390 H   0  0  0  0  0  0  0  0  0  0  0  0
    2.8578   -1.1958   -0.8371 H   0  0  0  0  0  0  0  0  0  0  0  0
   -0.3126    1.2341    0.8050 C   0  0  0  0  0  0  0  0  0  0  0  0
   -1.2484    1.9199    0.3934 O   0  0  0  0  0  0  0  0  0  0  0  0
    0.5615    1.6875    1.7087 N   0  0  0  0  0  0  0  0  0  0  0  0
    1.3461    1.0849    1.9358 H   0  0  0  0  0  0  0  0  0  0  0  0
    0.5043    3.0121    2.3242 C   0  0  0  0  0  0  0  0  0  0  0  0
   -0.4649    3.1514    2.8080 H   0  0  0  0  0  0  0  0  0  0  0  0
    1.2959    3.1139    3.0678 H   0  0  0  0  0  0  0  0  0  0  0  0
    0.6273    3.7799    1.5584 H   0  0  0  0  0  0  0  0  0  0  0  0
  5  6  2  0  0  0  0
  5  7  1  0  0  0  0
  2  3  1  0  0  0  0
  2  4  1  0  0  0  0
  2  5  1  0  0  0  0
  1  2  1  0  0  0  0
 19 20  2  0  0  0  0
 19 21  1  0  0  0  0
 16 17  1  0  0  0  0
 16 18  1  0  0  0  0
 14 15  2  0  0  0  0
 14 16  1  0  0  0  0
 11 12  1  0  0  0  0
 11 13  1  0  0  0  0
 11 14  1  0  0  0  0
  9 10  1  0  0  0  0
  9 11  1  0  0  0  0
  9 19  1  0  0  0  0
  7  8  1  0  0  0  0
  7  9  1  0  0  0  0
 23 24  1  0  0  0  0
 23 25  1  0  0  0  0
 23 26  1  0  0  0  0
 21 22  1  0  0  0  0
 21 23  1  0  0  0  0
M  END
$$$$
default_name
  -OEChem-02102213163D

 26 25  0     1  0  0  0  0  0999 V2000
   -3.0232   -3.6924    1.0038 H   0  0  0  0  0  0  0  0  0  0  0  0
   -3.0082   -2.6684    0.6318 C   0  0  0  0  0  0  0  0  0  0  0  0
   -3.6332   -2.0414    1.2658 H   0  0  0  0  0  0  0  0  0  0  0  0
   -3.3762   -2.6444   -0.3912 H   0  0  0  0  0  0  0  0  0  0  0  0
   -1.5882   -2.1554    0.6658 C   0  0  0  0  0  0  0  0  0  0  0  0
   -0.6832   -2.8764    1.0638 O   0  0  0  0  0  0  0  0  0  0  0  0
   -1.3952   -0.9084    0.2428 N   0  0  0  0  0  0  0  0  0  0  0  0
   -2.1972   -0.3644   -0.0422 H   0  0  0  0  0  0  0  0  0  0  0  0
   -0.1122   -0.1994    0.2658 C   0  0  1  0  0  0  0  0  0  0  0  0
    0.5635   -0.7260    0.9446 H   0  0  0  0  0  0  0  0  0  0  0  0
    0.4924   -0.2204   -1.1558 C   0  0  0  0  0  0  0  0  0  0  0  0
    0.6541   -1.2539   -1.4602 H   0  0  0  0  0  0  0  0  0  0  0  0
   -0.2103    0.2355   -1.8517 H   0  0  0  0  0  0  0  0  0  0  0  0
    1.8334    0.4869   -1.2679 C   0  0  0  0  0  0  0  0  0  0  0  0
    1.9453    1.7004   -1.2688 O   0  0  0  0  0  0  0  0  0  0  0  0
    2.9089   -0.2546   -1.3768 N   0  0  0  0  0  0  0  0  0  0  0  0
    3.7820    0.2397   -1.4315 H   0  0  0  0  0  0  0  0  0  0  0  0
    2.8454   -1.2550   -1.3595 H   0  0  0  0  0  0  0  0  0  0  0  0
   -0.3126    1.2341    0.8050 C   0  0  0  0  0  0  0  0  0  0  0  0
   -1.2484    1.9199    0.3934 O   0  0  0  0  0  0  0  0  0  0  0  0
    0.5615    1.6875    1.7087 N   0  0  0  0  0  0  0  0  0  0  0  0
    1.3461    1.0849    1.9358 H   0  0  0  0  0  0  0  0  0  0  0  0
    0.5043    3.0121    2.3242 C   0  0  0  0  0  0  0  0  0  0  0  0
   -0.4649    3.1514    2.8080 H   0  0  0  0  0  0  0  0  0  0  0  0
    1.2959    3.1139    3.0678 H   0  0  0  0  0  0  0  0  0  0  0  0
    0.6273    3.7799    1.5584 H   0  0  0  0  0  0  0  0  0  0  0  0
  5  6  2  0  0  0  0
  5  7  1  0  0  0  0
  2  3  1  0  0  0  0
  2  4  1  0  0  0  0
  2  5  1  0  0  0  0
  1  2  1  0  0  0  0
 19 20  2  0  0  0  0
 19 21  1  0  0  0  0
 16 17  1  0  0  0  0
 16 18  1  0  0  0  0
 14 15  2  0  0  0  0
 14 16  1  0  0  0  0
 11 12  1  0  0  0  0
 11 13  1  0  0  0  0
 11 14  1  0  0  0  0
  9 10  1  0  0  0  0
  9 11  1  0  0  0  0
  9 19  1  0  0  0  0
  7  8  1  0  0  0  0
  7  9  1  0  0  0  0
 23 24  1  0  0  0  0
 23 25  1  0  0  0  0
 23 26  1  0  0  0  0
 21 22  1  0  0  0  0
 21 23  1  0  0  0  0
M  END
$$$$
default_name
  -OEChem-02102213163D

 26 25  0     1  0  0  0  0  0999 V2000
   -3.0232   -3.6924    1.0038 H   0  0  0  0  0  0  0  0  0  0  0  0
   -3.0082   -2.6684    0.6318 C   0  0  0  0  0  0  0  0  0  0  0  0
   -3.6332   -2.0414    1.2658 H   0  0  0  0  0  0  0  0  0  0  0  0
   -3.3762   -2.6444   -0.3912 H   0  0  0  0  0  0  0  0  0  0  0  0
   -1.5882   -2.1554    0.6658 C   0  0  0  0  0  0  0  0  0  0  0  0
   -0.6832   -2.8764    1.0638 O   0  0  0  0  0  0  0  0  0  0  0  0
   -1.3952   -0.9084    0.2428 N   0  0  0  0  0  0  0  0  0  0  0  0
   -2.1972   -0.3644   -0.0422 H   0  0  0  0  0  0  0  0  0  0  0  0
   -0.1122   -0.1994    0.2658 C   0  0  1  0  0  0  0  0  0  0  0  0
    0.5635   -0.7260    0.9446 H   0  0  0  0  0  0  0  0  0  0  0  0
    0.4924   -0.2204   -1.1558 C   0  0  0  0  0  0  0  0  0  0  0  0
    0.6541   -1.2539   -1.4602 H   0  0  0  0  0  0  0  0  0  0  0  0
   -0.2103    0.2355   -1.8517 H   0  0  0  0  0  0  0  0  0  0  0  0
    1.8334    0.4869   -1.2679 C   0  0  0  0  0  0  0  0  0  0  0  0
    1.9845    1.6677   -1.0068 O   0  0  0  0  0  0  0  0  0  0  0  0
    2.8634   -0.2153   -1.6735 N   0  0  0  0  0  0  0  0  0  0  0  0
    3.7397    0.2740   -1.7211 H   0  0  0  0  0  0  0  0  0  0  0  0
    2.7693   -1.1926   -1.8761 H   0  0  0  0  0  0  0  0  0  0  0  0
   -0.3126    1.2341    0.8050 C   0  0  0  0  0  0  0  0  0  0  0  0
   -1.2484    1.9199    0.3934 O   0  0  0  0  0  0  0  0  0  0  0  0
    0.5615    1.6875    1.7087 N   0  0  0  0  0  0  0  0  0  0  0  0
    1.3461    1.0849    1.9358 H   0  0  0  0  0  0  0  0  0  0  0  0
    0.5043    3.0121    2.3242 C   0  0  0  0  0  0  0  0  0  0  0  0
   -0.4649    3.1514    2.8080 H   0  0  0  0  0  0  0  0  0  0  0  0
    1.2959    3.1139    3.0678 H   0  0  0  0  0  0  0  0  0  0  0  0
    0.6273    3.7799    1.5584 H   0  0  0  0  0  0  0  0  0  0  0  0
  5  6  2  0  0  0  0
  5  7  1  0  0  0  0
  2  3  1  0  0  0  0
  2  4  1  0  0  0  0
  2  5  1  0  0  0  0
  1  2  1  0  0  0  0
 19 20  2  0  0  0  0
 19 21  1  0  0  0  0
 16 17  1  0  0  0  0
 16 18  1  0  0  0  0
 14 15  2  0  0  0  0
 14 16  1  0  0  0  0
 11 12  1  0  0  0  0
 11 13  1  0  0  0  0
 11 14  1  0  0  0  0
  9 10  1  0  0  0  0
  9 11  1  0  0  0  0
  9 19  1  0  0  0  0
  7  8  1  0  0  0  0
  7  9  1  0  0  0  0
 23 24  1  0  0  0  0
 23 25  1  0  0  0  0
 23 26  1  0  0  0  0
 21 22  1  0  0  0  0
 21 23  1  0  0  0  0
M  END
$$$$
default_name
  -OEChem-02102213163D

 26 25  0     1  0  0  0  0  0999 V2000
   -3.0232   -3.6924    1.0038 H   0  0  0  0  0  0  0  0  0  0  0  0
   -3.0082   -2.6684    0.6318 C   0  0  0  0  0  0  0  0  0  0  0  0
   -3.6332   -2.0414    1.2658 H   0  0  0  0  0  0  0  0  0  0  0  0
   -3.3762   -2.6444   -0.3912 H   0  0  0  0  0  0  0  0  0  0  0  0
   -1.5882   -2.1554    0.6658 C   0  0  0  0  0  0  0  0  0  0  0  0
   -0.6832   -2.8764    1.0638 O   0  0  0  0  0  0  0  0  0  0  0  0
   -1.3952   -0.9084    0.2428 N   0  0  0  0  0  0  0  0  0  0  0  0
   -2.1972   -0.3644   -0.0422 H   0  0  0  0  0  0  0  0  0  0  0  0
   -0.1122   -0.1994    0.2658 C   0  0  1  0  0  0  0  0  0  0  0  0
    0.5635   -0.7260    0.9446 H   0  0  0  0  0  0  0  0  0  0  0  0
    0.4924   -0.2204   -1.1558 C   0  0  0  0  0  0  0  0  0  0  0  0
    0.6541   -1.2539   -1.4602 H   0  0  0  0  0  0  0  0  0  0  0  0
   -0.2103    0.2355   -1.8517 H   0  0  0  0  0  0  0  0  0  0  0  0
    1.8334    0.4869   -1.2679 C   0  0  0  0  0  0  0  0  0  0  0  0
    2.0532    1.5755   -0.7660 O   0  0  0  0  0  0  0  0  0  0  0  0
    2.7844   -0.1087   -1.9455 N   0  0  0  0  0  0  0  0  0  0  0  0
    3.6647    0.3739   -1.9879 H   0  0  0  0  0  0  0  0  0  0  0  0
    2.6348   -1.0129   -2.3518 H   0  0  0  0  0  0  0  0  0  0  0  0
   -0.3126    1.2341    0.8050 C   0  0  0  0  0  0  0  0  0  0  0  0
   -1.2484    1.9199    0.3934 O   0  0  0  0  0  0  0  0  0  0  0  0
    0.5615    1.6875    1.7087 N   0  0  0  0  0  0  0  0  0  0  0  0
    1.3461    1.0849    1.9358 H   0  0  0  0  0  0  0  0  0  0  0  0
    0.5043    3.0121    2.3242 C   0  0  0  0  0  0  0  0  0  0  0  0
   -0.4649    3.1514    2.8080 H   0  0  0  0  0  0  0  0  0  0  0  0
    1.2959    3.1139    3.0678 H   0  0  0  0  0  0  0  0  0  0  0  0
    0.6273    3.7799    1.5584 H   0  0  0  0  0  0  0  0  0  0  0  0
  5  6  2  0  0  0  0
  5  7  1  0  0  0  0
  2  3  1  0  0  0  0
  2  4  1  0  0  0  0
  2  5  1  0  0  0  0
  1  2  1  0  0  0  0
 19 20  2  0  0  0  0
 19 21  1  0  0  0  0
 16 17  1  0  0  0  0
 16 18  1  0  0  0  0
 14 15  2  0  0  0  0
 14 16  1  0  0  0  0
 11 12  1  0  0  0  0
 11 13  1  0  0  0  0
 11 14  1  0  0  0  0
  9 10  1  0  0  0  0
  9 11  1  0  0  0  0
  9 19  1  0  0  0  0
  7  8  1  0  0  0  0
  7  9  1  0  0  0  0
 23 24  1  0  0  0  0
 23 25  1  0  0  0  0
 23 26  1  0  0  0  0
 21 22  1  0  0  0  0
 21 23  1  0  0  0  0
M  END
$$$$
default_name
  -OEChem-02102213163D

 26 25  0     1  0  0  0  0  0999 V2000
   -3.0232   -3.6924    1.0038 H   0  0  0  0  0  0  0  0  0  0  0  0
   -3.0082   -2.6684    0.6318 C   0  0  0  0  0  0  0  0  0  0  0  0
   -3.6332   -2.0414    1.2658 H   0  0  0  0  0  0  0  0  0  0  0  0
   -3.3762   -2.6444   -0.3912 H   0  0  0  0  0  0  0  0  0  0  0  0
   -1.5882   -2.1554    0.6658 C   0  0  0  0  0  0  0  0  0  0  0  0
   -0.6832   -2.8764    1.0638 O   0  0  0  0  0  0  0  0  0  0  0  0
   -1.3952   -0.9084    0.2428 N   0  0  0  0  0  0  0  0  0  0  0  0
   -2.1972   -0.3644   -0.0422 H   0  0  0  0  0  0  0  0  0  0  0  0
   -0.1122   -0.1994    0.2658 C   0  0  1  0  0  0  0  0  0  0  0  0
    0.5635   -0.7260    0.9446 H   0  0  0  0  0  0  0  0  0  0  0  0
    0.4924   -0.2204   -1.1558 C   0  0  0  0  0  0  0  0  0  0  0  0
    0.6541   -1.2539   -1.4602 H   0  0  0  0  0  0  0  0  0  0  0  0
   -0.2103    0.2355   -1.8517 H   0  0  0  0  0  0  0  0  0  0  0  0
    1.8334    0.4869   -1.2679 C   0  0  0  0  0  0  0  0  0  0  0  0
    2.1469    1.4301   -0.5627 O   0  0  0  0  0  0  0  0  0  0  0  0
    2.6774    0.0578   -2.1745 N   0  0  0  0  0  0  0  0  0  0  0  0
    3.5620    0.5328   -2.2137 H   0  0  0  0  0  0  0  0  0  0  0  0
    2.4510   -0.7283   -2.7540 H   0  0  0  0  0  0  0  0  0  0  0  0
   -0.3126    1.2341    0.8050 C   0  0  0  0  0  0  0  0  0  0  0  0
   -1.2484    1.9199    0.3934 O   0  0  0  0  0  0  0  0  0  0  0  0
    0.5615    1.6875    1.7087 N   0  0  0  0  0  0  0  0  0  0  0  0
    1.3461    1.0849    1.9358 H   0  0  0  0  0  0  0  0  0  0  0  0
    0.5043    3.0121    2.3242 C   0  0  0  0  0  0  0  0  0  0  0  0
   -0.4649    3.1514    2.8080 H   0  0  0  0  0  0  0  0  0  0  0  0
    1.2959    3.1139    3.0678 H   0  0  0  0  0  0  0  0  0  0  0  0
    0.6273    3.7799    1.5584 H   0  0  0  0  0  0  0  0  0  0  0  0
  5  6  2  0  0  0  0
  5  7  1  0  0  0  0
  2  3  1  0  0  0  0
  2  4  1  0  0  0  0
  2  5  1  0  0  0  0
  1  2  1  0  0  0  0
 19 20  2  0  0  0  0
 19 21  1  0  0  0  0
 16 17  1  0  0  0  0
 16 18  1  0  0  0  0
 14 15  2  0  0  0  0
 14 16  1  0  0  0  0
 11 12  1  0  0  0  0
 11 13  1  0  0  0  0
 11 14  1  0  0  0  0
  9 10  1  0  0  0  0
  9 11  1  0  0  0  0
  9 19  1  0  0  0  0
  7  8  1  0  0  0  0
  7  9  1  0  0  0  0
 23 24  1  0  0  0  0
 23 25  1  0  0  0  0
 23 26  1  0  0  0  0
 21 22  1  0  0  0  0
 21 23  1  0  0  0  0
M  END
$$$$
default_name
  -OEChem-02102213163D

 26 25  0     1  0  0  0  0  0999 V2000
   -3.0232   -3.6924    1.0038 H   0  0  0  0  0  0  0  0  0  0  0  0
   -3.0082   -2.6684    0.6318 C   0  0  0  0  0  0  0  0  0  0  0  0
   -3.6332   -2.0414    1.2658 H   0  0  0  0  0  0  0  0  0  0  0  0
   -3.3762   -2.6444   -0.3912 H   0  0  0  0  0  0  0  0  0  0  0  0
   -1.5882   -2.1554    0.6658 C   0  0  0  0  0  0  0  0  0  0  0  0
   -0.6832   -2.8764    1.0638 O   0  0  0  0  0  0  0  0  0  0  0  0
   -1.3952   -0.9084    0.2428 N   0  0  0  0  0  0  0  0  0  0  0  0
   -2.1972   -0.3644   -0.0422 H   0  0  0  0  0  0  0  0  0  0  0  0
   -0.1122   -0.1994    0.2658 C   0  0  1  0  0  0  0  0  0  0  0  0
    0.5635   -0.7260    0.9446 H   0  0  0  0  0  0  0  0  0  0  0  0
    0.4924   -0.2204   -1.1558 C   0  0  0  0  0  0  0  0  0  0  0  0
    0.6541   -1.2539   -1.4602 H   0  0  0  0  0  0  0  0  0  0  0  0
   -0.2103    0.2355   -1.8517 H   0  0  0  0  0  0  0  0  0  0  0  0
    1.8334    0.4869   -1.2679 C   0  0  0  0  0  0  0  0  0  0  0  0
    2.2591    1.2415   -0.4108 O   0  0  0  0  0  0  0  0  0  0  0  0
    2.5497    0.2730   -2.3447 N   0  0  0  0  0  0  0  0  0  0  0  0
    3.4387    0.7399   -2.3832 H   0  0  0  0  0  0  0  0  0  0  0  0
    2.2305   -0.3579   -3.0553 H   0  0  0  0  0  0  0  0  0  0  0  0
   -0.3126    1.2341    0.8050 C   0  0  0  0  0  0  0  0  0  0  0  0
   -1.2484    1.9199    0.3934 O   0  0  0  0  0  0  0  0  0  0  0  0
    0.5615    1.6875    1.7087 N   0  0  0  0  0  0  0  0  0  0  0  0
    1.3461    1.0849    1.9358 H   0  0  0  0  0  0  0  0  0  0  0  0
    0.5043    3.0121    2.3242 C   0  0  0  0  0  0  0  0  0  0  0  0
   -0.4649    3.1514    2.8080 H   0  0  0  0  0  0  0  0  0  0  0  0
    1.2959    3.1139    3.0678 H   0  0  0  0  0  0  0  0  0  0  0  0
    0.6273    3.7799    1.5584 H   0  0  0  0  0  0  0  0  0  0  0  0
  5  6  2  0  0  0  0
  5  7  1  0  0  0  0
  2  3  1  0  0  0  0
  2  4  1  0  0  0  0
  2  5  1  0  0  0  0
  1  2  1  0  0  0  0
 19 20  2  0  0  0  0
 19 21  1  0  0  0  0
 16 17  1  0  0  0  0
 16 18  1  0  0  0  0
 14 15  2  0  0  0  0
 14 16  1  0  0  0  0
 11 12  1  0  0  0  0
 11 13  1  0  0  0  0
 11 14  1  0  0  0  0
  9 10  1  0  0  0  0
  9 11  1  0  0  0  0
  9 19  1  0  0  0  0
  7  8  1  0  0  0  0
  7  9  1  0  0  0  0
 23 24  1  0  0  0  0
 23 25  1  0  0  0  0
 23 26  1  0  0  0  0
 21 22  1  0  0  0  0
 21 23  1  0  0  0  0
M  END
$$$$
default_name
  -OEChem-02102213163D

 26 25  0     1  0  0  0  0  0999 V2000
   -3.0232   -3.6924    1.0038 H   0  0  0  0  0  0  0  0  0  0  0  0
   -3.0082   -2.6684    0.6318 C   0  0  0  0  0  0  0  0  0  0  0  0
   -3.6332   -2.0414    1.2658 H   0  0  0  0  0  0  0  0  0  0  0  0
   -3.3762   -2.6444   -0.3912 H   0  0  0  0  0  0  0  0  0  0  0  0
   -1.5882   -2.1554    0.6658 C   0  0  0  0  0  0  0  0  0  0  0  0
   -0.6832   -2.8764    1.0638 O   0  0  0  0  0  0  0  0  0  0  0  0
   -1.3952   -0.9084    0.2428 N   0  0  0  0  0  0  0  0  0  0  0  0
   -2.1972   -0.3644   -0.0422 H   0  0  0  0  0  0  0  0  0  0  0  0
   -0.1122   -0.1994    0.2658 C   0  0  1  0  0  0  0  0  0  0  0  0
    0.5635   -0.7260    0.9446 H   0  0  0  0  0  0  0  0  0  0  0  0
    0.4924   -0.2204   -1.1558 C   0  0  0  0  0  0  0  0  0  0  0  0
    0.6541   -1.2539   -1.4602 H   0  0  0  0  0  0  0  0  0  0  0  0
   -0.2103    0.2355   -1.8517 H   0  0  0  0  0  0  0  0  0  0  0  0
    1.8334    0.4869   -1.2679 C   0  0  0  0  0  0  0  0  0  0  0  0
    2.3821    1.0225   -0.3206 O   0  0  0  0  0  0  0  0  0  0  0  0
    2.4099    0.5222   -2.4446 N   0  0  0  0  0  0  0  0  0  0  0  0
    3.3031    0.9809   -2.4848 H   0  0  0  0  0  0  0  0  0  0  0  0
    1.9883    0.0728   -3.2354 H   0  0  0  0  0  0  0  0  0  0  0  0
   -0.3126    1.2341    0.8050 C   0  0  0  0  0  0  0  0  0  0  0  0
   -1.2484    1.9199    0.3934 O   0  0  0  0  0  0  0  0  0  0  0  0
    0.5615    1.6875    1.7087 N   0  0  0  0  0  0  0  0  0  0  0  0
    1.3461    1.0849    1.9358 H   0  0  0  0  0  0  0  0  0  0  0  0
    0.5043    3.0121    2.3242 C   0  0  0  0  0  0  0  0  0  0  0  0
   -0.4649    3.1514    2.8080 H   0  0  0  0  0  0  0  0  0  0  0  0
    1.2959    3.1139    3.0678 H   0  0  0  0  0  0  0  0  0  0  0  0
    0.6273    3.7799    1.5584 H   0  0  0  0  0  0  0  0  0  0  0  0
  5  6  2  0  0  0  0
  5  7  1  0  0  0  0
  2  3  1  0  0  0  0
  2  4  1  0  0  0  0
  2  5  1  0  0  0  0
  1  2  1  0  0  0  0
 19 20  2  0  0  0  0
 19 21  1  0  0  0  0
 16 17  1  0  0  0  0
 16 18  1  0  0  0  0
 14 15  2  0  0  0  0
 14 16  1  0  0  0  0
 11 12  1  0  0  0  0
 11 13  1  0  0  0  0
 11 14  1  0  0  0  0
  9 10  1  0  0  0  0
  9 11  1  0  0  0  0
  9 19  1  0  0  0  0
  7  8  1  0  0  0  0
  7  9  1  0  0  0  0
 23 24  1  0  0  0  0
 23 25  1  0  0  0  0
 23 26  1  0  0  0  0
 21 22  1  0  0  0  0
 21 23  1  0  0  0  0
M  END
$$$$
default_name
  -OEChem-02102213163D

 26 25  0     1  0  0  0  0  0999 V2000
   -3.0232   -3.6924    1.0038 H   0  0  0  0  0  0  0  0  0  0  0  0
   -3.0082   -2.6684    0.6318 C   0  0  0  0  0  0  0  0  0  0  0  0
   -3.6332   -2.0414    1.2658 H   0  0  0  0  0  0  0  0  0  0  0  0
   -3.3762   -2.6444   -0.3912 H   0  0  0  0  0  0  0  0  0  0  0  0
   -1.5882   -2.1554    0.6658 C   0  0  0  0  0  0  0  0  0  0  0  0
   -0.6832   -2.8764    1.0638 O   0  0  0  0  0  0  0  0  0  0  0  0
   -1.3952   -0.9084    0.2428 N   0  0  0  0  0  0  0  0  0  0  0  0
   -2.1972   -0.3644   -0.0422 H   0  0  0  0  0  0  0  0  0  0  0  0
   -0.1122   -0.1994    0.2658 C   0  0  1  0  0  0  0  0  0  0  0  0
    0.5635   -0.7260    0.9446 H   0  0  0  0  0  0  0  0  0  0  0  0
    0.4924   -0.2204   -1.1558 C   0  0  0  0  0  0  0  0  0  0  0  0
    0.6541   -1.2539   -1.4602 H   0  0  0  0  0  0  0  0  0  0  0  0
   -0.2103    0.2355   -1.8517 H   0  0  0  0  0  0  0  0  0  0  0  0
    1.8334    0.4869   -1.2679 C   0  0  0  0  0  0  0  0  0  0  0  0
    2.5076    0.7880   -0.2984 O   0  0  0  0  0  0  0  0  0  0  0  0
    2.2677    0.7883   -2.4674 N   0  0  0  0  0  0  0  0  0  0  0  0
    3.1644    1.2394   -2.5116 H   0  0  0  0  0  0  0  0  0  0  0  0
    1.7409    0.5345   -3.2817 H   0  0  0  0  0  0  0  0  0  0  0  0
   -0.3126    1.2341    0.8050 C   0  0  0  0  0  0  0  0  0  0  0  0
   -1.2484    1.9199    0.3934 O   0  0  0  0  0  0  0  0  0  0  0  0
    0.5615    1.6875    1.7087 N   0  0  0  0  0  0  0  0  0  0  0  0
    1.3461    1.0849    1.9358 H   0  0  0  0  0  0  0  0  0  0  0  0
    0.5043    3.0121    2.3242 C   0  0  0  0  0  0  0  0  0  0  0  0
   -0.4649    3.1514    2.8080 H   0  0  0  0  0  0  0  0  0  0  0  0
    1.2959    3.1139    3.0678 H   0  0  0  0  0  0  0  0  0  0  0  0
    0.6273    3.7799    1.5584 H   0  0  0  0  0  0  0  0  0  0  0  0
  5  6  2  0  0  0  0
  5  7  1  0  0  0  0
  2  3  1  0  0  0  0
  2  4  1  0  0  0  0
  2  5  1  0  0  0  0
  1  2  1  0  0  0  0
 19 20  2  0  0  0  0
 19 21  1  0  0  0  0
 16 17  1  0  0  0  0
 16 18  1  0  0  0  0
 14 15  2  0  0  0  0
 14 16  1  0  0  0  0
 11 12  1  0  0  0  0
 11 13  1  0  0  0  0
 11 14  1  0  0  0  0
  9 10  1  0  0  0  0
  9 11  1  0  0  0  0
  9 19  1  0  0  0  0
  7  8  1  0  0  0  0
  7  9  1  0  0  0  0
 23 24  1  0  0  0  0
 23 25  1  0  0  0  0
 23 26  1  0  0  0  0
 21 22  1  0  0  0  0
 21 23  1  0  0  0  0
M  END
$$$$
default_name
  -OEChem-02102213163D

 26 25  0     1  0  0  0  0  0999 V2000
   -3.0232   -3.6924    1.0038 H   0  0  0  0  0  0  0  0  0  0  0  0
   -3.0082   -2.6684    0.6318 C   0  0  0  0  0  0  0  0  0  0  0  0
   -3.6332   -2.0414    1.2658 H   0  0  0  0  0  0  0  0  0  0  0  0
   -3.3762   -2.6444   -0.3912 H   0  0  0  0  0  0  0  0  0  0  0  0
   -1.5882   -2.1554    0.6658 C   0  0  0  0  0  0  0  0  0  0  0  0
   -0.6832   -2.8764    1.0638 O   0  0  0  0  0  0  0  0  0  0  0  0
   -1.3952   -0.9084    0.2428 N   0  0  0  0  0  0  0  0  0  0  0  0
   -2.1972   -0.3644   -0.0422 H   0  0  0  0  0  0  0  0  0  0  0  0
   -0.1122   -0.1994    0.2658 C   0  0  1  0  0  0  0  0  0  0  0  0
    0.5635   -0.7260    0.9446 H   0  0  0  0  0  0  0  0  0  0  0  0
    0.4924   -0.2204   -1.1558 C   0  0  0  0  0  0  0  0  0  0  0  0
    0.6541   -1.2539   -1.4602 H   0  0  0  0  0  0  0  0  0  0  0  0
   -0.2103    0.2355   -1.8517 H   0  0  0  0  0  0  0  0  0  0  0  0
    1.8334    0.4869   -1.2679 C   0  0  0  0  0  0  0  0  0  0  0  0
    2.6271    0.5541   -0.3455 O   0  0  0  0  0  0  0  0  0  0  0  0
    2.1325    1.0533   -2.4116 N   0  0  0  0  0  0  0  0  0  0  0  0
    3.0322    1.4979   -2.4617 H   0  0  0  0  0  0  0  0  0  0  0  0
    1.5051    0.9958   -3.1913 H   0  0  0  0  0  0  0  0  0  0  0  0
   -0.3126    1.2341    0.8050 C   0  0  0  0  0  0  0  0  0  0  0  0
   -1.2484    1.9199    0.3934 O   0  0  0  0  0  0  0  0  0  0  0  0
    0.5615    1.6875    1.7087 N   0  0  0  0  0  0  0  0  0  0  0  0
    1.3461    1.0849    1.9358 H   0  0  0  0  0  0  0  0  0  0  0  0
    0.5043    3.0121    2.3242 C   0  0  0  0  0  0  0  0  0  0  0  0
   -0.4649    3.1514    2.8080 H   0  0  0  0  0  0  0  0  0  0  0  0
    1.2959    3.1139    3.0678 H   0  0  0  0  0  0  0  0  0  0  0  0
    0.6273    3.7799    1.5584 H   0  0  0  0  0  0  0  0  0  0  0  0
  5  6  2  0  0  0  0
  5  7  1  0  0  0  0
  2  3  1  0  0  0  0
  2  4  1  0  0  0  0
  2  5  1  0  0  0  0
  1  2  1  0  0  0  0
 19 20  2  0  0  0  0
 19 21  1  0  0  0  0
 16 17  1  0  0  0  0
 16 18  1  0  0  0  0
 14 15  2  0  0  0  0
 14 16  1  0  0  0  0
 11 12  1  0  0  0  0
 11 13  1  0  0  0  0
 11 14  1  0  0  0  0
  9 10  1  0  0  0  0
  9 11  1  0  0  0  0
  9 19  1  0  0  0  0
  7  8  1  0  0  0  0
  7  9  1  0  0  0  0
 23 24  1  0  0  0  0
 23 25  1  0  0  0  0
 23 26  1  0  0  0  0
 21 22  1  0  0  0  0
 21 23  1  0  0  0  0
M  END
$$$$
default_name
  -OEChem-02102213163D

 26 25  0     1  0  0  0  0  0999 V2000
   -3.0232   -3.6924    1.0038 H   0  0  0  0  0  0  0  0  0  0  0  0
   -3.0082   -2.6684    0.6318 C   0  0  0  0  0  0  0  0  0  0  0  0
   -3.6332   -2.0414    1.2658 H   0  0  0  0  0  0  0  0  0  0  0  0
   -3.3762   -2.6444   -0.3912 H   0  0  0  0  0  0  0  0  0  0  0  0
   -1.5882   -2.1554    0.6658 C   0  0  0  0  0  0  0  0  0  0  0  0
   -0.6832   -2.8764    1.0638 O   0  0  0  0  0  0  0  0  0  0  0  0
   -1.3952   -0.9084    0.2428 N   0  0  0  0  0  0  0  0  0  0  0  0
   -2.1972   -0.3644   -0.0422 H   0  0  0  0  0  0  0  0  0  0  0  0
   -0.1122   -0.1994    0.2658 C   0  0  1  0  0  0  0  0  0  0  0  0
    0.5635   -0.7260    0.9446 H   0  0  0  0  0  0  0  0  0  0  0  0
    0.4924   -0.2204   -1.1558 C   0  0  0  0  0  0  0  0  0  0  0  0
    0.6541   -1.2539   -1.4602 H   0  0  0  0  0  0  0  0  0  0  0  0
   -0.2103    0.2355   -1.8517 H   0  0  0  0  0  0  0  0  0  0  0  0
    1.8334    0.4869   -1.2679 C   0  0  0  0  0  0  0  0  0  0  0  0
    2.7323    0.3366   -0.4588 O   0  0  0  0  0  0  0  0  0  0  0  0
    2.0138    1.2991   -2.2808 N   0  0  0  0  0  0  0  0  0  0  0  0
    2.9155    1.7388   -2.3386 H   0  0  0  0  0  0  0  0  0  0  0  0
    1.2971    1.4253   -2.9703 H   0  0  0  0  0  0  0  0  0  0  0  0
   -0.3126    1.2341    0.8050 C   0  0  0  0  0  0  0  0  0  0  0  0
   -1.2484    1.9199    0.3934 O   0  0  0  0  0  0  0  0  0  0  0  0
    0.5615    1.6875    1.7087 N   0  0  0  0  0  0  0  0  0  0  0  0
    1.3461    1.0849    1.9358 H   0  0  0  0  0  0  0  0  0  0  0  0
    0.5043    3.0121    2.3242 C   0  0  0  0  0  0  0  0  0  0  0  0
   -0.4649    3.1514    2.8080 H   0  0  0  0  0  0  0  0  0  0  0  0
    1.2959    3.1139    3.0678 H   0  0  0  0  0  0  0  0  0  0  0  0
    0.6273    3.7799    1.5584 H   0  0  0  0  0  0  0  0  0  0  0  0
  5  6  2  0  0  0  0
  5  7  1  0  0  0  0
  2  3  1  0  0  0  0
  2  4  1  0  0  0  0
  2  5  1  0  0  0  0
  1  2  1  0  0  0  0
 19 20  2  0  0  0  0
 19 21  1  0  0  0  0
 16 17  1  0  0  0  0
 16 18  1  0  0  0  0
 14 15  2  0  0  0  0
 14 16  1  0  0  0  0
 11 12  1  0  0  0  0
 11 13  1  0  0  0  0
 11 14  1  0  0  0  0
  9 10  1  0  0  0  0
  9 11  1  0  0  0  0
  9 19  1  0  0  0  0
  7  8  1  0  0  0  0
  7  9  1  0  0  0  0
 23 24  1  0  0  0  0
 23 25  1  0  0  0  0
 23 26  1  0  0  0  0
 21 22  1  0  0  0  0
 21 23  1  0  0  0  0
M  END
$$$$
default_name
  -OEChem-02102213163D

 26 25  0     1  0  0  0  0  0999 V2000
   -3.0232   -3.6924    1.0038 H   0  0  0  0  0  0  0  0  0  0  0  0
   -3.0082   -2.6684    0.6318 C   0  0  0  0  0  0  0  0  0  0  0  0
   -3.6332   -2.0414    1.2658 H   0  0  0  0  0  0  0  0  0  0  0  0
   -3.3762   -2.6444   -0.3912 H   0  0  0  0  0  0  0  0  0  0  0  0
   -1.5882   -2.1554    0.6658 C   0  0  0  0  0  0  0  0  0  0  0  0
   -0.6832   -2.8764    1.0638 O   0  0  0  0  0  0  0  0  0  0  0  0
   -1.3952   -0.9084    0.2428 N   0  0  0  0  0  0  0  0  0  0  0  0
   -2.1972   -0.3644   -0.0422 H   0  0  0  0  0  0  0  0  0  0  0  0
   -0.1122   -0.1994    0.2658 C   0  0  1  0  0  0  0  0  0  0  0  0
    0.5635   -0.7260    0.9446 H   0  0  0  0  0  0  0  0  0  0  0  0
    0.4924   -0.2204   -1.1558 C   0  0  0  0  0  0  0  0  0  0  0  0
    0.6541   -1.2539   -1.4602 H   0  0  0  0  0  0  0  0  0  0  0  0
   -0.2103    0.2355   -1.8517 H   0  0  0  0  0  0  0  0  0  0  0  0
    1.8334    0.4869   -1.2679 C   0  0  0  0  0  0  0  0  0  0  0  0
    2.8162    0.1504   -0.6306 O   0  0  0  0  0  0  0  0  0  0  0  0
    1.9196    1.5090   -2.0841 N   0  0  0  0  0  0  0  0  0  0  0  0
    2.8221    1.9456   -2.1507 H   0  0  0  0  0  0  0  0  0  0  0  0
    1.1309    1.7936   -2.6337 H   0  0  0  0  0  0  0  0  0  0  0  0
   -0.3126    1.2341    0.8050 C   0  0  0  0  0  0  0  0  0  0  0  0
   -1.2484    1.9199    0.3934 O   0  0  0  0  0  0  0  0  0  0  0  0
    0.5615    1.6875    1.7087 N   0  0  0  0  0  0  0  0  0  0  0  0
    1.3461    1.0849    1.9358 H   0  0  0  0  0  0  0  0  0  0  0  0
    0.5043    3.0121    2.3242 C   0  0  0  0  0  0  0  0  0  0  0  0
   -0.4649    3.1514    2.8080 H   0  0  0  0  0  0  0  0  0  0  0  0
    1.2959    3.1139    3.0678 H   0  0  0  0  0  0  0  0  0  0  0  0
    0.6273    3.7799    1.5584 H   0  0  0  0  0  0  0  0  0  0  0  0
  5  6  2  0  0  0  0
  5  7  1  0  0  0  0
  2  3  1  0  0  0  0
  2  4  1  0  0  0  0
  2  5  1  0  0  0  0
  1  2  1  0  0  0  0
 19 20  2  0  0  0  0
 19 21  1  0  0  0  0
 16 17  1  0  0  0  0
 16 18  1  0  0  0  0
 14 15  2  0  0  0  0
 14 16  1  0  0  0  0
 11 12  1  0  0  0  0
 11 13  1  0  0  0  0
 11 14  1  0  0  0  0
  9 10  1  0  0  0  0
  9 11  1  0  0  0  0
  9 19  1  0  0  0  0
  7  8  1  0  0  0  0
  7  9  1  0  0  0  0
 23 24  1  0  0  0  0
 23 25  1  0  0  0  0
 23 26  1  0  0  0  0
 21 22  1  0  0  0  0
 21 23  1  0  0  0  0
M  END
$$$$
default_name
  -OEChem-02102213163D

 26 25  0     1  0  0  0  0  0999 V2000
   -3.0232   -3.6924    1.0038 H   0  0  0  0  0  0  0  0  0  0  0  0
   -3.0082   -2.6684    0.6318 C   0  0  0  0  0  0  0  0  0  0  0  0
   -3.6332   -2.0414    1.2658 H   0  0  0  0  0  0  0  0  0  0  0  0
   -3.3762   -2.6444   -0.3912 H   0  0  0  0  0  0  0  0  0  0  0  0
   -1.5882   -2.1554    0.6658 C   0  0  0  0  0  0  0  0  0  0  0  0
   -0.6832   -2.8764    1.0638 O   0  0  0  0  0  0  0  0  0  0  0  0
   -1.3952   -0.9084    0.2428 N   0  0  0  0  0  0  0  0  0  0  0  0
   -2.1972   -0.3644   -0.0422 H   0  0  0  0  0  0  0  0  0  0  0  0
   -0.1122   -0.1994    0.2658 C   0  0  1  0  0  0  0  0  0  0  0  0
    0.5635   -0.7260    0.9446 H   0  0  0  0  0  0  0  0  0  0  0  0
    0.4924   -0.2204   -1.1558 C   0  0  0  0  0  0  0  0  0  0  0  0
    0.6541   -1.2539   -1.4602 H   0  0  0  0  0  0  0  0  0  0  0  0
   -0.2103    0.2355   -1.8517 H   0  0  0  0  0  0  0  0  0  0  0  0
    1.8334    0.4869   -1.2679 C   0  0  0  0  0  0  0  0  0  0  0  0
    2.8730    0.0081   -0.8492 O   0  0  0  0  0  0  0  0  0  0  0  0
    1.8562    1.6685   -1.8349 N   0  0  0  0  0  0  0  0  0  0  0  0
    2.7585    2.1042   -1.9107 H   0  0  0  0  0  0  0  0  0  0  0  0
    1.0180    2.0757   -2.2044 H   0  0  0  0  0  0  0  0  0  0  0  0
   -0.3126    1.2341    0.8050 C   0  0  0  0  0  0  0  0  0  0  0  0
   -1.2484    1.9199    0.3934 O   0  0  0  0  0  0  0  0  0  0  0  0
    0.5615    1.6875    1.7087 N   0  0  0  0  0  0  0  0  0  0  0  0
    1.3461    1.0849    1.9358 H   0  0  0  0  0  0  0  0  0  0  0  0
    0.5043    3.0121    2.3242 C   0  0  0  0  0  0  0  0  0  0  0  0
   -0.4649    3.1514    2.8080 H   0  0  0  0  0  0  0  0  0  0  0  0
    1.2959    3.1139    3.0678 H   0  0  0  0  0  0  0  0  0  0  0  0
    0.6273    3.7799    1.5584 H   0  0  0  0  0  0  0  0  0  0  0  0
  5  6  2  0  0  0  0
  5  7  1  0  0  0  0
  2  3  1  0  0  0  0
  2  4  1  0  0  0  0
  2  5  1  0  0  0  0
  1  2  1  0  0  0  0
 19 20  2  0  0  0  0
 19 21  1  0  0  0  0
 16 17  1  0  0  0  0
 16 18  1  0  0  0  0
 14 15  2  0  0  0  0
 14 16  1  0  0  0  0
 11 12  1  0  0  0  0
 11 13  1  0  0  0  0
 11 14  1  0  0  0  0
  9 10  1  0  0  0  0
  9 11  1  0  0  0  0
  9 19  1  0  0  0  0
  7  8  1  0  0  0  0
  7  9  1  0  0  0  0
 23 24  1  0  0  0  0
 23 25  1  0  0  0  0
 23 26  1  0  0  0  0
 21 22  1  0  0  0  0
 21 23  1  0  0  0  0
M  END
$$$$
default_name
  -OEChem-02102213163D

 26 25  0     1  0  0  0  0  0999 V2000
   -3.0232   -3.6924    1.0038 H   0  0  0  0  0  0  0  0  0  0  0  0
   -3.0082   -2.6684    0.6318 C   0  0  0  0  0  0  0  0  0  0  0  0
   -3.6332   -2.0414    1.2658 H   0  0  0  0  0  0  0  0  0  0  0  0
   -3.3762   -2.6444   -0.3912 H   0  0  0  0  0  0  0  0  0  0  0  0
   -1.5882   -2.1554    0.6658 C   0  0  0  0  0  0  0  0  0  0  0  0
   -0.6832   -2.8764    1.0638 O   0  0  0  0  0  0  0  0  0  0  0  0
   -1.3952   -0.9084    0.2428 N   0  0  0  0  0  0  0  0  0  0  0  0
   -2.1972   -0.3644   -0.0422 H   0  0  0  0  0  0  0  0  0  0  0  0
   -0.1122   -0.1994    0.2658 C   0  0  1  0  0  0  0  0  0  0  0  0
    0.5635   -0.7260    0.9446 H   0  0  0  0  0  0  0  0  0  0  0  0
    0.4924   -0.2204   -1.1558 C   0  0  0  0  0  0  0  0  0  0  0  0
    0.6541   -1.2539   -1.4602 H   0  0  0  0  0  0  0  0  0  0  0  0
   -0.2103    0.2355   -1.8517 H   0  0  0  0  0  0  0  0  0  0  0  0
    1.8334    0.4869   -1.2679 C   0  0  0  0  0  0  0  0  0  0  0  0
    2.8988   -0.0805   -1.0996 O   0  0  0  0  0  0  0  0  0  0  0  0
    1.8281    1.7670   -1.5501 N   0  0  0  0  0  0  0  0  0  0  0  0
    2.7290    2.2038   -1.6350 H   0  0  0  0  0  0  0  0  0  0  0  0
    0.9660    2.2524   -1.7118 H   0  0  0  0  0  0  0  0  0  0  0  0
   -0.3126    1.2341    0.8050 C   0  0  0  0  0  0  0  0  0  0  0  0
   -1.2484    1.9199    0.3934 O   0  0  0  0  0  0  0  0  0  0  0  0
    0.5615    1.6875    1.7087 N   0  0  0  0  0  0  0  0  0  0  0  0
    1.3461    1.0849    1.9358 H   0  0  0  0  0  0  0  0  0  0  0  0
    0.5043    3.0121    2.3242 C   0  0  0  0  0  0  0  0  0  0  0  0
   -0.4649    3.1514    2.8080 H   0  0  0  0  0  0  0  0  0  0  0  0
    1.2959    3.1139    3.0678 H   0  0  0  0  0  0  0  0  0  0  0  0
    0.6273    3.7799    1.5584 H   0  0  0  0  0  0  0  0  0  0  0  0
  5  6  2  0  0  0  0
  5  7  1  0  0  0  0
  2  3  1  0  0  0  0
  2  4  1  0  0  0  0
  2  5  1  0  0  0  0
  1  2  1  0  0  0  0
 19 20  2  0  0  0  0
 19 21  1  0  0  0  0
 16 17  1  0  0  0  0
 16 18  1  0  0  0  0
 14 15  2  0  0  0  0
 14 16  1  0  0  0  0
 11 12  1  0  0  0  0
 11 13  1  0  0  0  0
 11 14  1  0  0  0  0
  9 10  1  0  0  0  0
  9 11  1  0  0  0  0
  9 19  1  0  0  0  0
  7  8  1  0  0  0  0
  7  9  1  0  0  0  0
 23 24  1  0  0  0  0
 23 25  1  0  0  0  0
 23 26  1  0  0  0  0
 21 22  1  0  0  0  0
 21 23  1  0  0  0  0
M  END
$$$$
default_name
  -OEChem-02102213163D

 26 25  0     1  0  0  0  0  0999 V2000
   -3.0232   -3.6924    1.0038 H   0  0  0  0  0  0  0  0  0  0  0  0
   -3.0082   -2.6684    0.6318 C   0  0  0  0  0  0  0  0  0  0  0  0
   -3.6332   -2.0414    1.2658 H   0  0  0  0  0  0  0  0  0  0  0  0
   -3.3762   -2.6444   -0.3912 H   0  0  0  0  0  0  0  0  0  0  0  0
   -1.5882   -2.1554    0.6658 C   0  0  0  0  0  0  0  0  0  0  0  0
   -0.6832   -2.8764    1.0638 O   0  0  0  0  0  0  0  0  0  0  0  0
   -1.3952   -0.9084    0.2428 N   0  0  0  0  0  0  0  0  0  0  0  0
   -2.1972   -0.3644   -0.0422 H   0  0  0  0  0  0  0  0  0  0  0  0
   -0.1122   -0.1994    0.2658 C   0  0  1  0  0  0  0  0  0  0  0  0
    0.5635   -0.7260    0.9446 H   0  0  0  0  0  0  0  0  0  0  0  0
    0.4924   -0.2204   -1.1558 C   0  0  0  0  0  0  0  0  0  0  0  0
    0.6541   -1.2539   -1.4602 H   0  0  0  0  0  0  0  0  0  0  0  0
   -0.2103    0.2355   -1.8517 H   0  0  0  0  0  0  0  0  0  0  0  0
    1.8334    0.4869   -1.2679 C   0  0  0  0  0  0  0  0  0  0  0  0
    2.8919   -0.1094   -1.3648 O   0  0  0  0  0  0  0  0  0  0  0  0
    1.8371    1.7976   -1.2491 N   0  0  0  0  0  0  0  0  0  0  0  0
    2.7356    2.2376   -1.3425 H   0  0  0  0  0  0  0  0  0  0  0  0
    0.9784    2.3115   -1.1894 H   0  0  0  0  0  0  0  0  0  0  0  0
   -0.3126    1.2341    0.8050 C   0  0  0  0  0  0  0  0  0  0  0  0
   -1.2484    1.9199    0.3934 O   0  0  0  0  0  0  0  0  0  0  0  0
    0.5615    1.6875    1.7087 N   0  0  0  0  0  0  0  0  0  0  0  0
    1.3461    1.0849    1.9358 H   0  0  0  0  0  0  0  0  0  0  0  0
    0.5043    3.0121    2.3242 C   0  0  0  0  0  0  0  0  0  0  0  0
   -0.4649    3.1514    2.8080 H   0  0  0  0  0  0  0  0  0  0  0  0
    1.2959    3.1139    3.0678 H   0  0  0  0  0  0  0  0  0  0  0  0
    0.6273    3.7799    1.5584 H   0  0  0  0  0  0  0  0  0  0  0  0
  5  6  2  0  0  0  0
  5  7  1  0  0  0  0
  2  3  1  0  0  0  0
  2  4  1  0  0  0  0
  2  5  1  0  0  0  0
  1  2  1  0  0  0  0
 19 20  2  0  0  0  0
 19 21  1  0  0  0  0
 16 17  1  0  0  0  0
 16 18  1  0  0  0  0
 14 15  2  0  0  0  0
 14 16  1  0  0  0  0
 11 12  1  0  0  0  0
 11 13  1  0  0  0  0
 11 14  1  0  0  0  0
  9 10  1  0  0  0  0
  9 11  1  0  0  0  0
  9 19  1  0  0  0  0
  7  8  1  0  0  0  0
  7  9  1  0  0  0  0
 23 24  1  0  0  0  0
 23 25  1  0  0  0  0
 23 26  1  0  0  0  0
 21 22  1  0  0  0  0
 21 23  1  0  0  0  0
M  END
$$$$
default_name
  -OEChem-02102213163D

 26 25  0     1  0  0  0  0  0999 V2000
   -3.0232   -3.6924    1.0038 H   0  0  0  0  0  0  0  0  0  0  0  0
   -3.0082   -2.6684    0.6318 C   0  0  0  0  0  0  0  0  0  0  0  0
   -3.6332   -2.0414    1.2658 H   0  0  0  0  0  0  0  0  0  0  0  0
   -3.3762   -2.6444   -0.3912 H   0  0  0  0  0  0  0  0  0  0  0  0
   -1.5882   -2.1554    0.6658 C   0  0  0  0  0  0  0  0  0  0  0  0
   -0.6832   -2.8764    1.0638 O   0  0  0  0  0  0  0  0  0  0  0  0
   -1.3952   -0.9084    0.2428 N   0  0  0  0  0  0  0  0  0  0  0  0
   -2.1972   -0.3644   -0.0422 H   0  0  0  0  0  0  0  0  0  0  0  0
   -0.1122   -0.1994    0.2658 C   0  0  1  0  0  0  0  0  0  0  0  0
    0.5635   -0.7260    0.9446 H   0  0  0  0  0  0  0  0  0  0  0  0
    0.4924   -0.2204   -1.1558 C   0  0  0  0  0  0  0  0  0  0  0  0
    0.6541   -1.2539   -1.4602 H   0  0  0  0  0  0  0  0  0  0  0  0
   -0.2103    0.2355   -1.8517 H   0  0  0  0  0  0  0  0  0  0  0  0
    1.8334    0.4869   -1.2679 C   0  0  0  0  0  0  0  0  0  0  0  0
    2.8527   -0.0766   -1.6268 O   0  0  0  0  0  0  0  0  0  0  0  0
    1.8827    1.7583   -0.9525 N   0  0  0  0  0  0  0  0  0  0  0  0
    2.7779    2.2034   -1.0529 H   0  0  0  0  0  0  0  0  0  0  0  0
    1.0545    2.2491   -0.6728 H   0  0  0  0  0  0  0  0  0  0  0  0
   -0.3126    1.2341    0.8050 C   0  0  0  0  0  0  0  0  0  0  0  0
   -1.2484    1.9199    0.3934 O   0  0  0  0  0  0  0  0  0  0  0  0
    0.5615    1.6875    1.7087 N   0  0  0  0  0  0  0  0  0  0  0  0
    1.3461    1.0849    1.9358 H   0  0  0  0  0  0  0  0  0  0  0  0
    0.5043    3.0121    2.3242 C   0  0  0  0  0  0  0  0  0  0  0  0
   -0.4649    3.1514    2.8080 H   0  0  0  0  0  0  0  0  0  0  0  0
    1.2959    3.1139    3.0678 H   0  0  0  0  0  0  0  0  0  0  0  0
    0.6273    3.7799    1.5584 H   0  0  0  0  0  0  0  0  0  0  0  0
  5  6  2  0  0  0  0
  5  7  1  0  0  0  0
  2  3  1  0  0  0  0
  2  4  1  0  0  0  0
  2  5  1  0  0  0  0
  1  2  1  0  0  0  0
 19 20  2  0  0  0  0
 19 21  1  0  0  0  0
 16 17  1  0  0  0  0
 16 18  1  0  0  0  0
 14 15  2  0  0  0  0
 14 16  1  0  0  0  0
 11 12  1  0  0  0  0
 11 13  1  0  0  0  0
 11 14  1  0  0  0  0
  9 10  1  0  0  0  0
  9 11  1  0  0  0  0
  9 19  1  0  0  0  0
  7  8  1  0  0  0  0
  7  9  1  0  0  0  0
 23 24  1  0  0  0  0
 23 25  1  0  0  0  0
 23 26  1  0  0  0  0
 21 22  1  0  0  0  0
 21 23  1  0  0  0  0
M  END
$$$$
default_name
  -OEChem-02102213163D

 26 25  0     1  0  0  0  0  0999 V2000
   -3.0232   -3.6924    1.0038 H   0  0  0  0  0  0  0  0  0  0  0  0
   -3.0082   -2.6684    0.6318 C   0  0  0  0  0  0  0  0  0  0  0  0
   -3.6332   -2.0414    1.2658 H   0  0  0  0  0  0  0  0  0  0  0  0
   -3.3762   -2.6444   -0.3912 H   0  0  0  0  0  0  0  0  0  0  0  0
   -1.5882   -2.1554    0.6658 C   0  0  0  0  0  0  0  0  0  0  0  0
   -0.6832   -2.8764    1.0638 O   0  0  0  0  0  0  0  0  0  0  0  0
   -1.3952   -0.9084    0.2428 N   0  0  0  0  0  0  0  0  0  0  0  0
   -2.1972   -0.3644   -0.0422 H   0  0  0  0  0  0  0  0  0  0  0  0
   -0.1122   -0.1994    0.2658 C   0  0  1  0  0  0  0  0  0  0  0  0
    0.5635   -0.7260    0.9446 H   0  0  0  0  0  0  0  0  0  0  0  0
    0.4924   -0.2204   -1.1558 C   0  0  0  0  0  0  0  0  0  0  0  0
    0.6541   -1.2539   -1.4602 H   0  0  0  0  0  0  0  0  0  0  0  0
   -0.2103    0.2355   -1.8517 H   0  0  0  0  0  0  0  0  0  0  0  0
    1.8334    0.4869   -1.2679 C   0  0  0  0  0  0  0  0  0  0  0  0
    2.7839    0.0156   -1.8676 O   0  0  0  0  0  0  0  0  0  0  0  0
    1.9616    1.6517   -0.6804 N   0  0  0  0  0  0  0  0  0  0  0  0
    2.8529    2.1035   -0.7861 H   0  0  0  0  0  0  0  0  0  0  0  0
    1.1890    2.0695   -0.1971 H   0  0  0  0  0  0  0  0  0  0  0  0
   -0.3126    1.2341    0.8050 C   0  0  0  0  0  0  0  0  0  0  0  0
   -1.2484    1.9199    0.3934 O   0  0  0  0  0  0  0  0  0  0  0  0
    0.5615    1.6875    1.7087 N   0  0  0  0  0  0  0  0  0  0  0  0
    1.3461    1.0849    1.9358 H   0  0  0  0  0  0  0  0  0  0  0  0
    0.5043    3.0121    2.3242 C   0  0  0  0  0  0  0  0  0  0  0  0
   -0.4649    3.1514    2.8080 H   0  0  0  0  0  0  0  0  0  0  0  0
    1.2959    3.1139    3.0678 H   0  0  0  0  0  0  0  0  0  0  0  0
    0.6273    3.7799    1.5584 H   0  0  0  0  0  0  0  0  0  0  0  0
  5  6  2  0  0  0  0
  5  7  1  0  0  0  0
  2  3  1  0  0  0  0
  2  4  1  0  0  0  0
  2  5  1  0  0  0  0
  1  2  1  0  0  0  0
 19 20  2  0  0  0  0
 19 21  1  0  0  0  0
 16 17  1  0  0  0  0
 16 18  1  0  0  0  0
 14 15  2  0  0  0  0
 14 16  1  0  0  0  0
 11 12  1  0  0  0  0
 11 13  1  0  0  0  0
 11 14  1  0  0  0  0
  9 10  1  0  0  0  0
  9 11  1  0  0  0  0
  9 19  1  0  0  0  0
  7  8  1  0  0  0  0
  7  9  1  0  0  0  0
 23 24  1  0  0  0  0
 23 25  1  0  0  0  0
 23 26  1  0  0  0  0
 21 22  1  0  0  0  0
 21 23  1  0  0  0  0
M  END
$$$$
default_name
  -OEChem-02102213163D

 26 25  0     1  0  0  0  0  0999 V2000
   -3.0232   -3.6924    1.0038 H   0  0  0  0  0  0  0  0  0  0  0  0
   -3.0082   -2.6684    0.6318 C   0  0  0  0  0  0  0  0  0  0  0  0
   -3.6332   -2.0414    1.2658 H   0  0  0  0  0  0  0  0  0  0  0  0
   -3.3762   -2.6444   -0.3912 H   0  0  0  0  0  0  0  0  0  0  0  0
   -1.5882   -2.1554    0.6658 C   0  0  0  0  0  0  0  0  0  0  0  0
   -0.6832   -2.8764    1.0638 O   0  0  0  0  0  0  0  0  0  0  0  0
   -1.3952   -0.9084    0.2428 N   0  0  0  0  0  0  0  0  0  0  0  0
   -2.1972   -0.3644   -0.0422 H   0  0  0  0  0  0  0  0  0  0  0  0
   -0.1122   -0.1994    0.2658 C   0  0  1  0  0  0  0  0  0  0  0  0
    0.5635   -0.7260    0.9446 H   0  0  0  0  0  0  0  0  0  0  0  0
    0.4924   -0.2204   -1.1558 C   0  0  0  0  0  0  0  0  0  0  0  0
    0.6541   -1.2539   -1.4602 H   0  0  0  0  0  0  0  0  0  0  0  0
   -0.2103    0.2355   -1.8517 H   0  0  0  0  0  0  0  0  0  0  0  0
    1.8334    0.4869   -1.2679 C   0  0  0  0  0  0  0  0  0  0  0  0
    2.6903    0.1610   -2.0709 O   0  0  0  0  0  0  0  0  0  0  0  0
    2.0686    1.4851   -0.4515 N   0  0  0  0  0  0  0  0  0  0  0  0
    2.9556    1.9445   -0.5603 H   0  0  0  0  0  0  0  0  0  0  0  0
    1.3728    1.7848    0.2051 H   0  0  0  0  0  0  0  0  0  0  0  0
   -0.3126    1.2341    0.8050 C   0  0  0  0  0  0  0  0  0  0  0  0
   -1.2484    1.9199    0.3934 O   0  0  0  0  0  0  0  0  0  0  0  0
    0.5615    1.6875    1.7087 N   0  0  0  0  0  0  0  0  0  0  0  0
    1.3461    1.0849    1.9358 H   0  0  0  0  0  0  0  0  0  0  0  0
    0.5043    3.0121    2.3242 C   0  0  0  0  0  0  0  0  0  0  0  0
   -0.4649    3.1514    2.8080 H   0  0  0  0  0  0  0  0  0  0  0  0
    1.2959    3.1139    3.0678 H   0  0  0  0  0  0  0  0  0  0  0  0
    0.6273    3.7799    1.5584 H   0  0  0  0  0  0  0  0  0  0  0  0
  5  6  2  0  0  0  0
  5  7  1  0  0  0  0
  2  3  1  0  0  0  0
  2  4  1  0  0  0  0
  2  5  1  0  0  0  0
  1  2  1  0  0  0  0
 19 20  2  0  0  0  0
 19 21  1  0  0  0  0
 16 17  1  0  0  0  0
 16 18  1  0  0  0  0
 14 15  2  0  0  0  0
 14 16  1  0  0  0  0
 11 12  1  0  0  0  0
 11 13  1  0  0  0  0
 11 14  1  0  0  0  0
  9 10  1  0  0  0  0
  9 11  1  0  0  0  0
  9 19  1  0  0  0  0
  7  8  1  0  0  0  0
  7  9  1  0  0  0  0
 23 24  1  0  0  0  0
 23 25  1  0  0  0  0
 23 26  1  0  0  0  0
 21 22  1  0  0  0  0
 21 23  1  0  0  0  0
M  END
$$$$
default_name
  -OEChem-02102213163D

 26 25  0     1  0  0  0  0  0999 V2000
   -3.0232   -3.6924    1.0038 H   0  0  0  0  0  0  0  0  0  0  0  0
   -3.0082   -2.6684    0.6318 C   0  0  0  0  0  0  0  0  0  0  0  0
   -3.6332   -2.0414    1.2658 H   0  0  0  0  0  0  0  0  0  0  0  0
   -3.3762   -2.6444   -0.3912 H   0  0  0  0  0  0  0  0  0  0  0  0
   -1.5882   -2.1554    0.6658 C   0  0  0  0  0  0  0  0  0  0  0  0
   -0.6832   -2.8764    1.0638 O   0  0  0  0  0  0  0  0  0  0  0  0
   -1.3952   -0.9084    0.2428 N   0  0  0  0  0  0  0  0  0  0  0  0
   -2.1972   -0.3644   -0.0422 H   0  0  0  0  0  0  0  0  0  0  0  0
   -0.1122   -0.1994    0.2658 C   0  0  1  0  0  0  0  0  0  0  0  0
    0.5635   -0.7260    0.9446 H   0  0  0  0  0  0  0  0  0  0  0  0
    0.4924   -0.2204   -1.1558 C   0  0  0  0  0  0  0  0  0  0  0  0
    0.6541   -1.2539   -1.4602 H   0  0  0  0  0  0  0  0  0  0  0  0
   -0.2103    0.2355   -1.8517 H   0  0  0  0  0  0  0  0  0  0  0  0
    1.8334    0.4869   -1.2679 C   0  0  0  0  0  0  0  0  0  0  0  0
    2.5781    0.3496   -2.2228 O   0  0  0  0  0  0  0  0  0  0  0  0
    2.1963    1.2700   -0.2813 N   0  0  0  0  0  0  0  0  0  0  0  0
    3.0789    1.7375   -0.3908 H   0  0  0  0  0  0  0  0  0  0  0  0
    1.5933    1.4145    0.5065 H   0  0  0  0  0  0  0  0  0  0  0  0
   -0.3126    1.2341    0.8050 C   0  0  0  0  0  0  0  0  0  0  0  0
   -1.2484    1.9199    0.3934 O   0  0  0  0  0  0  0  0  0  0  0  0
    0.5615    1.6875    1.7087 N   0  0  0  0  0  0  0  0  0  0  0  0
    1.3461    1.0849    1.9358 H   0  0  0  0  0  0  0  0  0  0  0  0
    0.5043    3.0121    2.3242 C   0  0  0  0  0  0  0  0  0  0  0  0
   -0.4649    3.1514    2.8080 H   0  0  0  0  0  0  0  0  0  0  0  0
    1.2959    3.1139    3.0678 H   0  0  0  0  0  0  0  0  0  0  0  0
    0.6273    3.7799    1.5584 H   0  0  0  0  0  0  0  0  0  0  0  0
  5  6  2  0  0  0  0
  5  7  1  0  0  0  0
  2  3  1  0  0  0  0
  2  4  1  0  0  0  0
  2  5  1  0  0  0  0
  1  2  1  0  0  0  0
 19 20  2  0  0  0  0
 19 21  1  0  0  0  0
 16 17  1  0  0  0  0
 16 18  1  0  0  0  0
 14 15  2  0  0  0  0
 14 16  1  0  0  0  0
 11 12  1  0  0  0  0
 11 13  1  0  0  0  0
 11 14  1  0  0  0  0
  9 10  1  0  0  0  0
  9 11  1  0  0  0  0
  9 19  1  0  0  0  0
  7  8  1  0  0  0  0
  7  9  1  0  0  0  0
 23 24  1  0  0  0  0
 23 25  1  0  0  0  0
 23 26  1  0  0  0  0
 21 22  1  0  0  0  0
 21 23  1  0  0  0  0
M  END
$$$$
default_name
  -OEChem-02102213163D

 26 25  0     1  0  0  0  0  0999 V2000
   -3.0232   -3.6924    1.0038 H   0  0  0  0  0  0  0  0  0  0  0  0
   -3.0082   -2.6684    0.6318 C   0  0  0  0  0  0  0  0  0  0  0  0
   -3.6332   -2.0414    1.2658 H   0  0  0  0  0  0  0  0  0  0  0  0
   -3.3762   -2.6444   -0.3912 H   0  0  0  0  0  0  0  0  0  0  0  0
   -1.5882   -2.1554    0.6658 C   0  0  0  0  0  0  0  0  0  0  0  0
   -0.6832   -2.8764    1.0638 O   0  0  0  0  0  0  0  0  0  0  0  0
   -1.3952   -0.9084    0.2428 N   0  0  0  0  0  0  0  0  0  0  0  0
   -2.1972   -0.3644   -0.0422 H   0  0  0  0  0  0  0  0  0  0  0  0
   -0.1122   -0.1994    0.2658 C   0  0  1  0  0  0  0  0  0  0  0  0
    0.5635   -0.7260    0.9446 H   0  0  0  0  0  0  0  0  0  0  0  0
    0.4924   -0.2204   -1.1558 C   0  0  0  0  0  0  0  0  0  0  0  0
    0.4083   -1.2265   -1.5651 H   0  0  0  0  0  0  0  0  0  0  0  0
   -0.0705    0.4576   -1.7955 H   0  0  0  0  0  0  0  0  0  0  0  0
    1.9648    0.1545   -1.2071 C   0  0  0  0  0  0  0  0  0  0  0  0
    2.6044    0.1906   -2.2438 O   0  0  0  0  0  0  0  0  0  0  0  0
    2.5628    0.4408   -0.0763 N   0  0  0  0  0  0  0  0  0  0  0  0
    3.5309    0.7019   -0.1429 H   0  0  0  0  0  0  0  0  0  0  0  0
    2.0542    0.4369    0.7876 H   0  0  0  0  0  0  0  0  0  0  0  0
   -0.3126    1.2341    0.8050 C   0  0  0  0  0  0  0  0  0  0  0  0
   -1.2484    1.9199    0.3934 O   0  0  0  0  0  0  0  0  0  0  0  0
    0.5615    1.6875    1.7087 N   0  0  0  0  0  0  0  0  0  0  0  0
    1.3461    1.0849    1.9358 H   0  0  0  0  0  0  0  0  0  0  0  0
    0.5043    3.0121    2.3242 C   0  0  0  0  0  0  0  0  0  0  0  0
   -0.4649    3.1514    2.8080 H   0  0  0  0  0  0  0  0  0  0  0  0
    1.2959    3.1139    3.0678 H   0  0  0  0  0  0  0  0  0  0  0  0
    0.6273    3.7799    1.5584 H   0  0  0  0  0  0  0  0  0  0  0  0
  5  6  2  0  0  0  0
  5  7  1  0  0  0  0
  2  3  1  0  0  0  0
  2  4  1  0  0  0  0
  2  5  1  0  0  0  0
  1  2  1  0  0  0  0
 19 20  2  0  0  0  0
 19 21  1  0  0  0  0
 16 17  1  0  0  0  0
 16 18  1  0  0  0  0
 14 15  2  0  0  0  0
 14 16  1  0  0  0  0
 11 12  1  0  0  0  0
 11 13  1  0  0  0  0
 11 14  1  0  0  0  0
  9 10  1  0  0  0  0
  9 11  1  0  0  0  0
  9 19  1  0  0  0  0
  7  8  1  0  0  0  0
  7  9  1  0  0  0  0
 23 24  1  0  0  0  0
 23 25  1  0  0  0  0
 23 26  1  0  0  0  0
 21 22  1  0  0  0  0
 21 23  1  0  0  0  0
M  END
$$$$
default_name
  -OEChem-02102213163D

 26 25  0     1  0  0  0  0  0999 V2000
   -3.0232   -3.6924    1.0038 H   0  0  0  0  0  0  0  0  0  0  0  0
   -3.0082   -2.6684    0.6318 C   0  0  0  0  0  0  0  0  0  0  0  0
   -3.6332   -2.0414    1.2658 H   0  0  0  0  0  0  0  0  0  0  0  0
   -3.3762   -2.6444   -0.3912 H   0  0  0  0  0  0  0  0  0  0  0  0
   -1.5882   -2.1554    0.6658 C   0  0  0  0  0  0  0  0  0  0  0  0
   -0.6832   -2.8764    1.0638 O   0  0  0  0  0  0  0  0  0  0  0  0
   -1.3952   -0.9084    0.2428 N   0  0  0  0  0  0  0  0  0  0  0  0
   -2.1972   -0.3644   -0.0422 H   0  0  0  0  0  0  0  0  0  0  0  0
   -0.1122   -0.1994    0.2658 C   0  0  1  0  0  0  0  0  0  0  0  0
    0.5635   -0.7260    0.9446 H   0  0  0  0  0  0  0  0  0  0  0  0
    0.4924   -0.2204   -1.1558 C   0  0  0  0  0  0  0  0  0  0  0  0
    0.4083   -1.2265   -1.5651 H   0  0  0  0  0  0  0  0  0  0  0  0
   -0.0705    0.4576   -1.7955 H   0  0  0  0  0  0  0  0  0  0  0  0
    1.9648    0.1545   -1.2071 C   0  0  0  0  0  0  0  0  0  0  0  0
    2.5387    0.4493   -2.2410 O   0  0  0  0  0  0  0  0  0  0  0  0
    2.6373    0.1475   -0.0819 N   0  0  0  0  0  0  0  0  0  0  0  0
    3.6035    0.4164   -0.1438 H   0  0  0  0  0  0  0  0  0  0  0  0
    2.1839   -0.0728    0.7846 H   0  0  0  0  0  0  0  0  0  0  0  0
   -0.3126    1.2341    0.8050 C   0  0  0  0  0  0  0  0  0  0  0  0
   -1.2484    1.9199    0.3934 O   0  0  0  0  0  0  0  0  0  0  0  0
    0.5615    1.6875    1.7087 N   0  0  0  0  0  0  0  0  0  0  0  0
    1.3461    1.0849    1.9358 H   0  0  0  0  0  0  0  0  0  0  0  0
    0.5043    3.0121    2.3242 C   0  0  0  0  0  0  0  0  0  0  0  0
   -0.4649    3.1514    2.8080 H   0  0  0  0  0  0  0  0  0  0  0  0
    1.2959    3.1139    3.0678 H   0  0  0  0  0  0  0  0  0  0  0  0
    0.6273    3.7799    1.5584 H   0  0  0  0  0  0  0  0  0  0  0  0
  5  6  2  0  0  0  0
  5  7  1  0  0  0  0
  2  3  1  0  0  0  0
  2  4  1  0  0  0  0
  2  5  1  0  0  0  0
  1  2  1  0  0  0  0
 19 20  2  0  0  0  0
 19 21  1  0  0  0  0
 16 17  1  0  0  0  0
 16 18  1  0  0  0  0
 14 15  2  0  0  0  0
 14 16  1  0  0  0  0
 11 12  1  0  0  0  0
 11 13  1  0  0  0  0
 11 14  1  0  0  0  0
  9 10  1  0  0  0  0
  9 11  1  0  0  0  0
  9 19  1  0  0  0  0
  7  8  1  0  0  0  0
  7  9  1  0  0  0  0
 23 24  1  0  0  0  0
 23 25  1  0  0  0  0
 23 26  1  0  0  0  0
 21 22  1  0  0  0  0
 21 23  1  0  0  0  0
M  END
$$$$
default_name
  -OEChem-02102213163D

 26 25  0     1  0  0  0  0  0999 V2000
   -3.0232   -3.6924    1.0038 H   0  0  0  0  0  0  0  0  0  0  0  0
   -3.0082   -2.6684    0.6318 C   0  0  0  0  0  0  0  0  0  0  0  0
   -3.6332   -2.0414    1.2658 H   0  0  0  0  0  0  0  0  0  0  0  0
   -3.3762   -2.6444   -0.3912 H   0  0  0  0  0  0  0  0  0  0  0  0
   -1.5882   -2.1554    0.6658 C   0  0  0  0  0  0  0  0  0  0  0  0
   -0.6832   -2.8764    1.0638 O   0  0  0  0  0  0  0  0  0  0  0  0
   -1.3952   -0.9084    0.2428 N   0  0  0  0  0  0  0  0  0  0  0  0
   -2.1972   -0.3644   -0.0422 H   0  0  0  0  0  0  0  0  0  0  0  0
   -0.1122   -0.1994    0.2658 C   0  0  1  0  0  0  0  0  0  0  0  0
    0.5635   -0.7260    0.9446 H   0  0  0  0  0  0  0  0  0  0  0  0
    0.4924   -0.2204   -1.1558 C   0  0  0  0  0  0  0  0  0  0  0  0
    0.4083   -1.2265   -1.5651 H   0  0  0  0  0  0  0  0  0  0  0  0
   -0.0705    0.4576   -1.7955 H   0  0  0  0  0  0  0  0  0  0  0  0
    1.9648    0.1545   -1.2071 C   0  0  0  0  0  0  0  0  0  0  0  0
    2.4776    0.6989   -2.1693 O   0  0  0  0  0  0  0  0  0  0  0  0
    2.7064   -0.1350   -0.1656 N   0  0  0  0  0  0  0  0  0  0  0  0
    3.6712    0.1402   -0.2208 H   0  0  0  0  0  0  0  0  0  0  0  0
    2.3045   -0.5655    0.6457 H   0  0  0  0  0  0  0  0  0  0  0  0
   -0.3126    1.2341    0.8050 C   0  0  0  0  0  0  0  0  0  0  0  0
   -1.2484    1.9199    0.3934 O   0  0  0  0  0  0  0  0  0  0  0  0
    0.5615    1.6875    1.7087 N   0  0  0  0  0  0  0  0  0  0  0  0
    1.3461    1.0849    1.9358 H   0  0  0  0  0  0  0  0  0  0  0  0
    0.5043    3.0121    2.3242 C   0  0  0  0  0  0  0  0  0  0  0  0
   -0.4649    3.1514    2.8080 H   0  0  0  0  0  0  0  0  0  0  0  0
    1.2959    3.1139    3.0678 H   0  0  0  0  0  0  0  0  0  0  0  0
    0.6273    3.7799    1.5584 H   0  0  0  0  0  0  0  0  0  0  0  0
  5  6  2  0  0  0  0
  5  7  1  0  0  0  0
  2  3  1  0  0  0  0
  2  4  1  0  0  0  0
  2  5  1  0  0  0  0
  1  2  1  0  0  0  0
 19 20  2  0  0  0  0
 19 21  1  0  0  0  0
 16 17  1  0  0  0  0
 16 18  1  0  0  0  0
 14 15  2  0  0  0  0
 14 16  1  0  0  0  0
 11 12  1  0  0  0  0
 11 13  1  0  0  0  0
 11 14  1  0  0  0  0
  9 10  1  0  0  0  0
  9 11  1  0  0  0  0
  9 19  1  0  0  0  0
  7  8  1  0  0  0  0
  7  9  1  0  0  0  0
 23 24  1  0  0  0  0
 23 25  1  0  0  0  0
 23 26  1  0  0  0  0
 21 22  1  0  0  0  0
 21 23  1  0  0  0  0
M  END
$$$$
default_name
  -OEChem-02102213163D

 26 25  0     1  0  0  0  0  0999 V2000
   -3.0232   -3.6924    1.0038 H   0  0  0  0  0  0  0  0  0  0  0  0
   -3.0082   -2.6684    0.6318 C   0  0  0  0  0  0  0  0  0  0  0  0
   -3.6332   -2.0414    1.2658 H   0  0  0  0  0  0  0  0  0  0  0  0
   -3.3762   -2.6444   -0.3912 H   0  0  0  0  0  0  0  0  0  0  0  0
   -1.5882   -2.1554    0.6658 C   0  0  0  0  0  0  0  0  0  0  0  0
   -0.6832   -2.8764    1.0638 O   0  0  0  0  0  0  0  0  0  0  0  0
   -1.3952   -0.9084    0.2428 N   0  0  0  0  0  0  0  0  0  0  0  0
   -2.1972   -0.3644   -0.0422 H   0  0  0  0  0  0  0  0  0  0  0  0
   -0.1122   -0.1994    0.2658 C   0  0  1  0  0  0  0  0  0  0  0  0
    0.5635   -0.7260    0.9446 H   0  0  0  0  0  0  0  0  0  0  0  0
    0.4924   -0.2204   -1.1558 C   0  0  0  0  0  0  0  0  0  0  0  0
    0.4083   -1.2265   -1.5651 H   0  0  0  0  0  0  0  0  0  0  0  0
   -0.0705    0.4576   -1.7955 H   0  0  0  0  0  0  0  0  0  0  0  0
    1.9648    0.1545   -1.2071 C   0  0  0  0  0  0  0  0  0  0  0  0
    2.4254    0.9227   -2.0335 O   0  0  0  0  0  0  0  0  0  0  0  0
    2.7652   -0.3875   -0.3217 N   0  0  0  0  0  0  0  0  0  0  0  0
    3.7292   -0.1079   -0.3688 H   0  0  0  0  0  0  0  0  0  0  0  0
    2.4078   -1.0076    0.3803 H   0  0  0  0  0  0  0  0  0  0  0  0
   -0.3126    1.2341    0.8050 C   0  0  0  0  0  0  0  0  0  0  0  0
   -1.2484    1.9199    0.3934 O   0  0  0  0  0  0  0  0  0  0  0  0
    0.5615    1.6875    1.7087 N   0  0  0  0  0  0  0  0  0  0  0  0
    1.3461    1.0849    1.9358 H   0  0  0  0  0  0  0  0  0  0  0  0
    0.5043    3.0121    2.3242 C   0  0  0  0  0  0  0  0  0  0  0  0
   -0.4649    3.1514    2.8080 H   0  0  0  0  0  0  0  0  0  0  0  0
    1.2959    3.1139    3.0678 H   0  0  0  0  0  0  0  0  0  0  0  0
    0.6273    3.7799    1.5584 H   0  0  0  0  0  0  0  0  0  0  0  0
  5  6  2  0  0  0  0
  5  7  1  0  0  0  0
  2  3  1  0  0  0  0
  2  4  1  0  0  0  0
  2  5  1  0  0  0  0
  1  2  1  0  0  0  0
 19 20  2  0  0  0  0
 19 21  1  0  0  0  0
 16 17  1  0  0  0  0
 16 18  1  0  0  0  0
 14 15  2  0  0  0  0
 14 16  1  0  0  0  0
 11 12  1  0  0  0  0
 11 13  1  0  0  0  0
 11 14  1  0  0  0  0
  9 10  1  0  0  0  0
  9 11  1  0  0  0  0
  9 19  1  0  0  0  0
  7  8  1  0  0  0  0
  7  9  1  0  0  0  0
 23 24  1  0  0  0  0
 23 25  1  0  0  0  0
 23 26  1  0  0  0  0
 21 22  1  0  0  0  0
 21 23  1  0  0  0  0
M  END
$$$$
default_name
  -OEChem-02102213163D

 26 25  0     1  0  0  0  0  0999 V2000
   -3.0232   -3.6924    1.0038 H   0  0  0  0  0  0  0  0  0  0  0  0
   -3.0082   -2.6684    0.6318 C   0  0  0  0  0  0  0  0  0  0  0  0
   -3.6332   -2.0414    1.2658 H   0  0  0  0  0  0  0  0  0  0  0  0
   -3.3762   -2.6444   -0.3912 H   0  0  0  0  0  0  0  0  0  0  0  0
   -1.5882   -2.1554    0.6658 C   0  0  0  0  0  0  0  0  0  0  0  0
   -0.6832   -2.8764    1.0638 O   0  0  0  0  0  0  0  0  0  0  0  0
   -1.3952   -0.9084    0.2428 N   0  0  0  0  0  0  0  0  0  0  0  0
   -2.1972   -0.3644   -0.0422 H   0  0  0  0  0  0  0  0  0  0  0  0
   -0.1122   -0.1994    0.2658 C   0  0  1  0  0  0  0  0  0  0  0  0
    0.5635   -0.7260    0.9446 H   0  0  0  0  0  0  0  0  0  0  0  0
    0.4924   -0.2204   -1.1558 C   0  0  0  0  0  0  0  0  0  0  0  0
    0.4083   -1.2265   -1.5651 H   0  0  0  0  0  0  0  0  0  0  0  0
   -0.0705    0.4576   -1.7955 H   0  0  0  0  0  0  0  0  0  0  0  0
    1.9648    0.1545   -1.2071 C   0  0  0  0  0  0  0  0  0  0  0  0
    2.3855    1.1052   -1.8429 O   0  0  0  0  0  0  0  0  0  0  0  0
    2.8099   -0.5928   -0.5396 N   0  0  0  0  0  0  0  0  0  0  0  0
    3.7736   -0.3109   -0.5776 H   0  0  0  0  0  0  0  0  0  0  0  0
    2.4869   -1.3690    0.0065 H   0  0  0  0  0  0  0  0  0  0  0  0
   -0.3126    1.2341    0.8050 C   0  0  0  0  0  0  0  0  0  0  0  0
   -1.2484    1.9199    0.3934 O   0  0  0  0  0  0  0  0  0  0  0  0
    0.5615    1.6875    1.7087 N   0  0  0  0  0  0  0  0  0  0  0  0
    1.3461    1.0849    1.9358 H   0  0  0  0  0  0  0  0  0  0  0  0
    0.5043    3.0121    2.3242 C   0  0  0  0  0  0  0  0  0  0  0  0
   -0.4649    3.1514    2.8080 H   0  0  0  0  0  0  0  0  0  0  0  0
    1.2959    3.1139    3.0678 H   0  0  0  0  0  0  0  0  0  0  0  0
    0.6273    3.7799    1.5584 H   0  0  0  0  0  0  0  0  0  0  0  0
  5  6  2  0  0  0  0
  5  7  1  0  0  0  0
  2  3  1  0  0  0  0
  2  4  1  0  0  0  0
  2  5  1  0  0  0  0
  1  2  1  0  0  0  0
 19 20  2  0  0  0  0
 19 21  1  0  0  0  0
 16 17  1  0  0  0  0
 16 18  1  0  0  0  0
 14 15  2  0  0  0  0
 14 16  1  0  0  0  0
 11 12  1  0  0  0  0
 11 13  1  0  0  0  0
 11 14  1  0  0  0  0
  9 10  1  0  0  0  0
  9 11  1  0  0  0  0
  9 19  1  0  0  0  0
  7  8  1  0  0  0  0
  7  9  1  0  0  0  0
 23 24  1  0  0  0  0
 23 25  1  0  0  0  0
 23 26  1  0  0  0  0
 21 22  1  0  0  0  0
 21 23  1  0  0  0  0
M  END
$$$$
default_name
  -OEChem-02102213163D

 26 25  0     1  0  0  0  0  0999 V2000
   -3.0232   -3.6924    1.0038 H   0  0  0  0  0  0  0  0  0  0  0  0
   -3.0082   -2.6684    0.6318 C   0  0  0  0  0  0  0  0  0  0  0  0
   -3.6332   -2.0414    1.2658 H   0  0  0  0  0  0  0  0  0  0  0  0
   -3.3762   -2.6444   -0.3912 H   0  0  0  0  0  0  0  0  0  0  0  0
   -1.5882   -2.1554    0.6658 C   0  0  0  0  0  0  0  0  0  0  0  0
   -0.6832   -2.8764    1.0638 O   0  0  0  0  0  0  0  0  0  0  0  0
   -1.3952   -0.9084    0.2428 N   0  0  0  0  0  0  0  0  0  0  0  0
   -2.1972   -0.3644   -0.0422 H   0  0  0  0  0  0  0  0  0  0  0  0
   -0.1122   -0.1994    0.2658 C   0  0  1  0  0  0  0  0  0  0  0  0
    0.5635   -0.7260    0.9446 H   0  0  0  0  0  0  0  0  0  0  0  0
    0.4924   -0.2204   -1.1558 C   0  0  0  0  0  0  0  0  0  0  0  0
    0.4083   -1.2265   -1.5651 H   0  0  0  0  0  0  0  0  0  0  0  0
   -0.0705    0.4576   -1.7955 H   0  0  0  0  0  0  0  0  0  0  0  0
    1.9648    0.1545   -1.2071 C   0  0  0  0  0  0  0  0  0  0  0  0
    2.3608    1.2341   -1.6106 O   0  0  0  0  0  0  0  0  0  0  0  0
    2.8374   -0.7369   -0.8043 N   0  0  0  0  0  0  0  0  0  0  0  0
    3.8014   -0.4551   -0.8330 H   0  0  0  0  0  0  0  0  0  0  0  0
    2.5362   -1.6251   -0.4502 H   0  0  0  0  0  0  0  0  0  0  0  0
   -0.3126    1.2341    0.8050 C   0  0  0  0  0  0  0  0  0  0  0  0
   -1.2484    1.9199    0.3934 O   0  0  0  0  0  0  0  0  0  0  0  0
    0.5615    1.6875    1.7087 N   0  0  0  0  0  0  0  0  0  0  0  0
    1.3461    1.0849    1.9358 H   0  0  0  0  0  0  0  0  0  0  0  0
    0.5043    3.0121    2.3242 C   0  0  0  0  0  0  0  0  0  0  0  0
   -0.4649    3.1514    2.8080 H   0  0  0  0  0  0  0  0  0  0  0  0
    1.2959    3.1139    3.0678 H   0  0  0  0  0  0  0  0  0  0  0  0
    0.6273    3.7799    1.5584 H   0  0  0  0  0  0  0  0  0  0  0  0
  5  6  2  0  0  0  0
  5  7  1  0  0  0  0
  2  3  1  0  0  0  0
  2  4  1  0  0  0  0
  2  5  1  0  0  0  0
  1  2  1  0  0  0  0
 19 20  2  0  0  0  0
 19 21  1  0  0  0  0
 16 17  1  0  0  0  0
 16 18  1  0  0  0  0
 14 15  2  0  0  0  0
 14 16  1  0  0  0  0
 11 12  1  0  0  0  0
 11 13  1  0  0  0  0
 11 14  1  0  0  0  0
  9 10  1  0  0  0  0
  9 11  1  0  0  0  0
  9 19  1  0  0  0  0
  7  8  1  0  0  0  0
  7  9  1  0  0  0  0
 23 24  1  0  0  0  0
 23 25  1  0  0  0  0
 23 26  1  0  0  0  0
 21 22  1  0  0  0  0
 21 23  1  0  0  0  0
M  END
$$$$
default_name
  -OEChem-02102213163D

 26 25  0     1  0  0  0  0  0999 V2000
   -3.0232   -3.6924    1.0038 H   0  0  0  0  0  0  0  0  0  0  0  0
   -3.0082   -2.6684    0.6318 C   0  0  0  0  0  0  0  0  0  0  0  0
   -3.6332   -2.0414    1.2658 H   0  0  0  0  0  0  0  0  0  0  0  0
   -3.3762   -2.6444   -0.3912 H   0  0  0  0  0  0  0  0  0  0  0  0
   -1.5882   -2.1554    0.6658 C   0  0  0  0  0  0  0  0  0  0  0  0
   -0.6832   -2.8764    1.0638 O   0  0  0  0  0  0  0  0  0  0  0  0
   -1.3952   -0.9084    0.2428 N   0  0  0  0  0  0  0  0  0  0  0  0
   -2.1972   -0.3644   -0.0422 H   0  0  0  0  0  0  0  0  0  0  0  0
   -0.1122   -0.1994    0.2658 C   0  0  1  0  0  0  0  0  0  0  0  0
    0.5635   -0.7260    0.9446 H   0  0  0  0  0  0  0  0  0  0  0  0
    0.4924   -0.2204   -1.1558 C   0  0  0  0  0  0  0  0  0  0  0  0
    0.4083   -1.2265   -1.5651 H   0  0  0  0  0  0  0  0  0  0  0  0
   -0.0705    0.4576   -1.7955 H   0  0  0  0  0  0  0  0  0  0  0  0
    1.9648    0.1545   -1.2071 C   0  0  0  0  0  0  0  0  0  0  0  0
    2.3529    1.3006   -1.3522 O   0  0  0  0  0  0  0  0  0  0  0  0
    2.8458   -0.8100   -1.0979 N   0  0  0  0  0  0  0  0  0  0  0  0
    3.8107   -0.5305   -1.1176 H   0  0  0  0  0  0  0  0  0  0  0  0
    2.5524   -1.7585   -0.9586 H   0  0  0  0  0  0  0  0  0  0  0  0
   -0.3126    1.2341    0.8050 C   0  0  0  0  0  0  0  0  0  0  0  0
   -1.2484    1.9199    0.3934 O   0  0  0  0  0  0  0  0  0  0  0  0
    0.5615    1.6875    1.7087 N   0  0  0  0  0  0  0  0  0  0  0  0
    1.3461    1.0849    1.9358 H   0  0  0  0  0  0  0  0  0  0  0  0
    0.5043    3.0121    2.3242 C   0  0  0  0  0  0  0  0  0  0  0  0
   -0.4649    3.1514    2.8080 H   0  0  0  0  0  0  0  0  0  0  0  0
    1.2959    3.1139    3.0678 H   0  0  0  0  0  0  0  0  0  0  0  0
    0.6273    3.7799    1.5584 H   0  0  0  0  0  0  0  0  0  0  0  0
  5  6  2  0  0  0  0
  5  7  1  0  0  0  0
  2  3  1  0  0  0  0
  2  4  1  0  0  0  0
  2  5  1  0  0  0  0
  1  2  1  0  0  0  0
 19 20  2  0  0  0  0
 19 21  1  0  0  0  0
 16 17  1  0  0  0  0
 16 18  1  0  0  0  0
 14 15  2  0  0  0  0
 14 16  1  0  0  0  0
 11 12  1  0  0  0  0
 11 13  1  0  0  0  0
 11 14  1  0  0  0  0
  9 10  1  0  0  0  0
  9 11  1  0  0  0  0
  9 19  1  0  0  0  0
  7  8  1  0  0  0  0
  7  9  1  0  0  0  0
 23 24  1  0  0  0  0
 23 25  1  0  0  0  0
 23 26  1  0  0  0  0
 21 22  1  0  0  0  0
 21 23  1  0  0  0  0
M  END
$$$$
default_name
  -OEChem-02102213163D

 26 25  0     1  0  0  0  0  0999 V2000
   -3.0232   -3.6924    1.0038 H   0  0  0  0  0  0  0  0  0  0  0  0
   -3.0082   -2.6684    0.6318 C   0  0  0  0  0  0  0  0  0  0  0  0
   -3.6332   -2.0414    1.2658 H   0  0  0  0  0  0  0  0  0  0  0  0
   -3.3762   -2.6444   -0.3912 H   0  0  0  0  0  0  0  0  0  0  0  0
   -1.5882   -2.1554    0.6658 C   0  0  0  0  0  0  0  0  0  0  0  0
   -0.6832   -2.8764    1.0638 O   0  0  0  0  0  0  0  0  0  0  0  0
   -1.3952   -0.9084    0.2428 N   0  0  0  0  0  0  0  0  0  0  0  0
   -2.1972   -0.3644   -0.0422 H   0  0  0  0  0  0  0  0  0  0  0  0
   -0.1122   -0.1994    0.2658 C   0  0  1  0  0  0  0  0  0  0  0  0
    0.5635   -0.7260    0.9446 H   0  0  0  0  0  0  0  0  0  0  0  0
    0.4924   -0.2204   -1.1558 C   0  0  0  0  0  0  0  0  0  0  0  0
    0.4083   -1.2265   -1.5651 H   0  0  0  0  0  0  0  0  0  0  0  0
   -0.0705    0.4576   -1.7955 H   0  0  0  0  0  0  0  0  0  0  0  0
    1.9648    0.1545   -1.2071 C   0  0  0  0  0  0  0  0  0  0  0  0
    2.3623    1.3001   -1.0855 O   0  0  0  0  0  0  0  0  0  0  0  0
    2.8345   -0.8071   -1.4003 N   0  0  0  0  0  0  0  0  0  0  0  0
    3.8009   -0.5321   -1.4121 H   0  0  0  0  0  0  0  0  0  0  0  0
    2.5345   -1.7600   -1.4842 H   0  0  0  0  0  0  0  0  0  0  0  0
   -0.3126    1.2341    0.8050 C   0  0  0  0  0  0  0  0  0  0  0  0
   -1.2484    1.9199    0.3934 O   0  0  0  0  0  0  0  0  0  0  0  0
    0.5615    1.6875    1.7087 N   0  0  0  0  0  0  0  0  0  0  0  0
    1.3461    1.0849    1.9358 H   0  0  0  0  0  0  0  0  0  0  0  0
    0.5043    3.0121    2.3242 C   0  0  0  0  0  0  0  0  0  0  0  0
   -0.4649    3.1514    2.8080 H   0  0  0  0  0  0  0  0  0  0  0  0
    1.2959    3.1139    3.0678 H   0  0  0  0  0  0  0  0  0  0  0  0
    0.6273    3.7799    1.5584 H   0  0  0  0  0  0  0  0  0  0  0  0
  5  6  2  0  0  0  0
  5  7  1  0  0  0  0
  2  3  1  0  0  0  0
  2  4  1  0  0  0  0
  2  5  1  0  0  0  0
  1  2  1  0  0  0  0
 19 20  2  0  0  0  0
 19 21  1  0  0  0  0
 16 17  1  0  0  0  0
 16 18  1  0  0  0  0
 14 15  2  0  0  0  0
 14 16  1  0  0  0  0
 11 12  1  0  0  0  0
 11 13  1  0  0  0  0
 11 14  1  0  0  0  0
  9 10  1  0  0  0  0
  9 11  1  0  0  0  0
  9 19  1  0  0  0  0
  7  8  1  0  0  0  0
  7  9  1  0  0  0  0
 23 24  1  0  0  0  0
 23 25  1  0  0  0  0
 23 26  1  0  0  0  0
 21 22  1  0  0  0  0
 21 23  1  0  0  0  0
M  END
$$$$
default_name
  -OEChem-02102213163D

 26 25  0     1  0  0  0  0  0999 V2000
   -3.0232   -3.6924    1.0038 H   0  0  0  0  0  0  0  0  0  0  0  0
   -3.0082   -2.6684    0.6318 C   0  0  0  0  0  0  0  0  0  0  0  0
   -3.6332   -2.0414    1.2658 H   0  0  0  0  0  0  0  0  0  0  0  0
   -3.3762   -2.6444   -0.3912 H   0  0  0  0  0  0  0  0  0  0  0  0
   -1.5882   -2.1554    0.6658 C   0  0  0  0  0  0  0  0  0  0  0  0
   -0.6832   -2.8764    1.0638 O   0  0  0  0  0  0  0  0  0  0  0  0
   -1.3952   -0.9084    0.2428 N   0  0  0  0  0  0  0  0  0  0  0  0
   -2.1972   -0.3644   -0.0422 H   0  0  0  0  0  0  0  0  0  0  0  0
   -0.1122   -0.1994    0.2658 C   0  0  1  0  0  0  0  0  0  0  0  0
    0.5635   -0.7260    0.9446 H   0  0  0  0  0  0  0  0  0  0  0  0
    0.4924   -0.2204   -1.1558 C   0  0  0  0  0  0  0  0  0  0  0  0
    0.4083   -1.2265   -1.5651 H   0  0  0  0  0  0  0  0  0  0  0  0
   -0.0705    0.4576   -1.7955 H   0  0  0  0  0  0  0  0  0  0  0  0
    1.9648    0.1545   -1.2071 C   0  0  0  0  0  0  0  0  0  0  0  0
    2.3884    1.2327   -0.8286 O   0  0  0  0  0  0  0  0  0  0  0  0
    2.8043   -0.7283   -1.6910 N   0  0  0  0  0  0  0  0  0  0  0  0
    3.7726   -0.4598   -1.6962 H   0  0  0  0  0  0  0  0  0  0  0  0
    2.4836   -1.6295   -1.9912 H   0  0  0  0  0  0  0  0  0  0  0  0
   -0.3126    1.2341    0.8050 C   0  0  0  0  0  0  0  0  0  0  0  0
   -1.2484    1.9199    0.3934 O   0  0  0  0  0  0  0  0  0  0  0  0
    0.5615    1.6875    1.7087 N   0  0  0  0  0  0  0  0  0  0  0  0
    1.3461    1.0849    1.9358 H   0  0  0  0  0  0  0  0  0  0  0  0
    0.5043    3.0121    2.3242 C   0  0  0  0  0  0  0  0  0  0  0  0
   -0.4649    3.1514    2.8080 H   0  0  0  0  0  0  0  0  0  0  0  0
    1.2959    3.1139    3.0678 H   0  0  0  0  0  0  0  0  0  0  0  0
    0.6273    3.7799    1.5584 H   0  0  0  0  0  0  0  0  0  0  0  0
  5  6  2  0  0  0  0
  5  7  1  0  0  0  0
  2  3  1  0  0  0  0
  2  4  1  0  0  0  0
  2  5  1  0  0  0  0
  1  2  1  0  0  0  0
 19 20  2  0  0  0  0
 19 21  1  0  0  0  0
 16 17  1  0  0  0  0
 16 18  1  0  0  0  0
 14 15  2  0  0  0  0
 14 16  1  0  0  0  0
 11 12  1  0  0  0  0
 11 13  1  0  0  0  0
 11 14  1  0  0  0  0
  9 10  1  0  0  0  0
  9 11  1  0  0  0  0
  9 19  1  0  0  0  0
  7  8  1  0  0  0  0
  7  9  1  0  0  0  0
 23 24  1  0  0  0  0
 23 25  1  0  0  0  0
 23 26  1  0  0  0  0
 21 22  1  0  0  0  0
 21 23  1  0  0  0  0
M  END
$$$$
default_name
  -OEChem-02102213163D

 26 25  0     1  0  0  0  0  0999 V2000
   -3.0232   -3.6924    1.0038 H   0  0  0  0  0  0  0  0  0  0  0  0
   -3.0082   -2.6684    0.6318 C   0  0  0  0  0  0  0  0  0  0  0  0
   -3.6332   -2.0414    1.2658 H   0  0  0  0  0  0  0  0  0  0  0  0
   -3.3762   -2.6444   -0.3912 H   0  0  0  0  0  0  0  0  0  0  0  0
   -1.5882   -2.1554    0.6658 C   0  0  0  0  0  0  0  0  0  0  0  0
   -0.6832   -2.8764    1.0638 O   0  0  0  0  0  0  0  0  0  0  0  0
   -1.3952   -0.9084    0.2428 N   0  0  0  0  0  0  0  0  0  0  0  0
   -2.1972   -0.3644   -0.0422 H   0  0  0  0  0  0  0  0  0  0  0  0
   -0.1122   -0.1994    0.2658 C   0  0  1  0  0  0  0  0  0  0  0  0
    0.5635   -0.7260    0.9446 H   0  0  0  0  0  0  0  0  0  0  0  0
    0.4924   -0.2204   -1.1558 C   0  0  0  0  0  0  0  0  0  0  0  0
    0.4083   -1.2265   -1.5651 H   0  0  0  0  0  0  0  0  0  0  0  0
   -0.0705    0.4576   -1.7955 H   0  0  0  0  0  0  0  0  0  0  0  0
    1.9648    0.1545   -1.2071 C   0  0  0  0  0  0  0  0  0  0  0  0
    2.4294    1.1030   -0.5990 O   0  0  0  0  0  0  0  0  0  0  0  0
    2.7573   -0.5791   -1.9501 N   0  0  0  0  0  0  0  0  0  0  0  0
    3.7277   -0.3184   -1.9508 H   0  0  0  0  0  0  0  0  0  0  0  0
    2.4033   -1.3759   -2.4449 H   0  0  0  0  0  0  0  0  0  0  0  0
   -0.3126    1.2341    0.8050 C   0  0  0  0  0  0  0  0  0  0  0  0
   -1.2484    1.9199    0.3934 O   0  0  0  0  0  0  0  0  0  0  0  0
    0.5615    1.6875    1.7087 N   0  0  0  0  0  0  0  0  0  0  0  0
    1.3461    1.0849    1.9358 H   0  0  0  0  0  0  0  0  0  0  0  0
    0.5043    3.0121    2.3242 C   0  0  0  0  0  0  0  0  0  0  0  0
   -0.4649    3.1514    2.8080 H   0  0  0  0  0  0  0  0  0  0  0  0
    1.2959    3.1139    3.0678 H   0  0  0  0  0  0  0  0  0  0  0  0
    0.6273    3.7799    1.5584 H   0  0  0  0  0  0  0  0  0  0  0  0
  5  6  2  0  0  0  0
  5  7  1  0  0  0  0
  2  3  1  0  0  0  0
  2  4  1  0  0  0  0
  2  5  1  0  0  0  0
  1  2  1  0  0  0  0
 19 20  2  0  0  0  0
 19 21  1  0  0  0  0
 16 17  1  0  0  0  0
 16 18  1  0  0  0  0
 14 15  2  0  0  0  0
 14 16  1  0  0  0  0
 11 12  1  0  0  0  0
 11 13  1  0  0  0  0
 11 14  1  0  0  0  0
  9 10  1  0  0  0  0
  9 11  1  0  0  0  0
  9 19  1  0  0  0  0
  7  8  1  0  0  0  0
  7  9  1  0  0  0  0
 23 24  1  0  0  0  0
 23 25  1  0  0  0  0
 23 26  1  0  0  0  0
 21 22  1  0  0  0  0
 21 23  1  0  0  0  0
M  END
$$$$
default_name
  -OEChem-02102213163D

 26 25  0     1  0  0  0  0  0999 V2000
   -3.0232   -3.6924    1.0038 H   0  0  0  0  0  0  0  0  0  0  0  0
   -3.0082   -2.6684    0.6318 C   0  0  0  0  0  0  0  0  0  0  0  0
   -3.6332   -2.0414    1.2658 H   0  0  0  0  0  0  0  0  0  0  0  0
   -3.3762   -2.6444   -0.3912 H   0  0  0  0  0  0  0  0  0  0  0  0
   -1.5882   -2.1554    0.6658 C   0  0  0  0  0  0  0  0  0  0  0  0
   -0.6832   -2.8764    1.0638 O   0  0  0  0  0  0  0  0  0  0  0  0
   -1.3952   -0.9084    0.2428 N   0  0  0  0  0  0  0  0  0  0  0  0
   -2.1972   -0.3644   -0.0422 H   0  0  0  0  0  0  0  0  0  0  0  0
   -0.1122   -0.1994    0.2658 C   0  0  1  0  0  0  0  0  0  0  0  0
    0.5635   -0.7260    0.9446 H   0  0  0  0  0  0  0  0  0  0  0  0
    0.4924   -0.2204   -1.1558 C   0  0  0  0  0  0  0  0  0  0  0  0
    0.4083   -1.2265   -1.5651 H   0  0  0  0  0  0  0  0  0  0  0  0
   -0.0705    0.4576   -1.7955 H   0  0  0  0  0  0  0  0  0  0  0  0
    1.9648    0.1545   -1.2071 C   0  0  0  0  0  0  0  0  0  0  0  0
    2.4826    0.9197   -0.4124 O   0  0  0  0  0  0  0  0  0  0  0  0
    2.6967   -0.3697   -2.1599 N   0  0  0  0  0  0  0  0  0  0  0  0
    3.6694   -0.1177   -2.1584 H   0  0  0  0  0  0  0  0  0  0  0  0
    2.2989   -1.0166   -2.8144 H   0  0  0  0  0  0  0  0  0  0  0  0
   -0.3126    1.2341    0.8050 C   0  0  0  0  0  0  0  0  0  0  0  0
   -1.2484    1.9199    0.3934 O   0  0  0  0  0  0  0  0  0  0  0  0
    0.5615    1.6875    1.7087 N   0  0  0  0  0  0  0  0  0  0  0  0
    1.3461    1.0849    1.9358 H   0  0  0  0  0  0  0  0  0  0  0  0
    0.5043    3.0121    2.3242 C   0  0  0  0  0  0  0  0  0  0  0  0
   -0.4649    3.1514    2.8080 H   0  0  0  0  0  0  0  0  0  0  0  0
    1.2959    3.1139    3.0678 H   0  0  0  0  0  0  0  0  0  0  0  0
    0.6273    3.7799    1.5584 H   0  0  0  0  0  0  0  0  0  0  0  0
  5  6  2  0  0  0  0
  5  7  1  0  0  0  0
  2  3  1  0  0  0  0
  2  4  1  0  0  0  0
  2  5  1  0  0  0  0
  1  2  1  0  0  0  0
 19 20  2  0  0  0  0
 19 21  1  0  0  0  0
 16 17  1  0  0  0  0
 16 18  1  0  0  0  0
 14 15  2  0  0  0  0
 14 16  1  0  0  0  0
 11 12  1  0  0  0  0
 11 13  1  0  0  0  0
 11 14  1  0  0  0  0
  9 10  1  0  0  0  0
  9 11  1  0  0  0  0
  9 19  1  0  0  0  0
  7  8  1  0  0  0  0
  7  9  1  0  0  0  0
 23 24  1  0  0  0  0
 23 25  1  0  0  0  0
 23 26  1  0  0  0  0
 21 22  1  0  0  0  0
 21 23  1  0  0  0  0
M  END
$$$$
default_name
  -OEChem-02102213163D

 26 25  0     1  0  0  0  0  0999 V2000
   -3.0232   -3.6924    1.0038 H   0  0  0  0  0  0  0  0  0  0  0  0
   -3.0082   -2.6684    0.6318 C   0  0  0  0  0  0  0  0  0  0  0  0
   -3.6332   -2.0414    1.2658 H   0  0  0  0  0  0  0  0  0  0  0  0
   -3.3762   -2.6444   -0.3912 H   0  0  0  0  0  0  0  0  0  0  0  0
   -1.5882   -2.1554    0.6658 C   0  0  0  0  0  0  0  0  0  0  0  0
   -0.6832   -2.8764    1.0638 O   0  0  0  0  0  0  0  0  0  0  0  0
   -1.3952   -0.9084    0.2428 N   0  0  0  0  0  0  0  0  0  0  0  0
   -2.1972   -0.3644   -0.0422 H   0  0  0  0  0  0  0  0  0  0  0  0
   -0.1122   -0.1994    0.2658 C   0  0  1  0  0  0  0  0  0  0  0  0
    0.5635   -0.7260    0.9446 H   0  0  0  0  0  0  0  0  0  0  0  0
    0.4924   -0.2204   -1.1558 C   0  0  0  0  0  0  0  0  0  0  0  0
    0.4083   -1.2265   -1.5651 H   0  0  0  0  0  0  0  0  0  0  0  0
   -0.0705    0.4576   -1.7955 H   0  0  0  0  0  0  0  0  0  0  0  0
    1.9648    0.1545   -1.2071 C   0  0  0  0  0  0  0  0  0  0  0  0
    2.5442    0.6955   -0.2814 O   0  0  0  0  0  0  0  0  0  0  0  0
    2.6265   -0.1142   -2.3063 N   0  0  0  0  0  0  0  0  0  0  0  0
    3.6015    0.1287   -2.3049 H   0  0  0  0  0  0  0  0  0  0  0  0
    2.1776   -0.5759   -3.0746 H   0  0  0  0  0  0  0  0  0  0  0  0
   -0.3126    1.2341    0.8050 C   0  0  0  0  0  0  0  0  0  0  0  0
   -1.2484    1.9199    0.3934 O   0  0  0  0  0  0  0  0  0  0  0  0
    0.5615    1.6875    1.7087 N   0  0  0  0  0  0  0  0  0  0  0  0
    1.3461    1.0849    1.9358 H   0  0  0  0  0  0  0  0  0  0  0  0
    0.5043    3.0121    2.3242 C   0  0  0  0  0  0  0  0  0  0  0  0
   -0.4649    3.1514    2.8080 H   0  0  0  0  0  0  0  0  0  0  0  0
    1.2959    3.1139    3.0678 H   0  0  0  0  0  0  0  0  0  0  0  0
    0.6273    3.7799    1.5584 H   0  0  0  0  0  0  0  0  0  0  0  0
  5  6  2  0  0  0  0
  5  7  1  0  0  0  0
  2  3  1  0  0  0  0
  2  4  1  0  0  0  0
  2  5  1  0  0  0  0
  1  2  1  0  0  0  0
 19 20  2  0  0  0  0
 19 21  1  0  0  0  0
 16 17  1  0  0  0  0
 16 18  1  0  0  0  0
 14 15  2  0  0  0  0
 14 16  1  0  0  0  0
 11 12  1  0  0  0  0
 11 13  1  0  0  0  0
 11 14  1  0  0  0  0
  9 10  1  0  0  0  0
  9 11  1  0  0  0  0
  9 19  1  0  0  0  0
  7  8  1  0  0  0  0
  7  9  1  0  0  0  0
 23 24  1  0  0  0  0
 23 25  1  0  0  0  0
 23 26  1  0  0  0  0
 21 22  1  0  0  0  0
 21 23  1  0  0  0  0
M  END
$$$$
default_name
  -OEChem-02102213163D

 26 25  0     1  0  0  0  0  0999 V2000
   -3.0232   -3.6924    1.0038 H   0  0  0  0  0  0  0  0  0  0  0  0
   -3.0082   -2.6684    0.6318 C   0  0  0  0  0  0  0  0  0  0  0  0
   -3.6332   -2.0414    1.2658 H   0  0  0  0  0  0  0  0  0  0  0  0
   -3.3762   -2.6444   -0.3912 H   0  0  0  0  0  0  0  0  0  0  0  0
   -1.5882   -2.1554    0.6658 C   0  0  0  0  0  0  0  0  0  0  0  0
   -0.6832   -2.8764    1.0638 O   0  0  0  0  0  0  0  0  0  0  0  0
   -1.3952   -0.9084    0.2428 N   0  0  0  0  0  0  0  0  0  0  0  0
   -2.1972   -0.3644   -0.0422 H   0  0  0  0  0  0  0  0  0  0  0  0
   -0.1122   -0.1994    0.2658 C   0  0  1  0  0  0  0  0  0  0  0  0
    0.5635   -0.7260    0.9446 H   0  0  0  0  0  0  0  0  0  0  0  0
    0.4924   -0.2204   -1.1558 C   0  0  0  0  0  0  0  0  0  0  0  0
    0.4083   -1.2265   -1.5651 H   0  0  0  0  0  0  0  0  0  0  0  0
   -0.0705    0.4576   -1.7955 H   0  0  0  0  0  0  0  0  0  0  0  0
    1.9648    0.1545   -1.2071 C   0  0  0  0  0  0  0  0  0  0  0  0
    2.6102    0.4456   -0.2151 O   0  0  0  0  0  0  0  0  0  0  0  0
    2.5517    0.1699   -2.3791 N   0  0  0  0  0  0  0  0  0  0  0  0
    3.5288    0.4041   -2.3802 H   0  0  0  0  0  0  0  0  0  0  0  0
    2.0478   -0.0840   -3.2078 H   0  0  0  0  0  0  0  0  0  0  0  0
   -0.3126    1.2341    0.8050 C   0  0  0  0  0  0  0  0  0  0  0  0
   -1.2484    1.9199    0.3934 O   0  0  0  0  0  0  0  0  0  0  0  0
    0.5615    1.6875    1.7087 N   0  0  0  0  0  0  0  0  0  0  0  0
    1.3461    1.0849    1.9358 H   0  0  0  0  0  0  0  0  0  0  0  0
    0.5043    3.0121    2.3242 C   0  0  0  0  0  0  0  0  0  0  0  0
   -0.4649    3.1514    2.8080 H   0  0  0  0  0  0  0  0  0  0  0  0
    1.2959    3.1139    3.0678 H   0  0  0  0  0  0  0  0  0  0  0  0
    0.6273    3.7799    1.5584 H   0  0  0  0  0  0  0  0  0  0  0  0
  5  6  2  0  0  0  0
  5  7  1  0  0  0  0
  2  3  1  0  0  0  0
  2  4  1  0  0  0  0
  2  5  1  0  0  0  0
  1  2  1  0  0  0  0
 19 20  2  0  0  0  0
 19 21  1  0  0  0  0
 16 17  1  0  0  0  0
 16 18  1  0  0  0  0
 14 15  2  0  0  0  0
 14 16  1  0  0  0  0
 11 12  1  0  0  0  0
 11 13  1  0  0  0  0
 11 14  1  0  0  0  0
  9 10  1  0  0  0  0
  9 11  1  0  0  0  0
  9 19  1  0  0  0  0
  7  8  1  0  0  0  0
  7  9  1  0  0  0  0
 23 24  1  0  0  0  0
 23 25  1  0  0  0  0
 23 26  1  0  0  0  0
 21 22  1  0  0  0  0
 21 23  1  0  0  0  0
M  END
$$$$
default_name
  -OEChem-02102213163D

 26 25  0     1  0  0  0  0  0999 V2000
   -3.0232   -3.6924    1.0038 H   0  0  0  0  0  0  0  0  0  0  0  0
   -3.0082   -2.6684    0.6318 C   0  0  0  0  0  0  0  0  0  0  0  0
   -3.6332   -2.0414    1.2658 H   0  0  0  0  0  0  0  0  0  0  0  0
   -3.3762   -2.6444   -0.3912 H   0  0  0  0  0  0  0  0  0  0  0  0
   -1.5882   -2.1554    0.6658 C   0  0  0  0  0  0  0  0  0  0  0  0
   -0.6832   -2.8764    1.0638 O   0  0  0  0  0  0  0  0  0  0  0  0
   -1.3952   -0.9084    0.2428 N   0  0  0  0  0  0  0  0  0  0  0  0
   -2.1972   -0.3644   -0.0422 H   0  0  0  0  0  0  0  0  0  0  0  0
   -0.1122   -0.1994    0.2658 C   0  0  1  0  0  0  0  0  0  0  0  0
    0.5635   -0.7260    0.9446 H   0  0  0  0  0  0  0  0  0  0  0  0
    0.4924   -0.2204   -1.1558 C   0  0  0  0  0  0  0  0  0  0  0  0
    0.4083   -1.2265   -1.5651 H   0  0  0  0  0  0  0  0  0  0  0  0
   -0.0705    0.4576   -1.7955 H   0  0  0  0  0  0  0  0  0  0  0  0
    1.9648    0.1545   -1.2071 C   0  0  0  0  0  0  0  0  0  0  0  0
    2.6759    0.1869   -0.2179 O   0  0  0  0  0  0  0  0  0  0  0  0
    2.4772    0.4632   -2.3735 N   0  0  0  0  0  0  0  0  0  0  0  0
    3.4561    0.6896   -2.3794 H   0  0  0  0  0  0  0  0  0  0  0  0
    1.9181    0.4257   -3.2048 H   0  0  0  0  0  0  0  0  0  0  0  0
   -0.3126    1.2341    0.8050 C   0  0  0  0  0  0  0  0  0  0  0  0
   -1.2484    1.9199    0.3934 O   0  0  0  0  0  0  0  0  0  0  0  0
    0.5615    1.6875    1.7087 N   0  0  0  0  0  0  0  0  0  0  0  0
    1.3461    1.0849    1.9358 H   0  0  0  0  0  0  0  0  0  0  0  0
    0.5043    3.0121    2.3242 C   0  0  0  0  0  0  0  0  0  0  0  0
   -0.4649    3.1514    2.8080 H   0  0  0  0  0  0  0  0  0  0  0  0
    1.2959    3.1139    3.0678 H   0  0  0  0  0  0  0  0  0  0  0  0
    0.6273    3.7799    1.5584 H   0  0  0  0  0  0  0  0  0  0  0  0
  5  6  2  0  0  0  0
  5  7  1  0  0  0  0
  2  3  1  0  0  0  0
  2  4  1  0  0  0  0
  2  5  1  0  0  0  0
  1  2  1  0  0  0  0
 19 20  2  0  0  0  0
 19 21  1  0  0  0  0
 16 17  1  0  0  0  0
 16 18  1  0  0  0  0
 14 15  2  0  0  0  0
 14 16  1  0  0  0  0
 11 12  1  0  0  0  0
 11 13  1  0  0  0  0
 11 14  1  0  0  0  0
  9 10  1  0  0  0  0
  9 11  1  0  0  0  0
  9 19  1  0  0  0  0
  7  8  1  0  0  0  0
  7  9  1  0  0  0  0
 23 24  1  0  0  0  0
 23 25  1  0  0  0  0
 23 26  1  0  0  0  0
 21 22  1  0  0  0  0
 21 23  1  0  0  0  0
M  END
$$$$
default_name
  -OEChem-02102213163D

 26 25  0     1  0  0  0  0  0999 V2000
   -3.0232   -3.6924    1.0038 H   0  0  0  0  0  0  0  0  0  0  0  0
   -3.0082   -2.6684    0.6318 C   0  0  0  0  0  0  0  0  0  0  0  0
   -3.6332   -2.0414    1.2658 H   0  0  0  0  0  0  0  0  0  0  0  0
   -3.3762   -2.6444   -0.3912 H   0  0  0  0  0  0  0  0  0  0  0  0
   -1.5882   -2.1554    0.6658 C   0  0  0  0  0  0  0  0  0  0  0  0
   -0.6832   -2.8764    1.0638 O   0  0  0  0  0  0  0  0  0  0  0  0
   -1.3952   -0.9084    0.2428 N   0  0  0  0  0  0  0  0  0  0  0  0
   -2.1972   -0.3644   -0.0422 H   0  0  0  0  0  0  0  0  0  0  0  0
   -0.1122   -0.1994    0.2658 C   0  0  1  0  0  0  0  0  0  0  0  0
    0.5635   -0.7260    0.9446 H   0  0  0  0  0  0  0  0  0  0  0  0
    0.4924   -0.2204   -1.1558 C   0  0  0  0  0  0  0  0  0  0  0  0
    0.4083   -1.2265   -1.5651 H   0  0  0  0  0  0  0  0  0  0  0  0
   -0.0705    0.4576   -1.7955 H   0  0  0  0  0  0  0  0  0  0  0  0
    1.9648    0.1545   -1.2071 C   0  0  0  0  0  0  0  0  0  0  0  0
    2.7370   -0.0628   -0.2896 O   0  0  0  0  0  0  0  0  0  0  0  0
    2.4082    0.7457   -2.2898 N   0  0  0  0  0  0  0  0  0  0  0  0
    3.3885    0.9658   -2.3023 H   0  0  0  0  0  0  0  0  0  0  0  0
    1.7975    0.9183   -3.0658 H   0  0  0  0  0  0  0  0  0  0  0  0
   -0.3126    1.2341    0.8050 C   0  0  0  0  0  0  0  0  0  0  0  0
   -1.2484    1.9199    0.3934 O   0  0  0  0  0  0  0  0  0  0  0  0
    0.5615    1.6875    1.7087 N   0  0  0  0  0  0  0  0  0  0  0  0
    1.3461    1.0849    1.9358 H   0  0  0  0  0  0  0  0  0  0  0  0
    0.5043    3.0121    2.3242 C   0  0  0  0  0  0  0  0  0  0  0  0
   -0.4649    3.1514    2.8080 H   0  0  0  0  0  0  0  0  0  0  0  0
    1.2959    3.1139    3.0678 H   0  0  0  0  0  0  0  0  0  0  0  0
    0.6273    3.7799    1.5584 H   0  0  0  0  0  0  0  0  0  0  0  0
  5  6  2  0  0  0  0
  5  7  1  0  0  0  0
  2  3  1  0  0  0  0
  2  4  1  0  0  0  0
  2  5  1  0  0  0  0
  1  2  1  0  0  0  0
 19 20  2  0  0  0  0
 19 21  1  0  0  0  0
 16 17  1  0  0  0  0
 16 18  1  0  0  0  0
 14 15  2  0  0  0  0
 14 16  1  0  0  0  0
 11 12  1  0  0  0  0
 11 13  1  0  0  0  0
 11 14  1  0  0  0  0
  9 10  1  0  0  0  0
  9 11  1  0  0  0  0
  9 19  1  0  0  0  0
  7  8  1  0  0  0  0
  7  9  1  0  0  0  0
 23 24  1  0  0  0  0
 23 25  1  0  0  0  0
 23 26  1  0  0  0  0
 21 22  1  0  0  0  0
 21 23  1  0  0  0  0
M  END
$$$$
default_name
  -OEChem-02102213163D

 26 25  0     1  0  0  0  0  0999 V2000
   -3.0232   -3.6924    1.0038 H   0  0  0  0  0  0  0  0  0  0  0  0
   -3.0082   -2.6684    0.6318 C   0  0  0  0  0  0  0  0  0  0  0  0
   -3.6332   -2.0414    1.2658 H   0  0  0  0  0  0  0  0  0  0  0  0
   -3.3762   -2.6444   -0.3912 H   0  0  0  0  0  0  0  0  0  0  0  0
   -1.5882   -2.1554    0.6658 C   0  0  0  0  0  0  0  0  0  0  0  0
   -0.6832   -2.8764    1.0638 O   0  0  0  0  0  0  0  0  0  0  0  0
   -1.3952   -0.9084    0.2428 N   0  0  0  0  0  0  0  0  0  0  0  0
   -2.1972   -0.3644   -0.0422 H   0  0  0  0  0  0  0  0  0  0  0  0
   -0.1122   -0.1994    0.2658 C   0  0  1  0  0  0  0  0  0  0  0  0
    0.5635   -0.7260    0.9446 H   0  0  0  0  0  0  0  0  0  0  0  0
    0.4924   -0.2204   -1.1558 C   0  0  0  0  0  0  0  0  0  0  0  0
    0.4083   -1.2265   -1.5651 H   0  0  0  0  0  0  0  0  0  0  0  0
   -0.0705    0.4576   -1.7955 H   0  0  0  0  0  0  0  0  0  0  0  0
    1.9648    0.1545   -1.2071 C   0  0  0  0  0  0  0  0  0  0  0  0
    2.7892   -0.2865   -0.4254 O   0  0  0  0  0  0  0  0  0  0  0  0
    2.3493    0.9982   -2.1337 N   0  0  0  0  0  0  0  0  0  0  0  0
    3.3305    1.2139   -2.1544 H   0  0  0  0  0  0  0  0  0  0  0  0
    1.6941    1.3605   -2.8005 H   0  0  0  0  0  0  0  0  0  0  0  0
   -0.3126    1.2341    0.8050 C   0  0  0  0  0  0  0  0  0  0  0  0
   -1.2484    1.9199    0.3934 O   0  0  0  0  0  0  0  0  0  0  0  0
    0.5615    1.6875    1.7087 N   0  0  0  0  0  0  0  0  0  0  0  0
    1.3461    1.0849    1.9358 H   0  0  0  0  0  0  0  0  0  0  0  0
    0.5043    3.0121    2.3242 C   0  0  0  0  0  0  0  0  0  0  0  0
   -0.4649    3.1514    2.8080 H   0  0  0  0  0  0  0  0  0  0  0  0
    1.2959    3.1139    3.0678 H   0  0  0  0  0  0  0  0  0  0  0  0
    0.6273    3.7799    1.5584 H   0  0  0  0  0  0  0  0  0  0  0  0
  5  6  2  0  0  0  0
  5  7  1  0  0  0  0
  2  3  1  0  0  0  0
  2  4  1  0  0  0  0
  2  5  1  0  0  0  0
  1  2  1  0  0  0  0
 19 20  2  0  0  0  0
 19 21  1  0  0  0  0
 16 17  1  0  0  0  0
 16 18  1  0  0  0  0
 14 15  2  0  0  0  0
 14 16  1  0  0  0  0
 11 12  1  0  0  0  0
 11 13  1  0  0  0  0
 11 14  1  0  0  0  0
  9 10  1  0  0  0  0
  9 11  1  0  0  0  0
  9 19  1  0  0  0  0
  7  8  1  0  0  0  0
  7  9  1  0  0  0  0
 23 24  1  0  0  0  0
 23 25  1  0  0  0  0
 23 26  1  0  0  0  0
 21 22  1  0  0  0  0
 21 23  1  0  0  0  0
M  END
$$$$
default_name
  -OEChem-02102213163D

 26 25  0     1  0  0  0  0  0999 V2000
   -3.0232   -3.6924    1.0038 H   0  0  0  0  0  0  0  0  0  0  0  0
   -3.0082   -2.6684    0.6318 C   0  0  0  0  0  0  0  0  0  0  0  0
   -3.6332   -2.0414    1.2658 H   0  0  0  0  0  0  0  0  0  0  0  0
   -3.3762   -2.6444   -0.3912 H   0  0  0  0  0  0  0  0  0  0  0  0
   -1.5882   -2.1554    0.6658 C   0  0  0  0  0  0  0  0  0  0  0  0
   -0.6832   -2.8764    1.0638 O   0  0  0  0  0  0  0  0  0  0  0  0
   -1.3952   -0.9084    0.2428 N   0  0  0  0  0  0  0  0  0  0  0  0
   -2.1972   -0.3644   -0.0422 H   0  0  0  0  0  0  0  0  0  0  0  0
   -0.1122   -0.1994    0.2658 C   0  0  1  0  0  0  0  0  0  0  0  0
    0.5635   -0.7260    0.9446 H   0  0  0  0  0  0  0  0  0  0  0  0
    0.4924   -0.2204   -1.1558 C   0  0  0  0  0  0  0  0  0  0  0  0
    0.4083   -1.2265   -1.5651 H   0  0  0  0  0  0  0  0  0  0  0  0
   -0.0705    0.4576   -1.7955 H   0  0  0  0  0  0  0  0  0  0  0  0
    1.9648    0.1545   -1.2071 C   0  0  0  0  0  0  0  0  0  0  0  0
    2.8291   -0.4691   -0.6160 O   0  0  0  0  0  0  0  0  0  0  0  0
    2.3046    1.2035   -1.9159 N   0  0  0  0  0  0  0  0  0  0  0  0
    3.2861    1.4169   -1.9456 H   0  0  0  0  0  0  0  0  0  0  0  0
    1.6151    1.7219   -2.4267 H   0  0  0  0  0  0  0  0  0  0  0  0
   -0.3126    1.2341    0.8050 C   0  0  0  0  0  0  0  0  0  0  0  0
   -1.2484    1.9199    0.3934 O   0  0  0  0  0  0  0  0  0  0  0  0
    0.5615    1.6875    1.7087 N   0  0  0  0  0  0  0  0  0  0  0  0
    1.3461    1.0849    1.9358 H   0  0  0  0  0  0  0  0  0  0  0  0
    0.5043    3.0121    2.3242 C   0  0  0  0  0  0  0  0  0  0  0  0
   -0.4649    3.1514    2.8080 H   0  0  0  0  0  0  0  0  0  0  0  0
    1.2959    3.1139    3.0678 H   0  0  0  0  0  0  0  0  0  0  0  0
    0.6273    3.7799    1.5584 H   0  0  0  0  0  0  0  0  0  0  0  0
  5  6  2  0  0  0  0
  5  7  1  0  0  0  0
  2  3  1  0  0  0  0
  2  4  1  0  0  0  0
  2  5  1  0  0  0  0
  1  2  1  0  0  0  0
 19 20  2  0  0  0  0
 19 21  1  0  0  0  0
 16 17  1  0  0  0  0
 16 18  1  0  0  0  0
 14 15  2  0  0  0  0
 14 16  1  0  0  0  0
 11 12  1  0  0  0  0
 11 13  1  0  0  0  0
 11 14  1  0  0  0  0
  9 10  1  0  0  0  0
  9 11  1  0  0  0  0
  9 19  1  0  0  0  0
  7  8  1  0  0  0  0
  7  9  1  0  0  0  0
 23 24  1  0  0  0  0
 23 25  1  0  0  0  0
 23 26  1  0  0  0  0
 21 22  1  0  0  0  0
 21 23  1  0  0  0  0
M  END
$$$$
default_name
  -OEChem-02102213163D

 26 25  0     1  0  0  0  0  0999 V2000
   -3.0232   -3.6924    1.0038 H   0  0  0  0  0  0  0  0  0  0  0  0
   -3.0082   -2.6684    0.6318 C   0  0  0  0  0  0  0  0  0  0  0  0
   -3.6332   -2.0414    1.2658 H   0  0  0  0  0  0  0  0  0  0  0  0
   -3.3762   -2.6444   -0.3912 H   0  0  0  0  0  0  0  0  0  0  0  0
   -1.5882   -2.1554    0.6658 C   0  0  0  0  0  0  0  0  0  0  0  0
   -0.6832   -2.8764    1.0638 O   0  0  0  0  0  0  0  0  0  0  0  0
   -1.3952   -0.9084    0.2428 N   0  0  0  0  0  0  0  0  0  0  0  0
   -2.1972   -0.3644   -0.0422 H   0  0  0  0  0  0  0  0  0  0  0  0
   -0.1122   -0.1994    0.2658 C   0  0  1  0  0  0  0  0  0  0  0  0
    0.5635   -0.7260    0.9446 H   0  0  0  0  0  0  0  0  0  0  0  0
    0.4924   -0.2204   -1.1558 C   0  0  0  0  0  0  0  0  0  0  0  0
    0.4083   -1.2265   -1.5651 H   0  0  0  0  0  0  0  0  0  0  0  0
   -0.0705    0.4576   -1.7955 H   0  0  0  0  0  0  0  0  0  0  0  0
    1.9648    0.1545   -1.2071 C   0  0  0  0  0  0  0  0  0  0  0  0
    2.8538   -0.5980   -0.8484 O   0  0  0  0  0  0  0  0  0  0  0  0
    2.2771    1.3476   -1.6511 N   0  0  0  0  0  0  0  0  0  0  0  0
    3.2582    1.5610   -1.6901 H   0  0  0  0  0  0  0  0  0  0  0  0
    1.5658    1.9780   -1.9700 H   0  0  0  0  0  0  0  0  0  0  0  0
   -0.3126    1.2341    0.8050 C   0  0  0  0  0  0  0  0  0  0  0  0
   -1.2484    1.9199    0.3934 O   0  0  0  0  0  0  0  0  0  0  0  0
    0.5615    1.6875    1.7087 N   0  0  0  0  0  0  0  0  0  0  0  0
    1.3461    1.0849    1.9358 H   0  0  0  0  0  0  0  0  0  0  0  0
    0.5043    3.0121    2.3242 C   0  0  0  0  0  0  0  0  0  0  0  0
   -0.4649    3.1514    2.8080 H   0  0  0  0  0  0  0  0  0  0  0  0
    1.2959    3.1139    3.0678 H   0  0  0  0  0  0  0  0  0  0  0  0
    0.6273    3.7799    1.5584 H   0  0  0  0  0  0  0  0  0  0  0  0
  5  6  2  0  0  0  0
  5  7  1  0  0  0  0
  2  3  1  0  0  0  0
  2  4  1  0  0  0  0
  2  5  1  0  0  0  0
  1  2  1  0  0  0  0
 19 20  2  0  0  0  0
 19 21  1  0  0  0  0
 16 17  1  0  0  0  0
 16 18  1  0  0  0  0
 14 15  2  0  0  0  0
 14 16  1  0  0  0  0
 11 12  1  0  0  0  0
 11 13  1  0  0  0  0
 11 14  1  0  0  0  0
  9 10  1  0  0  0  0
  9 11  1  0  0  0  0
  9 19  1  0  0  0  0
  7  8  1  0  0  0  0
  7  9  1  0  0  0  0
 23 24  1  0  0  0  0
 23 25  1  0  0  0  0
 23 26  1  0  0  0  0
 21 22  1  0  0  0  0
 21 23  1  0  0  0  0
M  END
$$$$
default_name
  -OEChem-02102213163D

 26 25  0     1  0  0  0  0  0999 V2000
   -3.0232   -3.6924    1.0038 H   0  0  0  0  0  0  0  0  0  0  0  0
   -3.0082   -2.6684    0.6318 C   0  0  0  0  0  0  0  0  0  0  0  0
   -3.6332   -2.0414    1.2658 H   0  0  0  0  0  0  0  0  0  0  0  0
   -3.3762   -2.6444   -0.3912 H   0  0  0  0  0  0  0  0  0  0  0  0
   -1.5882   -2.1554    0.6658 C   0  0  0  0  0  0  0  0  0  0  0  0
   -0.6832   -2.8764    1.0638 O   0  0  0  0  0  0  0  0  0  0  0  0
   -1.3952   -0.9084    0.2428 N   0  0  0  0  0  0  0  0  0  0  0  0
   -2.1972   -0.3644   -0.0422 H   0  0  0  0  0  0  0  0  0  0  0  0
   -0.1122   -0.1994    0.2658 C   0  0  1  0  0  0  0  0  0  0  0  0
    0.5635   -0.7260    0.9446 H   0  0  0  0  0  0  0  0  0  0  0  0
    0.4924   -0.2204   -1.1558 C   0  0  0  0  0  0  0  0  0  0  0  0
    0.4083   -1.2265   -1.5651 H   0  0  0  0  0  0  0  0  0  0  0  0
   -0.0705    0.4576   -1.7955 H   0  0  0  0  0  0  0  0  0  0  0  0
    1.9648    0.1545   -1.2071 C   0  0  0  0  0  0  0  0  0  0  0  0
    2.8618   -0.6644   -1.1067 O   0  0  0  0  0  0  0  0  0  0  0  0
    2.2687    1.4207   -1.3576 N   0  0  0  0  0  0  0  0  0  0  0  0
    3.2489    1.6365   -1.4055 H   0  0  0  0  0  0  0  0  0  0  0  0
    1.5495    2.1113   -1.4615 H   0  0  0  0  0  0  0  0  0  0  0  0
   -0.3126    1.2341    0.8050 C   0  0  0  0  0  0  0  0  0  0  0  0
   -1.2484    1.9199    0.3934 O   0  0  0  0  0  0  0  0  0  0  0  0
    0.5615    1.6875    1.7087 N   0  0  0  0  0  0  0  0  0  0  0  0
    1.3461    1.0849    1.9358 H   0  0  0  0  0  0  0  0  0  0  0  0
    0.5043    3.0121    2.3242 C   0  0  0  0  0  0  0  0  0  0  0  0
   -0.4649    3.1514    2.8080 H   0  0  0  0  0  0  0  0  0  0  0  0
    1.2959    3.1139    3.0678 H   0  0  0  0  0  0  0  0  0  0  0  0
    0.6273    3.7799    1.5584 H   0  0  0  0  0  0  0  0  0  0  0  0
  5  6  2  0  0  0  0
  5  7  1  0  0  0  0
  2  3  1  0  0  0  0
  2  4  1  0  0  0  0
  2  5  1  0  0  0  0
  1  2  1  0  0  0  0
 19 20  2  0  0  0  0
 19 21  1  0  0  0  0
 16 17  1  0  0  0  0
 16 18  1  0  0  0  0
 14 15  2  0  0  0  0
 14 16  1  0  0  0  0
 11 12  1  0  0  0  0
 11 13  1  0  0  0  0
 11 14  1  0  0  0  0
  9 10  1  0  0  0  0
  9 11  1  0  0  0  0
  9 19  1  0  0  0  0
  7  8  1  0  0  0  0
  7  9  1  0  0  0  0
 23 24  1  0  0  0  0
 23 25  1  0  0  0  0
 23 26  1  0  0  0  0
 21 22  1  0  0  0  0
 21 23  1  0  0  0  0
M  END
$$$$
default_name
  -OEChem-02102213163D

 26 25  0     1  0  0  0  0  0999 V2000
   -3.0232   -3.6924    1.0038 H   0  0  0  0  0  0  0  0  0  0  0  0
   -3.0082   -2.6684    0.6318 C   0  0  0  0  0  0  0  0  0  0  0  0
   -3.6332   -2.0414    1.2658 H   0  0  0  0  0  0  0  0  0  0  0  0
   -3.3762   -2.6444   -0.3912 H   0  0  0  0  0  0  0  0  0  0  0  0
   -1.5882   -2.1554    0.6658 C   0  0  0  0  0  0  0  0  0  0  0  0
   -0.6832   -2.8764    1.0638 O   0  0  0  0  0  0  0  0  0  0  0  0
   -1.3952   -0.9084    0.2428 N   0  0  0  0  0  0  0  0  0  0  0  0
   -2.1972   -0.3644   -0.0422 H   0  0  0  0  0  0  0  0  0  0  0  0
   -0.1122   -0.1994    0.2658 C   0  0  1  0  0  0  0  0  0  0  0  0
    0.5635   -0.7260    0.9446 H   0  0  0  0  0  0  0  0  0  0  0  0
    0.4924   -0.2204   -1.1558 C   0  0  0  0  0  0  0  0  0  0  0  0
    0.4083   -1.2265   -1.5651 H   0  0  0  0  0  0  0  0  0  0  0  0
   -0.0705    0.4576   -1.7955 H   0  0  0  0  0  0  0  0  0  0  0  0
    1.9648    0.1545   -1.2071 C   0  0  0  0  0  0  0  0  0  0  0  0
    2.8523   -0.6639   -1.3734 O   0  0  0  0  0  0  0  0  0  0  0  0
    2.2800    1.4178   -1.0551 N   0  0  0  0  0  0  0  0  0  0  0  0
    3.2588    1.6381   -1.1111 H   0  0  0  0  0  0  0  0  0  0  0  0
    1.5675    2.1128   -0.9359 H   0  0  0  0  0  0  0  0  0  0  0  0
   -0.3126    1.2341    0.8050 C   0  0  0  0  0  0  0  0  0  0  0  0
   -1.2484    1.9199    0.3934 O   0  0  0  0  0  0  0  0  0  0  0  0
    0.5615    1.6875    1.7087 N   0  0  0  0  0  0  0  0  0  0  0  0
    1.3461    1.0849    1.9358 H   0  0  0  0  0  0  0  0  0  0  0  0
    0.5043    3.0121    2.3242 C   0  0  0  0  0  0  0  0  0  0  0  0
   -0.4649    3.1514    2.8080 H   0  0  0  0  0  0  0  0  0  0  0  0
    1.2959    3.1139    3.0678 H   0  0  0  0  0  0  0  0  0  0  0  0
    0.6273    3.7799    1.5584 H   0  0  0  0  0  0  0  0  0  0  0  0
  5  6  2  0  0  0  0
  5  7  1  0  0  0  0
  2  3  1  0  0  0  0
  2  4  1  0  0  0  0
  2  5  1  0  0  0  0
  1  2  1  0  0  0  0
 19 20  2  0  0  0  0
 19 21  1  0  0  0  0
 16 17  1  0  0  0  0
 16 18  1  0  0  0  0
 14 15  2  0  0  0  0
 14 16  1  0  0  0  0
 11 12  1  0  0  0  0
 11 13  1  0  0  0  0
 11 14  1  0  0  0  0
  9 10  1  0  0  0  0
  9 11  1  0  0  0  0
  9 19  1  0  0  0  0
  7  8  1  0  0  0  0
  7  9  1  0  0  0  0
 23 24  1  0  0  0  0
 23 25  1  0  0  0  0
 23 26  1  0  0  0  0
 21 22  1  0  0  0  0
 21 23  1  0  0  0  0
M  END
$$$$
default_name
  -OEChem-02102213163D

 26 25  0     1  0  0  0  0  0999 V2000
   -3.0232   -3.6924    1.0038 H   0  0  0  0  0  0  0  0  0  0  0  0
   -3.0082   -2.6684    0.6318 C   0  0  0  0  0  0  0  0  0  0  0  0
   -3.6332   -2.0414    1.2658 H   0  0  0  0  0  0  0  0  0  0  0  0
   -3.3762   -2.6444   -0.3912 H   0  0  0  0  0  0  0  0  0  0  0  0
   -1.5882   -2.1554    0.6658 C   0  0  0  0  0  0  0  0  0  0  0  0
   -0.6832   -2.8764    1.0638 O   0  0  0  0  0  0  0  0  0  0  0  0
   -1.3952   -0.9084    0.2428 N   0  0  0  0  0  0  0  0  0  0  0  0
   -2.1972   -0.3644   -0.0422 H   0  0  0  0  0  0  0  0  0  0  0  0
   -0.1122   -0.1994    0.2658 C   0  0  1  0  0  0  0  0  0  0  0  0
    0.5635   -0.7260    0.9446 H   0  0  0  0  0  0  0  0  0  0  0  0
    0.4924   -0.2204   -1.1558 C   0  0  0  0  0  0  0  0  0  0  0  0
    0.4083   -1.2265   -1.5651 H   0  0  0  0  0  0  0  0  0  0  0  0
   -0.0705    0.4576   -1.7955 H   0  0  0  0  0  0  0  0  0  0  0  0
    1.9648    0.1545   -1.2071 C   0  0  0  0  0  0  0  0  0  0  0  0
    2.8262   -0.5965   -1.6303 O   0  0  0  0  0  0  0  0  0  0  0  0
    2.3102    1.3390   -0.7645 N   0  0  0  0  0  0  0  0  0  0  0  0
    3.2871    1.5658   -0.8269 H   0  0  0  0  0  0  0  0  0  0  0  0
    1.6183    1.9823   -0.4290 H   0  0  0  0  0  0  0  0  0  0  0  0
   -0.3126    1.2341    0.8050 C   0  0  0  0  0  0  0  0  0  0  0  0
   -1.2484    1.9199    0.3934 O   0  0  0  0  0  0  0  0  0  0  0  0
    0.5615    1.6875    1.7087 N   0  0  0  0  0  0  0  0  0  0  0  0
    1.3461    1.0849    1.9358 H   0  0  0  0  0  0  0  0  0  0  0  0
    0.5043    3.0121    2.3242 C   0  0  0  0  0  0  0  0  0  0  0  0
   -0.4649    3.1514    2.8080 H   0  0  0  0  0  0  0  0  0  0  0  0
    1.2959    3.1139    3.0678 H   0  0  0  0  0  0  0  0  0  0  0  0
    0.6273    3.7799    1.5584 H   0  0  0  0  0  0  0  0  0  0  0  0
  5  6  2  0  0  0  0
  5  7  1  0  0  0  0
  2  3  1  0  0  0  0
  2  4  1  0  0  0  0
  2  5  1  0  0  0  0
  1  2  1  0  0  0  0
 19 20  2  0  0  0  0
 19 21  1  0  0  0  0
 16 17  1  0  0  0  0
 16 18  1  0  0  0  0
 14 15  2  0  0  0  0
 14 16  1  0  0  0  0
 11 12  1  0  0  0  0
 11 13  1  0  0  0  0
 11 14  1  0  0  0  0
  9 10  1  0  0  0  0
  9 11  1  0  0  0  0
  9 19  1  0  0  0  0
  7  8  1  0  0  0  0
  7  9  1  0  0  0  0
 23 24  1  0  0  0  0
 23 25  1  0  0  0  0
 23 26  1  0  0  0  0
 21 22  1  0  0  0  0
 21 23  1  0  0  0  0
M  END
$$$$
default_name
  -OEChem-02102213163D

 26 25  0     1  0  0  0  0  0999 V2000
   -3.0232   -3.6924    1.0038 H   0  0  0  0  0  0  0  0  0  0  0  0
   -3.0082   -2.6684    0.6318 C   0  0  0  0  0  0  0  0  0  0  0  0
   -3.6332   -2.0414    1.2658 H   0  0  0  0  0  0  0  0  0  0  0  0
   -3.3762   -2.6444   -0.3912 H   0  0  0  0  0  0  0  0  0  0  0  0
   -1.5882   -2.1554    0.6658 C   0  0  0  0  0  0  0  0  0  0  0  0
   -0.6832   -2.8764    1.0638 O   0  0  0  0  0  0  0  0  0  0  0  0
   -1.3952   -0.9084    0.2428 N   0  0  0  0  0  0  0  0  0  0  0  0
   -2.1972   -0.3644   -0.0422 H   0  0  0  0  0  0  0  0  0  0  0  0
   -0.1122   -0.1994    0.2658 C   0  0  1  0  0  0  0  0  0  0  0  0
    0.5635   -0.7260    0.9446 H   0  0  0  0  0  0  0  0  0  0  0  0
    0.4924   -0.2204   -1.1558 C   0  0  0  0  0  0  0  0  0  0  0  0
    0.4083   -1.2265   -1.5651 H   0  0  0  0  0  0  0  0  0  0  0  0
   -0.0705    0.4576   -1.7955 H   0  0  0  0  0  0  0  0  0  0  0  0
    1.9648    0.1545   -1.2071 C   0  0  0  0  0  0  0  0  0  0  0  0
    2.7852   -0.4668   -1.8599 O   0  0  0  0  0  0  0  0  0  0  0  0
    2.3572    1.1898   -0.5054 N   0  0  0  0  0  0  0  0  0  0  0  0
    3.3319    1.4244   -0.5723 H   0  0  0  0  0  0  0  0  0  0  0  0
    1.6987    1.7288    0.0247 H   0  0  0  0  0  0  0  0  0  0  0  0
   -0.3126    1.2341    0.8050 C   0  0  0  0  0  0  0  0  0  0  0  0
   -1.2484    1.9199    0.3934 O   0  0  0  0  0  0  0  0  0  0  0  0
    0.5615    1.6875    1.7087 N   0  0  0  0  0  0  0  0  0  0  0  0
    1.3461    1.0849    1.9358 H   0  0  0  0  0  0  0  0  0  0  0  0
    0.5043    3.0121    2.3242 C   0  0  0  0  0  0  0  0  0  0  0  0
   -0.4649    3.1514    2.8080 H   0  0  0  0  0  0  0  0  0  0  0  0
    1.2959    3.1139    3.0678 H   0  0  0  0  0  0  0  0  0  0  0  0
    0.6273    3.7799    1.5584 H   0  0  0  0  0  0  0  0  0  0  0  0
  5  6  2  0  0  0  0
  5  7  1  0  0  0  0
  2  3  1  0  0  0  0
  2  4  1  0  0  0  0
  2  5  1  0  0  0  0
  1  2  1  0  0  0  0
 19 20  2  0  0  0  0
 19 21  1  0  0  0  0
 16 17  1  0  0  0  0
 16 18  1  0  0  0  0
 14 15  2  0  0  0  0
 14 16  1  0  0  0  0
 11 12  1  0  0  0  0
 11 13  1  0  0  0  0
 11 14  1  0  0  0  0
  9 10  1  0  0  0  0
  9 11  1  0  0  0  0
  9 19  1  0  0  0  0
  7  8  1  0  0  0  0
  7  9  1  0  0  0  0
 23 24  1  0  0  0  0
 23 25  1  0  0  0  0
 23 26  1  0  0  0  0
 21 22  1  0  0  0  0
 21 23  1  0  0  0  0
M  END
$$$$
default_name
  -OEChem-02102213163D

 26 25  0     1  0  0  0  0  0999 V2000
   -3.0232   -3.6924    1.0038 H   0  0  0  0  0  0  0  0  0  0  0  0
   -3.0082   -2.6684    0.6318 C   0  0  0  0  0  0  0  0  0  0  0  0
   -3.6332   -2.0414    1.2658 H   0  0  0  0  0  0  0  0  0  0  0  0
   -3.3762   -2.6444   -0.3912 H   0  0  0  0  0  0  0  0  0  0  0  0
   -1.5882   -2.1554    0.6658 C   0  0  0  0  0  0  0  0  0  0  0  0
   -0.6832   -2.8764    1.0638 O   0  0  0  0  0  0  0  0  0  0  0  0
   -1.3952   -0.9084    0.2428 N   0  0  0  0  0  0  0  0  0  0  0  0
   -2.1972   -0.3644   -0.0422 H   0  0  0  0  0  0  0  0  0  0  0  0
   -0.1122   -0.1994    0.2658 C   0  0  1  0  0  0  0  0  0  0  0  0
    0.5635   -0.7260    0.9446 H   0  0  0  0  0  0  0  0  0  0  0  0
    0.4924   -0.2204   -1.1558 C   0  0  0  0  0  0  0  0  0  0  0  0
    0.4083   -1.2265   -1.5651 H   0  0  0  0  0  0  0  0  0  0  0  0
   -0.0705    0.4576   -1.7955 H   0  0  0  0  0  0  0  0  0  0  0  0
    1.9648    0.1545   -1.2071 C   0  0  0  0  0  0  0  0  0  0  0  0
    2.7321   -0.2836   -2.0465 O   0  0  0  0  0  0  0  0  0  0  0  0
    2.4178    0.9804   -0.2955 N   0  0  0  0  0  0  0  0  0  0  0  0
    3.3903    1.2237   -0.3647 H   0  0  0  0  0  0  0  0  0  0  0  0
    1.8031    1.3694    0.3942 H   0  0  0  0  0  0  0  0  0  0  0  0
   -0.3126    1.2341    0.8050 C   0  0  0  0  0  0  0  0  0  0  0  0
   -1.2484    1.9199    0.3934 O   0  0  0  0  0  0  0  0  0  0  0  0
    0.5615    1.6875    1.7087 N   0  0  0  0  0  0  0  0  0  0  0  0
    1.3461    1.0849    1.9358 H   0  0  0  0  0  0  0  0  0  0  0  0
    0.5043    3.0121    2.3242 C   0  0  0  0  0  0  0  0  0  0  0  0
   -0.4649    3.1514    2.8080 H   0  0  0  0  0  0  0  0  0  0  0  0
    1.2959    3.1139    3.0678 H   0  0  0  0  0  0  0  0  0  0  0  0
    0.6273    3.7799    1.5584 H   0  0  0  0  0  0  0  0  0  0  0  0
  5  6  2  0  0  0  0
  5  7  1  0  0  0  0
  2  3  1  0  0  0  0
  2  4  1  0  0  0  0
  2  5  1  0  0  0  0
  1  2  1  0  0  0  0
 19 20  2  0  0  0  0
 19 21  1  0  0  0  0
 16 17  1  0  0  0  0
 16 18  1  0  0  0  0
 14 15  2  0  0  0  0
 14 16  1  0  0  0  0
 11 12  1  0  0  0  0
 11 13  1  0  0  0  0
 11 14  1  0  0  0  0
  9 10  1  0  0  0  0
  9 11  1  0  0  0  0
  9 19  1  0  0  0  0
  7  8  1  0  0  0  0
  7  9  1  0  0  0  0
 23 24  1  0  0  0  0
 23 25  1  0  0  0  0
 23 26  1  0  0  0  0
 21 22  1  0  0  0  0
 21 23  1  0  0  0  0
M  END
$$$$
default_name
  -OEChem-02102213163D

 26 25  0     1  0  0  0  0  0999 V2000
   -3.0232   -3.6924    1.0038 H   0  0  0  0  0  0  0  0  0  0  0  0
   -3.0082   -2.6684    0.6318 C   0  0  0  0  0  0  0  0  0  0  0  0
   -3.6332   -2.0414    1.2658 H   0  0  0  0  0  0  0  0  0  0  0  0
   -3.3762   -2.6444   -0.3912 H   0  0  0  0  0  0  0  0  0  0  0  0
   -1.5882   -2.1554    0.6658 C   0  0  0  0  0  0  0  0  0  0  0  0
   -0.6832   -2.8764    1.0638 O   0  0  0  0  0  0  0  0  0  0  0  0
   -1.3952   -0.9084    0.2428 N   0  0  0  0  0  0  0  0  0  0  0  0
   -2.1972   -0.3644   -0.0422 H   0  0  0  0  0  0  0  0  0  0  0  0
   -0.1122   -0.1994    0.2658 C   0  0  1  0  0  0  0  0  0  0  0  0
    0.5635   -0.7260    0.9446 H   0  0  0  0  0  0  0  0  0  0  0  0
    0.4924   -0.2204   -1.1558 C   0  0  0  0  0  0  0  0  0  0  0  0
    0.4083   -1.2265   -1.5651 H   0  0  0  0  0  0  0  0  0  0  0  0
   -0.0705    0.4576   -1.7955 H   0  0  0  0  0  0  0  0  0  0  0  0
    1.9648    0.1545   -1.2071 C   0  0  0  0  0  0  0  0  0  0  0  0
    2.6704   -0.0593   -2.1775 O   0  0  0  0  0  0  0  0  0  0  0  0
    2.4880    0.7249   -0.1491 N   0  0  0  0  0  0  0  0  0  0  0  0
    3.4581    0.9772   -0.2183 H   0  0  0  0  0  0  0  0  0  0  0  0
    1.9243    0.9288    0.6544 H   0  0  0  0  0  0  0  0  0  0  0  0
   -0.3126    1.2341    0.8050 C   0  0  0  0  0  0  0  0  0  0  0  0
   -1.2484    1.9199    0.3934 O   0  0  0  0  0  0  0  0  0  0  0  0
    0.5615    1.6875    1.7087 N   0  0  0  0  0  0  0  0  0  0  0  0
    1.3461    1.0849    1.9358 H   0  0  0  0  0  0  0  0  0  0  0  0
    0.5043    3.0121    2.3242 C   0  0  0  0  0  0  0  0  0  0  0  0
   -0.4649    3.1514    2.8080 H   0  0  0  0  0  0  0  0  0  0  0  0
    1.2959    3.1139    3.0678 H   0  0  0  0  0  0  0  0  0  0  0  0
    0.6273    3.7799    1.5584 H   0  0  0  0  0  0  0  0  0  0  0  0
  5  6  2  0  0  0  0
  5  7  1  0  0  0  0
  2  3  1  0  0  0  0
  2  4  1  0  0  0  0
  2  5  1  0  0  0  0
  1  2  1  0  0  0  0
 19 20  2  0  0  0  0
 19 21  1  0  0  0  0
 16 17  1  0  0  0  0
 16 18  1  0  0  0  0
 14 15  2  0  0  0  0
 14 16  1  0  0  0  0
 11 12  1  0  0  0  0
 11 13  1  0  0  0  0
 11 14  1  0  0  0  0
  9 10  1  0  0  0  0
  9 11  1  0  0  0  0
  9 19  1  0  0  0  0
  7  8  1  0  0  0  0
  7  9  1  0  0  0  0
 23 24  1  0  0  0  0
 23 25  1  0  0  0  0
 23 26  1  0  0  0  0
 21 22  1  0  0  0  0
 21 23  1  0  0  0  0
M  END
$$$$
default_name
  -OEChem-02102213163D

 26 25  0     1  0  0  0  0  0999 V2000
   -3.0232   -3.6924    1.0038 H   0  0  0  0  0  0  0  0  0  0  0  0
   -3.0082   -2.6684    0.6318 C   0  0  0  0  0  0  0  0  0  0  0  0
   -3.6332   -2.0414    1.2658 H   0  0  0  0  0  0  0  0  0  0  0  0
   -3.3762   -2.6444   -0.3912 H   0  0  0  0  0  0  0  0  0  0  0  0
   -1.5882   -2.1554    0.6658 C   0  0  0  0  0  0  0  0  0  0  0  0
   -0.6832   -2.8764    1.0638 O   0  0  0  0  0  0  0  0  0  0  0  0
   -1.3952   -0.9084    0.2428 N   0  0  0  0  0  0  0  0  0  0  0  0
   -2.1972   -0.3644   -0.0422 H   0  0  0  0  0  0  0  0  0  0  0  0
   -0.1122   -0.1994    0.2658 C   0  0  1  0  0  0  0  0  0  0  0  0
    0.5635   -0.7260    0.9446 H   0  0  0  0  0  0  0  0  0  0  0  0
    0.4924   -0.2204   -1.1558 C   0  0  0  0  0  0  0  0  0  0  0  0
    0.1778   -1.1309   -1.6646 H   0  0  0  0  0  0  0  0  0  0  0  0
    0.1172    0.6332   -1.7183 H   0  0  0  0  0  0  0  0  0  0  0  0
    2.0123   -0.2040   -1.1816 C   0  0  0  0  0  0  0  0  0  0  0  0
    2.6585   -0.2170   -2.2148 O   0  0  0  0  0  0  0  0  0  0  0  0
    2.6434   -0.1840   -0.0328 N   0  0  0  0  0  0  0  0  0  0  0  0
    3.6467   -0.1559   -0.0810 H   0  0  0  0  0  0  0  0  0  0  0  0
    2.1349   -0.1538    0.8306 H   0  0  0  0  0  0  0  0  0  0  0  0
   -0.3126    1.2341    0.8050 C   0  0  0  0  0  0  0  0  0  0  0  0
   -1.2484    1.9199    0.3934 O   0  0  0  0  0  0  0  0  0  0  0  0
    0.5615    1.6875    1.7087 N   0  0  0  0  0  0  0  0  0  0  0  0
    1.3461    1.0849    1.9358 H   0  0  0  0  0  0  0  0  0  0  0  0
    0.5043    3.0121    2.3242 C   0  0  0  0  0  0  0  0  0  0  0  0
   -0.4649    3.1514    2.8080 H   0  0  0  0  0  0  0  0  0  0  0  0
    1.2959    3.1139    3.0678 H   0  0  0  0  0  0  0  0  0  0  0  0
    0.6273    3.7799    1.5584 H   0  0  0  0  0  0  0  0  0  0  0  0
  5  6  2  0  0  0  0
  5  7  1  0  0  0  0
  2  3  1  0  0  0  0
  2  4  1  0  0  0  0
  2  5  1  0  0  0  0
  1  2  1  0  0  0  0
 19 20  2  0  0  0  0
 19 21  1  0  0  0  0
 16 17  1  0  0  0  0
 16 18  1  0  0  0  0
 14 15  2  0  0  0  0
 14 16  1  0  0  0  0
 11 12  1  0  0  0  0
 11 13  1  0  0  0  0
 11 14  1  0  0  0  0
  9 10  1  0  0  0  0
  9 11  1  0  0  0  0
  9 19  1  0  0  0  0
  7  8  1  0  0  0  0
  7  9  1  0  0  0  0
 23 24  1  0  0  0  0
 23 25  1  0  0  0  0
 23 26  1  0  0  0  0
 21 22  1  0  0  0  0
 21 23  1  0  0  0  0
M  END
$$$$
default_name
  -OEChem-02102213163D

 26 25  0     1  0  0  0  0  0999 V2000
   -3.0232   -3.6924    1.0038 H   0  0  0  0  0  0  0  0  0  0  0  0
   -3.0082   -2.6684    0.6318 C   0  0  0  0  0  0  0  0  0  0  0  0
   -3.6332   -2.0414    1.2658 H   0  0  0  0  0  0  0  0  0  0  0  0
   -3.3762   -2.6444   -0.3912 H   0  0  0  0  0  0  0  0  0  0  0  0
   -1.5882   -2.1554    0.6658 C   0  0  0  0  0  0  0  0  0  0  0  0
   -0.6832   -2.8764    1.0638 O   0  0  0  0  0  0  0  0  0  0  0  0
   -1.3952   -0.9084    0.2428 N   0  0  0  0  0  0  0  0  0  0  0  0
   -2.1972   -0.3644   -0.0422 H   0  0  0  0  0  0  0  0  0  0  0  0
   -0.1122   -0.1994    0.2658 C   0  0  1  0  0  0  0  0  0  0  0  0
    0.5635   -0.7260    0.9446 H   0  0  0  0  0  0  0  0  0  0  0  0
    0.4924   -0.2204   -1.1558 C   0  0  0  0  0  0  0  0  0  0  0  0
    0.1778   -1.1309   -1.6646 H   0  0  0  0  0  0  0  0  0  0  0  0
    0.1172    0.6332   -1.7183 H   0  0  0  0  0  0  0  0  0  0  0  0
    2.0123   -0.2040   -1.1816 C   0  0  0  0  0  0  0  0  0  0  0  0
    2.6561    0.0482   -2.1851 O   0  0  0  0  0  0  0  0  0  0  0  0
    2.6460   -0.4845   -0.0689 N   0  0  0  0  0  0  0  0  0  0  0  0
    3.6493   -0.4489   -0.1115 H   0  0  0  0  0  0  0  0  0  0  0  0
    2.1396   -0.6767    0.7747 H   0  0  0  0  0  0  0  0  0  0  0  0
   -0.3126    1.2341    0.8050 C   0  0  0  0  0  0  0  0  0  0  0  0
   -1.2484    1.9199    0.3934 O   0  0  0  0  0  0  0  0  0  0  0  0
    0.5615    1.6875    1.7087 N   0  0  0  0  0  0  0  0  0  0  0  0
    1.3461    1.0849    1.9358 H   0  0  0  0  0  0  0  0  0  0  0  0
    0.5043    3.0121    2.3242 C   0  0  0  0  0  0  0  0  0  0  0  0
   -0.4649    3.1514    2.8080 H   0  0  0  0  0  0  0  0  0  0  0  0
    1.2959    3.1139    3.0678 H   0  0  0  0  0  0  0  0  0  0  0  0
    0.6273    3.7799    1.5584 H   0  0  0  0  0  0  0  0  0  0  0  0
  5  6  2  0  0  0  0
  5  7  1  0  0  0  0
  2  3  1  0  0  0  0
  2  4  1  0  0  0  0
  2  5  1  0  0  0  0
  1  2  1  0  0  0  0
 19 20  2  0  0  0  0
 19 21  1  0  0  0  0
 16 17  1  0  0  0  0
 16 18  1  0  0  0  0
 14 15  2  0  0  0  0
 14 16  1  0  0  0  0
 11 12  1  0  0  0  0
 11 13  1  0  0  0  0
 11 14  1  0  0  0  0
  9 10  1  0  0  0  0
  9 11  1  0  0  0  0
  9 19  1  0  0  0  0
  7  8  1  0  0  0  0
  7  9  1  0  0  0  0
 23 24  1  0  0  0  0
 23 25  1  0  0  0  0
 23 26  1  0  0  0  0
 21 22  1  0  0  0  0
 21 23  1  0  0  0  0
M  END
$$$$
default_name
  -OEChem-02102213163D

 26 25  0     1  0  0  0  0  0999 V2000
   -3.0232   -3.6924    1.0038 H   0  0  0  0  0  0  0  0  0  0  0  0
   -3.0082   -2.6684    0.6318 C   0  0  0  0  0  0  0  0  0  0  0  0
   -3.6332   -2.0414    1.2658 H   0  0  0  0  0  0  0  0  0  0  0  0
   -3.3762   -2.6444   -0.3912 H   0  0  0  0  0  0  0  0  0  0  0  0
   -1.5882   -2.1554    0.6658 C   0  0  0  0  0  0  0  0  0  0  0  0
   -0.6832   -2.8764    1.0638 O   0  0  0  0  0  0  0  0  0  0  0  0
   -1.3952   -0.9084    0.2428 N   0  0  0  0  0  0  0  0  0  0  0  0
   -2.1972   -0.3644   -0.0422 H   0  0  0  0  0  0  0  0  0  0  0  0
   -0.1122   -0.1994    0.2658 C   0  0  1  0  0  0  0  0  0  0  0  0
    0.5635   -0.7260    0.9446 H   0  0  0  0  0  0  0  0  0  0  0  0
    0.4924   -0.2204   -1.1558 C   0  0  0  0  0  0  0  0  0  0  0  0
    0.1778   -1.1309   -1.6646 H   0  0  0  0  0  0  0  0  0  0  0  0
    0.1172    0.6332   -1.7183 H   0  0  0  0  0  0  0  0  0  0  0  0
    2.0123   -0.2040   -1.1816 C   0  0  0  0  0  0  0  0  0  0  0  0
    2.6551    0.2967   -2.0878 O   0  0  0  0  0  0  0  0  0  0  0  0
    2.6472   -0.7654   -0.1815 N   0  0  0  0  0  0  0  0  0  0  0  0
    3.6505   -0.7240   -0.2168 H   0  0  0  0  0  0  0  0  0  0  0  0
    2.1416   -1.1673    0.5853 H   0  0  0  0  0  0  0  0  0  0  0  0
   -0.3126    1.2341    0.8050 C   0  0  0  0  0  0  0  0  0  0  0  0
   -1.2484    1.9199    0.3934 O   0  0  0  0  0  0  0  0  0  0  0  0
    0.5615    1.6875    1.7087 N   0  0  0  0  0  0  0  0  0  0  0  0
    1.3461    1.0849    1.9358 H   0  0  0  0  0  0  0  0  0  0  0  0
    0.5043    3.0121    2.3242 C   0  0  0  0  0  0  0  0  0  0  0  0
   -0.4649    3.1514    2.8080 H   0  0  0  0  0  0  0  0  0  0  0  0
    1.2959    3.1139    3.0678 H   0  0  0  0  0  0  0  0  0  0  0  0
    0.6273    3.7799    1.5584 H   0  0  0  0  0  0  0  0  0  0  0  0
  5  6  2  0  0  0  0
  5  7  1  0  0  0  0
  2  3  1  0  0  0  0
  2  4  1  0  0  0  0
  2  5  1  0  0  0  0
  1  2  1  0  0  0  0
 19 20  2  0  0  0  0
 19 21  1  0  0  0  0
 16 17  1  0  0  0  0
 16 18  1  0  0  0  0
 14 15  2  0  0  0  0
 14 16  1  0  0  0  0
 11 12  1  0  0  0  0
 11 13  1  0  0  0  0
 11 14  1  0  0  0  0
  9 10  1  0  0  0  0
  9 11  1  0  0  0  0
  9 19  1  0  0  0  0
  7  8  1  0  0  0  0
  7  9  1  0  0  0  0
 23 24  1  0  0  0  0
 23 25  1  0  0  0  0
 23 26  1  0  0  0  0
 21 22  1  0  0  0  0
 21 23  1  0  0  0  0
M  END
$$$$
default_name
  -OEChem-02102213163D

 26 25  0     1  0  0  0  0  0999 V2000
   -3.0232   -3.6924    1.0038 H   0  0  0  0  0  0  0  0  0  0  0  0
   -3.0082   -2.6684    0.6318 C   0  0  0  0  0  0  0  0  0  0  0  0
   -3.6332   -2.0414    1.2658 H   0  0  0  0  0  0  0  0  0  0  0  0
   -3.3762   -2.6444   -0.3912 H   0  0  0  0  0  0  0  0  0  0  0  0
   -1.5882   -2.1554    0.6658 C   0  0  0  0  0  0  0  0  0  0  0  0
   -0.6832   -2.8764    1.0638 O   0  0  0  0  0  0  0  0  0  0  0  0
   -1.3952   -0.9084    0.2428 N   0  0  0  0  0  0  0  0  0  0  0  0
   -2.1972   -0.3644   -0.0422 H   0  0  0  0  0  0  0  0  0  0  0  0
   -0.1122   -0.1994    0.2658 C   0  0  1  0  0  0  0  0  0  0  0  0
    0.5635   -0.7260    0.9446 H   0  0  0  0  0  0  0  0  0  0  0  0
    0.4924   -0.2204   -1.1558 C   0  0  0  0  0  0  0  0  0  0  0  0
    0.1778   -1.1309   -1.6646 H   0  0  0  0  0  0  0  0  0  0  0  0
    0.1172    0.6332   -1.7183 H   0  0  0  0  0  0  0  0  0  0  0  0
    2.0123   -0.2040   -1.1816 C   0  0  0  0  0  0  0  0  0  0  0  0
    2.6555    0.5116   -1.9296 O   0  0  0  0  0  0  0  0  0  0  0  0
    2.6467   -1.0076   -0.3630 N   0  0  0  0  0  0  0  0  0  0  0  0
    3.6501   -0.9625   -0.3897 H   0  0  0  0  0  0  0  0  0  0  0  0
    2.1410   -1.5922    0.2754 H   0  0  0  0  0  0  0  0  0  0  0  0
   -0.3126    1.2341    0.8050 C   0  0  0  0  0  0  0  0  0  0  0  0
   -1.2484    1.9199    0.3934 O   0  0  0  0  0  0  0  0  0  0  0  0
    0.5615    1.6875    1.7087 N   0  0  0  0  0  0  0  0  0  0  0  0
    1.3461    1.0849    1.9358 H   0  0  0  0  0  0  0  0  0  0  0  0
    0.5043    3.0121    2.3242 C   0  0  0  0  0  0  0  0  0  0  0  0
   -0.4649    3.1514    2.8080 H   0  0  0  0  0  0  0  0  0  0  0  0
    1.2959    3.1139    3.0678 H   0  0  0  0  0  0  0  0  0  0  0  0
    0.6273    3.7799    1.5584 H   0  0  0  0  0  0  0  0  0  0  0  0
  5  6  2  0  0  0  0
  5  7  1  0  0  0  0
  2  3  1  0  0  0  0
  2  4  1  0  0  0  0
  2  5  1  0  0  0  0
  1  2  1  0  0  0  0
 19 20  2  0  0  0  0
 19 21  1  0  0  0  0
 16 17  1  0  0  0  0
 16 18  1  0  0  0  0
 14 15  2  0  0  0  0
 14 16  1  0  0  0  0
 11 12  1  0  0  0  0
 11 13  1  0  0  0  0
 11 14  1  0  0  0  0
  9 10  1  0  0  0  0
  9 11  1  0  0  0  0
  9 19  1  0  0  0  0
  7  8  1  0  0  0  0
  7  9  1  0  0  0  0
 23 24  1  0  0  0  0
 23 25  1  0  0  0  0
 23 26  1  0  0  0  0
 21 22  1  0  0  0  0
 21 23  1  0  0  0  0
M  END
$$$$
default_name
  -OEChem-02102213163D

 26 25  0     1  0  0  0  0  0999 V2000
   -3.0232   -3.6924    1.0038 H   0  0  0  0  0  0  0  0  0  0  0  0
   -3.0082   -2.6684    0.6318 C   0  0  0  0  0  0  0  0  0  0  0  0
   -3.6332   -2.0414    1.2658 H   0  0  0  0  0  0  0  0  0  0  0  0
   -3.3762   -2.6444   -0.3912 H   0  0  0  0  0  0  0  0  0  0  0  0
   -1.5882   -2.1554    0.6658 C   0  0  0  0  0  0  0  0  0  0  0  0
   -0.6832   -2.8764    1.0638 O   0  0  0  0  0  0  0  0  0  0  0  0
   -1.3952   -0.9084    0.2428 N   0  0  0  0  0  0  0  0  0  0  0  0
   -2.1972   -0.3644   -0.0422 H   0  0  0  0  0  0  0  0  0  0  0  0
   -0.1122   -0.1994    0.2658 C   0  0  1  0  0  0  0  0  0  0  0  0
    0.5635   -0.7260    0.9446 H   0  0  0  0  0  0  0  0  0  0  0  0
    0.4924   -0.2204   -1.1558 C   0  0  0  0  0  0  0  0  0  0  0  0
    0.1778   -1.1309   -1.6646 H   0  0  0  0  0  0  0  0  0  0  0  0
    0.1172    0.6332   -1.7183 H   0  0  0  0  0  0  0  0  0  0  0  0
    2.0123   -0.2040   -1.1816 C   0  0  0  0  0  0  0  0  0  0  0  0
    2.6572    0.6782   -1.7211 O   0  0  0  0  0  0  0  0  0  0  0  0
    2.6447   -1.1946   -0.6009 N   0  0  0  0  0  0  0  0  0  0  0  0
    3.6483   -1.1482   -0.6185 H   0  0  0  0  0  0  0  0  0  0  0  0
    2.1376   -1.9225   -0.1338 H   0  0  0  0  0  0  0  0  0  0  0  0
   -0.3126    1.2341    0.8050 C   0  0  0  0  0  0  0  0  0  0  0  0
   -1.2484    1.9199    0.3934 O   0  0  0  0  0  0  0  0  0  0  0  0
    0.5615    1.6875    1.7087 N   0  0  0  0  0  0  0  0  0  0  0  0
    1.3461    1.0849    1.9358 H   0  0  0  0  0  0  0  0  0  0  0  0
    0.5043    3.0121    2.3242 C   0  0  0  0  0  0  0  0  0  0  0  0
   -0.4649    3.1514    2.8080 H   0  0  0  0  0  0  0  0  0  0  0  0
    1.2959    3.1139    3.0678 H   0  0  0  0  0  0  0  0  0  0  0  0
    0.6273    3.7799    1.5584 H   0  0  0  0  0  0  0  0  0  0  0  0
  5  6  2  0  0  0  0
  5  7  1  0  0  0  0
  2  3  1  0  0  0  0
  2  4  1  0  0  0  0
  2  5  1  0  0  0  0
  1  2  1  0  0  0  0
 19 20  2  0  0  0  0
 19 21  1  0  0  0  0
 16 17  1  0  0  0  0
 16 18  1  0  0  0  0
 14 15  2  0  0  0  0
 14 16  1  0  0  0  0
 11 12  1  0  0  0  0
 11 13  1  0  0  0  0
 11 14  1  0  0  0  0
  9 10  1  0  0  0  0
  9 11  1  0  0  0  0
  9 19  1  0  0  0  0
  7  8  1  0  0  0  0
  7  9  1  0  0  0  0
 23 24  1  0  0  0  0
 23 25  1  0  0  0  0
 23 26  1  0  0  0  0
 21 22  1  0  0  0  0
 21 23  1  0  0  0  0
M  END
$$$$
default_name
  -OEChem-02102213163D

 26 25  0     1  0  0  0  0  0999 V2000
   -3.0232   -3.6924    1.0038 H   0  0  0  0  0  0  0  0  0  0  0  0
   -3.0082   -2.6684    0.6318 C   0  0  0  0  0  0  0  0  0  0  0  0
   -3.6332   -2.0414    1.2658 H   0  0  0  0  0  0  0  0  0  0  0  0
   -3.3762   -2.6444   -0.3912 H   0  0  0  0  0  0  0  0  0  0  0  0
   -1.5882   -2.1554    0.6658 C   0  0  0  0  0  0  0  0  0  0  0  0
   -0.6832   -2.8764    1.0638 O   0  0  0  0  0  0  0  0  0  0  0  0
   -1.3952   -0.9084    0.2428 N   0  0  0  0  0  0  0  0  0  0  0  0
   -2.1972   -0.3644   -0.0422 H   0  0  0  0  0  0  0  0  0  0  0  0
   -0.1122   -0.1994    0.2658 C   0  0  1  0  0  0  0  0  0  0  0  0
    0.5635   -0.7260    0.9446 H   0  0  0  0  0  0  0  0  0  0  0  0
    0.4924   -0.2204   -1.1558 C   0  0  0  0  0  0  0  0  0  0  0  0
    0.1778   -1.1309   -1.6646 H   0  0  0  0  0  0  0  0  0  0  0  0
    0.1172    0.6332   -1.7183 H   0  0  0  0  0  0  0  0  0  0  0  0
    2.0123   -0.2040   -1.1816 C   0  0  0  0  0  0  0  0  0  0  0  0
    2.6602    0.7851   -1.4766 O   0  0  0  0  0  0  0  0  0  0  0  0
    2.6413   -1.3137   -0.8792 N   0  0  0  0  0  0  0  0  0  0  0  0
    3.6450   -1.2683   -0.8875 H   0  0  0  0  0  0  0  0  0  0  0  0
    2.1318   -2.1355   -0.6146 H   0  0  0  0  0  0  0  0  0  0  0  0
   -0.3126    1.2341    0.8050 C   0  0  0  0  0  0  0  0  0  0  0  0
   -1.2484    1.9199    0.3934 O   0  0  0  0  0  0  0  0  0  0  0  0
    0.5615    1.6875    1.7087 N   0  0  0  0  0  0  0  0  0  0  0  0
    1.3461    1.0849    1.9358 H   0  0  0  0  0  0  0  0  0  0  0  0
    0.5043    3.0121    2.3242 C   0  0  0  0  0  0  0  0  0  0  0  0
   -0.4649    3.1514    2.8080 H   0  0  0  0  0  0  0  0  0  0  0  0
    1.2959    3.1139    3.0678 H   0  0  0  0  0  0  0  0  0  0  0  0
    0.6273    3.7799    1.5584 H   0  0  0  0  0  0  0  0  0  0  0  0
  5  6  2  0  0  0  0
  5  7  1  0  0  0  0
  2  3  1  0  0  0  0
  2  4  1  0  0  0  0
  2  5  1  0  0  0  0
  1  2  1  0  0  0  0
 19 20  2  0  0  0  0
 19 21  1  0  0  0  0
 16 17  1  0  0  0  0
 16 18  1  0  0  0  0
 14 15  2  0  0  0  0
 14 16  1  0  0  0  0
 11 12  1  0  0  0  0
 11 13  1  0  0  0  0
 11 14  1  0  0  0  0
  9 10  1  0  0  0  0
  9 11  1  0  0  0  0
  9 19  1  0  0  0  0
  7  8  1  0  0  0  0
  7  9  1  0  0  0  0
 23 24  1  0  0  0  0
 23 25  1  0  0  0  0
 23 26  1  0  0  0  0
 21 22  1  0  0  0  0
 21 23  1  0  0  0  0
M  END
$$$$
default_name
  -OEChem-02102213163D

 26 25  0     1  0  0  0  0  0999 V2000
   -3.0232   -3.6924    1.0038 H   0  0  0  0  0  0  0  0  0  0  0  0
   -3.0082   -2.6684    0.6318 C   0  0  0  0  0  0  0  0  0  0  0  0
   -3.6332   -2.0414    1.2658 H   0  0  0  0  0  0  0  0  0  0  0  0
   -3.3762   -2.6444   -0.3912 H   0  0  0  0  0  0  0  0  0  0  0  0
   -1.5882   -2.1554    0.6658 C   0  0  0  0  0  0  0  0  0  0  0  0
   -0.6832   -2.8764    1.0638 O   0  0  0  0  0  0  0  0  0  0  0  0
   -1.3952   -0.9084    0.2428 N   0  0  0  0  0  0  0  0  0  0  0  0
   -2.1972   -0.3644   -0.0422 H   0  0  0  0  0  0  0  0  0  0  0  0
   -0.1122   -0.1994    0.2658 C   0  0  1  0  0  0  0  0  0  0  0  0
    0.5635   -0.7260    0.9446 H   0  0  0  0  0  0  0  0  0  0  0  0
    0.4924   -0.2204   -1.1558 C   0  0  0  0  0  0  0  0  0  0  0  0
    0.1778   -1.1309   -1.6646 H   0  0  0  0  0  0  0  0  0  0  0  0
    0.1172    0.6332   -1.7183 H   0  0  0  0  0  0  0  0  0  0  0  0
    2.0123   -0.2040   -1.1816 C   0  0  0  0  0  0  0  0  0  0  0  0
    2.6642    0.8252   -1.2127 O   0  0  0  0  0  0  0  0  0  0  0  0
    2.6367   -1.3567   -1.1787 N   0  0  0  0  0  0  0  0  0  0  0  0
    3.6406   -1.3147   -1.1784 H   0  0  0  0  0  0  0  0  0  0  0  0
    2.1238   -2.2169   -1.1341 H   0  0  0  0  0  0  0  0  0  0  0  0
   -0.3126    1.2341    0.8050 C   0  0  0  0  0  0  0  0  0  0  0  0
   -1.2484    1.9199    0.3934 O   0  0  0  0  0  0  0  0  0  0  0  0
    0.5615    1.6875    1.7087 N   0  0  0  0  0  0  0  0  0  0  0  0
    1.3461    1.0849    1.9358 H   0  0  0  0  0  0  0  0  0  0  0  0
    0.5043    3.0121    2.3242 C   0  0  0  0  0  0  0  0  0  0  0  0
   -0.4649    3.1514    2.8080 H   0  0  0  0  0  0  0  0  0  0  0  0
    1.2959    3.1139    3.0678 H   0  0  0  0  0  0  0  0  0  0  0  0
    0.6273    3.7799    1.5584 H   0  0  0  0  0  0  0  0  0  0  0  0
  5  6  2  0  0  0  0
  5  7  1  0  0  0  0
  2  3  1  0  0  0  0
  2  4  1  0  0  0  0
  2  5  1  0  0  0  0
  1  2  1  0  0  0  0
 19 20  2  0  0  0  0
 19 21  1  0  0  0  0
 16 17  1  0  0  0  0
 16 18  1  0  0  0  0
 14 15  2  0  0  0  0
 14 16  1  0  0  0  0
 11 12  1  0  0  0  0
 11 13  1  0  0  0  0
 11 14  1  0  0  0  0
  9 10  1  0  0  0  0
  9 11  1  0  0  0  0
  9 19  1  0  0  0  0
  7  8  1  0  0  0  0
  7  9  1  0  0  0  0
 23 24  1  0  0  0  0
 23 25  1  0  0  0  0
 23 26  1  0  0  0  0
 21 22  1  0  0  0  0
 21 23  1  0  0  0  0
M  END
$$$$
default_name
  -OEChem-02102213163D

 26 25  0     1  0  0  0  0  0999 V2000
   -3.0232   -3.6924    1.0038 H   0  0  0  0  0  0  0  0  0  0  0  0
   -3.0082   -2.6684    0.6318 C   0  0  0  0  0  0  0  0  0  0  0  0
   -3.6332   -2.0414    1.2658 H   0  0  0  0  0  0  0  0  0  0  0  0
   -3.3762   -2.6444   -0.3912 H   0  0  0  0  0  0  0  0  0  0  0  0
   -1.5882   -2.1554    0.6658 C   0  0  0  0  0  0  0  0  0  0  0  0
   -0.6832   -2.8764    1.0638 O   0  0  0  0  0  0  0  0  0  0  0  0
   -1.3952   -0.9084    0.2428 N   0  0  0  0  0  0  0  0  0  0  0  0
   -2.1972   -0.3644   -0.0422 H   0  0  0  0  0  0  0  0  0  0  0  0
   -0.1122   -0.1994    0.2658 C   0  0  1  0  0  0  0  0  0  0  0  0
    0.5635   -0.7260    0.9446 H   0  0  0  0  0  0  0  0  0  0  0  0
    0.4924   -0.2204   -1.1558 C   0  0  0  0  0  0  0  0  0  0  0  0
    0.1778   -1.1309   -1.6646 H   0  0  0  0  0  0  0  0  0  0  0  0
    0.1172    0.6332   -1.7183 H   0  0  0  0  0  0  0  0  0  0  0  0
    2.0123   -0.2040   -1.1816 C   0  0  0  0  0  0  0  0  0  0  0  0
    2.6690    0.7956   -0.9476 O   0  0  0  0  0  0  0  0  0  0  0  0
    2.6312   -1.3206   -1.4792 N   0  0  0  0  0  0  0  0  0  0  0  0
    3.6353   -1.2842   -1.4714 H   0  0  0  0  0  0  0  0  0  0  0  0
    2.1144   -2.1611   -1.6570 H   0  0  0  0  0  0  0  0  0  0  0  0
   -0.3126    1.2341    0.8050 C   0  0  0  0  0  0  0  0  0  0  0  0
   -1.2484    1.9199    0.3934 O   0  0  0  0  0  0  0  0  0  0  0  0
    0.5615    1.6875    1.7087 N   0  0  0  0  0  0  0  0  0  0  0  0
    1.3461    1.0849    1.9358 H   0  0  0  0  0  0  0  0  0  0  0  0
    0.5043    3.0121    2.3242 C   0  0  0  0  0  0  0  0  0  0  0  0
   -0.4649    3.1514    2.8080 H   0  0  0  0  0  0  0  0  0  0  0  0
    1.2959    3.1139    3.0678 H   0  0  0  0  0  0  0  0  0  0  0  0
    0.6273    3.7799    1.5584 H   0  0  0  0  0  0  0  0  0  0  0  0
  5  6  2  0  0  0  0
  5  7  1  0  0  0  0
  2  3  1  0  0  0  0
  2  4  1  0  0  0  0
  2  5  1  0  0  0  0
  1  2  1  0  0  0  0
 19 20  2  0  0  0  0
 19 21  1  0  0  0  0
 16 17  1  0  0  0  0
 16 18  1  0  0  0  0
 14 15  2  0  0  0  0
 14 16  1  0  0  0  0
 11 12  1  0  0  0  0
 11 13  1  0  0  0  0
 11 14  1  0  0  0  0
  9 10  1  0  0  0  0
  9 11  1  0  0  0  0
  9 19  1  0  0  0  0
  7  8  1  0  0  0  0
  7  9  1  0  0  0  0
 23 24  1  0  0  0  0
 23 25  1  0  0  0  0
 23 26  1  0  0  0  0
 21 22  1  0  0  0  0
 21 23  1  0  0  0  0
M  END
$$$$
default_name
  -OEChem-02102213163D

 26 25  0     1  0  0  0  0  0999 V2000
   -3.0232   -3.6924    1.0038 H   0  0  0  0  0  0  0  0  0  0  0  0
   -3.0082   -2.6684    0.6318 C   0  0  0  0  0  0  0  0  0  0  0  0
   -3.6332   -2.0414    1.2658 H   0  0  0  0  0  0  0  0  0  0  0  0
   -3.3762   -2.6444   -0.3912 H   0  0  0  0  0  0  0  0  0  0  0  0
   -1.5882   -2.1554    0.6658 C   0  0  0  0  0  0  0  0  0  0  0  0
   -0.6832   -2.8764    1.0638 O   0  0  0  0  0  0  0  0  0  0  0  0
   -1.3952   -0.9084    0.2428 N   0  0  0  0  0  0  0  0  0  0  0  0
   -2.1972   -0.3644   -0.0422 H   0  0  0  0  0  0  0  0  0  0  0  0
   -0.1122   -0.1994    0.2658 C   0  0  1  0  0  0  0  0  0  0  0  0
    0.5635   -0.7260    0.9446 H   0  0  0  0  0  0  0  0  0  0  0  0
    0.4924   -0.2204   -1.1558 C   0  0  0  0  0  0  0  0  0  0  0  0
    0.1778   -1.1309   -1.6646 H   0  0  0  0  0  0  0  0  0  0  0  0
    0.1172    0.6332   -1.7183 H   0  0  0  0  0  0  0  0  0  0  0  0
    2.0123   -0.2040   -1.1816 C   0  0  0  0  0  0  0  0  0  0  0  0
    2.6743    0.6983   -0.6991 O   0  0  0  0  0  0  0  0  0  0  0  0
    2.6252   -1.2081   -1.7601 N   0  0  0  0  0  0  0  0  0  0  0  0
    3.6295   -1.1789   -1.7465 H   0  0  0  0  0  0  0  0  0  0  0  0
    2.1040   -1.9718   -2.1475 H   0  0  0  0  0  0  0  0  0  0  0  0
   -0.3126    1.2341    0.8050 C   0  0  0  0  0  0  0  0  0  0  0  0
   -1.2484    1.9199    0.3934 O   0  0  0  0  0  0  0  0  0  0  0  0
    0.5615    1.6875    1.7087 N   0  0  0  0  0  0  0  0  0  0  0  0
    1.3461    1.0849    1.9358 H   0  0  0  0  0  0  0  0  0  0  0  0
    0.5043    3.0121    2.3242 C   0  0  0  0  0  0  0  0  0  0  0  0
   -0.4649    3.1514    2.8080 H   0  0  0  0  0  0  0  0  0  0  0  0
    1.2959    3.1139    3.0678 H   0  0  0  0  0  0  0  0  0  0  0  0
    0.6273    3.7799    1.5584 H   0  0  0  0  0  0  0  0  0  0  0  0
  5  6  2  0  0  0  0
  5  7  1  0  0  0  0
  2  3  1  0  0  0  0
  2  4  1  0  0  0  0
  2  5  1  0  0  0  0
  1  2  1  0  0  0  0
 19 20  2  0  0  0  0
 19 21  1  0  0  0  0
 16 17  1  0  0  0  0
 16 18  1  0  0  0  0
 14 15  2  0  0  0  0
 14 16  1  0  0  0  0
 11 12  1  0  0  0  0
 11 13  1  0  0  0  0
 11 14  1  0  0  0  0
  9 10  1  0  0  0  0
  9 11  1  0  0  0  0
  9 19  1  0  0  0  0
  7  8  1  0  0  0  0
  7  9  1  0  0  0  0
 23 24  1  0  0  0  0
 23 25  1  0  0  0  0
 23 26  1  0  0  0  0
 21 22  1  0  0  0  0
 21 23  1  0  0  0  0
M  END
$$$$
default_name
  -OEChem-02102213163D

 26 25  0     1  0  0  0  0  0999 V2000
   -3.0232   -3.6924    1.0038 H   0  0  0  0  0  0  0  0  0  0  0  0
   -3.0082   -2.6684    0.6318 C   0  0  0  0  0  0  0  0  0  0  0  0
   -3.6332   -2.0414    1.2658 H   0  0  0  0  0  0  0  0  0  0  0  0
   -3.3762   -2.6444   -0.3912 H   0  0  0  0  0  0  0  0  0  0  0  0
   -1.5882   -2.1554    0.6658 C   0  0  0  0  0  0  0  0  0  0  0  0
   -0.6832   -2.8764    1.0638 O   0  0  0  0  0  0  0  0  0  0  0  0
   -1.3952   -0.9084    0.2428 N   0  0  0  0  0  0  0  0  0  0  0  0
   -2.1972   -0.3644   -0.0422 H   0  0  0  0  0  0  0  0  0  0  0  0
   -0.1122   -0.1994    0.2658 C   0  0  1  0  0  0  0  0  0  0  0  0
    0.5635   -0.7260    0.9446 H   0  0  0  0  0  0  0  0  0  0  0  0
    0.4924   -0.2204   -1.1558 C   0  0  0  0  0  0  0  0  0  0  0  0
    0.1778   -1.1309   -1.6646 H   0  0  0  0  0  0  0  0  0  0  0  0
    0.1172    0.6332   -1.7183 H   0  0  0  0  0  0  0  0  0  0  0  0
    2.0123   -0.2040   -1.1816 C   0  0  0  0  0  0  0  0  0  0  0  0
    2.6796    0.5401   -0.4843 O   0  0  0  0  0  0  0  0  0  0  0  0
    2.6192   -1.0266   -2.0022 N   0  0  0  0  0  0  0  0  0  0  0  0
    3.6236   -1.0060   -1.9849 H   0  0  0  0  0  0  0  0  0  0  0  0
    2.0935   -1.6620   -2.5724 H   0  0  0  0  0  0  0  0  0  0  0  0
   -0.3126    1.2341    0.8050 C   0  0  0  0  0  0  0  0  0  0  0  0
   -1.2484    1.9199    0.3934 O   0  0  0  0  0  0  0  0  0  0  0  0
    0.5615    1.6875    1.7087 N   0  0  0  0  0  0  0  0  0  0  0  0
    1.3461    1.0849    1.9358 H   0  0  0  0  0  0  0  0  0  0  0  0
    0.5043    3.0121    2.3242 C   0  0  0  0  0  0  0  0  0  0  0  0
   -0.4649    3.1514    2.8080 H   0  0  0  0  0  0  0  0  0  0  0  0
    1.2959    3.1139    3.0678 H   0  0  0  0  0  0  0  0  0  0  0  0
    0.6273    3.7799    1.5584 H   0  0  0  0  0  0  0  0  0  0  0  0
  5  6  2  0  0  0  0
  5  7  1  0  0  0  0
  2  3  1  0  0  0  0
  2  4  1  0  0  0  0
  2  5  1  0  0  0  0
  1  2  1  0  0  0  0
 19 20  2  0  0  0  0
 19 21  1  0  0  0  0
 16 17  1  0  0  0  0
 16 18  1  0  0  0  0
 14 15  2  0  0  0  0
 14 16  1  0  0  0  0
 11 12  1  0  0  0  0
 11 13  1  0  0  0  0
 11 14  1  0  0  0  0
  9 10  1  0  0  0  0
  9 11  1  0  0  0  0
  9 19  1  0  0  0  0
  7  8  1  0  0  0  0
  7  9  1  0  0  0  0
 23 24  1  0  0  0  0
 23 25  1  0  0  0  0
 23 26  1  0  0  0  0
 21 22  1  0  0  0  0
 21 23  1  0  0  0  0
M  END
$$$$
default_name
  -OEChem-02102213163D

 26 25  0     1  0  0  0  0  0999 V2000
   -3.0232   -3.6924    1.0038 H   0  0  0  0  0  0  0  0  0  0  0  0
   -3.0082   -2.6684    0.6318 C   0  0  0  0  0  0  0  0  0  0  0  0
   -3.6332   -2.0414    1.2658 H   0  0  0  0  0  0  0  0  0  0  0  0
   -3.3762   -2.6444   -0.3912 H   0  0  0  0  0  0  0  0  0  0  0  0
   -1.5882   -2.1554    0.6658 C   0  0  0  0  0  0  0  0  0  0  0  0
   -0.6832   -2.8764    1.0638 O   0  0  0  0  0  0  0  0  0  0  0  0
   -1.3952   -0.9084    0.2428 N   0  0  0  0  0  0  0  0  0  0  0  0
   -2.1972   -0.3644   -0.0422 H   0  0  0  0  0  0  0  0  0  0  0  0
   -0.1122   -0.1994    0.2658 C   0  0  1  0  0  0  0  0  0  0  0  0
    0.5635   -0.7260    0.9446 H   0  0  0  0  0  0  0  0  0  0  0  0
    0.4924   -0.2204   -1.1558 C   0  0  0  0  0  0  0  0  0  0  0  0
    0.1778   -1.1309   -1.6646 H   0  0  0  0  0  0  0  0  0  0  0  0
    0.1172    0.6332   -1.7183 H   0  0  0  0  0  0  0  0  0  0  0  0
    2.0123   -0.2040   -1.1816 C   0  0  0  0  0  0  0  0  0  0  0  0
    2.6847    0.3316   -0.3177 O   0  0  0  0  0  0  0  0  0  0  0  0
    2.6134   -0.7887   -2.1892 N   0  0  0  0  0  0  0  0  0  0  0  0
    3.6180   -0.7773   -2.1705 H   0  0  0  0  0  0  0  0  0  0  0  0
    2.0835   -1.2527   -2.9025 H   0  0  0  0  0  0  0  0  0  0  0  0
   -0.3126    1.2341    0.8050 C   0  0  0  0  0  0  0  0  0  0  0  0
   -1.2484    1.9199    0.3934 O   0  0  0  0  0  0  0  0  0  0  0  0
    0.5615    1.6875    1.7087 N   0  0  0  0  0  0  0  0  0  0  0  0
    1.3461    1.0849    1.9358 H   0  0  0  0  0  0  0  0  0  0  0  0
    0.5043    3.0121    2.3242 C   0  0  0  0  0  0  0  0  0  0  0  0
   -0.4649    3.1514    2.8080 H   0  0  0  0  0  0  0  0  0  0  0  0
    1.2959    3.1139    3.0678 H   0  0  0  0  0  0  0  0  0  0  0  0
    0.6273    3.7799    1.5584 H   0  0  0  0  0  0  0  0  0  0  0  0
  5  6  2  0  0  0  0
  5  7  1  0  0  0  0
  2  3  1  0  0  0  0
  2  4  1  0  0  0  0
  2  5  1  0  0  0  0
  1  2  1  0  0  0  0
 19 20  2  0  0  0  0
 19 21  1  0  0  0  0
 16 17  1  0  0  0  0
 16 18  1  0  0  0  0
 14 15  2  0  0  0  0
 14 16  1  0  0  0  0
 11 12  1  0  0  0  0
 11 13  1  0  0  0  0
 11 14  1  0  0  0  0
  9 10  1  0  0  0  0
  9 11  1  0  0  0  0
  9 19  1  0  0  0  0
  7  8  1  0  0  0  0
  7  9  1  0  0  0  0
 23 24  1  0  0  0  0
 23 25  1  0  0  0  0
 23 26  1  0  0  0  0
 21 22  1  0  0  0  0
 21 23  1  0  0  0  0
M  END
$$$$
default_name
  -OEChem-02102213163D

 26 25  0     1  0  0  0  0  0999 V2000
   -3.0232   -3.6924    1.0038 H   0  0  0  0  0  0  0  0  0  0  0  0
   -3.0082   -2.6684    0.6318 C   0  0  0  0  0  0  0  0  0  0  0  0
   -3.6332   -2.0414    1.2658 H   0  0  0  0  0  0  0  0  0  0  0  0
   -3.3762   -2.6444   -0.3912 H   0  0  0  0  0  0  0  0  0  0  0  0
   -1.5882   -2.1554    0.6658 C   0  0  0  0  0  0  0  0  0  0  0  0
   -0.6832   -2.8764    1.0638 O   0  0  0  0  0  0  0  0  0  0  0  0
   -1.3952   -0.9084    0.2428 N   0  0  0  0  0  0  0  0  0  0  0  0
   -2.1972   -0.3644   -0.0422 H   0  0  0  0  0  0  0  0  0  0  0  0
   -0.1122   -0.1994    0.2658 C   0  0  1  0  0  0  0  0  0  0  0  0
    0.5635   -0.7260    0.9446 H   0  0  0  0  0  0  0  0  0  0  0  0
    0.4924   -0.2204   -1.1558 C   0  0  0  0  0  0  0  0  0  0  0  0
    0.1778   -1.1309   -1.6646 H   0  0  0  0  0  0  0  0  0  0  0  0
    0.1172    0.6332   -1.7183 H   0  0  0  0  0  0  0  0  0  0  0  0
    2.0123   -0.2040   -1.1816 C   0  0  0  0  0  0  0  0  0  0  0  0
    2.6892    0.0871   -0.2108 O   0  0  0  0  0  0  0  0  0  0  0  0
    2.6084   -0.5104   -2.3081 N   0  0  0  0  0  0  0  0  0  0  0  0
    3.6131   -0.5083   -2.2905 H   0  0  0  0  0  0  0  0  0  0  0  0
    2.0747   -0.7719   -3.1155 H   0  0  0  0  0  0  0  0  0  0  0  0
   -0.3126    1.2341    0.8050 C   0  0  0  0  0  0  0  0  0  0  0  0
   -1.2484    1.9199    0.3934 O   0  0  0  0  0  0  0  0  0  0  0  0
    0.5615    1.6875    1.7087 N   0  0  0  0  0  0  0  0  0  0  0  0
    1.3461    1.0849    1.9358 H   0  0  0  0  0  0  0  0  0  0  0  0
    0.5043    3.0121    2.3242 C   0  0  0  0  0  0  0  0  0  0  0  0
   -0.4649    3.1514    2.8080 H   0  0  0  0  0  0  0  0  0  0  0  0
    1.2959    3.1139    3.0678 H   0  0  0  0  0  0  0  0  0  0  0  0
    0.6273    3.7799    1.5584 H   0  0  0  0  0  0  0  0  0  0  0  0
  5  6  2  0  0  0  0
  5  7  1  0  0  0  0
  2  3  1  0  0  0  0
  2  4  1  0  0  0  0
  2  5  1  0  0  0  0
  1  2  1  0  0  0  0
 19 20  2  0  0  0  0
 19 21  1  0  0  0  0
 16 17  1  0  0  0  0
 16 18  1  0  0  0  0
 14 15  2  0  0  0  0
 14 16  1  0  0  0  0
 11 12  1  0  0  0  0
 11 13  1  0  0  0  0
 11 14  1  0  0  0  0
  9 10  1  0  0  0  0
  9 11  1  0  0  0  0
  9 19  1  0  0  0  0
  7  8  1  0  0  0  0
  7  9  1  0  0  0  0
 23 24  1  0  0  0  0
 23 25  1  0  0  0  0
 23 26  1  0  0  0  0
 21 22  1  0  0  0  0
 21 23  1  0  0  0  0
M  END
$$$$
default_name
  -OEChem-02102213163D

 26 25  0     1  0  0  0  0  0999 V2000
   -3.0232   -3.6924    1.0038 H   0  0  0  0  0  0  0  0  0  0  0  0
   -3.0082   -2.6684    0.6318 C   0  0  0  0  0  0  0  0  0  0  0  0
   -3.6332   -2.0414    1.2658 H   0  0  0  0  0  0  0  0  0  0  0  0
   -3.3762   -2.6444   -0.3912 H   0  0  0  0  0  0  0  0  0  0  0  0
   -1.5882   -2.1554    0.6658 C   0  0  0  0  0  0  0  0  0  0  0  0
   -0.6832   -2.8764    1.0638 O   0  0  0  0  0  0  0  0  0  0  0  0
   -1.3952   -0.9084    0.2428 N   0  0  0  0  0  0  0  0  0  0  0  0
   -2.1972   -0.3644   -0.0422 H   0  0  0  0  0  0  0  0  0  0  0  0
   -0.1122   -0.1994    0.2658 C   0  0  1  0  0  0  0  0  0  0  0  0
    0.5635   -0.7260    0.9446 H   0  0  0  0  0  0  0  0  0  0  0  0
    0.4924   -0.2204   -1.1558 C   0  0  0  0  0  0  0  0  0  0  0  0
    0.1778   -1.1309   -1.6646 H   0  0  0  0  0  0  0  0  0  0  0  0
    0.1172    0.6332   -1.7183 H   0  0  0  0  0  0  0  0  0  0  0  0
    2.0123   -0.2040   -1.1816 C   0  0  0  0  0  0  0  0  0  0  0  0
    2.6927   -0.1767   -0.1708 O   0  0  0  0  0  0  0  0  0  0  0  0
    2.6045   -0.2108   -2.3510 N   0  0  0  0  0  0  0  0  0  0  0  0
    3.6091   -0.2174   -2.3369 H   0  0  0  0  0  0  0  0  0  0  0  0
    2.0677   -0.2524   -3.1968 H   0  0  0  0  0  0  0  0  0  0  0  0
   -0.3126    1.2341    0.8050 C   0  0  0  0  0  0  0  0  0  0  0  0
   -1.2484    1.9199    0.3934 O   0  0  0  0  0  0  0  0  0  0  0  0
    0.5615    1.6875    1.7087 N   0  0  0  0  0  0  0  0  0  0  0  0
    1.3461    1.0849    1.9358 H   0  0  0  0  0  0  0  0  0  0  0  0
    0.5043    3.0121    2.3242 C   0  0  0  0  0  0  0  0  0  0  0  0
   -0.4649    3.1514    2.8080 H   0  0  0  0  0  0  0  0  0  0  0  0
    1.2959    3.1139    3.0678 H   0  0  0  0  0  0  0  0  0  0  0  0
    0.6273    3.7799    1.5584 H   0  0  0  0  0  0  0  0  0  0  0  0
  5  6  2  0  0  0  0
  5  7  1  0  0  0  0
  2  3  1  0  0  0  0
  2  4  1  0  0  0  0
  2  5  1  0  0  0  0
  1  2  1  0  0  0  0
 19 20  2  0  0  0  0
 19 21  1  0  0  0  0
 16 17  1  0  0  0  0
 16 18  1  0  0  0  0
 14 15  2  0  0  0  0
 14 16  1  0  0  0  0
 11 12  1  0  0  0  0
 11 13  1  0  0  0  0
 11 14  1  0  0  0  0
  9 10  1  0  0  0  0
  9 11  1  0  0  0  0
  9 19  1  0  0  0  0
  7  8  1  0  0  0  0
  7  9  1  0  0  0  0
 23 24  1  0  0  0  0
 23 25  1  0  0  0  0
 23 26  1  0  0  0  0
 21 22  1  0  0  0  0
 21 23  1  0  0  0  0
M  END
$$$$
default_name
  -OEChem-02102213163D

 26 25  0     1  0  0  0  0  0999 V2000
   -3.0232   -3.6924    1.0038 H   0  0  0  0  0  0  0  0  0  0  0  0
   -3.0082   -2.6684    0.6318 C   0  0  0  0  0  0  0  0  0  0  0  0
   -3.6332   -2.0414    1.2658 H   0  0  0  0  0  0  0  0  0  0  0  0
   -3.3762   -2.6444   -0.3912 H   0  0  0  0  0  0  0  0  0  0  0  0
   -1.5882   -2.1554    0.6658 C   0  0  0  0  0  0  0  0  0  0  0  0
   -0.6832   -2.8764    1.0638 O   0  0  0  0  0  0  0  0  0  0  0  0
   -1.3952   -0.9084    0.2428 N   0  0  0  0  0  0  0  0  0  0  0  0
   -2.1972   -0.3644   -0.0422 H   0  0  0  0  0  0  0  0  0  0  0  0
   -0.1122   -0.1994    0.2658 C   0  0  1  0  0  0  0  0  0  0  0  0
    0.5635   -0.7260    0.9446 H   0  0  0  0  0  0  0  0  0  0  0  0
    0.4924   -0.2204   -1.1558 C   0  0  0  0  0  0  0  0  0  0  0  0
    0.1778   -1.1309   -1.6646 H   0  0  0  0  0  0  0  0  0  0  0  0
    0.1172    0.6332   -1.7183 H   0  0  0  0  0  0  0  0  0  0  0  0
    2.0123   -0.2040   -1.1816 C   0  0  0  0  0  0  0  0  0  0  0  0
    2.6950   -0.4420   -0.2005 O   0  0  0  0  0  0  0  0  0  0  0  0
    2.6018    0.0896   -2.3150 N   0  0  0  0  0  0  0  0  0  0  0  0
    3.6065    0.0757   -2.3063 H   0  0  0  0  0  0  0  0  0  0  0  0
    2.0630    0.2705   -3.1408 H   0  0  0  0  0  0  0  0  0  0  0  0
   -0.3126    1.2341    0.8050 C   0  0  0  0  0  0  0  0  0  0  0  0
   -1.2484    1.9199    0.3934 O   0  0  0  0  0  0  0  0  0  0  0  0
    0.5615    1.6875    1.7087 N   0  0  0  0  0  0  0  0  0  0  0  0
    1.3461    1.0849    1.9358 H   0  0  0  0  0  0  0  0  0  0  0  0
    0.5043    3.0121    2.3242 C   0  0  0  0  0  0  0  0  0  0  0  0
   -0.4649    3.1514    2.8080 H   0  0  0  0  0  0  0  0  0  0  0  0
    1.2959    3.1139    3.0678 H   0  0  0  0  0  0  0  0  0  0  0  0
    0.6273    3.7799    1.5584 H   0  0  0  0  0  0  0  0  0  0  0  0
  5  6  2  0  0  0  0
  5  7  1  0  0  0  0
  2  3  1  0  0  0  0
  2  4  1  0  0  0  0
  2  5  1  0  0  0  0
  1  2  1  0  0  0  0
 19 20  2  0  0  0  0
 19 21  1  0  0  0  0
 16 17  1  0  0  0  0
 16 18  1  0  0  0  0
 14 15  2  0  0  0  0
 14 16  1  0  0  0  0
 11 12  1  0  0  0  0
 11 13  1  0  0  0  0
 11 14  1  0  0  0  0
  9 10  1  0  0  0  0
  9 11  1  0  0  0  0
  9 19  1  0  0  0  0
  7  8  1  0  0  0  0
  7  9  1  0  0  0  0
 23 24  1  0  0  0  0
 23 25  1  0  0  0  0
 23 26  1  0  0  0  0
 21 22  1  0  0  0  0
 21 23  1  0  0  0  0
M  END
$$$$
default_name
  -OEChem-02102213163D

 26 25  0     1  0  0  0  0  0999 V2000
   -3.0232   -3.6924    1.0038 H   0  0  0  0  0  0  0  0  0  0  0  0
   -3.0082   -2.6684    0.6318 C   0  0  0  0  0  0  0  0  0  0  0  0
   -3.6332   -2.0414    1.2658 H   0  0  0  0  0  0  0  0  0  0  0  0
   -3.3762   -2.6444   -0.3912 H   0  0  0  0  0  0  0  0  0  0  0  0
   -1.5882   -2.1554    0.6658 C   0  0  0  0  0  0  0  0  0  0  0  0
   -0.6832   -2.8764    1.0638 O   0  0  0  0  0  0  0  0  0  0  0  0
   -1.3952   -0.9084    0.2428 N   0  0  0  0  0  0  0  0  0  0  0  0
   -2.1972   -0.3644   -0.0422 H   0  0  0  0  0  0  0  0  0  0  0  0
   -0.1122   -0.1994    0.2658 C   0  0  1  0  0  0  0  0  0  0  0  0
    0.5635   -0.7260    0.9446 H   0  0  0  0  0  0  0  0  0  0  0  0
    0.4924   -0.2204   -1.1558 C   0  0  0  0  0  0  0  0  0  0  0  0
    0.1778   -1.1309   -1.6646 H   0  0  0  0  0  0  0  0  0  0  0  0
    0.1172    0.6332   -1.7183 H   0  0  0  0  0  0  0  0  0  0  0  0
    2.0123   -0.2040   -1.1816 C   0  0  0  0  0  0  0  0  0  0  0  0
    2.6961   -0.6905   -0.2978 O   0  0  0  0  0  0  0  0  0  0  0  0
    2.6007    0.3706   -2.2023 N   0  0  0  0  0  0  0  0  0  0  0  0
    3.6053    0.3508   -2.2010 H   0  0  0  0  0  0  0  0  0  0  0  0
    2.0610    0.7612   -2.9515 H   0  0  0  0  0  0  0  0  0  0  0  0
   -0.3126    1.2341    0.8050 C   0  0  0  0  0  0  0  0  0  0  0  0
   -1.2484    1.9199    0.3934 O   0  0  0  0  0  0  0  0  0  0  0  0
    0.5615    1.6875    1.7087 N   0  0  0  0  0  0  0  0  0  0  0  0
    1.3461    1.0849    1.9358 H   0  0  0  0  0  0  0  0  0  0  0  0
    0.5043    3.0121    2.3242 C   0  0  0  0  0  0  0  0  0  0  0  0
   -0.4649    3.1514    2.8080 H   0  0  0  0  0  0  0  0  0  0  0  0
    1.2959    3.1139    3.0678 H   0  0  0  0  0  0  0  0  0  0  0  0
    0.6273    3.7799    1.5584 H   0  0  0  0  0  0  0  0  0  0  0  0
  5  6  2  0  0  0  0
  5  7  1  0  0  0  0
  2  3  1  0  0  0  0
  2  4  1  0  0  0  0
  2  5  1  0  0  0  0
  1  2  1  0  0  0  0
 19 20  2  0  0  0  0
 19 21  1  0  0  0  0
 16 17  1  0  0  0  0
 16 18  1  0  0  0  0
 14 15  2  0  0  0  0
 14 16  1  0  0  0  0
 11 12  1  0  0  0  0
 11 13  1  0  0  0  0
 11 14  1  0  0  0  0
  9 10  1  0  0  0  0
  9 11  1  0  0  0  0
  9 19  1  0  0  0  0
  7  8  1  0  0  0  0
  7  9  1  0  0  0  0
 23 24  1  0  0  0  0
 23 25  1  0  0  0  0
 23 26  1  0  0  0  0
 21 22  1  0  0  0  0
 21 23  1  0  0  0  0
M  END
$$$$
default_name
  -OEChem-02102213163D

 26 25  0     1  0  0  0  0  0999 V2000
   -3.0232   -3.6924    1.0038 H   0  0  0  0  0  0  0  0  0  0  0  0
   -3.0082   -2.6684    0.6318 C   0  0  0  0  0  0  0  0  0  0  0  0
   -3.6332   -2.0414    1.2658 H   0  0  0  0  0  0  0  0  0  0  0  0
   -3.3762   -2.6444   -0.3912 H   0  0  0  0  0  0  0  0  0  0  0  0
   -1.5882   -2.1554    0.6658 C   0  0  0  0  0  0  0  0  0  0  0  0
   -0.6832   -2.8764    1.0638 O   0  0  0  0  0  0  0  0  0  0  0  0
   -1.3952   -0.9084    0.2428 N   0  0  0  0  0  0  0  0  0  0  0  0
   -2.1972   -0.3644   -0.0422 H   0  0  0  0  0  0  0  0  0  0  0  0
   -0.1122   -0.1994    0.2658 C   0  0  1  0  0  0  0  0  0  0  0  0
    0.5635   -0.7260    0.9446 H   0  0  0  0  0  0  0  0  0  0  0  0
    0.4924   -0.2204   -1.1558 C   0  0  0  0  0  0  0  0  0  0  0  0
    0.1778   -1.1309   -1.6646 H   0  0  0  0  0  0  0  0  0  0  0  0
    0.1172    0.6332   -1.7183 H   0  0  0  0  0  0  0  0  0  0  0  0
    2.0123   -0.2040   -1.1816 C   0  0  0  0  0  0  0  0  0  0  0  0
    2.6957   -0.9053   -0.4560 O   0  0  0  0  0  0  0  0  0  0  0  0
    2.6012    0.6128   -2.0209 N   0  0  0  0  0  0  0  0  0  0  0  0
    3.6057    0.5893   -2.0281 H   0  0  0  0  0  0  0  0  0  0  0  0
    2.0616    1.1861   -2.6416 H   0  0  0  0  0  0  0  0  0  0  0  0
   -0.3126    1.2341    0.8050 C   0  0  0  0  0  0  0  0  0  0  0  0
   -1.2484    1.9199    0.3934 O   0  0  0  0  0  0  0  0  0  0  0  0
    0.5615    1.6875    1.7087 N   0  0  0  0  0  0  0  0  0  0  0  0
    1.3461    1.0849    1.9358 H   0  0  0  0  0  0  0  0  0  0  0  0
    0.5043    3.0121    2.3242 C   0  0  0  0  0  0  0  0  0  0  0  0
   -0.4649    3.1514    2.8080 H   0  0  0  0  0  0  0  0  0  0  0  0
    1.2959    3.1139    3.0678 H   0  0  0  0  0  0  0  0  0  0  0  0
    0.6273    3.7799    1.5584 H   0  0  0  0  0  0  0  0  0  0  0  0
  5  6  2  0  0  0  0
  5  7  1  0  0  0  0
  2  3  1  0  0  0  0
  2  4  1  0  0  0  0
  2  5  1  0  0  0  0
  1  2  1  0  0  0  0
 19 20  2  0  0  0  0
 19 21  1  0  0  0  0
 16 17  1  0  0  0  0
 16 18  1  0  0  0  0
 14 15  2  0  0  0  0
 14 16  1  0  0  0  0
 11 12  1  0  0  0  0
 11 13  1  0  0  0  0
 11 14  1  0  0  0  0
  9 10  1  0  0  0  0
  9 11  1  0  0  0  0
  9 19  1  0  0  0  0
  7  8  1  0  0  0  0
  7  9  1  0  0  0  0
 23 24  1  0  0  0  0
 23 25  1  0  0  0  0
 23 26  1  0  0  0  0
 21 22  1  0  0  0  0
 21 23  1  0  0  0  0
M  END
$$$$
default_name
  -OEChem-02102213163D

 26 25  0     1  0  0  0  0  0999 V2000
   -3.0232   -3.6924    1.0038 H   0  0  0  0  0  0  0  0  0  0  0  0
   -3.0082   -2.6684    0.6318 C   0  0  0  0  0  0  0  0  0  0  0  0
   -3.6332   -2.0414    1.2658 H   0  0  0  0  0  0  0  0  0  0  0  0
   -3.3762   -2.6444   -0.3912 H   0  0  0  0  0  0  0  0  0  0  0  0
   -1.5882   -2.1554    0.6658 C   0  0  0  0  0  0  0  0  0  0  0  0
   -0.6832   -2.8764    1.0638 O   0  0  0  0  0  0  0  0  0  0  0  0
   -1.3952   -0.9084    0.2428 N   0  0  0  0  0  0  0  0  0  0  0  0
   -2.1972   -0.3644   -0.0422 H   0  0  0  0  0  0  0  0  0  0  0  0
   -0.1122   -0.1994    0.2658 C   0  0  1  0  0  0  0  0  0  0  0  0
    0.5635   -0.7260    0.9446 H   0  0  0  0  0  0  0  0  0  0  0  0
    0.4924   -0.2204   -1.1558 C   0  0  0  0  0  0  0  0  0  0  0  0
    0.1778   -1.1309   -1.6646 H   0  0  0  0  0  0  0  0  0  0  0  0
    0.1172    0.6332   -1.7183 H   0  0  0  0  0  0  0  0  0  0  0  0
    2.0123   -0.2040   -1.1816 C   0  0  0  0  0  0  0  0  0  0  0  0
    2.6940   -1.0719   -0.6645 O   0  0  0  0  0  0  0  0  0  0  0  0
    2.6032    0.7998   -1.7829 N   0  0  0  0  0  0  0  0  0  0  0  0
    3.6075    0.7749   -1.7993 H   0  0  0  0  0  0  0  0  0  0  0  0
    2.0650    1.5163   -2.2323 H   0  0  0  0  0  0  0  0  0  0  0  0
   -0.3126    1.2341    0.8050 C   0  0  0  0  0  0  0  0  0  0  0  0
   -1.2484    1.9199    0.3934 O   0  0  0  0  0  0  0  0  0  0  0  0
    0.5615    1.6875    1.7087 N   0  0  0  0  0  0  0  0  0  0  0  0
    1.3461    1.0849    1.9358 H   0  0  0  0  0  0  0  0  0  0  0  0
    0.5043    3.0121    2.3242 C   0  0  0  0  0  0  0  0  0  0  0  0
   -0.4649    3.1514    2.8080 H   0  0  0  0  0  0  0  0  0  0  0  0
    1.2959    3.1139    3.0678 H   0  0  0  0  0  0  0  0  0  0  0  0
    0.6273    3.7799    1.5584 H   0  0  0  0  0  0  0  0  0  0  0  0
  5  6  2  0  0  0  0
  5  7  1  0  0  0  0
  2  3  1  0  0  0  0
  2  4  1  0  0  0  0
  2  5  1  0  0  0  0
  1  2  1  0  0  0  0
 19 20  2  0  0  0  0
 19 21  1  0  0  0  0
 16 17  1  0  0  0  0
 16 18  1  0  0  0  0
 14 15  2  0  0  0  0
 14 16  1  0  0  0  0
 11 12  1  0  0  0  0
 11 13  1  0  0  0  0
 11 14  1  0  0  0  0
  9 10  1  0  0  0  0
  9 11  1  0  0  0  0
  9 19  1  0  0  0  0
  7  8  1  0  0  0  0
  7  9  1  0  0  0  0
 23 24  1  0  0  0  0
 23 25  1  0  0  0  0
 23 26  1  0  0  0  0
 21 22  1  0  0  0  0
 21 23  1  0  0  0  0
M  END
$$$$
default_name
  -OEChem-02102213163D

 26 25  0     1  0  0  0  0  0999 V2000
   -3.0232   -3.6924    1.0038 H   0  0  0  0  0  0  0  0  0  0  0  0
   -3.0082   -2.6684    0.6318 C   0  0  0  0  0  0  0  0  0  0  0  0
   -3.6332   -2.0414    1.2658 H   0  0  0  0  0  0  0  0  0  0  0  0
   -3.3762   -2.6444   -0.3912 H   0  0  0  0  0  0  0  0  0  0  0  0
   -1.5882   -2.1554    0.6658 C   0  0  0  0  0  0  0  0  0  0  0  0
   -0.6832   -2.8764    1.0638 O   0  0  0  0  0  0  0  0  0  0  0  0
   -1.3952   -0.9084    0.2428 N   0  0  0  0  0  0  0  0  0  0  0  0
   -2.1972   -0.3644   -0.0422 H   0  0  0  0  0  0  0  0  0  0  0  0
   -0.1122   -0.1994    0.2658 C   0  0  1  0  0  0  0  0  0  0  0  0
    0.5635   -0.7260    0.9446 H   0  0  0  0  0  0  0  0  0  0  0  0
    0.4924   -0.2204   -1.1558 C   0  0  0  0  0  0  0  0  0  0  0  0
    0.1778   -1.1309   -1.6646 H   0  0  0  0  0  0  0  0  0  0  0  0
    0.1172    0.6332   -1.7183 H   0  0  0  0  0  0  0  0  0  0  0  0
    2.0123   -0.2040   -1.1816 C   0  0  0  0  0  0  0  0  0  0  0  0
    2.6910   -1.1789   -0.9090 O   0  0  0  0  0  0  0  0  0  0  0  0
    2.6066    0.9188   -1.5047 N   0  0  0  0  0  0  0  0  0  0  0  0
    3.6108    0.8950   -1.5303 H   0  0  0  0  0  0  0  0  0  0  0  0
    2.0708    1.7294   -1.7515 H   0  0  0  0  0  0  0  0  0  0  0  0
   -0.3126    1.2341    0.8050 C   0  0  0  0  0  0  0  0  0  0  0  0
   -1.2484    1.9199    0.3934 O   0  0  0  0  0  0  0  0  0  0  0  0
    0.5615    1.6875    1.7087 N   0  0  0  0  0  0  0  0  0  0  0  0
    1.3461    1.0849    1.9358 H   0  0  0  0  0  0  0  0  0  0  0  0
    0.5043    3.0121    2.3242 C   0  0  0  0  0  0  0  0  0  0  0  0
   -0.4649    3.1514    2.8080 H   0  0  0  0  0  0  0  0  0  0  0  0
    1.2959    3.1139    3.0678 H   0  0  0  0  0  0  0  0  0  0  0  0
    0.6273    3.7799    1.5584 H   0  0  0  0  0  0  0  0  0  0  0  0
  5  6  2  0  0  0  0
  5  7  1  0  0  0  0
  2  3  1  0  0  0  0
  2  4  1  0  0  0  0
  2  5  1  0  0  0  0
  1  2  1  0  0  0  0
 19 20  2  0  0  0  0
 19 21  1  0  0  0  0
 16 17  1  0  0  0  0
 16 18  1  0  0  0  0
 14 15  2  0  0  0  0
 14 16  1  0  0  0  0
 11 12  1  0  0  0  0
 11 13  1  0  0  0  0
 11 14  1  0  0  0  0
  9 10  1  0  0  0  0
  9 11  1  0  0  0  0
  9 19  1  0  0  0  0
  7  8  1  0  0  0  0
  7  9  1  0  0  0  0
 23 24  1  0  0  0  0
 23 25  1  0  0  0  0
 23 26  1  0  0  0  0
 21 22  1  0  0  0  0
 21 23  1  0  0  0  0
M  END
$$$$
default_name
  -OEChem-02102213163D

 26 25  0     1  0  0  0  0  0999 V2000
   -3.0232   -3.6924    1.0038 H   0  0  0  0  0  0  0  0  0  0  0  0
   -3.0082   -2.6684    0.6318 C   0  0  0  0  0  0  0  0  0  0  0  0
   -3.6332   -2.0414    1.2658 H   0  0  0  0  0  0  0  0  0  0  0  0
   -3.3762   -2.6444   -0.3912 H   0  0  0  0  0  0  0  0  0  0  0  0
   -1.5882   -2.1554    0.6658 C   0  0  0  0  0  0  0  0  0  0  0  0
   -0.6832   -2.8764    1.0638 O   0  0  0  0  0  0  0  0  0  0  0  0
   -1.3952   -0.9084    0.2428 N   0  0  0  0  0  0  0  0  0  0  0  0
   -2.1972   -0.3644   -0.0422 H   0  0  0  0  0  0  0  0  0  0  0  0
   -0.1122   -0.1994    0.2658 C   0  0  1  0  0  0  0  0  0  0  0  0
    0.5635   -0.7260    0.9446 H   0  0  0  0  0  0  0  0  0  0  0  0
    0.4924   -0.2204   -1.1558 C   0  0  0  0  0  0  0  0  0  0  0  0
    0.1778   -1.1309   -1.6646 H   0  0  0  0  0  0  0  0  0  0  0  0
    0.1172    0.6332   -1.7183 H   0  0  0  0  0  0  0  0  0  0  0  0
    2.0123   -0.2040   -1.1816 C   0  0  0  0  0  0  0  0  0  0  0  0
    2.6869   -1.2189   -1.1728 O   0  0  0  0  0  0  0  0  0  0  0  0
    2.6112    0.9618   -1.2051 N   0  0  0  0  0  0  0  0  0  0  0  0
    3.6152    0.9414   -1.2395 H   0  0  0  0  0  0  0  0  0  0  0  0
    2.0788    1.8108   -1.2320 H   0  0  0  0  0  0  0  0  0  0  0  0
   -0.3126    1.2341    0.8050 C   0  0  0  0  0  0  0  0  0  0  0  0
   -1.2484    1.9199    0.3934 O   0  0  0  0  0  0  0  0  0  0  0  0
    0.5615    1.6875    1.7087 N   0  0  0  0  0  0  0  0  0  0  0  0
    1.3461    1.0849    1.9358 H   0  0  0  0  0  0  0  0  0  0  0  0
    0.5043    3.0121    2.3242 C   0  0  0  0  0  0  0  0  0  0  0  0
   -0.4649    3.1514    2.8080 H   0  0  0  0  0  0  0  0  0  0  0  0
    1.2959    3.1139    3.0678 H   0  0  0  0  0  0  0  0  0  0  0  0
    0.6273    3.7799    1.5584 H   0  0  0  0  0  0  0  0  0  0  0  0
  5  6  2  0  0  0  0
  5  7  1  0  0  0  0
  2  3  1  0  0  0  0
  2  4  1  0  0  0  0
  2  5  1  0  0  0  0
  1  2  1  0  0  0  0
 19 20  2  0  0  0  0
 19 21  1  0  0  0  0
 16 17  1  0  0  0  0
 16 18  1  0  0  0  0
 14 15  2  0  0  0  0
 14 16  1  0  0  0  0
 11 12  1  0  0  0  0
 11 13  1  0  0  0  0
 11 14  1  0  0  0  0
  9 10  1  0  0  0  0
  9 11  1  0  0  0  0
  9 19  1  0  0  0  0
  7  8  1  0  0  0  0
  7  9  1  0  0  0  0
 23 24  1  0  0  0  0
 23 25  1  0  0  0  0
 23 26  1  0  0  0  0
 21 22  1  0  0  0  0
 21 23  1  0  0  0  0
M  END
$$$$
default_name
  -OEChem-02102213163D

 26 25  0     1  0  0  0  0  0999 V2000
   -3.0232   -3.6924    1.0038 H   0  0  0  0  0  0  0  0  0  0  0  0
   -3.0082   -2.6684    0.6318 C   0  0  0  0  0  0  0  0  0  0  0  0
   -3.6332   -2.0414    1.2658 H   0  0  0  0  0  0  0  0  0  0  0  0
   -3.3762   -2.6444   -0.3912 H   0  0  0  0  0  0  0  0  0  0  0  0
   -1.5882   -2.1554    0.6658 C   0  0  0  0  0  0  0  0  0  0  0  0
   -0.6832   -2.8764    1.0638 O   0  0  0  0  0  0  0  0  0  0  0  0
   -1.3952   -0.9084    0.2428 N   0  0  0  0  0  0  0  0  0  0  0  0
   -2.1972   -0.3644   -0.0422 H   0  0  0  0  0  0  0  0  0  0  0  0
   -0.1122   -0.1994    0.2658 C   0  0  1  0  0  0  0  0  0  0  0  0
    0.5635   -0.7260    0.9446 H   0  0  0  0  0  0  0  0  0  0  0  0
    0.4924   -0.2204   -1.1558 C   0  0  0  0  0  0  0  0  0  0  0  0
    0.1778   -1.1309   -1.6646 H   0  0  0  0  0  0  0  0  0  0  0  0
    0.1172    0.6332   -1.7183 H   0  0  0  0  0  0  0  0  0  0  0  0
    2.0123   -0.2040   -1.1816 C   0  0  0  0  0  0  0  0  0  0  0  0
    2.6821   -1.1893   -1.4380 O   0  0  0  0  0  0  0  0  0  0  0  0
    2.6167    0.9258   -0.9047 N   0  0  0  0  0  0  0  0  0  0  0  0
    3.6205    0.9110   -0.9465 H   0  0  0  0  0  0  0  0  0  0  0  0
    2.0882    1.7549   -0.7092 H   0  0  0  0  0  0  0  0  0  0  0  0
   -0.3126    1.2341    0.8050 C   0  0  0  0  0  0  0  0  0  0  0  0
   -1.2484    1.9199    0.3934 O   0  0  0  0  0  0  0  0  0  0  0  0
    0.5615    1.6875    1.7087 N   0  0  0  0  0  0  0  0  0  0  0  0
    1.3461    1.0849    1.9358 H   0  0  0  0  0  0  0  0  0  0  0  0
    0.5043    3.0121    2.3242 C   0  0  0  0  0  0  0  0  0  0  0  0
   -0.4649    3.1514    2.8080 H   0  0  0  0  0  0  0  0  0  0  0  0
    1.2959    3.1139    3.0678 H   0  0  0  0  0  0  0  0  0  0  0  0
    0.6273    3.7799    1.5584 H   0  0  0  0  0  0  0  0  0  0  0  0
  5  6  2  0  0  0  0
  5  7  1  0  0  0  0
  2  3  1  0  0  0  0
  2  4  1  0  0  0  0
  2  5  1  0  0  0  0
  1  2  1  0  0  0  0
 19 20  2  0  0  0  0
 19 21  1  0  0  0  0
 16 17  1  0  0  0  0
 16 18  1  0  0  0  0
 14 15  2  0  0  0  0
 14 16  1  0  0  0  0
 11 12  1  0  0  0  0
 11 13  1  0  0  0  0
 11 14  1  0  0  0  0
  9 10  1  0  0  0  0
  9 11  1  0  0  0  0
  9 19  1  0  0  0  0
  7  8  1  0  0  0  0
  7  9  1  0  0  0  0
 23 24  1  0  0  0  0
 23 25  1  0  0  0  0
 23 26  1  0  0  0  0
 21 22  1  0  0  0  0
 21 23  1  0  0  0  0
M  END
$$$$
default_name
  -OEChem-02102213163D

 26 25  0     1  0  0  0  0  0999 V2000
   -3.0232   -3.6924    1.0038 H   0  0  0  0  0  0  0  0  0  0  0  0
   -3.0082   -2.6684    0.6318 C   0  0  0  0  0  0  0  0  0  0  0  0
   -3.6332   -2.0414    1.2658 H   0  0  0  0  0  0  0  0  0  0  0  0
   -3.3762   -2.6444   -0.3912 H   0  0  0  0  0  0  0  0  0  0  0  0
   -1.5882   -2.1554    0.6658 C   0  0  0  0  0  0  0  0  0  0  0  0
   -0.6832   -2.8764    1.0638 O   0  0  0  0  0  0  0  0  0  0  0  0
   -1.3952   -0.9084    0.2428 N   0  0  0  0  0  0  0  0  0  0  0  0
   -2.1972   -0.3644   -0.0422 H   0  0  0  0  0  0  0  0  0  0  0  0
   -0.1122   -0.1994    0.2658 C   0  0  1  0  0  0  0  0  0  0  0  0
    0.5635   -0.7260    0.9446 H   0  0  0  0  0  0  0  0  0  0  0  0
    0.4924   -0.2204   -1.1558 C   0  0  0  0  0  0  0  0  0  0  0  0
    0.1778   -1.1309   -1.6646 H   0  0  0  0  0  0  0  0  0  0  0  0
    0.1172    0.6332   -1.7183 H   0  0  0  0  0  0  0  0  0  0  0  0
    2.0123   -0.2040   -1.1816 C   0  0  0  0  0  0  0  0  0  0  0  0
    2.6769   -1.0921   -1.6865 O   0  0  0  0  0  0  0  0  0  0  0  0
    2.6227    0.8132   -0.6238 N   0  0  0  0  0  0  0  0  0  0  0  0
    3.6263    0.8057   -0.6714 H   0  0  0  0  0  0  0  0  0  0  0  0
    2.0986    1.5656   -0.2186 H   0  0  0  0  0  0  0  0  0  0  0  0
   -0.3126    1.2341    0.8050 C   0  0  0  0  0  0  0  0  0  0  0  0
   -1.2484    1.9199    0.3934 O   0  0  0  0  0  0  0  0  0  0  0  0
    0.5615    1.6875    1.7087 N   0  0  0  0  0  0  0  0  0  0  0  0
    1.3461    1.0849    1.9358 H   0  0  0  0  0  0  0  0  0  0  0  0
    0.5043    3.0121    2.3242 C   0  0  0  0  0  0  0  0  0  0  0  0
   -0.4649    3.1514    2.8080 H   0  0  0  0  0  0  0  0  0  0  0  0
    1.2959    3.1139    3.0678 H   0  0  0  0  0  0  0  0  0  0  0  0
    0.6273    3.7799    1.5584 H   0  0  0  0  0  0  0  0  0  0  0  0
  5  6  2  0  0  0  0
  5  7  1  0  0  0  0
  2  3  1  0  0  0  0
  2  4  1  0  0  0  0
  2  5  1  0  0  0  0
  1  2  1  0  0  0  0
 19 20  2  0  0  0  0
 19 21  1  0  0  0  0
 16 17  1  0  0  0  0
 16 18  1  0  0  0  0
 14 15  2  0  0  0  0
 14 16  1  0  0  0  0
 11 12  1  0  0  0  0
 11 13  1  0  0  0  0
 11 14  1  0  0  0  0
  9 10  1  0  0  0  0
  9 11  1  0  0  0  0
  9 19  1  0  0  0  0
  7  8  1  0  0  0  0
  7  9  1  0  0  0  0
 23 24  1  0  0  0  0
 23 25  1  0  0  0  0
 23 26  1  0  0  0  0
 21 22  1  0  0  0  0
 21 23  1  0  0  0  0
M  END
$$$$
default_name
  -OEChem-02102213163D

 26 25  0     1  0  0  0  0  0999 V2000
   -3.0232   -3.6924    1.0038 H   0  0  0  0  0  0  0  0  0  0  0  0
   -3.0082   -2.6684    0.6318 C   0  0  0  0  0  0  0  0  0  0  0  0
   -3.6332   -2.0414    1.2658 H   0  0  0  0  0  0  0  0  0  0  0  0
   -3.3762   -2.6444   -0.3912 H   0  0  0  0  0  0  0  0  0  0  0  0
   -1.5882   -2.1554    0.6658 C   0  0  0  0  0  0  0  0  0  0  0  0
   -0.6832   -2.8764    1.0638 O   0  0  0  0  0  0  0  0  0  0  0  0
   -1.3952   -0.9084    0.2428 N   0  0  0  0  0  0  0  0  0  0  0  0
   -2.1972   -0.3644   -0.0422 H   0  0  0  0  0  0  0  0  0  0  0  0
   -0.1122   -0.1994    0.2658 C   0  0  1  0  0  0  0  0  0  0  0  0
    0.5635   -0.7260    0.9446 H   0  0  0  0  0  0  0  0  0  0  0  0
    0.4924   -0.2204   -1.1558 C   0  0  0  0  0  0  0  0  0  0  0  0
    0.1778   -1.1309   -1.6646 H   0  0  0  0  0  0  0  0  0  0  0  0
    0.1172    0.6332   -1.7183 H   0  0  0  0  0  0  0  0  0  0  0  0
    2.0123   -0.2040   -1.1816 C   0  0  0  0  0  0  0  0  0  0  0  0
    2.6715   -0.9338   -1.9013 O   0  0  0  0  0  0  0  0  0  0  0  0
    2.6287    0.6317   -0.3816 N   0  0  0  0  0  0  0  0  0  0  0  0
    3.6322    0.6328   -0.4329 H   0  0  0  0  0  0  0  0  0  0  0  0
    2.1091    1.2558    0.2062 H   0  0  0  0  0  0  0  0  0  0  0  0
   -0.3126    1.2341    0.8050 C   0  0  0  0  0  0  0  0  0  0  0  0
   -1.2484    1.9199    0.3934 O   0  0  0  0  0  0  0  0  0  0  0  0
    0.5615    1.6875    1.7087 N   0  0  0  0  0  0  0  0  0  0  0  0
    1.3461    1.0849    1.9358 H   0  0  0  0  0  0  0  0  0  0  0  0
    0.5043    3.0121    2.3242 C   0  0  0  0  0  0  0  0  0  0  0  0
   -0.4649    3.1514    2.8080 H   0  0  0  0  0  0  0  0  0  0  0  0
    1.2959    3.1139    3.0678 H   0  0  0  0  0  0  0  0  0  0  0  0
    0.6273    3.7799    1.5584 H   0  0  0  0  0  0  0  0  0  0  0  0
  5  6  2  0  0  0  0
  5  7  1  0  0  0  0
  2  3  1  0  0  0  0
  2  4  1  0  0  0  0
  2  5  1  0  0  0  0
  1  2  1  0  0  0  0
 19 20  2  0  0  0  0
 19 21  1  0  0  0  0
 16 17  1  0  0  0  0
 16 18  1  0  0  0  0
 14 15  2  0  0  0  0
 14 16  1  0  0  0  0
 11 12  1  0  0  0  0
 11 13  1  0  0  0  0
 11 14  1  0  0  0  0
  9 10  1  0  0  0  0
  9 11  1  0  0  0  0
  9 19  1  0  0  0  0
  7  8  1  0  0  0  0
  7  9  1  0  0  0  0
 23 24  1  0  0  0  0
 23 25  1  0  0  0  0
 23 26  1  0  0  0  0
 21 22  1  0  0  0  0
 21 23  1  0  0  0  0
M  END
$$$$
default_name
  -OEChem-02102213163D

 26 25  0     1  0  0  0  0  0999 V2000
   -3.0232   -3.6924    1.0038 H   0  0  0  0  0  0  0  0  0  0  0  0
   -3.0082   -2.6684    0.6318 C   0  0  0  0  0  0  0  0  0  0  0  0
   -3.6332   -2.0414    1.2658 H   0  0  0  0  0  0  0  0  0  0  0  0
   -3.3762   -2.6444   -0.3912 H   0  0  0  0  0  0  0  0  0  0  0  0
   -1.5882   -2.1554    0.6658 C   0  0  0  0  0  0  0  0  0  0  0  0
   -0.6832   -2.8764    1.0638 O   0  0  0  0  0  0  0  0  0  0  0  0
   -1.3952   -0.9084    0.2428 N   0  0  0  0  0  0  0  0  0  0  0  0
   -2.1972   -0.3644   -0.0422 H   0  0  0  0  0  0  0  0  0  0  0  0
   -0.1122   -0.1994    0.2658 C   0  0  1  0  0  0  0  0  0  0  0  0
    0.5635   -0.7260    0.9446 H   0  0  0  0  0  0  0  0  0  0  0  0
    0.4924   -0.2204   -1.1558 C   0  0  0  0  0  0  0  0  0  0  0  0
    0.1778   -1.1309   -1.6646 H   0  0  0  0  0  0  0  0  0  0  0  0
    0.1172    0.6332   -1.7183 H   0  0  0  0  0  0  0  0  0  0  0  0
    2.0123   -0.2040   -1.1816 C   0  0  0  0  0  0  0  0  0  0  0  0
    2.6665   -0.7254   -2.0679 O   0  0  0  0  0  0  0  0  0  0  0  0
    2.6344    0.3938   -0.1947 N   0  0  0  0  0  0  0  0  0  0  0  0
    3.6378    0.4040   -0.2473 H   0  0  0  0  0  0  0  0  0  0  0  0
    2.1191    0.8466    0.5364 H   0  0  0  0  0  0  0  0  0  0  0  0
   -0.3126    1.2341    0.8050 C   0  0  0  0  0  0  0  0  0  0  0  0
   -1.2484    1.9199    0.3934 O   0  0  0  0  0  0  0  0  0  0  0  0
    0.5615    1.6875    1.7087 N   0  0  0  0  0  0  0  0  0  0  0  0
    1.3461    1.0849    1.9358 H   0  0  0  0  0  0  0  0  0  0  0  0
    0.5043    3.0121    2.3242 C   0  0  0  0  0  0  0  0  0  0  0  0
   -0.4649    3.1514    2.8080 H   0  0  0  0  0  0  0  0  0  0  0  0
    1.2959    3.1139    3.0678 H   0  0  0  0  0  0  0  0  0  0  0  0
    0.6273    3.7799    1.5584 H   0  0  0  0  0  0  0  0  0  0  0  0
  5  6  2  0  0  0  0
  5  7  1  0  0  0  0
  2  3  1  0  0  0  0
  2  4  1  0  0  0  0
  2  5  1  0  0  0  0
  1  2  1  0  0  0  0
 19 20  2  0  0  0  0
 19 21  1  0  0  0  0
 16 17  1  0  0  0  0
 16 18  1  0  0  0  0
 14 15  2  0  0  0  0
 14 16  1  0  0  0  0
 11 12  1  0  0  0  0
 11 13  1  0  0  0  0
 11 14  1  0  0  0  0
  9 10  1  0  0  0  0
  9 11  1  0  0  0  0
  9 19  1  0  0  0  0
  7  8  1  0  0  0  0
  7  9  1  0  0  0  0
 23 24  1  0  0  0  0
 23 25  1  0  0  0  0
 23 26  1  0  0  0  0
 21 22  1  0  0  0  0
 21 23  1  0  0  0  0
M  END
$$$$
default_name
  -OEChem-02102213163D

 26 25  0     1  0  0  0  0  0999 V2000
   -3.0232   -3.6924    1.0038 H   0  0  0  0  0  0  0  0  0  0  0  0
   -3.0082   -2.6684    0.6318 C   0  0  0  0  0  0  0  0  0  0  0  0
   -3.6332   -2.0414    1.2658 H   0  0  0  0  0  0  0  0  0  0  0  0
   -3.3762   -2.6444   -0.3912 H   0  0  0  0  0  0  0  0  0  0  0  0
   -1.5882   -2.1554    0.6658 C   0  0  0  0  0  0  0  0  0  0  0  0
   -0.6832   -2.8764    1.0638 O   0  0  0  0  0  0  0  0  0  0  0  0
   -1.3952   -0.9084    0.2428 N   0  0  0  0  0  0  0  0  0  0  0  0
   -2.1972   -0.3644   -0.0422 H   0  0  0  0  0  0  0  0  0  0  0  0
   -0.1122   -0.1994    0.2658 C   0  0  1  0  0  0  0  0  0  0  0  0
    0.5635   -0.7260    0.9446 H   0  0  0  0  0  0  0  0  0  0  0  0
    0.4924   -0.2204   -1.1558 C   0  0  0  0  0  0  0  0  0  0  0  0
    0.1778   -1.1309   -1.6646 H   0  0  0  0  0  0  0  0  0  0  0  0
    0.1172    0.6332   -1.7183 H   0  0  0  0  0  0  0  0  0  0  0  0
    2.0123   -0.2040   -1.1816 C   0  0  0  0  0  0  0  0  0  0  0  0
    2.6620   -0.4809   -2.1748 O   0  0  0  0  0  0  0  0  0  0  0  0
    2.6395    0.1155   -0.0757 N   0  0  0  0  0  0  0  0  0  0  0  0
    3.6428    0.1350   -0.1273 H   0  0  0  0  0  0  0  0  0  0  0  0
    2.1279    0.3658    0.7493 H   0  0  0  0  0  0  0  0  0  0  0  0
   -0.3126    1.2341    0.8050 C   0  0  0  0  0  0  0  0  0  0  0  0
   -1.2484    1.9199    0.3934 O   0  0  0  0  0  0  0  0  0  0  0  0
    0.5615    1.6875    1.7087 N   0  0  0  0  0  0  0  0  0  0  0  0
    1.3461    1.0849    1.9358 H   0  0  0  0  0  0  0  0  0  0  0  0
    0.5043    3.0121    2.3242 C   0  0  0  0  0  0  0  0  0  0  0  0
   -0.4649    3.1514    2.8080 H   0  0  0  0  0  0  0  0  0  0  0  0
    1.2959    3.1139    3.0678 H   0  0  0  0  0  0  0  0  0  0  0  0
    0.6273    3.7799    1.5584 H   0  0  0  0  0  0  0  0  0  0  0  0
  5  6  2  0  0  0  0
  5  7  1  0  0  0  0
  2  3  1  0  0  0  0
  2  4  1  0  0  0  0
  2  5  1  0  0  0  0
  1  2  1  0  0  0  0
 19 20  2  0  0  0  0
 19 21  1  0  0  0  0
 16 17  1  0  0  0  0
 16 18  1  0  0  0  0
 14 15  2  0  0  0  0
 14 16  1  0  0  0  0
 11 12  1  0  0  0  0
 11 13  1  0  0  0  0
 11 14  1  0  0  0  0
  9 10  1  0  0  0  0
  9 11  1  0  0  0  0
  9 19  1  0  0  0  0
  7  8  1  0  0  0  0
  7  9  1  0  0  0  0
 23 24  1  0  0  0  0
 23 25  1  0  0  0  0
 23 26  1  0  0  0  0
 21 22  1  0  0  0  0
 21 23  1  0  0  0  0
M  END
$$$$
default_name
  -OEChem-02102213163D

 26 25  0     1  0  0  0  0  0999 V2000
   -3.0232   -3.6924    1.0038 H   0  0  0  0  0  0  0  0  0  0  0  0
   -3.0082   -2.6684    0.6318 C   0  0  0  0  0  0  0  0  0  0  0  0
   -3.6332   -2.0414    1.2658 H   0  0  0  0  0  0  0  0  0  0  0  0
   -3.3762   -2.6444   -0.3912 H   0  0  0  0  0  0  0  0  0  0  0  0
   -1.5882   -2.1554    0.6658 C   0  0  0  0  0  0  0  0  0  0  0  0
   -0.6832   -2.8764    1.0638 O   0  0  0  0  0  0  0  0  0  0  0  0
   -1.3952   -0.9084    0.2428 N   0  0  0  0  0  0  0  0  0  0  0  0
   -2.1972   -0.3644   -0.0422 H   0  0  0  0  0  0  0  0  0  0  0  0
   -0.1122   -0.1994    0.2658 C   0  0  1  0  0  0  0  0  0  0  0  0
    0.5635   -0.7260    0.9446 H   0  0  0  0  0  0  0  0  0  0  0  0
    0.4924   -0.2204   -1.1558 C   0  0  0  0  0  0  0  0  0  0  0  0
   -0.0218   -0.9736   -1.7518 H   0  0  0  0  0  0  0  0  0  0  0  0
    0.3400    0.7503   -1.6253 H   0  0  0  0  0  0  0  0  0  0  0  0
    1.9728   -0.5642   -1.1931 C   0  0  0  0  0  0  0  0  0  0  0  0
    2.6135   -0.6266   -2.2278 O   0  0  0  0  0  0  0  0  0  0  0  0
    2.5723   -0.8112   -0.0538 N   0  0  0  0  0  0  0  0  0  0  0  0
    3.5540   -1.0182   -0.1076 H   0  0  0  0  0  0  0  0  0  0  0  0
    2.0720   -0.7478    0.8127 H   0  0  0  0  0  0  0  0  0  0  0  0
   -0.3126    1.2341    0.8050 C   0  0  0  0  0  0  0  0  0  0  0  0
   -1.2484    1.9199    0.3934 O   0  0  0  0  0  0  0  0  0  0  0  0
    0.5615    1.6875    1.7087 N   0  0  0  0  0  0  0  0  0  0  0  0
    1.3461    1.0849    1.9358 H   0  0  0  0  0  0  0  0  0  0  0  0
    0.5043    3.0121    2.3242 C   0  0  0  0  0  0  0  0  0  0  0  0
   -0.4649    3.1514    2.8080 H   0  0  0  0  0  0  0  0  0  0  0  0
    1.2959    3.1139    3.0678 H   0  0  0  0  0  0  0  0  0  0  0  0
    0.6273    3.7799    1.5584 H   0  0  0  0  0  0  0  0  0  0  0  0
  5  6  2  0  0  0  0
  5  7  1  0  0  0  0
  2  3  1  0  0  0  0
  2  4  1  0  0  0  0
  2  5  1  0  0  0  0
  1  2  1  0  0  0  0
 19 20  2  0  0  0  0
 19 21  1  0  0  0  0
 16 17  1  0  0  0  0
 16 18  1  0  0  0  0
 14 15  2  0  0  0  0
 14 16  1  0  0  0  0
 11 12  1  0  0  0  0
 11 13  1  0  0  0  0
 11 14  1  0  0  0  0
  9 10  1  0  0  0  0
  9 11  1  0  0  0  0
  9 19  1  0  0  0  0
  7  8  1  0  0  0  0
  7  9  1  0  0  0  0
 23 24  1  0  0  0  0
 23 25  1  0  0  0  0
 23 26  1  0  0  0  0
 21 22  1  0  0  0  0
 21 23  1  0  0  0  0
M  END
$$$$
default_name
  -OEChem-02102213163D

 26 25  0     1  0  0  0  0  0999 V2000
   -3.0232   -3.6924    1.0038 H   0  0  0  0  0  0  0  0  0  0  0  0
   -3.0082   -2.6684    0.6318 C   0  0  0  0  0  0  0  0  0  0  0  0
   -3.6332   -2.0414    1.2658 H   0  0  0  0  0  0  0  0  0  0  0  0
   -3.3762   -2.6444   -0.3912 H   0  0  0  0  0  0  0  0  0  0  0  0
   -1.5882   -2.1554    0.6658 C   0  0  0  0  0  0  0  0  0  0  0  0
   -0.6832   -2.8764    1.0638 O   0  0  0  0  0  0  0  0  0  0  0  0
   -1.3952   -0.9084    0.2428 N   0  0  0  0  0  0  0  0  0  0  0  0
   -2.1972   -0.3644   -0.0422 H   0  0  0  0  0  0  0  0  0  0  0  0
   -0.1122   -0.1994    0.2658 C   0  0  1  0  0  0  0  0  0  0  0  0
    0.5635   -0.7260    0.9446 H   0  0  0  0  0  0  0  0  0  0  0  0
    0.4924   -0.2204   -1.1558 C   0  0  0  0  0  0  0  0  0  0  0  0
   -0.0218   -0.9736   -1.7518 H   0  0  0  0  0  0  0  0  0  0  0  0
    0.3400    0.7503   -1.6253 H   0  0  0  0  0  0  0  0  0  0  0  0
    1.9728   -0.5642   -1.1931 C   0  0  0  0  0  0  0  0  0  0  0  0
    2.6739   -0.3728   -2.1713 O   0  0  0  0  0  0  0  0  0  0  0  0
    2.5039   -1.0984   -0.1202 N   0  0  0  0  0  0  0  0  0  0  0  0
    3.4874   -1.2988   -0.1678 H   0  0  0  0  0  0  0  0  0  0  0  0
    1.9530   -1.2484    0.7038 H   0  0  0  0  0  0  0  0  0  0  0  0
   -0.3126    1.2341    0.8050 C   0  0  0  0  0  0  0  0  0  0  0  0
   -1.2484    1.9199    0.3934 O   0  0  0  0  0  0  0  0  0  0  0  0
    0.5615    1.6875    1.7087 N   0  0  0  0  0  0  0  0  0  0  0  0
    1.3461    1.0849    1.9358 H   0  0  0  0  0  0  0  0  0  0  0  0
    0.5043    3.0121    2.3242 C   0  0  0  0  0  0  0  0  0  0  0  0
   -0.4649    3.1514    2.8080 H   0  0  0  0  0  0  0  0  0  0  0  0
    1.2959    3.1139    3.0678 H   0  0  0  0  0  0  0  0  0  0  0  0
    0.6273    3.7799    1.5584 H   0  0  0  0  0  0  0  0  0  0  0  0
  5  6  2  0  0  0  0
  5  7  1  0  0  0  0
  2  3  1  0  0  0  0
  2  4  1  0  0  0  0
  2  5  1  0  0  0  0
  1  2  1  0  0  0  0
 19 20  2  0  0  0  0
 19 21  1  0  0  0  0
 16 17  1  0  0  0  0
 16 18  1  0  0  0  0
 14 15  2  0  0  0  0
 14 16  1  0  0  0  0
 11 12  1  0  0  0  0
 11 13  1  0  0  0  0
 11 14  1  0  0  0  0
  9 10  1  0  0  0  0
  9 11  1  0  0  0  0
  9 19  1  0  0  0  0
  7  8  1  0  0  0  0
  7  9  1  0  0  0  0
 23 24  1  0  0  0  0
 23 25  1  0  0  0  0
 23 26  1  0  0  0  0
 21 22  1  0  0  0  0
 21 23  1  0  0  0  0
M  END
$$$$
default_name
  -OEChem-02102213163D

 26 25  0     1  0  0  0  0  0999 V2000
   -3.0232   -3.6924    1.0038 H   0  0  0  0  0  0  0  0  0  0  0  0
   -3.0082   -2.6684    0.6318 C   0  0  0  0  0  0  0  0  0  0  0  0
   -3.6332   -2.0414    1.2658 H   0  0  0  0  0  0  0  0  0  0  0  0
   -3.3762   -2.6444   -0.3912 H   0  0  0  0  0  0  0  0  0  0  0  0
   -1.5882   -2.1554    0.6658 C   0  0  0  0  0  0  0  0  0  0  0  0
   -0.6832   -2.8764    1.0638 O   0  0  0  0  0  0  0  0  0  0  0  0
   -1.3952   -0.9084    0.2428 N   0  0  0  0  0  0  0  0  0  0  0  0
   -2.1972   -0.3644   -0.0422 H   0  0  0  0  0  0  0  0  0  0  0  0
   -0.1122   -0.1994    0.2658 C   0  0  1  0  0  0  0  0  0  0  0  0
    0.5635   -0.7260    0.9446 H   0  0  0  0  0  0  0  0  0  0  0  0
    0.4924   -0.2204   -1.1558 C   0  0  0  0  0  0  0  0  0  0  0  0
   -0.0218   -0.9736   -1.7518 H   0  0  0  0  0  0  0  0  0  0  0  0
    0.3400    0.7503   -1.6253 H   0  0  0  0  0  0  0  0  0  0  0  0
    1.9728   -0.5642   -1.1931 C   0  0  0  0  0  0  0  0  0  0  0  0
    2.7305   -0.1423   -2.0493 O   0  0  0  0  0  0  0  0  0  0  0  0
    2.4399   -1.3587   -0.2609 N   0  0  0  0  0  0  0  0  0  0  0  0
    3.4247   -1.5542   -0.3006 H   0  0  0  0  0  0  0  0  0  0  0  0
    1.8412   -1.7037    0.4655 H   0  0  0  0  0  0  0  0  0  0  0  0
   -0.3126    1.2341    0.8050 C   0  0  0  0  0  0  0  0  0  0  0  0
   -1.2484    1.9199    0.3934 O   0  0  0  0  0  0  0  0  0  0  0  0
    0.5615    1.6875    1.7087 N   0  0  0  0  0  0  0  0  0  0  0  0
    1.3461    1.0849    1.9358 H   0  0  0  0  0  0  0  0  0  0  0  0
    0.5043    3.0121    2.3242 C   0  0  0  0  0  0  0  0  0  0  0  0
   -0.4649    3.1514    2.8080 H   0  0  0  0  0  0  0  0  0  0  0  0
    1.2959    3.1139    3.0678 H   0  0  0  0  0  0  0  0  0  0  0  0
    0.6273    3.7799    1.5584 H   0  0  0  0  0  0  0  0  0  0  0  0
  5  6  2  0  0  0  0
  5  7  1  0  0  0  0
  2  3  1  0  0  0  0
  2  4  1  0  0  0  0
  2  5  1  0  0  0  0
  1  2  1  0  0  0  0
 19 20  2  0  0  0  0
 19 21  1  0  0  0  0
 16 17  1  0  0  0  0
 16 18  1  0  0  0  0
 14 15  2  0  0  0  0
 14 16  1  0  0  0  0
 11 12  1  0  0  0  0
 11 13  1  0  0  0  0
 11 14  1  0  0  0  0
  9 10  1  0  0  0  0
  9 11  1  0  0  0  0
  9 19  1  0  0  0  0
  7  8  1  0  0  0  0
  7  9  1  0  0  0  0
 23 24  1  0  0  0  0
 23 25  1  0  0  0  0
 23 26  1  0  0  0  0
 21 22  1  0  0  0  0
 21 23  1  0  0  0  0
M  END
$$$$
default_name
  -OEChem-02102213163D

 26 25  0     1  0  0  0  0  0999 V2000
   -3.0232   -3.6924    1.0038 H   0  0  0  0  0  0  0  0  0  0  0  0
   -3.0082   -2.6684    0.6318 C   0  0  0  0  0  0  0  0  0  0  0  0
   -3.6332   -2.0414    1.2658 H   0  0  0  0  0  0  0  0  0  0  0  0
   -3.3762   -2.6444   -0.3912 H   0  0  0  0  0  0  0  0  0  0  0  0
   -1.5882   -2.1554    0.6658 C   0  0  0  0  0  0  0  0  0  0  0  0
   -0.6832   -2.8764    1.0638 O   0  0  0  0  0  0  0  0  0  0  0  0
   -1.3952   -0.9084    0.2428 N   0  0  0  0  0  0  0  0  0  0  0  0
   -2.1972   -0.3644   -0.0422 H   0  0  0  0  0  0  0  0  0  0  0  0
   -0.1122   -0.1994    0.2658 C   0  0  1  0  0  0  0  0  0  0  0  0
    0.5635   -0.7260    0.9446 H   0  0  0  0  0  0  0  0  0  0  0  0
    0.4924   -0.2204   -1.1558 C   0  0  0  0  0  0  0  0  0  0  0  0
   -0.0218   -0.9736   -1.7518 H   0  0  0  0  0  0  0  0  0  0  0  0
    0.3400    0.7503   -1.6253 H   0  0  0  0  0  0  0  0  0  0  0  0
    1.9728   -0.5642   -1.1931 C   0  0  0  0  0  0  0  0  0  0  0  0
    2.7795    0.0492   -1.8700 O   0  0  0  0  0  0  0  0  0  0  0  0
    2.3847   -1.5742   -0.4660 N   0  0  0  0  0  0  0  0  0  0  0  0
    3.3703   -1.7671   -0.4968 H   0  0  0  0  0  0  0  0  0  0  0  0
    1.7444   -2.0827    0.1140 H   0  0  0  0  0  0  0  0  0  0  0  0
   -0.3126    1.2341    0.8050 C   0  0  0  0  0  0  0  0  0  0  0  0
   -1.2484    1.9199    0.3934 O   0  0  0  0  0  0  0  0  0  0  0  0
    0.5615    1.6875    1.7087 N   0  0  0  0  0  0  0  0  0  0  0  0
    1.3461    1.0849    1.9358 H   0  0  0  0  0  0  0  0  0  0  0  0
    0.5043    3.0121    2.3242 C   0  0  0  0  0  0  0  0  0  0  0  0
   -0.4649    3.1514    2.8080 H   0  0  0  0  0  0  0  0  0  0  0  0
    1.2959    3.1139    3.0678 H   0  0  0  0  0  0  0  0  0  0  0  0
    0.6273    3.7799    1.5584 H   0  0  0  0  0  0  0  0  0  0  0  0
  5  6  2  0  0  0  0
  5  7  1  0  0  0  0
  2  3  1  0  0  0  0
  2  4  1  0  0  0  0
  2  5  1  0  0  0  0
  1  2  1  0  0  0  0
 19 20  2  0  0  0  0
 19 21  1  0  0  0  0
 16 17  1  0  0  0  0
 16 18  1  0  0  0  0
 14 15  2  0  0  0  0
 14 16  1  0  0  0  0
 11 12  1  0  0  0  0
 11 13  1  0  0  0  0
 11 14  1  0  0  0  0
  9 10  1  0  0  0  0
  9 11  1  0  0  0  0
  9 19  1  0  0  0  0
  7  8  1  0  0  0  0
  7  9  1  0  0  0  0
 23 24  1  0  0  0  0
 23 25  1  0  0  0  0
 23 26  1  0  0  0  0
 21 22  1  0  0  0  0
 21 23  1  0  0  0  0
M  END
$$$$
default_name
  -OEChem-02102213163D

 26 25  0     1  0  0  0  0  0999 V2000
   -3.0232   -3.6924    1.0038 H   0  0  0  0  0  0  0  0  0  0  0  0
   -3.0082   -2.6684    0.6318 C   0  0  0  0  0  0  0  0  0  0  0  0
   -3.6332   -2.0414    1.2658 H   0  0  0  0  0  0  0  0  0  0  0  0
   -3.3762   -2.6444   -0.3912 H   0  0  0  0  0  0  0  0  0  0  0  0
   -1.5882   -2.1554    0.6658 C   0  0  0  0  0  0  0  0  0  0  0  0
   -0.6832   -2.8764    1.0638 O   0  0  0  0  0  0  0  0  0  0  0  0
   -1.3952   -0.9084    0.2428 N   0  0  0  0  0  0  0  0  0  0  0  0
   -2.1972   -0.3644   -0.0422 H   0  0  0  0  0  0  0  0  0  0  0  0
   -0.1122   -0.1994    0.2658 C   0  0  1  0  0  0  0  0  0  0  0  0
    0.5635   -0.7260    0.9446 H   0  0  0  0  0  0  0  0  0  0  0  0
    0.4924   -0.2204   -1.1558 C   0  0  0  0  0  0  0  0  0  0  0  0
   -0.0218   -0.9736   -1.7518 H   0  0  0  0  0  0  0  0  0  0  0  0
    0.3400    0.7503   -1.6253 H   0  0  0  0  0  0  0  0  0  0  0  0
    1.9728   -0.5642   -1.1931 C   0  0  0  0  0  0  0  0  0  0  0  0
    2.8175    0.1886   -1.6456 O   0  0  0  0  0  0  0  0  0  0  0  0
    2.3420   -1.7304   -0.7217 N   0  0  0  0  0  0  0  0  0  0  0  0
    3.3280   -1.9229   -0.7433 H   0  0  0  0  0  0  0  0  0  0  0  0
    1.6690   -2.3597   -0.3267 H   0  0  0  0  0  0  0  0  0  0  0  0
   -0.3126    1.2341    0.8050 C   0  0  0  0  0  0  0  0  0  0  0  0
   -1.2484    1.9199    0.3934 O   0  0  0  0  0  0  0  0  0  0  0  0
    0.5615    1.6875    1.7087 N   0  0  0  0  0  0  0  0  0  0  0  0
    1.3461    1.0849    1.9358 H   0  0  0  0  0  0  0  0  0  0  0  0
    0.5043    3.0121    2.3242 C   0  0  0  0  0  0  0  0  0  0  0  0
   -0.4649    3.1514    2.8080 H   0  0  0  0  0  0  0  0  0  0  0  0
    1.2959    3.1139    3.0678 H   0  0  0  0  0  0  0  0  0  0  0  0
    0.6273    3.7799    1.5584 H   0  0  0  0  0  0  0  0  0  0  0  0
  5  6  2  0  0  0  0
  5  7  1  0  0  0  0
  2  3  1  0  0  0  0
  2  4  1  0  0  0  0
  2  5  1  0  0  0  0
  1  2  1  0  0  0  0
 19 20  2  0  0  0  0
 19 21  1  0  0  0  0
 16 17  1  0  0  0  0
 16 18  1  0  0  0  0
 14 15  2  0  0  0  0
 14 16  1  0  0  0  0
 11 12  1  0  0  0  0
 11 13  1  0  0  0  0
 11 14  1  0  0  0  0
  9 10  1  0  0  0  0
  9 11  1  0  0  0  0
  9 19  1  0  0  0  0
  7  8  1  0  0  0  0
  7  9  1  0  0  0  0
 23 24  1  0  0  0  0
 23 25  1  0  0  0  0
 23 26  1  0  0  0  0
 21 22  1  0  0  0  0
 21 23  1  0  0  0  0
M  END
$$$$
default_name
  -OEChem-02102213163D

 26 25  0     1  0  0  0  0  0999 V2000
   -3.0232   -3.6924    1.0038 H   0  0  0  0  0  0  0  0  0  0  0  0
   -3.0082   -2.6684    0.6318 C   0  0  0  0  0  0  0  0  0  0  0  0
   -3.6332   -2.0414    1.2658 H   0  0  0  0  0  0  0  0  0  0  0  0
   -3.3762   -2.6444   -0.3912 H   0  0  0  0  0  0  0  0  0  0  0  0
   -1.5882   -2.1554    0.6658 C   0  0  0  0  0  0  0  0  0  0  0  0
   -0.6832   -2.8764    1.0638 O   0  0  0  0  0  0  0  0  0  0  0  0
   -1.3952   -0.9084    0.2428 N   0  0  0  0  0  0  0  0  0  0  0  0
   -2.1972   -0.3644   -0.0422 H   0  0  0  0  0  0  0  0  0  0  0  0
   -0.1122   -0.1994    0.2658 C   0  0  1  0  0  0  0  0  0  0  0  0
    0.5635   -0.7260    0.9446 H   0  0  0  0  0  0  0  0  0  0  0  0
    0.4924   -0.2204   -1.1558 C   0  0  0  0  0  0  0  0  0  0  0  0
   -0.0218   -0.9736   -1.7518 H   0  0  0  0  0  0  0  0  0  0  0  0
    0.3400    0.7503   -1.6253 H   0  0  0  0  0  0  0  0  0  0  0  0
    1.9728   -0.5642   -1.1931 C   0  0  0  0  0  0  0  0  0  0  0  0
    2.8420    0.2666   -1.3916 O   0  0  0  0  0  0  0  0  0  0  0  0
    2.3147   -1.8165   -1.0106 N   0  0  0  0  0  0  0  0  0  0  0  0
    3.3005   -2.0110   -1.0230 H   0  0  0  0  0  0  0  0  0  0  0  0
    1.6202   -2.5156   -0.8266 H   0  0  0  0  0  0  0  0  0  0  0  0
   -0.3126    1.2341    0.8050 C   0  0  0  0  0  0  0  0  0  0  0  0
   -1.2484    1.9199    0.3934 O   0  0  0  0  0  0  0  0  0  0  0  0
    0.5615    1.6875    1.7087 N   0  0  0  0  0  0  0  0  0  0  0  0
    1.3461    1.0849    1.9358 H   0  0  0  0  0  0  0  0  0  0  0  0
    0.5043    3.0121    2.3242 C   0  0  0  0  0  0  0  0  0  0  0  0
   -0.4649    3.1514    2.8080 H   0  0  0  0  0  0  0  0  0  0  0  0
    1.2959    3.1139    3.0678 H   0  0  0  0  0  0  0  0  0  0  0  0
    0.6273    3.7799    1.5584 H   0  0  0  0  0  0  0  0  0  0  0  0
  5  6  2  0  0  0  0
  5  7  1  0  0  0  0
  2  3  1  0  0  0  0
  2  4  1  0  0  0  0
  2  5  1  0  0  0  0
  1  2  1  0  0  0  0
 19 20  2  0  0  0  0
 19 21  1  0  0  0  0
 16 17  1  0  0  0  0
 16 18  1  0  0  0  0
 14 15  2  0  0  0  0
 14 16  1  0  0  0  0
 11 12  1  0  0  0  0
 11 13  1  0  0  0  0
 11 14  1  0  0  0  0
  9 10  1  0  0  0  0
  9 11  1  0  0  0  0
  9 19  1  0  0  0  0
  7  8  1  0  0  0  0
  7  9  1  0  0  0  0
 23 24  1  0  0  0  0
 23 25  1  0  0  0  0
 23 26  1  0  0  0  0
 21 22  1  0  0  0  0
 21 23  1  0  0  0  0
M  END
$$$$
default_name
  -OEChem-02102213163D

 26 25  0     1  0  0  0  0  0999 V2000
   -3.0232   -3.6924    1.0038 H   0  0  0  0  0  0  0  0  0  0  0  0
   -3.0082   -2.6684    0.6318 C   0  0  0  0  0  0  0  0  0  0  0  0
   -3.6332   -2.0414    1.2658 H   0  0  0  0  0  0  0  0  0  0  0  0
   -3.3762   -2.6444   -0.3912 H   0  0  0  0  0  0  0  0  0  0  0  0
   -1.5882   -2.1554    0.6658 C   0  0  0  0  0  0  0  0  0  0  0  0
   -0.6832   -2.8764    1.0638 O   0  0  0  0  0  0  0  0  0  0  0  0
   -1.3952   -0.9084    0.2428 N   0  0  0  0  0  0  0  0  0  0  0  0
   -2.1972   -0.3644   -0.0422 H   0  0  0  0  0  0  0  0  0  0  0  0
   -0.1122   -0.1994    0.2658 C   0  0  1  0  0  0  0  0  0  0  0  0
    0.5635   -0.7260    0.9446 H   0  0  0  0  0  0  0  0  0  0  0  0
    0.4924   -0.2204   -1.1558 C   0  0  0  0  0  0  0  0  0  0  0  0
   -0.0218   -0.9736   -1.7518 H   0  0  0  0  0  0  0  0  0  0  0  0
    0.3400    0.7503   -1.6253 H   0  0  0  0  0  0  0  0  0  0  0  0
    1.9728   -0.5642   -1.1931 C   0  0  0  0  0  0  0  0  0  0  0  0
    2.8513    0.2777   -1.1251 O   0  0  0  0  0  0  0  0  0  0  0  0
    2.3048   -1.8267   -1.3129 N   0  0  0  0  0  0  0  0  0  0  0  0
    3.2897   -2.0254   -1.3171 H   0  0  0  0  0  0  0  0  0  0  0  0
    1.6013   -2.5399   -1.3516 H   0  0  0  0  0  0  0  0  0  0  0  0
   -0.3126    1.2341    0.8050 C   0  0  0  0  0  0  0  0  0  0  0  0
   -1.2484    1.9199    0.3934 O   0  0  0  0  0  0  0  0  0  0  0  0
    0.5615    1.6875    1.7087 N   0  0  0  0  0  0  0  0  0  0  0  0
    1.3461    1.0849    1.9358 H   0  0  0  0  0  0  0  0  0  0  0  0
    0.5043    3.0121    2.3242 C   0  0  0  0  0  0  0  0  0  0  0  0
   -0.4649    3.1514    2.8080 H   0  0  0  0  0  0  0  0  0  0  0  0
    1.2959    3.1139    3.0678 H   0  0  0  0  0  0  0  0  0  0  0  0
    0.6273    3.7799    1.5584 H   0  0  0  0  0  0  0  0  0  0  0  0
  5  6  2  0  0  0  0
  5  7  1  0  0  0  0
  2  3  1  0  0  0  0
  2  4  1  0  0  0  0
  2  5  1  0  0  0  0
  1  2  1  0  0  0  0
 19 20  2  0  0  0  0
 19 21  1  0  0  0  0
 16 17  1  0  0  0  0
 16 18  1  0  0  0  0
 14 15  2  0  0  0  0
 14 16  1  0  0  0  0
 11 12  1  0  0  0  0
 11 13  1  0  0  0  0
 11 14  1  0  0  0  0
  9 10  1  0  0  0  0
  9 11  1  0  0  0  0
  9 19  1  0  0  0  0
  7  8  1  0  0  0  0
  7  9  1  0  0  0  0
 23 24  1  0  0  0  0
 23 25  1  0  0  0  0
 23 26  1  0  0  0  0
 21 22  1  0  0  0  0
 21 23  1  0  0  0  0
M  END
$$$$
default_name
  -OEChem-02102213163D

 26 25  0     1  0  0  0  0  0999 V2000
   -3.0232   -3.6924    1.0038 H   0  0  0  0  0  0  0  0  0  0  0  0
   -3.0082   -2.6684    0.6318 C   0  0  0  0  0  0  0  0  0  0  0  0
   -3.6332   -2.0414    1.2658 H   0  0  0  0  0  0  0  0  0  0  0  0
   -3.3762   -2.6444   -0.3912 H   0  0  0  0  0  0  0  0  0  0  0  0
   -1.5882   -2.1554    0.6658 C   0  0  0  0  0  0  0  0  0  0  0  0
   -0.6832   -2.8764    1.0638 O   0  0  0  0  0  0  0  0  0  0  0  0
   -1.3952   -0.9084    0.2428 N   0  0  0  0  0  0  0  0  0  0  0  0
   -2.1972   -0.3644   -0.0422 H   0  0  0  0  0  0  0  0  0  0  0  0
   -0.1122   -0.1994    0.2658 C   0  0  1  0  0  0  0  0  0  0  0  0
    0.5635   -0.7260    0.9446 H   0  0  0  0  0  0  0  0  0  0  0  0
    0.4924   -0.2204   -1.1558 C   0  0  0  0  0  0  0  0  0  0  0  0
   -0.0218   -0.9736   -1.7518 H   0  0  0  0  0  0  0  0  0  0  0  0
    0.3400    0.7503   -1.6253 H   0  0  0  0  0  0  0  0  0  0  0  0
    1.9728   -0.5642   -1.1931 C   0  0  0  0  0  0  0  0  0  0  0  0
    2.8447    0.2212   -0.8643 O   0  0  0  0  0  0  0  0  0  0  0  0
    2.3128   -1.7603   -1.6081 N   0  0  0  0  0  0  0  0  0  0  0  0
    3.2965   -1.9652   -1.6054 H   0  0  0  0  0  0  0  0  0  0  0  0
    1.6137   -2.4310   -1.8659 H   0  0  0  0  0  0  0  0  0  0  0  0
   -0.3126    1.2341    0.8050 C   0  0  0  0  0  0  0  0  0  0  0  0
   -1.2484    1.9199    0.3934 O   0  0  0  0  0  0  0  0  0  0  0  0
    0.5615    1.6875    1.7087 N   0  0  0  0  0  0  0  0  0  0  0  0
    1.3461    1.0849    1.9358 H   0  0  0  0  0  0  0  0  0  0  0  0
    0.5043    3.0121    2.3242 C   0  0  0  0  0  0  0  0  0  0  0  0
   -0.4649    3.1514    2.8080 H   0  0  0  0  0  0  0  0  0  0  0  0
    1.2959    3.1139    3.0678 H   0  0  0  0  0  0  0  0  0  0  0  0
    0.6273    3.7799    1.5584 H   0  0  0  0  0  0  0  0  0  0  0  0
  5  6  2  0  0  0  0
  5  7  1  0  0  0  0
  2  3  1  0  0  0  0
  2  4  1  0  0  0  0
  2  5  1  0  0  0  0
  1  2  1  0  0  0  0
 19 20  2  0  0  0  0
 19 21  1  0  0  0  0
 16 17  1  0  0  0  0
 16 18  1  0  0  0  0
 14 15  2  0  0  0  0
 14 16  1  0  0  0  0
 11 12  1  0  0  0  0
 11 13  1  0  0  0  0
 11 14  1  0  0  0  0
  9 10  1  0  0  0  0
  9 11  1  0  0  0  0
  9 19  1  0  0  0  0
  7  8  1  0  0  0  0
  7  9  1  0  0  0  0
 23 24  1  0  0  0  0
 23 25  1  0  0  0  0
 23 26  1  0  0  0  0
 21 22  1  0  0  0  0
 21 23  1  0  0  0  0
M  END
$$$$
default_name
  -OEChem-02102213163D

 26 25  0     1  0  0  0  0  0999 V2000
   -3.0232   -3.6924    1.0038 H   0  0  0  0  0  0  0  0  0  0  0  0
   -3.0082   -2.6684    0.6318 C   0  0  0  0  0  0  0  0  0  0  0  0
   -3.6332   -2.0414    1.2658 H   0  0  0  0  0  0  0  0  0  0  0  0
   -3.3762   -2.6444   -0.3912 H   0  0  0  0  0  0  0  0  0  0  0  0
   -1.5882   -2.1554    0.6658 C   0  0  0  0  0  0  0  0  0  0  0  0
   -0.6832   -2.8764    1.0638 O   0  0  0  0  0  0  0  0  0  0  0  0
   -1.3952   -0.9084    0.2428 N   0  0  0  0  0  0  0  0  0  0  0  0
   -2.1972   -0.3644   -0.0422 H   0  0  0  0  0  0  0  0  0  0  0  0
   -0.1122   -0.1994    0.2658 C   0  0  1  0  0  0  0  0  0  0  0  0
    0.5635   -0.7260    0.9446 H   0  0  0  0  0  0  0  0  0  0  0  0
    0.4924   -0.2204   -1.1558 C   0  0  0  0  0  0  0  0  0  0  0  0
   -0.0218   -0.9736   -1.7518 H   0  0  0  0  0  0  0  0  0  0  0  0
    0.3400    0.7503   -1.6253 H   0  0  0  0  0  0  0  0  0  0  0  0
    1.9728   -0.5642   -1.1931 C   0  0  0  0  0  0  0  0  0  0  0  0
    2.8228    0.1009   -0.6271 O   0  0  0  0  0  0  0  0  0  0  0  0
    2.3382   -1.6218   -1.8760 N   0  0  0  0  0  0  0  0  0  0  0  0
    3.3202   -1.8344   -1.8683 H   0  0  0  0  0  0  0  0  0  0  0  0
    1.6564   -2.1962   -2.3346 H   0  0  0  0  0  0  0  0  0  0  0  0
   -0.3126    1.2341    0.8050 C   0  0  0  0  0  0  0  0  0  0  0  0
   -1.2484    1.9199    0.3934 O   0  0  0  0  0  0  0  0  0  0  0  0
    0.5615    1.6875    1.7087 N   0  0  0  0  0  0  0  0  0  0  0  0
    1.3461    1.0849    1.9358 H   0  0  0  0  0  0  0  0  0  0  0  0
    0.5043    3.0121    2.3242 C   0  0  0  0  0  0  0  0  0  0  0  0
   -0.4649    3.1514    2.8080 H   0  0  0  0  0  0  0  0  0  0  0  0
    1.2959    3.1139    3.0678 H   0  0  0  0  0  0  0  0  0  0  0  0
    0.6273    3.7799    1.5584 H   0  0  0  0  0  0  0  0  0  0  0  0
  5  6  2  0  0  0  0
  5  7  1  0  0  0  0
  2  3  1  0  0  0  0
  2  4  1  0  0  0  0
  2  5  1  0  0  0  0
  1  2  1  0  0  0  0
 19 20  2  0  0  0  0
 19 21  1  0  0  0  0
 16 17  1  0  0  0  0
 16 18  1  0  0  0  0
 14 15  2  0  0  0  0
 14 16  1  0  0  0  0
 11 12  1  0  0  0  0
 11 13  1  0  0  0  0
 11 14  1  0  0  0  0
  9 10  1  0  0  0  0
  9 11  1  0  0  0  0
  9 19  1  0  0  0  0
  7  8  1  0  0  0  0
  7  9  1  0  0  0  0
 23 24  1  0  0  0  0
 23 25  1  0  0  0  0
 23 26  1  0  0  0  0
 21 22  1  0  0  0  0
 21 23  1  0  0  0  0
M  END
$$$$
default_name
  -OEChem-02102213163D

 26 25  0     1  0  0  0  0  0999 V2000
   -3.0232   -3.6924    1.0038 H   0  0  0  0  0  0  0  0  0  0  0  0
   -3.0082   -2.6684    0.6318 C   0  0  0  0  0  0  0  0  0  0  0  0
   -3.6332   -2.0414    1.2658 H   0  0  0  0  0  0  0  0  0  0  0  0
   -3.3762   -2.6444   -0.3912 H   0  0  0  0  0  0  0  0  0  0  0  0
   -1.5882   -2.1554    0.6658 C   0  0  0  0  0  0  0  0  0  0  0  0
   -0.6832   -2.8764    1.0638 O   0  0  0  0  0  0  0  0  0  0  0  0
   -1.3952   -0.9084    0.2428 N   0  0  0  0  0  0  0  0  0  0  0  0
   -2.1972   -0.3644   -0.0422 H   0  0  0  0  0  0  0  0  0  0  0  0
   -0.1122   -0.1994    0.2658 C   0  0  1  0  0  0  0  0  0  0  0  0
    0.5635   -0.7260    0.9446 H   0  0  0  0  0  0  0  0  0  0  0  0
    0.4924   -0.2204   -1.1558 C   0  0  0  0  0  0  0  0  0  0  0  0
   -0.0218   -0.9736   -1.7518 H   0  0  0  0  0  0  0  0  0  0  0  0
    0.3400    0.7503   -1.6253 H   0  0  0  0  0  0  0  0  0  0  0  0
    1.9728   -0.5642   -1.1931 C   0  0  0  0  0  0  0  0  0  0  0  0
    2.7869   -0.0749   -0.4295 O   0  0  0  0  0  0  0  0  0  0  0  0
    2.3793   -1.4206   -2.0984 N   0  0  0  0  0  0  0  0  0  0  0  0
    3.3594   -1.6419   -2.0879 H   0  0  0  0  0  0  0  0  0  0  0  0
    1.7266   -1.8516   -2.7256 H   0  0  0  0  0  0  0  0  0  0  0  0
   -0.3126    1.2341    0.8050 C   0  0  0  0  0  0  0  0  0  0  0  0
   -1.2484    1.9199    0.3934 O   0  0  0  0  0  0  0  0  0  0  0  0
    0.5615    1.6875    1.7087 N   0  0  0  0  0  0  0  0  0  0  0  0
    1.3461    1.0849    1.9358 H   0  0  0  0  0  0  0  0  0  0  0  0
    0.5043    3.0121    2.3242 C   0  0  0  0  0  0  0  0  0  0  0  0
   -0.4649    3.1514    2.8080 H   0  0  0  0  0  0  0  0  0  0  0  0
    1.2959    3.1139    3.0678 H   0  0  0  0  0  0  0  0  0  0  0  0
    0.6273    3.7799    1.5584 H   0  0  0  0  0  0  0  0  0  0  0  0
  5  6  2  0  0  0  0
  5  7  1  0  0  0  0
  2  3  1  0  0  0  0
  2  4  1  0  0  0  0
  2  5  1  0  0  0  0
  1  2  1  0  0  0  0
 19 20  2  0  0  0  0
 19 21  1  0  0  0  0
 16 17  1  0  0  0  0
 16 18  1  0  0  0  0
 14 15  2  0  0  0  0
 14 16  1  0  0  0  0
 11 12  1  0  0  0  0
 11 13  1  0  0  0  0
 11 14  1  0  0  0  0
  9 10  1  0  0  0  0
  9 11  1  0  0  0  0
  9 19  1  0  0  0  0
  7  8  1  0  0  0  0
  7  9  1  0  0  0  0
 23 24  1  0  0  0  0
 23 25  1  0  0  0  0
 23 26  1  0  0  0  0
 21 22  1  0  0  0  0
 21 23  1  0  0  0  0
M  END
$$$$
default_name
  -OEChem-02102213163D

 26 25  0     1  0  0  0  0  0999 V2000
   -3.0232   -3.6924    1.0038 H   0  0  0  0  0  0  0  0  0  0  0  0
   -3.0082   -2.6684    0.6318 C   0  0  0  0  0  0  0  0  0  0  0  0
   -3.6332   -2.0414    1.2658 H   0  0  0  0  0  0  0  0  0  0  0  0
   -3.3762   -2.6444   -0.3912 H   0  0  0  0  0  0  0  0  0  0  0  0
   -1.5882   -2.1554    0.6658 C   0  0  0  0  0  0  0  0  0  0  0  0
   -0.6832   -2.8764    1.0638 O   0  0  0  0  0  0  0  0  0  0  0  0
   -1.3952   -0.9084    0.2428 N   0  0  0  0  0  0  0  0  0  0  0  0
   -2.1972   -0.3644   -0.0422 H   0  0  0  0  0  0  0  0  0  0  0  0
   -0.1122   -0.1994    0.2658 C   0  0  1  0  0  0  0  0  0  0  0  0
    0.5635   -0.7260    0.9446 H   0  0  0  0  0  0  0  0  0  0  0  0
    0.4924   -0.2204   -1.1558 C   0  0  0  0  0  0  0  0  0  0  0  0
   -0.0218   -0.9736   -1.7518 H   0  0  0  0  0  0  0  0  0  0  0  0
    0.3400    0.7503   -1.6253 H   0  0  0  0  0  0  0  0  0  0  0  0
    1.9728   -0.5642   -1.1931 C   0  0  0  0  0  0  0  0  0  0  0  0
    2.7396   -0.2942   -0.2851 O   0  0  0  0  0  0  0  0  0  0  0  0
    2.4333   -1.1706   -2.2601 N   0  0  0  0  0  0  0  0  0  0  0  0
    3.4113   -1.4009   -2.2492 H   0  0  0  0  0  0  0  0  0  0  0  0
    1.8195   -1.4206   -3.0123 H   0  0  0  0  0  0  0  0  0  0  0  0
   -0.3126    1.2341    0.8050 C   0  0  0  0  0  0  0  0  0  0  0  0
   -1.2484    1.9199    0.3934 O   0  0  0  0  0  0  0  0  0  0  0  0
    0.5615    1.6875    1.7087 N   0  0  0  0  0  0  0  0  0  0  0  0
    1.3461    1.0849    1.9358 H   0  0  0  0  0  0  0  0  0  0  0  0
    0.5043    3.0121    2.3242 C   0  0  0  0  0  0  0  0  0  0  0  0
   -0.4649    3.1514    2.8080 H   0  0  0  0  0  0  0  0  0  0  0  0
    1.2959    3.1139    3.0678 H   0  0  0  0  0  0  0  0  0  0  0  0
    0.6273    3.7799    1.5584 H   0  0  0  0  0  0  0  0  0  0  0  0
  5  6  2  0  0  0  0
  5  7  1  0  0  0  0
  2  3  1  0  0  0  0
  2  4  1  0  0  0  0
  2  5  1  0  0  0  0
  1  2  1  0  0  0  0
 19 20  2  0  0  0  0
 19 21  1  0  0  0  0
 16 17  1  0  0  0  0
 16 18  1  0  0  0  0
 14 15  2  0  0  0  0
 14 16  1  0  0  0  0
 11 12  1  0  0  0  0
 11 13  1  0  0  0  0
 11 14  1  0  0  0  0
  9 10  1  0  0  0  0
  9 11  1  0  0  0  0
  9 19  1  0  0  0  0
  7  8  1  0  0  0  0
  7  9  1  0  0  0  0
 23 24  1  0  0  0  0
 23 25  1  0  0  0  0
 23 26  1  0  0  0  0
 21 22  1  0  0  0  0
 21 23  1  0  0  0  0
M  END
$$$$
default_name
  -OEChem-02102213163D

 26 25  0     1  0  0  0  0  0999 V2000
   -3.0232   -3.6924    1.0038 H   0  0  0  0  0  0  0  0  0  0  0  0
   -3.0082   -2.6684    0.6318 C   0  0  0  0  0  0  0  0  0  0  0  0
   -3.6332   -2.0414    1.2658 H   0  0  0  0  0  0  0  0  0  0  0  0
   -3.3762   -2.6444   -0.3912 H   0  0  0  0  0  0  0  0  0  0  0  0
   -1.5882   -2.1554    0.6658 C   0  0  0  0  0  0  0  0  0  0  0  0
   -0.6832   -2.8764    1.0638 O   0  0  0  0  0  0  0  0  0  0  0  0
   -1.3952   -0.9084    0.2428 N   0  0  0  0  0  0  0  0  0  0  0  0
   -2.1972   -0.3644   -0.0422 H   0  0  0  0  0  0  0  0  0  0  0  0
   -0.1122   -0.1994    0.2658 C   0  0  1  0  0  0  0  0  0  0  0  0
    0.5635   -0.7260    0.9446 H   0  0  0  0  0  0  0  0  0  0  0  0
    0.4924   -0.2204   -1.1558 C   0  0  0  0  0  0  0  0  0  0  0  0
   -0.0218   -0.9736   -1.7518 H   0  0  0  0  0  0  0  0  0  0  0  0
    0.3400    0.7503   -1.6253 H   0  0  0  0  0  0  0  0  0  0  0  0
    1.9728   -0.5642   -1.1931 C   0  0  0  0  0  0  0  0  0  0  0  0
    2.6840   -0.5422   -0.2037 O   0  0  0  0  0  0  0  0  0  0  0  0
    2.4965   -0.8886   -2.3501 N   0  0  0  0  0  0  0  0  0  0  0  0
    3.4724   -1.1278   -2.3412 H   0  0  0  0  0  0  0  0  0  0  0  0
    1.9288   -0.9326   -3.1752 H   0  0  0  0  0  0  0  0  0  0  0  0
   -0.3126    1.2341    0.8050 C   0  0  0  0  0  0  0  0  0  0  0  0
   -1.2484    1.9199    0.3934 O   0  0  0  0  0  0  0  0  0  0  0  0
    0.5615    1.6875    1.7087 N   0  0  0  0  0  0  0  0  0  0  0  0
    1.3461    1.0849    1.9358 H   0  0  0  0  0  0  0  0  0  0  0  0
    0.5043    3.0121    2.3242 C   0  0  0  0  0  0  0  0  0  0  0  0
   -0.4649    3.1514    2.8080 H   0  0  0  0  0  0  0  0  0  0  0  0
    1.2959    3.1139    3.0678 H   0  0  0  0  0  0  0  0  0  0  0  0
    0.6273    3.7799    1.5584 H   0  0  0  0  0  0  0  0  0  0  0  0
  5  6  2  0  0  0  0
  5  7  1  0  0  0  0
  2  3  1  0  0  0  0
  2  4  1  0  0  0  0
  2  5  1  0  0  0  0
  1  2  1  0  0  0  0
 19 20  2  0  0  0  0
 19 21  1  0  0  0  0
 16 17  1  0  0  0  0
 16 18  1  0  0  0  0
 14 15  2  0  0  0  0
 14 16  1  0  0  0  0
 11 12  1  0  0  0  0
 11 13  1  0  0  0  0
 11 14  1  0  0  0  0
  9 10  1  0  0  0  0
  9 11  1  0  0  0  0
  9 19  1  0  0  0  0
  7  8  1  0  0  0  0
  7  9  1  0  0  0  0
 23 24  1  0  0  0  0
 23 25  1  0  0  0  0
 23 26  1  0  0  0  0
 21 22  1  0  0  0  0
 21 23  1  0  0  0  0
M  END
$$$$
default_name
  -OEChem-02102213163D

 26 25  0     1  0  0  0  0  0999 V2000
   -3.0232   -3.6924    1.0038 H   0  0  0  0  0  0  0  0  0  0  0  0
   -3.0082   -2.6684    0.6318 C   0  0  0  0  0  0  0  0  0  0  0  0
   -3.6332   -2.0414    1.2658 H   0  0  0  0  0  0  0  0  0  0  0  0
   -3.3762   -2.6444   -0.3912 H   0  0  0  0  0  0  0  0  0  0  0  0
   -1.5882   -2.1554    0.6658 C   0  0  0  0  0  0  0  0  0  0  0  0
   -0.6832   -2.8764    1.0638 O   0  0  0  0  0  0  0  0  0  0  0  0
   -1.3952   -0.9084    0.2428 N   0  0  0  0  0  0  0  0  0  0  0  0
   -2.1972   -0.3644   -0.0422 H   0  0  0  0  0  0  0  0  0  0  0  0
   -0.1122   -0.1994    0.2658 C   0  0  1  0  0  0  0  0  0  0  0  0
    0.5635   -0.7260    0.9446 H   0  0  0  0  0  0  0  0  0  0  0  0
    0.4924   -0.2204   -1.1558 C   0  0  0  0  0  0  0  0  0  0  0  0
   -0.0218   -0.9736   -1.7518 H   0  0  0  0  0  0  0  0  0  0  0  0
    0.3400    0.7503   -1.6253 H   0  0  0  0  0  0  0  0  0  0  0  0
    1.9728   -0.5642   -1.1931 C   0  0  0  0  0  0  0  0  0  0  0  0
    2.6240   -0.8020   -0.1908 O   0  0  0  0  0  0  0  0  0  0  0  0
    2.5647   -0.5940   -2.3623 N   0  0  0  0  0  0  0  0  0  0  0  0
    3.5386   -0.8412   -2.3577 H   0  0  0  0  0  0  0  0  0  0  0  0
    2.0469   -0.4209   -3.2031 H   0  0  0  0  0  0  0  0  0  0  0  0
   -0.3126    1.2341    0.8050 C   0  0  0  0  0  0  0  0  0  0  0  0
   -1.2484    1.9199    0.3934 O   0  0  0  0  0  0  0  0  0  0  0  0
    0.5615    1.6875    1.7087 N   0  0  0  0  0  0  0  0  0  0  0  0
    1.3461    1.0849    1.9358 H   0  0  0  0  0  0  0  0  0  0  0  0
    0.5043    3.0121    2.3242 C   0  0  0  0  0  0  0  0  0  0  0  0
   -0.4649    3.1514    2.8080 H   0  0  0  0  0  0  0  0  0  0  0  0
    1.2959    3.1139    3.0678 H   0  0  0  0  0  0  0  0  0  0  0  0
    0.6273    3.7799    1.5584 H   0  0  0  0  0  0  0  0  0  0  0  0
  5  6  2  0  0  0  0
  5  7  1  0  0  0  0
  2  3  1  0  0  0  0
  2  4  1  0  0  0  0
  2  5  1  0  0  0  0
  1  2  1  0  0  0  0
 19 20  2  0  0  0  0
 19 21  1  0  0  0  0
 16 17  1  0  0  0  0
 16 18  1  0  0  0  0
 14 15  2  0  0  0  0
 14 16  1  0  0  0  0
 11 12  1  0  0  0  0
 11 13  1  0  0  0  0
 11 14  1  0  0  0  0
  9 10  1  0  0  0  0
  9 11  1  0  0  0  0
  9 19  1  0  0  0  0
  7  8  1  0  0  0  0
  7  9  1  0  0  0  0
 23 24  1  0  0  0  0
 23 25  1  0  0  0  0
 23 26  1  0  0  0  0
 21 22  1  0  0  0  0
 21 23  1  0  0  0  0
M  END
$$$$
default_name
  -OEChem-02102213163D

 26 25  0     1  0  0  0  0  0999 V2000
   -3.0232   -3.6924    1.0038 H   0  0  0  0  0  0  0  0  0  0  0  0
   -3.0082   -2.6684    0.6318 C   0  0  0  0  0  0  0  0  0  0  0  0
   -3.6332   -2.0414    1.2658 H   0  0  0  0  0  0  0  0  0  0  0  0
   -3.3762   -2.6444   -0.3912 H   0  0  0  0  0  0  0  0  0  0  0  0
   -1.5882   -2.1554    0.6658 C   0  0  0  0  0  0  0  0  0  0  0  0
   -0.6832   -2.8764    1.0638 O   0  0  0  0  0  0  0  0  0  0  0  0
   -1.3952   -0.9084    0.2428 N   0  0  0  0  0  0  0  0  0  0  0  0
   -2.1972   -0.3644   -0.0422 H   0  0  0  0  0  0  0  0  0  0  0  0
   -0.1122   -0.1994    0.2658 C   0  0  1  0  0  0  0  0  0  0  0  0
    0.5635   -0.7260    0.9446 H   0  0  0  0  0  0  0  0  0  0  0  0
    0.4924   -0.2204   -1.1558 C   0  0  0  0  0  0  0  0  0  0  0  0
   -0.0218   -0.9736   -1.7518 H   0  0  0  0  0  0  0  0  0  0  0  0
    0.3400    0.7503   -1.6253 H   0  0  0  0  0  0  0  0  0  0  0  0
    1.9728   -0.5642   -1.1931 C   0  0  0  0  0  0  0  0  0  0  0  0
    2.5637   -1.0557   -0.2473 O   0  0  0  0  0  0  0  0  0  0  0  0
    2.6330   -0.3068   -2.2958 N   0  0  0  0  0  0  0  0  0  0  0  0
    3.6053   -0.5606   -2.2975 H   0  0  0  0  0  0  0  0  0  0  0  0
    2.1659    0.0797   -3.0942 H   0  0  0  0  0  0  0  0  0  0  0  0
   -0.3126    1.2341    0.8050 C   0  0  0  0  0  0  0  0  0  0  0  0
   -1.2484    1.9199    0.3934 O   0  0  0  0  0  0  0  0  0  0  0  0
    0.5615    1.6875    1.7087 N   0  0  0  0  0  0  0  0  0  0  0  0
    1.3461    1.0849    1.9358 H   0  0  0  0  0  0  0  0  0  0  0  0
    0.5043    3.0121    2.3242 C   0  0  0  0  0  0  0  0  0  0  0  0
   -0.4649    3.1514    2.8080 H   0  0  0  0  0  0  0  0  0  0  0  0
    1.2959    3.1139    3.0678 H   0  0  0  0  0  0  0  0  0  0  0  0
    0.6273    3.7799    1.5584 H   0  0  0  0  0  0  0  0  0  0  0  0
  5  6  2  0  0  0  0
  5  7  1  0  0  0  0
  2  3  1  0  0  0  0
  2  4  1  0  0  0  0
  2  5  1  0  0  0  0
  1  2  1  0  0  0  0
 19 20  2  0  0  0  0
 19 21  1  0  0  0  0
 16 17  1  0  0  0  0
 16 18  1  0  0  0  0
 14 15  2  0  0  0  0
 14 16  1  0  0  0  0
 11 12  1  0  0  0  0
 11 13  1  0  0  0  0
 11 14  1  0  0  0  0
  9 10  1  0  0  0  0
  9 11  1  0  0  0  0
  9 19  1  0  0  0  0
  7  8  1  0  0  0  0
  7  9  1  0  0  0  0
 23 24  1  0  0  0  0
 23 25  1  0  0  0  0
 23 26  1  0  0  0  0
 21 22  1  0  0  0  0
 21 23  1  0  0  0  0
M  END
$$$$
default_name
  -OEChem-02102213163D

 26 25  0     1  0  0  0  0  0999 V2000
   -3.0232   -3.6924    1.0038 H   0  0  0  0  0  0  0  0  0  0  0  0
   -3.0082   -2.6684    0.6318 C   0  0  0  0  0  0  0  0  0  0  0  0
   -3.6332   -2.0414    1.2658 H   0  0  0  0  0  0  0  0  0  0  0  0
   -3.3762   -2.6444   -0.3912 H   0  0  0  0  0  0  0  0  0  0  0  0
   -1.5882   -2.1554    0.6658 C   0  0  0  0  0  0  0  0  0  0  0  0
   -0.6832   -2.8764    1.0638 O   0  0  0  0  0  0  0  0  0  0  0  0
   -1.3952   -0.9084    0.2428 N   0  0  0  0  0  0  0  0  0  0  0  0
   -2.1972   -0.3644   -0.0422 H   0  0  0  0  0  0  0  0  0  0  0  0
   -0.1122   -0.1994    0.2658 C   0  0  1  0  0  0  0  0  0  0  0  0
    0.5635   -0.7260    0.9446 H   0  0  0  0  0  0  0  0  0  0  0  0
    0.4924   -0.2204   -1.1558 C   0  0  0  0  0  0  0  0  0  0  0  0
   -0.0218   -0.9736   -1.7518 H   0  0  0  0  0  0  0  0  0  0  0  0
    0.3400    0.7503   -1.6253 H   0  0  0  0  0  0  0  0  0  0  0  0
    1.9728   -0.5642   -1.1931 C   0  0  0  0  0  0  0  0  0  0  0  0
    2.5071   -1.2862   -0.3693 O   0  0  0  0  0  0  0  0  0  0  0  0
    2.6970   -0.0465   -2.1552 N   0  0  0  0  0  0  0  0  0  0  0  0
    3.6679   -0.3052   -2.1647 H   0  0  0  0  0  0  0  0  0  0  0  0
    2.2776    0.5350   -2.8560 H   0  0  0  0  0  0  0  0  0  0  0  0
   -0.3126    1.2341    0.8050 C   0  0  0  0  0  0  0  0  0  0  0  0
   -1.2484    1.9199    0.3934 O   0  0  0  0  0  0  0  0  0  0  0  0
    0.5615    1.6875    1.7087 N   0  0  0  0  0  0  0  0  0  0  0  0
    1.3461    1.0849    1.9358 H   0  0  0  0  0  0  0  0  0  0  0  0
    0.5043    3.0121    2.3242 C   0  0  0  0  0  0  0  0  0  0  0  0
   -0.4649    3.1514    2.8080 H   0  0  0  0  0  0  0  0  0  0  0  0
    1.2959    3.1139    3.0678 H   0  0  0  0  0  0  0  0  0  0  0  0
    0.6273    3.7799    1.5584 H   0  0  0  0  0  0  0  0  0  0  0  0
  5  6  2  0  0  0  0
  5  7  1  0  0  0  0
  2  3  1  0  0  0  0
  2  4  1  0  0  0  0
  2  5  1  0  0  0  0
  1  2  1  0  0  0  0
 19 20  2  0  0  0  0
 19 21  1  0  0  0  0
 16 17  1  0  0  0  0
 16 18  1  0  0  0  0
 14 15  2  0  0  0  0
 14 16  1  0  0  0  0
 11 12  1  0  0  0  0
 11 13  1  0  0  0  0
 11 14  1  0  0  0  0
  9 10  1  0  0  0  0
  9 11  1  0  0  0  0
  9 19  1  0  0  0  0
  7  8  1  0  0  0  0
  7  9  1  0  0  0  0
 23 24  1  0  0  0  0
 23 25  1  0  0  0  0
 23 26  1  0  0  0  0
 21 22  1  0  0  0  0
 21 23  1  0  0  0  0
M  END
$$$$
default_name
  -OEChem-02102213163D

 26 25  0     1  0  0  0  0  0999 V2000
   -3.0232   -3.6924    1.0038 H   0  0  0  0  0  0  0  0  0  0  0  0
   -3.0082   -2.6684    0.6318 C   0  0  0  0  0  0  0  0  0  0  0  0
   -3.6332   -2.0414    1.2658 H   0  0  0  0  0  0  0  0  0  0  0  0
   -3.3762   -2.6444   -0.3912 H   0  0  0  0  0  0  0  0  0  0  0  0
   -1.5882   -2.1554    0.6658 C   0  0  0  0  0  0  0  0  0  0  0  0
   -0.6832   -2.8764    1.0638 O   0  0  0  0  0  0  0  0  0  0  0  0
   -1.3952   -0.9084    0.2428 N   0  0  0  0  0  0  0  0  0  0  0  0
   -2.1972   -0.3644   -0.0422 H   0  0  0  0  0  0  0  0  0  0  0  0
   -0.1122   -0.1994    0.2658 C   0  0  1  0  0  0  0  0  0  0  0  0
    0.5635   -0.7260    0.9446 H   0  0  0  0  0  0  0  0  0  0  0  0
    0.4924   -0.2204   -1.1558 C   0  0  0  0  0  0  0  0  0  0  0  0
   -0.0218   -0.9736   -1.7518 H   0  0  0  0  0  0  0  0  0  0  0  0
    0.3400    0.7503   -1.6253 H   0  0  0  0  0  0  0  0  0  0  0  0
    1.9728   -0.5642   -1.1931 C   0  0  0  0  0  0  0  0  0  0  0  0
    2.4581   -1.4777   -0.5486 O   0  0  0  0  0  0  0  0  0  0  0  0
    2.7522    0.1691   -1.9500 N   0  0  0  0  0  0  0  0  0  0  0  0
    3.7223   -0.0923   -1.9684 H   0  0  0  0  0  0  0  0  0  0  0  0
    2.3745    0.9140   -2.5045 H   0  0  0  0  0  0  0  0  0  0  0  0
   -0.3126    1.2341    0.8050 C   0  0  0  0  0  0  0  0  0  0  0  0
   -1.2484    1.9199    0.3934 O   0  0  0  0  0  0  0  0  0  0  0  0
    0.5615    1.6875    1.7087 N   0  0  0  0  0  0  0  0  0  0  0  0
    1.3461    1.0849    1.9358 H   0  0  0  0  0  0  0  0  0  0  0  0
    0.5043    3.0121    2.3242 C   0  0  0  0  0  0  0  0  0  0  0  0
   -0.4649    3.1514    2.8080 H   0  0  0  0  0  0  0  0  0  0  0  0
    1.2959    3.1139    3.0678 H   0  0  0  0  0  0  0  0  0  0  0  0
    0.6273    3.7799    1.5584 H   0  0  0  0  0  0  0  0  0  0  0  0
  5  6  2  0  0  0  0
  5  7  1  0  0  0  0
  2  3  1  0  0  0  0
  2  4  1  0  0  0  0
  2  5  1  0  0  0  0
  1  2  1  0  0  0  0
 19 20  2  0  0  0  0
 19 21  1  0  0  0  0
 16 17  1  0  0  0  0
 16 18  1  0  0  0  0
 14 15  2  0  0  0  0
 14 16  1  0  0  0  0
 11 12  1  0  0  0  0
 11 13  1  0  0  0  0
 11 14  1  0  0  0  0
  9 10  1  0  0  0  0
  9 11  1  0  0  0  0
  9 19  1  0  0  0  0
  7  8  1  0  0  0  0
  7  9  1  0  0  0  0
 23 24  1  0  0  0  0
 23 25  1  0  0  0  0
 23 26  1  0  0  0  0
 21 22  1  0  0  0  0
 21 23  1  0  0  0  0
M  END
$$$$
default_name
  -OEChem-02102213163D

 26 25  0     1  0  0  0  0  0999 V2000
   -3.0232   -3.6924    1.0038 H   0  0  0  0  0  0  0  0  0  0  0  0
   -3.0082   -2.6684    0.6318 C   0  0  0  0  0  0  0  0  0  0  0  0
   -3.6332   -2.0414    1.2658 H   0  0  0  0  0  0  0  0  0  0  0  0
   -3.3762   -2.6444   -0.3912 H   0  0  0  0  0  0  0  0  0  0  0  0
   -1.5882   -2.1554    0.6658 C   0  0  0  0  0  0  0  0  0  0  0  0
   -0.6832   -2.8764    1.0638 O   0  0  0  0  0  0  0  0  0  0  0  0
   -1.3952   -0.9084    0.2428 N   0  0  0  0  0  0  0  0  0  0  0  0
   -2.1972   -0.3644   -0.0422 H   0  0  0  0  0  0  0  0  0  0  0  0
   -0.1122   -0.1994    0.2658 C   0  0  1  0  0  0  0  0  0  0  0  0
    0.5635   -0.7260    0.9446 H   0  0  0  0  0  0  0  0  0  0  0  0
    0.4924   -0.2204   -1.1558 C   0  0  0  0  0  0  0  0  0  0  0  0
   -0.0218   -0.9736   -1.7518 H   0  0  0  0  0  0  0  0  0  0  0  0
    0.3400    0.7503   -1.6253 H   0  0  0  0  0  0  0  0  0  0  0  0
    1.9728   -0.5642   -1.1931 C   0  0  0  0  0  0  0  0  0  0  0  0
    2.4200   -1.6172   -0.7730 O   0  0  0  0  0  0  0  0  0  0  0  0
    2.7949    0.3252   -1.6943 N   0  0  0  0  0  0  0  0  0  0  0  0
    3.7647    0.0635   -1.7220 H   0  0  0  0  0  0  0  0  0  0  0  0
    2.4499    1.1909   -2.0638 H   0  0  0  0  0  0  0  0  0  0  0  0
   -0.3126    1.2341    0.8050 C   0  0  0  0  0  0  0  0  0  0  0  0
   -1.2484    1.9199    0.3934 O   0  0  0  0  0  0  0  0  0  0  0  0
    0.5615    1.6875    1.7087 N   0  0  0  0  0  0  0  0  0  0  0  0
    1.3461    1.0849    1.9358 H   0  0  0  0  0  0  0  0  0  0  0  0
    0.5043    3.0121    2.3242 C   0  0  0  0  0  0  0  0  0  0  0  0
   -0.4649    3.1514    2.8080 H   0  0  0  0  0  0  0  0  0  0  0  0
    1.2959    3.1139    3.0678 H   0  0  0  0  0  0  0  0  0  0  0  0
    0.6273    3.7799    1.5584 H   0  0  0  0  0  0  0  0  0  0  0  0
  5  6  2  0  0  0  0
  5  7  1  0  0  0  0
  2  3  1  0  0  0  0
  2  4  1  0  0  0  0
  2  5  1  0  0  0  0
  1  2  1  0  0  0  0
 19 20  2  0  0  0  0
 19 21  1  0  0  0  0
 16 17  1  0  0  0  0
 16 18  1  0  0  0  0
 14 15  2  0  0  0  0
 14 16  1  0  0  0  0
 11 12  1  0  0  0  0
 11 13  1  0  0  0  0
 11 14  1  0  0  0  0
  9 10  1  0  0  0  0
  9 11  1  0  0  0  0
  9 19  1  0  0  0  0
  7  8  1  0  0  0  0
  7  9  1  0  0  0  0
 23 24  1  0  0  0  0
 23 25  1  0  0  0  0
 23 26  1  0  0  0  0
 21 22  1  0  0  0  0
 21 23  1  0  0  0  0
M  END
$$$$
default_name
  -OEChem-02102213163D

 26 25  0     1  0  0  0  0  0999 V2000
   -3.0232   -3.6924    1.0038 H   0  0  0  0  0  0  0  0  0  0  0  0
   -3.0082   -2.6684    0.6318 C   0  0  0  0  0  0  0  0  0  0  0  0
   -3.6332   -2.0414    1.2658 H   0  0  0  0  0  0  0  0  0  0  0  0
   -3.3762   -2.6444   -0.3912 H   0  0  0  0  0  0  0  0  0  0  0  0
   -1.5882   -2.1554    0.6658 C   0  0  0  0  0  0  0  0  0  0  0  0
   -0.6832   -2.8764    1.0638 O   0  0  0  0  0  0  0  0  0  0  0  0
   -1.3952   -0.9084    0.2428 N   0  0  0  0  0  0  0  0  0  0  0  0
   -2.1972   -0.3644   -0.0422 H   0  0  0  0  0  0  0  0  0  0  0  0
   -0.1122   -0.1994    0.2658 C   0  0  1  0  0  0  0  0  0  0  0  0
    0.5635   -0.7260    0.9446 H   0  0  0  0  0  0  0  0  0  0  0  0
    0.4924   -0.2204   -1.1558 C   0  0  0  0  0  0  0  0  0  0  0  0
   -0.0218   -0.9736   -1.7518 H   0  0  0  0  0  0  0  0  0  0  0  0
    0.3400    0.7503   -1.6253 H   0  0  0  0  0  0  0  0  0  0  0  0
    1.9728   -0.5642   -1.1931 C   0  0  0  0  0  0  0  0  0  0  0  0
    2.3956   -1.6951   -1.0270 O   0  0  0  0  0  0  0  0  0  0  0  0
    2.8222    0.4113   -1.4055 N   0  0  0  0  0  0  0  0  0  0  0  0
    3.7922    0.1516   -1.4422 H   0  0  0  0  0  0  0  0  0  0  0  0
    2.4987    1.3469   -1.5639 H   0  0  0  0  0  0  0  0  0  0  0  0
   -0.3126    1.2341    0.8050 C   0  0  0  0  0  0  0  0  0  0  0  0
   -1.2484    1.9199    0.3934 O   0  0  0  0  0  0  0  0  0  0  0  0
    0.5615    1.6875    1.7087 N   0  0  0  0  0  0  0  0  0  0  0  0
    1.3461    1.0849    1.9358 H   0  0  0  0  0  0  0  0  0  0  0  0
    0.5043    3.0121    2.3242 C   0  0  0  0  0  0  0  0  0  0  0  0
   -0.4649    3.1514    2.8080 H   0  0  0  0  0  0  0  0  0  0  0  0
    1.2959    3.1139    3.0678 H   0  0  0  0  0  0  0  0  0  0  0  0
    0.6273    3.7799    1.5584 H   0  0  0  0  0  0  0  0  0  0  0  0
  5  6  2  0  0  0  0
  5  7  1  0  0  0  0
  2  3  1  0  0  0  0
  2  4  1  0  0  0  0
  2  5  1  0  0  0  0
  1  2  1  0  0  0  0
 19 20  2  0  0  0  0
 19 21  1  0  0  0  0
 16 17  1  0  0  0  0
 16 18  1  0  0  0  0
 14 15  2  0  0  0  0
 14 16  1  0  0  0  0
 11 12  1  0  0  0  0
 11 13  1  0  0  0  0
 11 14  1  0  0  0  0
  9 10  1  0  0  0  0
  9 11  1  0  0  0  0
  9 19  1  0  0  0  0
  7  8  1  0  0  0  0
  7  9  1  0  0  0  0
 23 24  1  0  0  0  0
 23 25  1  0  0  0  0
 23 26  1  0  0  0  0
 21 22  1  0  0  0  0
 21 23  1  0  0  0  0
M  END
$$$$
default_name
  -OEChem-02102213163D

 26 25  0     1  0  0  0  0  0999 V2000
   -3.0232   -3.6924    1.0038 H   0  0  0  0  0  0  0  0  0  0  0  0
   -3.0082   -2.6684    0.6318 C   0  0  0  0  0  0  0  0  0  0  0  0
   -3.6332   -2.0414    1.2658 H   0  0  0  0  0  0  0  0  0  0  0  0
   -3.3762   -2.6444   -0.3912 H   0  0  0  0  0  0  0  0  0  0  0  0
   -1.5882   -2.1554    0.6658 C   0  0  0  0  0  0  0  0  0  0  0  0
   -0.6832   -2.8764    1.0638 O   0  0  0  0  0  0  0  0  0  0  0  0
   -1.3952   -0.9084    0.2428 N   0  0  0  0  0  0  0  0  0  0  0  0
   -2.1972   -0.3644   -0.0422 H   0  0  0  0  0  0  0  0  0  0  0  0
   -0.1122   -0.1994    0.2658 C   0  0  1  0  0  0  0  0  0  0  0  0
    0.5635   -0.7260    0.9446 H   0  0  0  0  0  0  0  0  0  0  0  0
    0.4924   -0.2204   -1.1558 C   0  0  0  0  0  0  0  0  0  0  0  0
   -0.0218   -0.9736   -1.7518 H   0  0  0  0  0  0  0  0  0  0  0  0
    0.3400    0.7503   -1.6253 H   0  0  0  0  0  0  0  0  0  0  0  0
    1.9728   -0.5642   -1.1931 C   0  0  0  0  0  0  0  0  0  0  0  0
    2.3863   -1.7062   -1.2935 O   0  0  0  0  0  0  0  0  0  0  0  0
    2.8322    0.4215   -1.1031 N   0  0  0  0  0  0  0  0  0  0  0  0
    3.8029    0.1660   -1.1481 H   0  0  0  0  0  0  0  0  0  0  0  0
    2.5176    1.3712   -1.0389 H   0  0  0  0  0  0  0  0  0  0  0  0
   -0.3126    1.2341    0.8050 C   0  0  0  0  0  0  0  0  0  0  0  0
   -1.2484    1.9199    0.3934 O   0  0  0  0  0  0  0  0  0  0  0  0
    0.5615    1.6875    1.7087 N   0  0  0  0  0  0  0  0  0  0  0  0
    1.3461    1.0849    1.9358 H   0  0  0  0  0  0  0  0  0  0  0  0
    0.5043    3.0121    2.3242 C   0  0  0  0  0  0  0  0  0  0  0  0
   -0.4649    3.1514    2.8080 H   0  0  0  0  0  0  0  0  0  0  0  0
    1.2959    3.1139    3.0678 H   0  0  0  0  0  0  0  0  0  0  0  0
    0.6273    3.7799    1.5584 H   0  0  0  0  0  0  0  0  0  0  0  0
  5  6  2  0  0  0  0
  5  7  1  0  0  0  0
  2  3  1  0  0  0  0
  2  4  1  0  0  0  0
  2  5  1  0  0  0  0
  1  2  1  0  0  0  0
 19 20  2  0  0  0  0
 19 21  1  0  0  0  0
 16 17  1  0  0  0  0
 16 18  1  0  0  0  0
 14 15  2  0  0  0  0
 14 16  1  0  0  0  0
 11 12  1  0  0  0  0
 11 13  1  0  0  0  0
 11 14  1  0  0  0  0
  9 10  1  0  0  0  0
  9 11  1  0  0  0  0
  9 19  1  0  0  0  0
  7  8  1  0  0  0  0
  7  9  1  0  0  0  0
 23 24  1  0  0  0  0
 23 25  1  0  0  0  0
 23 26  1  0  0  0  0
 21 22  1  0  0  0  0
 21 23  1  0  0  0  0
M  END
$$$$
default_name
  -OEChem-02102213163D

 26 25  0     1  0  0  0  0  0999 V2000
   -3.0232   -3.6924    1.0038 H   0  0  0  0  0  0  0  0  0  0  0  0
   -3.0082   -2.6684    0.6318 C   0  0  0  0  0  0  0  0  0  0  0  0
   -3.6332   -2.0414    1.2658 H   0  0  0  0  0  0  0  0  0  0  0  0
   -3.3762   -2.6444   -0.3912 H   0  0  0  0  0  0  0  0  0  0  0  0
   -1.5882   -2.1554    0.6658 C   0  0  0  0  0  0  0  0  0  0  0  0
   -0.6832   -2.8764    1.0638 O   0  0  0  0  0  0  0  0  0  0  0  0
   -1.3952   -0.9084    0.2428 N   0  0  0  0  0  0  0  0  0  0  0  0
   -2.1972   -0.3644   -0.0422 H   0  0  0  0  0  0  0  0  0  0  0  0
   -0.1122   -0.1994    0.2658 C   0  0  1  0  0  0  0  0  0  0  0  0
    0.5635   -0.7260    0.9446 H   0  0  0  0  0  0  0  0  0  0  0  0
    0.4924   -0.2204   -1.1558 C   0  0  0  0  0  0  0  0  0  0  0  0
   -0.0218   -0.9736   -1.7518 H   0  0  0  0  0  0  0  0  0  0  0  0
    0.3400    0.7503   -1.6253 H   0  0  0  0  0  0  0  0  0  0  0  0
    1.9728   -0.5642   -1.1931 C   0  0  0  0  0  0  0  0  0  0  0  0
    2.3928   -1.6497   -1.5543 O   0  0  0  0  0  0  0  0  0  0  0  0
    2.8242    0.3551   -0.8080 N   0  0  0  0  0  0  0  0  0  0  0  0
    3.7962    0.1058   -0.8598 H   0  0  0  0  0  0  0  0  0  0  0  0
    2.5052    1.2623   -0.5245 H   0  0  0  0  0  0  0  0  0  0  0  0
   -0.3126    1.2341    0.8050 C   0  0  0  0  0  0  0  0  0  0  0  0
   -1.2484    1.9199    0.3934 O   0  0  0  0  0  0  0  0  0  0  0  0
    0.5615    1.6875    1.7087 N   0  0  0  0  0  0  0  0  0  0  0  0
    1.3461    1.0849    1.9358 H   0  0  0  0  0  0  0  0  0  0  0  0
    0.5043    3.0121    2.3242 C   0  0  0  0  0  0  0  0  0  0  0  0
   -0.4649    3.1514    2.8080 H   0  0  0  0  0  0  0  0  0  0  0  0
    1.2959    3.1139    3.0678 H   0  0  0  0  0  0  0  0  0  0  0  0
    0.6273    3.7799    1.5584 H   0  0  0  0  0  0  0  0  0  0  0  0
  5  6  2  0  0  0  0
  5  7  1  0  0  0  0
  2  3  1  0  0  0  0
  2  4  1  0  0  0  0
  2  5  1  0  0  0  0
  1  2  1  0  0  0  0
 19 20  2  0  0  0  0
 19 21  1  0  0  0  0
 16 17  1  0  0  0  0
 16 18  1  0  0  0  0
 14 15  2  0  0  0  0
 14 16  1  0  0  0  0
 11 12  1  0  0  0  0
 11 13  1  0  0  0  0
 11 14  1  0  0  0  0
  9 10  1  0  0  0  0
  9 11  1  0  0  0  0
  9 19  1  0  0  0  0
  7  8  1  0  0  0  0
  7  9  1  0  0  0  0
 23 24  1  0  0  0  0
 23 25  1  0  0  0  0
 23 26  1  0  0  0  0
 21 22  1  0  0  0  0
 21 23  1  0  0  0  0
M  END
$$$$
default_name
  -OEChem-02102213163D

 26 25  0     1  0  0  0  0  0999 V2000
   -3.0232   -3.6924    1.0038 H   0  0  0  0  0  0  0  0  0  0  0  0
   -3.0082   -2.6684    0.6318 C   0  0  0  0  0  0  0  0  0  0  0  0
   -3.6332   -2.0414    1.2658 H   0  0  0  0  0  0  0  0  0  0  0  0
   -3.3762   -2.6444   -0.3912 H   0  0  0  0  0  0  0  0  0  0  0  0
   -1.5882   -2.1554    0.6658 C   0  0  0  0  0  0  0  0  0  0  0  0
   -0.6832   -2.8764    1.0638 O   0  0  0  0  0  0  0  0  0  0  0  0
   -1.3952   -0.9084    0.2428 N   0  0  0  0  0  0  0  0  0  0  0  0
   -2.1972   -0.3644   -0.0422 H   0  0  0  0  0  0  0  0  0  0  0  0
   -0.1122   -0.1994    0.2658 C   0  0  1  0  0  0  0  0  0  0  0  0
    0.5635   -0.7260    0.9446 H   0  0  0  0  0  0  0  0  0  0  0  0
    0.4924   -0.2204   -1.1558 C   0  0  0  0  0  0  0  0  0  0  0  0
   -0.0218   -0.9736   -1.7518 H   0  0  0  0  0  0  0  0  0  0  0  0
    0.3400    0.7503   -1.6253 H   0  0  0  0  0  0  0  0  0  0  0  0
    1.9728   -0.5642   -1.1931 C   0  0  0  0  0  0  0  0  0  0  0  0
    2.4148   -1.5295   -1.7915 O   0  0  0  0  0  0  0  0  0  0  0  0
    2.7987    0.2166   -0.5401 N   0  0  0  0  0  0  0  0  0  0  0  0
    3.7724   -0.0250   -0.5969 H   0  0  0  0  0  0  0  0  0  0  0  0
    2.4624    1.0275   -0.0559 H   0  0  0  0  0  0  0  0  0  0  0  0
   -0.3126    1.2341    0.8050 C   0  0  0  0  0  0  0  0  0  0  0  0
   -1.2484    1.9199    0.3934 O   0  0  0  0  0  0  0  0  0  0  0  0
    0.5615    1.6875    1.7087 N   0  0  0  0  0  0  0  0  0  0  0  0
    1.3461    1.0849    1.9358 H   0  0  0  0  0  0  0  0  0  0  0  0
    0.5043    3.0121    2.3242 C   0  0  0  0  0  0  0  0  0  0  0  0
   -0.4649    3.1514    2.8080 H   0  0  0  0  0  0  0  0  0  0  0  0
    1.2959    3.1139    3.0678 H   0  0  0  0  0  0  0  0  0  0  0  0
    0.6273    3.7799    1.5584 H   0  0  0  0  0  0  0  0  0  0  0  0
  5  6  2  0  0  0  0
  5  7  1  0  0  0  0
  2  3  1  0  0  0  0
  2  4  1  0  0  0  0
  2  5  1  0  0  0  0
  1  2  1  0  0  0  0
 19 20  2  0  0  0  0
 19 21  1  0  0  0  0
 16 17  1  0  0  0  0
 16 18  1  0  0  0  0
 14 15  2  0  0  0  0
 14 16  1  0  0  0  0
 11 12  1  0  0  0  0
 11 13  1  0  0  0  0
 11 14  1  0  0  0  0
  9 10  1  0  0  0  0
  9 11  1  0  0  0  0
  9 19  1  0  0  0  0
  7  8  1  0  0  0  0
  7  9  1  0  0  0  0
 23 24  1  0  0  0  0
 23 25  1  0  0  0  0
 23 26  1  0  0  0  0
 21 22  1  0  0  0  0
 21 23  1  0  0  0  0
M  END
$$$$
default_name
  -OEChem-02102213163D

 26 25  0     1  0  0  0  0  0999 V2000
   -3.0232   -3.6924    1.0038 H   0  0  0  0  0  0  0  0  0  0  0  0
   -3.0082   -2.6684    0.6318 C   0  0  0  0  0  0  0  0  0  0  0  0
   -3.6332   -2.0414    1.2658 H   0  0  0  0  0  0  0  0  0  0  0  0
   -3.3762   -2.6444   -0.3912 H   0  0  0  0  0  0  0  0  0  0  0  0
   -1.5882   -2.1554    0.6658 C   0  0  0  0  0  0  0  0  0  0  0  0
   -0.6832   -2.8764    1.0638 O   0  0  0  0  0  0  0  0  0  0  0  0
   -1.3952   -0.9084    0.2428 N   0  0  0  0  0  0  0  0  0  0  0  0
   -2.1972   -0.3644   -0.0422 H   0  0  0  0  0  0  0  0  0  0  0  0
   -0.1122   -0.1994    0.2658 C   0  0  1  0  0  0  0  0  0  0  0  0
    0.5635   -0.7260    0.9446 H   0  0  0  0  0  0  0  0  0  0  0  0
    0.4924   -0.2204   -1.1558 C   0  0  0  0  0  0  0  0  0  0  0  0
   -0.0218   -0.9736   -1.7518 H   0  0  0  0  0  0  0  0  0  0  0  0
    0.3400    0.7503   -1.6253 H   0  0  0  0  0  0  0  0  0  0  0  0
    1.9728   -0.5642   -1.1931 C   0  0  0  0  0  0  0  0  0  0  0  0
    2.4507   -1.3537   -1.9891 O   0  0  0  0  0  0  0  0  0  0  0  0
    2.7576    0.0155   -0.3177 N   0  0  0  0  0  0  0  0  0  0  0  0
    3.7332   -0.2175   -0.3774 H   0  0  0  0  0  0  0  0  0  0  0  0
    2.3922    0.6828    0.3351 H   0  0  0  0  0  0  0  0  0  0  0  0
   -0.3126    1.2341    0.8050 C   0  0  0  0  0  0  0  0  0  0  0  0
   -1.2484    1.9199    0.3934 O   0  0  0  0  0  0  0  0  0  0  0  0
    0.5615    1.6875    1.7087 N   0  0  0  0  0  0  0  0  0  0  0  0
    1.3461    1.0849    1.9358 H   0  0  0  0  0  0  0  0  0  0  0  0
    0.5043    3.0121    2.3242 C   0  0  0  0  0  0  0  0  0  0  0  0
   -0.4649    3.1514    2.8080 H   0  0  0  0  0  0  0  0  0  0  0  0
    1.2959    3.1139    3.0678 H   0  0  0  0  0  0  0  0  0  0  0  0
    0.6273    3.7799    1.5584 H   0  0  0  0  0  0  0  0  0  0  0  0
  5  6  2  0  0  0  0
  5  7  1  0  0  0  0
  2  3  1  0  0  0  0
  2  4  1  0  0  0  0
  2  5  1  0  0  0  0
  1  2  1  0  0  0  0
 19 20  2  0  0  0  0
 19 21  1  0  0  0  0
 16 17  1  0  0  0  0
 16 18  1  0  0  0  0
 14 15  2  0  0  0  0
 14 16  1  0  0  0  0
 11 12  1  0  0  0  0
 11 13  1  0  0  0  0
 11 14  1  0  0  0  0
  9 10  1  0  0  0  0
  9 11  1  0  0  0  0
  9 19  1  0  0  0  0
  7  8  1  0  0  0  0
  7  9  1  0  0  0  0
 23 24  1  0  0  0  0
 23 25  1  0  0  0  0
 23 26  1  0  0  0  0
 21 22  1  0  0  0  0
 21 23  1  0  0  0  0
M  END
$$$$
default_name
  -OEChem-02102213163D

 26 25  0     1  0  0  0  0  0999 V2000
   -3.0232   -3.6924    1.0038 H   0  0  0  0  0  0  0  0  0  0  0  0
   -3.0082   -2.6684    0.6318 C   0  0  0  0  0  0  0  0  0  0  0  0
   -3.6332   -2.0414    1.2658 H   0  0  0  0  0  0  0  0  0  0  0  0
   -3.3762   -2.6444   -0.3912 H   0  0  0  0  0  0  0  0  0  0  0  0
   -1.5882   -2.1554    0.6658 C   0  0  0  0  0  0  0  0  0  0  0  0
   -0.6832   -2.8764    1.0638 O   0  0  0  0  0  0  0  0  0  0  0  0
   -1.3952   -0.9084    0.2428 N   0  0  0  0  0  0  0  0  0  0  0  0
   -2.1972   -0.3644   -0.0422 H   0  0  0  0  0  0  0  0  0  0  0  0
   -0.1122   -0.1994    0.2658 C   0  0  1  0  0  0  0  0  0  0  0  0
    0.5635   -0.7260    0.9446 H   0  0  0  0  0  0  0  0  0  0  0  0
    0.4924   -0.2204   -1.1558 C   0  0  0  0  0  0  0  0  0  0  0  0
   -0.0218   -0.9736   -1.7518 H   0  0  0  0  0  0  0  0  0  0  0  0
    0.3400    0.7503   -1.6253 H   0  0  0  0  0  0  0  0  0  0  0  0
    1.9728   -0.5642   -1.1931 C   0  0  0  0  0  0  0  0  0  0  0  0
    2.4980   -1.1343   -2.1335 O   0  0  0  0  0  0  0  0  0  0  0  0
    2.7036   -0.2346   -0.1560 N   0  0  0  0  0  0  0  0  0  0  0  0
    3.6813   -0.4585   -0.2161 H   0  0  0  0  0  0  0  0  0  0  0  0
    2.2993    0.2519    0.6218 H   0  0  0  0  0  0  0  0  0  0  0  0
   -0.3126    1.2341    0.8050 C   0  0  0  0  0  0  0  0  0  0  0  0
   -1.2484    1.9199    0.3934 O   0  0  0  0  0  0  0  0  0  0  0  0
    0.5615    1.6875    1.7087 N   0  0  0  0  0  0  0  0  0  0  0  0
    1.3461    1.0849    1.9358 H   0  0  0  0  0  0  0  0  0  0  0  0
    0.5043    3.0121    2.3242 C   0  0  0  0  0  0  0  0  0  0  0  0
   -0.4649    3.1514    2.8080 H   0  0  0  0  0  0  0  0  0  0  0  0
    1.2959    3.1139    3.0678 H   0  0  0  0  0  0  0  0  0  0  0  0
    0.6273    3.7799    1.5584 H   0  0  0  0  0  0  0  0  0  0  0  0
  5  6  2  0  0  0  0
  5  7  1  0  0  0  0
  2  3  1  0  0  0  0
  2  4  1  0  0  0  0
  2  5  1  0  0  0  0
  1  2  1  0  0  0  0
 19 20  2  0  0  0  0
 19 21  1  0  0  0  0
 16 17  1  0  0  0  0
 16 18  1  0  0  0  0
 14 15  2  0  0  0  0
 14 16  1  0  0  0  0
 11 12  1  0  0  0  0
 11 13  1  0  0  0  0
 11 14  1  0  0  0  0
  9 10  1  0  0  0  0
  9 11  1  0  0  0  0
  9 19  1  0  0  0  0
  7  8  1  0  0  0  0
  7  9  1  0  0  0  0
 23 24  1  0  0  0  0
 23 25  1  0  0  0  0
 23 26  1  0  0  0  0
 21 22  1  0  0  0  0
 21 23  1  0  0  0  0
M  END
$$$$
default_name
  -OEChem-02102213163D

 26 25  0     1  0  0  0  0  0999 V2000
   -3.0232   -3.6924    1.0038 H   0  0  0  0  0  0  0  0  0  0  0  0
   -3.0082   -2.6684    0.6318 C   0  0  0  0  0  0  0  0  0  0  0  0
   -3.6332   -2.0414    1.2658 H   0  0  0  0  0  0  0  0  0  0  0  0
   -3.3762   -2.6444   -0.3912 H   0  0  0  0  0  0  0  0  0  0  0  0
   -1.5882   -2.1554    0.6658 C   0  0  0  0  0  0  0  0  0  0  0  0
   -0.6832   -2.8764    1.0638 O   0  0  0  0  0  0  0  0  0  0  0  0
   -1.3952   -0.9084    0.2428 N   0  0  0  0  0  0  0  0  0  0  0  0
   -2.1972   -0.3644   -0.0422 H   0  0  0  0  0  0  0  0  0  0  0  0
   -0.1122   -0.1994    0.2658 C   0  0  1  0  0  0  0  0  0  0  0  0
    0.5635   -0.7260    0.9446 H   0  0  0  0  0  0  0  0  0  0  0  0
    0.4924   -0.2204   -1.1558 C   0  0  0  0  0  0  0  0  0  0  0  0
   -0.0218   -0.9736   -1.7518 H   0  0  0  0  0  0  0  0  0  0  0  0
    0.3400    0.7503   -1.6253 H   0  0  0  0  0  0  0  0  0  0  0  0
    1.9728   -0.5642   -1.1931 C   0  0  0  0  0  0  0  0  0  0  0  0
    2.5535   -0.8863   -2.2149 O   0  0  0  0  0  0  0  0  0  0  0  0
    2.6404   -0.5165   -0.0660 N   0  0  0  0  0  0  0  0  0  0  0  0
    3.6202   -0.7316   -0.1241 H   0  0  0  0  0  0  0  0  0  0  0  0
    2.1901   -0.2361    0.7847 H   0  0  0  0  0  0  0  0  0  0  0  0
   -0.3126    1.2341    0.8050 C   0  0  0  0  0  0  0  0  0  0  0  0
   -1.2484    1.9199    0.3934 O   0  0  0  0  0  0  0  0  0  0  0  0
    0.5615    1.6875    1.7087 N   0  0  0  0  0  0  0  0  0  0  0  0
    1.3461    1.0849    1.9358 H   0  0  0  0  0  0  0  0  0  0  0  0
    0.5043    3.0121    2.3242 C   0  0  0  0  0  0  0  0  0  0  0  0
   -0.4649    3.1514    2.8080 H   0  0  0  0  0  0  0  0  0  0  0  0
    1.2959    3.1139    3.0678 H   0  0  0  0  0  0  0  0  0  0  0  0
    0.6273    3.7799    1.5584 H   0  0  0  0  0  0  0  0  0  0  0  0
  5  6  2  0  0  0  0
  5  7  1  0  0  0  0
  2  3  1  0  0  0  0
  2  4  1  0  0  0  0
  2  5  1  0  0  0  0
  1  2  1  0  0  0  0
 19 20  2  0  0  0  0
 19 21  1  0  0  0  0
 16 17  1  0  0  0  0
 16 18  1  0  0  0  0
 14 15  2  0  0  0  0
 14 16  1  0  0  0  0
 11 12  1  0  0  0  0
 11 13  1  0  0  0  0
 11 14  1  0  0  0  0
  9 10  1  0  0  0  0
  9 11  1  0  0  0  0
  9 19  1  0  0  0  0
  7  8  1  0  0  0  0
  7  9  1  0  0  0  0
 23 24  1  0  0  0  0
 23 25  1  0  0  0  0
 23 26  1  0  0  0  0
 21 22  1  0  0  0  0
 21 23  1  0  0  0  0
M  END
$$$$
default_name
  -OEChem-02102213163D

 26 25  0     1  0  0  0  0  0999 V2000
   -3.0232   -3.6924    1.0038 H   0  0  0  0  0  0  0  0  0  0  0  0
   -3.0082   -2.6684    0.6318 C   0  0  0  0  0  0  0  0  0  0  0  0
   -3.6332   -2.0414    1.2658 H   0  0  0  0  0  0  0  0  0  0  0  0
   -3.3762   -2.6444   -0.3912 H   0  0  0  0  0  0  0  0  0  0  0  0
   -1.5882   -2.1554    0.6658 C   0  0  0  0  0  0  0  0  0  0  0  0
   -0.6832   -2.8764    1.0638 O   0  0  0  0  0  0  0  0  0  0  0  0
   -1.3952   -0.9084    0.2428 N   0  0  0  0  0  0  0  0  0  0  0  0
   -2.1972   -0.3644   -0.0422 H   0  0  0  0  0  0  0  0  0  0  0  0
   -0.1122   -0.1994    0.2658 C   0  0  1  0  0  0  0  0  0  0  0  0
    0.5635   -0.7260    0.9446 H   0  0  0  0  0  0  0  0  0  0  0  0
    0.4924   -0.2204   -1.1558 C   0  0  0  0  0  0  0  0  0  0  0  0
   -0.1768   -0.7653   -1.8208 H   0  0  0  0  0  0  0  0  0  0  0  0
    0.5829    0.8009   -1.5228 H   0  0  0  0  0  0  0  0  0  0  0  0
    1.8488   -0.9016   -1.2408 C   0  0  0  0  0  0  0  0  0  0  0  0
    2.4726   -1.0101   -2.2821 O   0  0  0  0  0  0  0  0  0  0  0  0
    2.3543   -1.3979   -0.1378 N   0  0  0  0  0  0  0  0  0  0  0  0
    3.2593   -1.8265   -0.2210 H   0  0  0  0  0  0  0  0  0  0  0  0
    1.8698   -1.3049    0.7349 H   0  0  0  0  0  0  0  0  0  0  0  0
   -0.3126    1.2341    0.8050 C   0  0  0  0  0  0  0  0  0  0  0  0
   -1.2484    1.9199    0.3934 O   0  0  0  0  0  0  0  0  0  0  0  0
    0.5615    1.6875    1.7087 N   0  0  0  0  0  0  0  0  0  0  0  0
    1.3461    1.0849    1.9358 H   0  0  0  0  0  0  0  0  0  0  0  0
    0.5043    3.0121    2.3242 C   0  0  0  0  0  0  0  0  0  0  0  0
   -0.4649    3.1514    2.8080 H   0  0  0  0  0  0  0  0  0  0  0  0
    1.2959    3.1139    3.0678 H   0  0  0  0  0  0  0  0  0  0  0  0
    0.6273    3.7799    1.5584 H   0  0  0  0  0  0  0  0  0  0  0  0
  5  6  2  0  0  0  0
  5  7  1  0  0  0  0
  2  3  1  0  0  0  0
  2  4  1  0  0  0  0
  2  5  1  0  0  0  0
  1  2  1  0  0  0  0
 19 20  2  0  0  0  0
 19 21  1  0  0  0  0
 16 17  1  0  0  0  0
 16 18  1  0  0  0  0
 14 15  2  0  0  0  0
 14 16  1  0  0  0  0
 11 12  1  0  0  0  0
 11 13  1  0  0  0  0
 11 14  1  0  0  0  0
  9 10  1  0  0  0  0
  9 11  1  0  0  0  0
  9 19  1  0  0  0  0
  7  8  1  0  0  0  0
  7  9  1  0  0  0  0
 23 24  1  0  0  0  0
 23 25  1  0  0  0  0
 23 26  1  0  0  0  0
 21 22  1  0  0  0  0
 21 23  1  0  0  0  0
M  END
$$$$
default_name
  -OEChem-02102213163D

 26 25  0     1  0  0  0  0  0999 V2000
   -3.0232   -3.6924    1.0038 H   0  0  0  0  0  0  0  0  0  0  0  0
   -3.0082   -2.6684    0.6318 C   0  0  0  0  0  0  0  0  0  0  0  0
   -3.6332   -2.0414    1.2658 H   0  0  0  0  0  0  0  0  0  0  0  0
   -3.3762   -2.6444   -0.3912 H   0  0  0  0  0  0  0  0  0  0  0  0
   -1.5882   -2.1554    0.6658 C   0  0  0  0  0  0  0  0  0  0  0  0
   -0.6832   -2.8764    1.0638 O   0  0  0  0  0  0  0  0  0  0  0  0
   -1.3952   -0.9084    0.2428 N   0  0  0  0  0  0  0  0  0  0  0  0
   -2.1972   -0.3644   -0.0422 H   0  0  0  0  0  0  0  0  0  0  0  0
   -0.1122   -0.1994    0.2658 C   0  0  1  0  0  0  0  0  0  0  0  0
    0.5635   -0.7260    0.9446 H   0  0  0  0  0  0  0  0  0  0  0  0
    0.4924   -0.2204   -1.1558 C   0  0  0  0  0  0  0  0  0  0  0  0
   -0.1768   -0.7653   -1.8208 H   0  0  0  0  0  0  0  0  0  0  0  0
    0.5829    0.8009   -1.5228 H   0  0  0  0  0  0  0  0  0  0  0  0
    1.8488   -0.9016   -1.2408 C   0  0  0  0  0  0  0  0  0  0  0  0
    2.5907   -0.7851   -2.2006 O   0  0  0  0  0  0  0  0  0  0  0  0
    2.2205   -1.6524   -0.2326 N   0  0  0  0  0  0  0  0  0  0  0  0
    3.1287   -2.0755   -0.3088 H   0  0  0  0  0  0  0  0  0  0  0  0
    1.6368   -1.7490    0.5767 H   0  0  0  0  0  0  0  0  0  0  0  0
   -0.3126    1.2341    0.8050 C   0  0  0  0  0  0  0  0  0  0  0  0
   -1.2484    1.9199    0.3934 O   0  0  0  0  0  0  0  0  0  0  0  0
    0.5615    1.6875    1.7087 N   0  0  0  0  0  0  0  0  0  0  0  0
    1.3461    1.0849    1.9358 H   0  0  0  0  0  0  0  0  0  0  0  0
    0.5043    3.0121    2.3242 C   0  0  0  0  0  0  0  0  0  0  0  0
   -0.4649    3.1514    2.8080 H   0  0  0  0  0  0  0  0  0  0  0  0
    1.2959    3.1139    3.0678 H   0  0  0  0  0  0  0  0  0  0  0  0
    0.6273    3.7799    1.5584 H   0  0  0  0  0  0  0  0  0  0  0  0
  5  6  2  0  0  0  0
  5  7  1  0  0  0  0
  2  3  1  0  0  0  0
  2  4  1  0  0  0  0
  2  5  1  0  0  0  0
  1  2  1  0  0  0  0
 19 20  2  0  0  0  0
 19 21  1  0  0  0  0
 16 17  1  0  0  0  0
 16 18  1  0  0  0  0
 14 15  2  0  0  0  0
 14 16  1  0  0  0  0
 11 12  1  0  0  0  0
 11 13  1  0  0  0  0
 11 14  1  0  0  0  0
  9 10  1  0  0  0  0
  9 11  1  0  0  0  0
  9 19  1  0  0  0  0
  7  8  1  0  0  0  0
  7  9  1  0  0  0  0
 23 24  1  0  0  0  0
 23 25  1  0  0  0  0
 23 26  1  0  0  0  0
 21 22  1  0  0  0  0
 21 23  1  0  0  0  0
M  END
$$$$
default_name
  -OEChem-02102213163D

 26 25  0     1  0  0  0  0  0999 V2000
   -3.0232   -3.6924    1.0038 H   0  0  0  0  0  0  0  0  0  0  0  0
   -3.0082   -2.6684    0.6318 C   0  0  0  0  0  0  0  0  0  0  0  0
   -3.6332   -2.0414    1.2658 H   0  0  0  0  0  0  0  0  0  0  0  0
   -3.3762   -2.6444   -0.3912 H   0  0  0  0  0  0  0  0  0  0  0  0
   -1.5882   -2.1554    0.6658 C   0  0  0  0  0  0  0  0  0  0  0  0
   -0.6832   -2.8764    1.0638 O   0  0  0  0  0  0  0  0  0  0  0  0
   -1.3952   -0.9084    0.2428 N   0  0  0  0  0  0  0  0  0  0  0  0
   -2.1972   -0.3644   -0.0422 H   0  0  0  0  0  0  0  0  0  0  0  0
   -0.1122   -0.1994    0.2658 C   0  0  1  0  0  0  0  0  0  0  0  0
    0.5635   -0.7260    0.9446 H   0  0  0  0  0  0  0  0  0  0  0  0
    0.4924   -0.2204   -1.1558 C   0  0  0  0  0  0  0  0  0  0  0  0
   -0.1768   -0.7653   -1.8208 H   0  0  0  0  0  0  0  0  0  0  0  0
    0.5829    0.8009   -1.5228 H   0  0  0  0  0  0  0  0  0  0  0  0
    1.8488   -0.9016   -1.2408 C   0  0  0  0  0  0  0  0  0  0  0  0
    2.6986   -0.5883   -2.0562 O   0  0  0  0  0  0  0  0  0  0  0  0
    2.0987   -1.8743   -0.3983 N   0  0  0  0  0  0  0  0  0  0  0  0
    3.0092   -2.2939   -0.4663 H   0  0  0  0  0  0  0  0  0  0  0  0
    1.4237   -2.1382    0.2943 H   0  0  0  0  0  0  0  0  0  0  0  0
   -0.3126    1.2341    0.8050 C   0  0  0  0  0  0  0  0  0  0  0  0
   -1.2484    1.9199    0.3934 O   0  0  0  0  0  0  0  0  0  0  0  0
    0.5615    1.6875    1.7087 N   0  0  0  0  0  0  0  0  0  0  0  0
    1.3461    1.0849    1.9358 H   0  0  0  0  0  0  0  0  0  0  0  0
    0.5043    3.0121    2.3242 C   0  0  0  0  0  0  0  0  0  0  0  0
   -0.4649    3.1514    2.8080 H   0  0  0  0  0  0  0  0  0  0  0  0
    1.2959    3.1139    3.0678 H   0  0  0  0  0  0  0  0  0  0  0  0
    0.6273    3.7799    1.5584 H   0  0  0  0  0  0  0  0  0  0  0  0
  5  6  2  0  0  0  0
  5  7  1  0  0  0  0
  2  3  1  0  0  0  0
  2  4  1  0  0  0  0
  2  5  1  0  0  0  0
  1  2  1  0  0  0  0
 19 20  2  0  0  0  0
 19 21  1  0  0  0  0
 16 17  1  0  0  0  0
 16 18  1  0  0  0  0
 14 15  2  0  0  0  0
 14 16  1  0  0  0  0
 11 12  1  0  0  0  0
 11 13  1  0  0  0  0
 11 14  1  0  0  0  0
  9 10  1  0  0  0  0
  9 11  1  0  0  0  0
  9 19  1  0  0  0  0
  7  8  1  0  0  0  0
  7  9  1  0  0  0  0
 23 24  1  0  0  0  0
 23 25  1  0  0  0  0
 23 26  1  0  0  0  0
 21 22  1  0  0  0  0
 21 23  1  0  0  0  0
M  END
$$$$
default_name
  -OEChem-02102213163D

 26 25  0     1  0  0  0  0  0999 V2000
   -3.0232   -3.6924    1.0038 H   0  0  0  0  0  0  0  0  0  0  0  0
   -3.0082   -2.6684    0.6318 C   0  0  0  0  0  0  0  0  0  0  0  0
   -3.6332   -2.0414    1.2658 H   0  0  0  0  0  0  0  0  0  0  0  0
   -3.3762   -2.6444   -0.3912 H   0  0  0  0  0  0  0  0  0  0  0  0
   -1.5882   -2.1554    0.6658 C   0  0  0  0  0  0  0  0  0  0  0  0
   -0.6832   -2.8764    1.0638 O   0  0  0  0  0  0  0  0  0  0  0  0
   -1.3952   -0.9084    0.2428 N   0  0  0  0  0  0  0  0  0  0  0  0
   -2.1972   -0.3644   -0.0422 H   0  0  0  0  0  0  0  0  0  0  0  0
   -0.1122   -0.1994    0.2658 C   0  0  1  0  0  0  0  0  0  0  0  0
    0.5635   -0.7260    0.9446 H   0  0  0  0  0  0  0  0  0  0  0  0
    0.4924   -0.2204   -1.1558 C   0  0  0  0  0  0  0  0  0  0  0  0
   -0.1768   -0.7653   -1.8208 H   0  0  0  0  0  0  0  0  0  0  0  0
    0.5829    0.8009   -1.5228 H   0  0  0  0  0  0  0  0  0  0  0  0
    1.8488   -0.9016   -1.2408 C   0  0  0  0  0  0  0  0  0  0  0  0
    2.7889   -0.4331   -1.8588 O   0  0  0  0  0  0  0  0  0  0  0  0
    1.9970   -2.0487   -0.6239 N   0  0  0  0  0  0  0  0  0  0  0  0
    2.9088   -2.4668   -0.6828 H   0  0  0  0  0  0  0  0  0  0  0  0
    1.2450   -2.4457   -0.0930 H   0  0  0  0  0  0  0  0  0  0  0  0
   -0.3126    1.2341    0.8050 C   0  0  0  0  0  0  0  0  0  0  0  0
   -1.2484    1.9199    0.3934 O   0  0  0  0  0  0  0  0  0  0  0  0
    0.5615    1.6875    1.7087 N   0  0  0  0  0  0  0  0  0  0  0  0
    1.3461    1.0849    1.9358 H   0  0  0  0  0  0  0  0  0  0  0  0
    0.5043    3.0121    2.3242 C   0  0  0  0  0  0  0  0  0  0  0  0
   -0.4649    3.1514    2.8080 H   0  0  0  0  0  0  0  0  0  0  0  0
    1.2959    3.1139    3.0678 H   0  0  0  0  0  0  0  0  0  0  0  0
    0.6273    3.7799    1.5584 H   0  0  0  0  0  0  0  0  0  0  0  0
  5  6  2  0  0  0  0
  5  7  1  0  0  0  0
  2  3  1  0  0  0  0
  2  4  1  0  0  0  0
  2  5  1  0  0  0  0
  1  2  1  0  0  0  0
 19 20  2  0  0  0  0
 19 21  1  0  0  0  0
 16 17  1  0  0  0  0
 16 18  1  0  0  0  0
 14 15  2  0  0  0  0
 14 16  1  0  0  0  0
 11 12  1  0  0  0  0
 11 13  1  0  0  0  0
 11 14  1  0  0  0  0
  9 10  1  0  0  0  0
  9 11  1  0  0  0  0
  9 19  1  0  0  0  0
  7  8  1  0  0  0  0
  7  9  1  0  0  0  0
 23 24  1  0  0  0  0
 23 25  1  0  0  0  0
 23 26  1  0  0  0  0
 21 22  1  0  0  0  0
 21 23  1  0  0  0  0
M  END
$$$$
default_name
  -OEChem-02102213163D

 26 25  0     1  0  0  0  0  0999 V2000
   -3.0232   -3.6924    1.0038 H   0  0  0  0  0  0  0  0  0  0  0  0
   -3.0082   -2.6684    0.6318 C   0  0  0  0  0  0  0  0  0  0  0  0
   -3.6332   -2.0414    1.2658 H   0  0  0  0  0  0  0  0  0  0  0  0
   -3.3762   -2.6444   -0.3912 H   0  0  0  0  0  0  0  0  0  0  0  0
   -1.5882   -2.1554    0.6658 C   0  0  0  0  0  0  0  0  0  0  0  0
   -0.6832   -2.8764    1.0638 O   0  0  0  0  0  0  0  0  0  0  0  0
   -1.3952   -0.9084    0.2428 N   0  0  0  0  0  0  0  0  0  0  0  0
   -2.1972   -0.3644   -0.0422 H   0  0  0  0  0  0  0  0  0  0  0  0
   -0.1122   -0.1994    0.2658 C   0  0  1  0  0  0  0  0  0  0  0  0
    0.5635   -0.7260    0.9446 H   0  0  0  0  0  0  0  0  0  0  0  0
    0.4924   -0.2204   -1.1558 C   0  0  0  0  0  0  0  0  0  0  0  0
   -0.1768   -0.7653   -1.8208 H   0  0  0  0  0  0  0  0  0  0  0  0
    0.5829    0.8009   -1.5228 H   0  0  0  0  0  0  0  0  0  0  0  0
    1.8488   -0.9016   -1.2408 C   0  0  0  0  0  0  0  0  0  0  0  0
    2.8555   -0.3300   -1.6218 O   0  0  0  0  0  0  0  0  0  0  0  0
    1.9224   -2.1635   -0.8938 N   0  0  0  0  0  0  0  0  0  0  0  0
    2.8345   -2.5823   -0.9434 H   0  0  0  0  0  0  0  0  0  0  0  0
    1.1128   -2.6508   -0.5589 H   0  0  0  0  0  0  0  0  0  0  0  0
   -0.3126    1.2341    0.8050 C   0  0  0  0  0  0  0  0  0  0  0  0
   -1.2484    1.9199    0.3934 O   0  0  0  0  0  0  0  0  0  0  0  0
    0.5615    1.6875    1.7087 N   0  0  0  0  0  0  0  0  0  0  0  0
    1.3461    1.0849    1.9358 H   0  0  0  0  0  0  0  0  0  0  0  0
    0.5043    3.0121    2.3242 C   0  0  0  0  0  0  0  0  0  0  0  0
   -0.4649    3.1514    2.8080 H   0  0  0  0  0  0  0  0  0  0  0  0
    1.2959    3.1139    3.0678 H   0  0  0  0  0  0  0  0  0  0  0  0
    0.6273    3.7799    1.5584 H   0  0  0  0  0  0  0  0  0  0  0  0
  5  6  2  0  0  0  0
  5  7  1  0  0  0  0
  2  3  1  0  0  0  0
  2  4  1  0  0  0  0
  2  5  1  0  0  0  0
  1  2  1  0  0  0  0
 19 20  2  0  0  0  0
 19 21  1  0  0  0  0
 16 17  1  0  0  0  0
 16 18  1  0  0  0  0
 14 15  2  0  0  0  0
 14 16  1  0  0  0  0
 11 12  1  0  0  0  0
 11 13  1  0  0  0  0
 11 14  1  0  0  0  0
  9 10  1  0  0  0  0
  9 11  1  0  0  0  0
  9 19  1  0  0  0  0
  7  8  1  0  0  0  0
  7  9  1  0  0  0  0
 23 24  1  0  0  0  0
 23 25  1  0  0  0  0
 23 26  1  0  0  0  0
 21 22  1  0  0  0  0
 21 23  1  0  0  0  0
M  END
$$$$
default_name
  -OEChem-02102213163D

 26 25  0     1  0  0  0  0  0999 V2000
   -3.0232   -3.6924    1.0038 H   0  0  0  0  0  0  0  0  0  0  0  0
   -3.0082   -2.6684    0.6318 C   0  0  0  0  0  0  0  0  0  0  0  0
   -3.6332   -2.0414    1.2658 H   0  0  0  0  0  0  0  0  0  0  0  0
   -3.3762   -2.6444   -0.3912 H   0  0  0  0  0  0  0  0  0  0  0  0
   -1.5882   -2.1554    0.6658 C   0  0  0  0  0  0  0  0  0  0  0  0
   -0.6832   -2.8764    1.0638 O   0  0  0  0  0  0  0  0  0  0  0  0
   -1.3952   -0.9084    0.2428 N   0  0  0  0  0  0  0  0  0  0  0  0
   -2.1972   -0.3644   -0.0422 H   0  0  0  0  0  0  0  0  0  0  0  0
   -0.1122   -0.1994    0.2658 C   0  0  1  0  0  0  0  0  0  0  0  0
    0.5635   -0.7260    0.9446 H   0  0  0  0  0  0  0  0  0  0  0  0
    0.4924   -0.2204   -1.1558 C   0  0  0  0  0  0  0  0  0  0  0  0
   -0.1768   -0.7653   -1.8208 H   0  0  0  0  0  0  0  0  0  0  0  0
    0.5829    0.8009   -1.5228 H   0  0  0  0  0  0  0  0  0  0  0  0
    1.8488   -0.9016   -1.2408 C   0  0  0  0  0  0  0  0  0  0  0  0
    2.8938   -0.2862   -1.3614 O   0  0  0  0  0  0  0  0  0  0  0  0
    1.8800   -2.2111   -1.1896 N   0  0  0  0  0  0  0  0  0  0  0  0
    2.7912   -2.6326   -1.2304 H   0  0  0  0  0  0  0  0  0  0  0  0
    1.0362   -2.7394   -1.0716 H   0  0  0  0  0  0  0  0  0  0  0  0
   -0.3126    1.2341    0.8050 C   0  0  0  0  0  0  0  0  0  0  0  0
   -1.2484    1.9199    0.3934 O   0  0  0  0  0  0  0  0  0  0  0  0
    0.5615    1.6875    1.7087 N   0  0  0  0  0  0  0  0  0  0  0  0
    1.3461    1.0849    1.9358 H   0  0  0  0  0  0  0  0  0  0  0  0
    0.5043    3.0121    2.3242 C   0  0  0  0  0  0  0  0  0  0  0  0
   -0.4649    3.1514    2.8080 H   0  0  0  0  0  0  0  0  0  0  0  0
    1.2959    3.1139    3.0678 H   0  0  0  0  0  0  0  0  0  0  0  0
    0.6273    3.7799    1.5584 H   0  0  0  0  0  0  0  0  0  0  0  0
  5  6  2  0  0  0  0
  5  7  1  0  0  0  0
  2  3  1  0  0  0  0
  2  4  1  0  0  0  0
  2  5  1  0  0  0  0
  1  2  1  0  0  0  0
 19 20  2  0  0  0  0
 19 21  1  0  0  0  0
 16 17  1  0  0  0  0
 16 18  1  0  0  0  0
 14 15  2  0  0  0  0
 14 16  1  0  0  0  0
 11 12  1  0  0  0  0
 11 13  1  0  0  0  0
 11 14  1  0  0  0  0
  9 10  1  0  0  0  0
  9 11  1  0  0  0  0
  9 19  1  0  0  0  0
  7  8  1  0  0  0  0
  7  9  1  0  0  0  0
 23 24  1  0  0  0  0
 23 25  1  0  0  0  0
 23 26  1  0  0  0  0
 21 22  1  0  0  0  0
 21 23  1  0  0  0  0
M  END
$$$$
default_name
  -OEChem-02102213163D

 26 25  0     1  0  0  0  0  0999 V2000
   -3.0232   -3.6924    1.0038 H   0  0  0  0  0  0  0  0  0  0  0  0
   -3.0082   -2.6684    0.6318 C   0  0  0  0  0  0  0  0  0  0  0  0
   -3.6332   -2.0414    1.2658 H   0  0  0  0  0  0  0  0  0  0  0  0
   -3.3762   -2.6444   -0.3912 H   0  0  0  0  0  0  0  0  0  0  0  0
   -1.5882   -2.1554    0.6658 C   0  0  0  0  0  0  0  0  0  0  0  0
   -0.6832   -2.8764    1.0638 O   0  0  0  0  0  0  0  0  0  0  0  0
   -1.3952   -0.9084    0.2428 N   0  0  0  0  0  0  0  0  0  0  0  0
   -2.1972   -0.3644   -0.0422 H   0  0  0  0  0  0  0  0  0  0  0  0
   -0.1122   -0.1994    0.2658 C   0  0  1  0  0  0  0  0  0  0  0  0
    0.5635   -0.7260    0.9446 H   0  0  0  0  0  0  0  0  0  0  0  0
    0.4924   -0.2204   -1.1558 C   0  0  0  0  0  0  0  0  0  0  0  0
   -0.1768   -0.7653   -1.8208 H   0  0  0  0  0  0  0  0  0  0  0  0
    0.5829    0.8009   -1.5228 H   0  0  0  0  0  0  0  0  0  0  0  0
    1.8488   -0.9016   -1.2408 C   0  0  0  0  0  0  0  0  0  0  0  0
    2.9013   -0.3046   -1.0952 O   0  0  0  0  0  0  0  0  0  0  0  0
    1.8727   -2.1880   -1.4913 N   0  0  0  0  0  0  0  0  0  0  0  0
    2.7820   -2.6143   -1.5243 H   0  0  0  0  0  0  0  0  0  0  0  0
    1.0204   -2.7054   -1.5962 H   0  0  0  0  0  0  0  0  0  0  0  0
   -0.3126    1.2341    0.8050 C   0  0  0  0  0  0  0  0  0  0  0  0
   -1.2484    1.9199    0.3934 O   0  0  0  0  0  0  0  0  0  0  0  0
    0.5615    1.6875    1.7087 N   0  0  0  0  0  0  0  0  0  0  0  0
    1.3461    1.0849    1.9358 H   0  0  0  0  0  0  0  0  0  0  0  0
    0.5043    3.0121    2.3242 C   0  0  0  0  0  0  0  0  0  0  0  0
   -0.4649    3.1514    2.8080 H   0  0  0  0  0  0  0  0  0  0  0  0
    1.2959    3.1139    3.0678 H   0  0  0  0  0  0  0  0  0  0  0  0
    0.6273    3.7799    1.5584 H   0  0  0  0  0  0  0  0  0  0  0  0
  5  6  2  0  0  0  0
  5  7  1  0  0  0  0
  2  3  1  0  0  0  0
  2  4  1  0  0  0  0
  2  5  1  0  0  0  0
  1  2  1  0  0  0  0
 19 20  2  0  0  0  0
 19 21  1  0  0  0  0
 16 17  1  0  0  0  0
 16 18  1  0  0  0  0
 14 15  2  0  0  0  0
 14 16  1  0  0  0  0
 11 12  1  0  0  0  0
 11 13  1  0  0  0  0
 11 14  1  0  0  0  0
  9 10  1  0  0  0  0
  9 11  1  0  0  0  0
  9 19  1  0  0  0  0
  7  8  1  0  0  0  0
  7  9  1  0  0  0  0
 23 24  1  0  0  0  0
 23 25  1  0  0  0  0
 23 26  1  0  0  0  0
 21 22  1  0  0  0  0
 21 23  1  0  0  0  0
M  END
$$$$
default_name
  -OEChem-02102213163D

 26 25  0     1  0  0  0  0  0999 V2000
   -3.0232   -3.6924    1.0038 H   0  0  0  0  0  0  0  0  0  0  0  0
   -3.0082   -2.6684    0.6318 C   0  0  0  0  0  0  0  0  0  0  0  0
   -3.6332   -2.0414    1.2658 H   0  0  0  0  0  0  0  0  0  0  0  0
   -3.3762   -2.6444   -0.3912 H   0  0  0  0  0  0  0  0  0  0  0  0
   -1.5882   -2.1554    0.6658 C   0  0  0  0  0  0  0  0  0  0  0  0
   -0.6832   -2.8764    1.0638 O   0  0  0  0  0  0  0  0  0  0  0  0
   -1.3952   -0.9084    0.2428 N   0  0  0  0  0  0  0  0  0  0  0  0
   -2.1972   -0.3644   -0.0422 H   0  0  0  0  0  0  0  0  0  0  0  0
   -0.1122   -0.1994    0.2658 C   0  0  1  0  0  0  0  0  0  0  0  0
    0.5635   -0.7260    0.9446 H   0  0  0  0  0  0  0  0  0  0  0  0
    0.4924   -0.2204   -1.1558 C   0  0  0  0  0  0  0  0  0  0  0  0
   -0.1768   -0.7653   -1.8208 H   0  0  0  0  0  0  0  0  0  0  0  0
    0.5829    0.8009   -1.5228 H   0  0  0  0  0  0  0  0  0  0  0  0
    1.8488   -0.9016   -1.2408 C   0  0  0  0  0  0  0  0  0  0  0  0
    2.8773   -0.3839   -0.8415 O   0  0  0  0  0  0  0  0  0  0  0  0
    1.9009   -2.0960   -1.7783 N   0  0  0  0  0  0  0  0  0  0  0  0
    2.8074   -2.5287   -1.8050 H   0  0  0  0  0  0  0  0  0  0  0  0
    1.0665   -2.5513   -2.0969 H   0  0  0  0  0  0  0  0  0  0  0  0
   -0.3126    1.2341    0.8050 C   0  0  0  0  0  0  0  0  0  0  0  0
   -1.2484    1.9199    0.3934 O   0  0  0  0  0  0  0  0  0  0  0  0
    0.5615    1.6875    1.7087 N   0  0  0  0  0  0  0  0  0  0  0  0
    1.3461    1.0849    1.9358 H   0  0  0  0  0  0  0  0  0  0  0  0
    0.5043    3.0121    2.3242 C   0  0  0  0  0  0  0  0  0  0  0  0
   -0.4649    3.1514    2.8080 H   0  0  0  0  0  0  0  0  0  0  0  0
    1.2959    3.1139    3.0678 H   0  0  0  0  0  0  0  0  0  0  0  0
    0.6273    3.7799    1.5584 H   0  0  0  0  0  0  0  0  0  0  0  0
  5  6  2  0  0  0  0
  5  7  1  0  0  0  0
  2  3  1  0  0  0  0
  2  4  1  0  0  0  0
  2  5  1  0  0  0  0
  1  2  1  0  0  0  0
 19 20  2  0  0  0  0
 19 21  1  0  0  0  0
 16 17  1  0  0  0  0
 16 18  1  0  0  0  0
 14 15  2  0  0  0  0
 14 16  1  0  0  0  0
 11 12  1  0  0  0  0
 11 13  1  0  0  0  0
 11 14  1  0  0  0  0
  9 10  1  0  0  0  0
  9 11  1  0  0  0  0
  9 19  1  0  0  0  0
  7  8  1  0  0  0  0
  7  9  1  0  0  0  0
 23 24  1  0  0  0  0
 23 25  1  0  0  0  0
 23 26  1  0  0  0  0
 21 22  1  0  0  0  0
 21 23  1  0  0  0  0
M  END
$$$$
default_name
  -OEChem-02102213163D

 26 25  0     1  0  0  0  0  0999 V2000
   -3.0232   -3.6924    1.0038 H   0  0  0  0  0  0  0  0  0  0  0  0
   -3.0082   -2.6684    0.6318 C   0  0  0  0  0  0  0  0  0  0  0  0
   -3.6332   -2.0414    1.2658 H   0  0  0  0  0  0  0  0  0  0  0  0
   -3.3762   -2.6444   -0.3912 H   0  0  0  0  0  0  0  0  0  0  0  0
   -1.5882   -2.1554    0.6658 C   0  0  0  0  0  0  0  0  0  0  0  0
   -0.6832   -2.8764    1.0638 O   0  0  0  0  0  0  0  0  0  0  0  0
   -1.3952   -0.9084    0.2428 N   0  0  0  0  0  0  0  0  0  0  0  0
   -2.1972   -0.3644   -0.0422 H   0  0  0  0  0  0  0  0  0  0  0  0
   -0.1122   -0.1994    0.2658 C   0  0  1  0  0  0  0  0  0  0  0  0
    0.5635   -0.7260    0.9446 H   0  0  0  0  0  0  0  0  0  0  0  0
    0.4924   -0.2204   -1.1558 C   0  0  0  0  0  0  0  0  0  0  0  0
   -0.1768   -0.7653   -1.8208 H   0  0  0  0  0  0  0  0  0  0  0  0
    0.5829    0.8009   -1.5228 H   0  0  0  0  0  0  0  0  0  0  0  0
    1.8488   -0.9016   -1.2408 C   0  0  0  0  0  0  0  0  0  0  0  0
    2.8236   -0.5187   -0.6176 O   0  0  0  0  0  0  0  0  0  0  0  0
    1.9628   -1.9413   -2.0309 N   0  0  0  0  0  0  0  0  0  0  0  0
    2.8658   -2.3815   -2.0535 H   0  0  0  0  0  0  0  0  0  0  0  0
    1.1713   -2.2874   -2.5396 H   0  0  0  0  0  0  0  0  0  0  0  0
   -0.3126    1.2341    0.8050 C   0  0  0  0  0  0  0  0  0  0  0  0
   -1.2484    1.9199    0.3934 O   0  0  0  0  0  0  0  0  0  0  0  0
    0.5615    1.6875    1.7087 N   0  0  0  0  0  0  0  0  0  0  0  0
    1.3461    1.0849    1.9358 H   0  0  0  0  0  0  0  0  0  0  0  0
    0.5043    3.0121    2.3242 C   0  0  0  0  0  0  0  0  0  0  0  0
   -0.4649    3.1514    2.8080 H   0  0  0  0  0  0  0  0  0  0  0  0
    1.2959    3.1139    3.0678 H   0  0  0  0  0  0  0  0  0  0  0  0
    0.6273    3.7799    1.5584 H   0  0  0  0  0  0  0  0  0  0  0  0
  5  6  2  0  0  0  0
  5  7  1  0  0  0  0
  2  3  1  0  0  0  0
  2  4  1  0  0  0  0
  2  5  1  0  0  0  0
  1  2  1  0  0  0  0
 19 20  2  0  0  0  0
 19 21  1  0  0  0  0
 16 17  1  0  0  0  0
 16 18  1  0  0  0  0
 14 15  2  0  0  0  0
 14 16  1  0  0  0  0
 11 12  1  0  0  0  0
 11 13  1  0  0  0  0
 11 14  1  0  0  0  0
  9 10  1  0  0  0  0
  9 11  1  0  0  0  0
  9 19  1  0  0  0  0
  7  8  1  0  0  0  0
  7  9  1  0  0  0  0
 23 24  1  0  0  0  0
 23 25  1  0  0  0  0
 23 26  1  0  0  0  0
 21 22  1  0  0  0  0
 21 23  1  0  0  0  0
M  END
$$$$
default_name
  -OEChem-02102213163D

 26 25  0     1  0  0  0  0  0999 V2000
   -3.0232   -3.6924    1.0038 H   0  0  0  0  0  0  0  0  0  0  0  0
   -3.0082   -2.6684    0.6318 C   0  0  0  0  0  0  0  0  0  0  0  0
   -3.6332   -2.0414    1.2658 H   0  0  0  0  0  0  0  0  0  0  0  0
   -3.3762   -2.6444   -0.3912 H   0  0  0  0  0  0  0  0  0  0  0  0
   -1.5882   -2.1554    0.6658 C   0  0  0  0  0  0  0  0  0  0  0  0
   -0.6832   -2.8764    1.0638 O   0  0  0  0  0  0  0  0  0  0  0  0
   -1.3952   -0.9084    0.2428 N   0  0  0  0  0  0  0  0  0  0  0  0
   -2.1972   -0.3644   -0.0422 H   0  0  0  0  0  0  0  0  0  0  0  0
   -0.1122   -0.1994    0.2658 C   0  0  1  0  0  0  0  0  0  0  0  0
    0.5635   -0.7260    0.9446 H   0  0  0  0  0  0  0  0  0  0  0  0
    0.4924   -0.2204   -1.1558 C   0  0  0  0  0  0  0  0  0  0  0  0
   -0.1768   -0.7653   -1.8208 H   0  0  0  0  0  0  0  0  0  0  0  0
    0.5829    0.8009   -1.5228 H   0  0  0  0  0  0  0  0  0  0  0  0
    1.8488   -0.9016   -1.2408 C   0  0  0  0  0  0  0  0  0  0  0  0
    2.7439   -0.6999   -0.4386 O   0  0  0  0  0  0  0  0  0  0  0  0
    2.0541   -1.7344   -2.2320 N   0  0  0  0  0  0  0  0  0  0  0  0
    2.9531   -2.1827   -2.2527 H   0  0  0  0  0  0  0  0  0  0  0  0
    1.3277   -1.9318   -2.8941 H   0  0  0  0  0  0  0  0  0  0  0  0
   -0.3126    1.2341    0.8050 C   0  0  0  0  0  0  0  0  0  0  0  0
   -1.2484    1.9199    0.3934 O   0  0  0  0  0  0  0  0  0  0  0  0
    0.5615    1.6875    1.7087 N   0  0  0  0  0  0  0  0  0  0  0  0
    1.3461    1.0849    1.9358 H   0  0  0  0  0  0  0  0  0  0  0  0
    0.5043    3.0121    2.3242 C   0  0  0  0  0  0  0  0  0  0  0  0
   -0.4649    3.1514    2.8080 H   0  0  0  0  0  0  0  0  0  0  0  0
    1.2959    3.1139    3.0678 H   0  0  0  0  0  0  0  0  0  0  0  0
    0.6273    3.7799    1.5584 H   0  0  0  0  0  0  0  0  0  0  0  0
  5  6  2  0  0  0  0
  5  7  1  0  0  0  0
  2  3  1  0  0  0  0
  2  4  1  0  0  0  0
  2  5  1  0  0  0  0
  1  2  1  0  0  0  0
 19 20  2  0  0  0  0
 19 21  1  0  0  0  0
 16 17  1  0  0  0  0
 16 18  1  0  0  0  0
 14 15  2  0  0  0  0
 14 16  1  0  0  0  0
 11 12  1  0  0  0  0
 11 13  1  0  0  0  0
 11 14  1  0  0  0  0
  9 10  1  0  0  0  0
  9 11  1  0  0  0  0
  9 19  1  0  0  0  0
  7  8  1  0  0  0  0
  7  9  1  0  0  0  0
 23 24  1  0  0  0  0
 23 25  1  0  0  0  0
 23 26  1  0  0  0  0
 21 22  1  0  0  0  0
 21 23  1  0  0  0  0
M  END
$$$$
default_name
  -OEChem-02102213163D

 26 25  0     1  0  0  0  0  0999 V2000
   -3.0232   -3.6924    1.0038 H   0  0  0  0  0  0  0  0  0  0  0  0
   -3.0082   -2.6684    0.6318 C   0  0  0  0  0  0  0  0  0  0  0  0
   -3.6332   -2.0414    1.2658 H   0  0  0  0  0  0  0  0  0  0  0  0
   -3.3762   -2.6444   -0.3912 H   0  0  0  0  0  0  0  0  0  0  0  0
   -1.5882   -2.1554    0.6658 C   0  0  0  0  0  0  0  0  0  0  0  0
   -0.6832   -2.8764    1.0638 O   0  0  0  0  0  0  0  0  0  0  0  0
   -1.3952   -0.9084    0.2428 N   0  0  0  0  0  0  0  0  0  0  0  0
   -2.1972   -0.3644   -0.0422 H   0  0  0  0  0  0  0  0  0  0  0  0
   -0.1122   -0.1994    0.2658 C   0  0  1  0  0  0  0  0  0  0  0  0
    0.5635   -0.7260    0.9446 H   0  0  0  0  0  0  0  0  0  0  0  0
    0.4924   -0.2204   -1.1558 C   0  0  0  0  0  0  0  0  0  0  0  0
   -0.1768   -0.7653   -1.8208 H   0  0  0  0  0  0  0  0  0  0  0  0
    0.5829    0.8009   -1.5228 H   0  0  0  0  0  0  0  0  0  0  0  0
    1.8488   -0.9016   -1.2408 C   0  0  0  0  0  0  0  0  0  0  0  0
    2.6434   -0.9151   -0.3168 O   0  0  0  0  0  0  0  0  0  0  0  0
    2.1686   -1.4894   -2.3679 N   0  0  0  0  0  0  0  0  0  0  0  0
    3.0634   -1.9461   -2.3891 H   0  0  0  0  0  0  0  0  0  0  0  0
    1.5250   -1.5087   -3.1363 H   0  0  0  0  0  0  0  0  0  0  0  0
   -0.3126    1.2341    0.8050 C   0  0  0  0  0  0  0  0  0  0  0  0
   -1.2484    1.9199    0.3934 O   0  0  0  0  0  0  0  0  0  0  0  0
    0.5615    1.6875    1.7087 N   0  0  0  0  0  0  0  0  0  0  0  0
    1.3461    1.0849    1.9358 H   0  0  0  0  0  0  0  0  0  0  0  0
    0.5043    3.0121    2.3242 C   0  0  0  0  0  0  0  0  0  0  0  0
   -0.4649    3.1514    2.8080 H   0  0  0  0  0  0  0  0  0  0  0  0
    1.2959    3.1139    3.0678 H   0  0  0  0  0  0  0  0  0  0  0  0
    0.6273    3.7799    1.5584 H   0  0  0  0  0  0  0  0  0  0  0  0
  5  6  2  0  0  0  0
  5  7  1  0  0  0  0
  2  3  1  0  0  0  0
  2  4  1  0  0  0  0
  2  5  1  0  0  0  0
  1  2  1  0  0  0  0
 19 20  2  0  0  0  0
 19 21  1  0  0  0  0
 16 17  1  0  0  0  0
 16 18  1  0  0  0  0
 14 15  2  0  0  0  0
 14 16  1  0  0  0  0
 11 12  1  0  0  0  0
 11 13  1  0  0  0  0
 11 14  1  0  0  0  0
  9 10  1  0  0  0  0
  9 11  1  0  0  0  0
  9 19  1  0  0  0  0
  7  8  1  0  0  0  0
  7  9  1  0  0  0  0
 23 24  1  0  0  0  0
 23 25  1  0  0  0  0
 23 26  1  0  0  0  0
 21 22  1  0  0  0  0
 21 23  1  0  0  0  0
M  END
$$$$
default_name
  -OEChem-02102213163D

 26 25  0     1  0  0  0  0  0999 V2000
   -3.0232   -3.6924    1.0038 H   0  0  0  0  0  0  0  0  0  0  0  0
   -3.0082   -2.6684    0.6318 C   0  0  0  0  0  0  0  0  0  0  0  0
   -3.6332   -2.0414    1.2658 H   0  0  0  0  0  0  0  0  0  0  0  0
   -3.3762   -2.6444   -0.3912 H   0  0  0  0  0  0  0  0  0  0  0  0
   -1.5882   -2.1554    0.6658 C   0  0  0  0  0  0  0  0  0  0  0  0
   -0.6832   -2.8764    1.0638 O   0  0  0  0  0  0  0  0  0  0  0  0
   -1.3952   -0.9084    0.2428 N   0  0  0  0  0  0  0  0  0  0  0  0
   -2.1972   -0.3644   -0.0422 H   0  0  0  0  0  0  0  0  0  0  0  0
   -0.1122   -0.1994    0.2658 C   0  0  1  0  0  0  0  0  0  0  0  0
    0.5635   -0.7260    0.9446 H   0  0  0  0  0  0  0  0  0  0  0  0
    0.4924   -0.2204   -1.1558 C   0  0  0  0  0  0  0  0  0  0  0  0
   -0.1768   -0.7653   -1.8208 H   0  0  0  0  0  0  0  0  0  0  0  0
    0.5829    0.8009   -1.5228 H   0  0  0  0  0  0  0  0  0  0  0  0
    1.8488   -0.9016   -1.2408 C   0  0  0  0  0  0  0  0  0  0  0  0
    2.5292   -1.1496   -0.2605 O   0  0  0  0  0  0  0  0  0  0  0  0
    2.2986   -1.2231   -2.4294 N   0  0  0  0  0  0  0  0  0  0  0  0
    3.1892   -1.6875   -2.4533 H   0  0  0  0  0  0  0  0  0  0  0  0
    1.7497   -1.0470   -3.2496 H   0  0  0  0  0  0  0  0  0  0  0  0
   -0.3126    1.2341    0.8050 C   0  0  0  0  0  0  0  0  0  0  0  0
   -1.2484    1.9199    0.3934 O   0  0  0  0  0  0  0  0  0  0  0  0
    0.5615    1.6875    1.7087 N   0  0  0  0  0  0  0  0  0  0  0  0
    1.3461    1.0849    1.9358 H   0  0  0  0  0  0  0  0  0  0  0  0
    0.5043    3.0121    2.3242 C   0  0  0  0  0  0  0  0  0  0  0  0
   -0.4649    3.1514    2.8080 H   0  0  0  0  0  0  0  0  0  0  0  0
    1.2959    3.1139    3.0678 H   0  0  0  0  0  0  0  0  0  0  0  0
    0.6273    3.7799    1.5584 H   0  0  0  0  0  0  0  0  0  0  0  0
  5  6  2  0  0  0  0
  5  7  1  0  0  0  0
  2  3  1  0  0  0  0
  2  4  1  0  0  0  0
  2  5  1  0  0  0  0
  1  2  1  0  0  0  0
 19 20  2  0  0  0  0
 19 21  1  0  0  0  0
 16 17  1  0  0  0  0
 16 18  1  0  0  0  0
 14 15  2  0  0  0  0
 14 16  1  0  0  0  0
 11 12  1  0  0  0  0
 11 13  1  0  0  0  0
 11 14  1  0  0  0  0
  9 10  1  0  0  0  0
  9 11  1  0  0  0  0
  9 19  1  0  0  0  0
  7  8  1  0  0  0  0
  7  9  1  0  0  0  0
 23 24  1  0  0  0  0
 23 25  1  0  0  0  0
 23 26  1  0  0  0  0
 21 22  1  0  0  0  0
 21 23  1  0  0  0  0
M  END
$$$$
default_name
  -OEChem-02102213163D

 26 25  0     1  0  0  0  0  0999 V2000
   -3.0232   -3.6924    1.0038 H   0  0  0  0  0  0  0  0  0  0  0  0
   -3.0082   -2.6684    0.6318 C   0  0  0  0  0  0  0  0  0  0  0  0
   -3.6332   -2.0414    1.2658 H   0  0  0  0  0  0  0  0  0  0  0  0
   -3.3762   -2.6444   -0.3912 H   0  0  0  0  0  0  0  0  0  0  0  0
   -1.5882   -2.1554    0.6658 C   0  0  0  0  0  0  0  0  0  0  0  0
   -0.6832   -2.8764    1.0638 O   0  0  0  0  0  0  0  0  0  0  0  0
   -1.3952   -0.9084    0.2428 N   0  0  0  0  0  0  0  0  0  0  0  0
   -2.1972   -0.3644   -0.0422 H   0  0  0  0  0  0  0  0  0  0  0  0
   -0.1122   -0.1994    0.2658 C   0  0  1  0  0  0  0  0  0  0  0  0
    0.5635   -0.7260    0.9446 H   0  0  0  0  0  0  0  0  0  0  0  0
    0.4924   -0.2204   -1.1558 C   0  0  0  0  0  0  0  0  0  0  0  0
   -0.1768   -0.7653   -1.8208 H   0  0  0  0  0  0  0  0  0  0  0  0
    0.5829    0.8009   -1.5228 H   0  0  0  0  0  0  0  0  0  0  0  0
    1.8488   -0.9016   -1.2408 C   0  0  0  0  0  0  0  0  0  0  0  0
    2.4089   -1.3875   -0.2736 O   0  0  0  0  0  0  0  0  0  0  0  0
    2.4350   -0.9535   -2.4121 N   0  0  0  0  0  0  0  0  0  0  0  0
    3.3220   -1.4248   -2.4412 H   0  0  0  0  0  0  0  0  0  0  0  0
    1.9867   -0.5781   -3.2264 H   0  0  0  0  0  0  0  0  0  0  0  0
   -0.3126    1.2341    0.8050 C   0  0  0  0  0  0  0  0  0  0  0  0
   -1.2484    1.9199    0.3934 O   0  0  0  0  0  0  0  0  0  0  0  0
    0.5615    1.6875    1.7087 N   0  0  0  0  0  0  0  0  0  0  0  0
    1.3461    1.0849    1.9358 H   0  0  0  0  0  0  0  0  0  0  0  0
    0.5043    3.0121    2.3242 C   0  0  0  0  0  0  0  0  0  0  0  0
   -0.4649    3.1514    2.8080 H   0  0  0  0  0  0  0  0  0  0  0  0
    1.2959    3.1139    3.0678 H   0  0  0  0  0  0  0  0  0  0  0  0
    0.6273    3.7799    1.5584 H   0  0  0  0  0  0  0  0  0  0  0  0
  5  6  2  0  0  0  0
  5  7  1  0  0  0  0
  2  3  1  0  0  0  0
  2  4  1  0  0  0  0
  2  5  1  0  0  0  0
  1  2  1  0  0  0  0
 19 20  2  0  0  0  0
 19 21  1  0  0  0  0
 16 17  1  0  0  0  0
 16 18  1  0  0  0  0
 14 15  2  0  0  0  0
 14 16  1  0  0  0  0
 11 12  1  0  0  0  0
 11 13  1  0  0  0  0
 11 14  1  0  0  0  0
  9 10  1  0  0  0  0
  9 11  1  0  0  0  0
  9 19  1  0  0  0  0
  7  8  1  0  0  0  0
  7  9  1  0  0  0  0
 23 24  1  0  0  0  0
 23 25  1  0  0  0  0
 23 26  1  0  0  0  0
 21 22  1  0  0  0  0
 21 23  1  0  0  0  0
M  END
$$$$
default_name
  -OEChem-02102213163D

 26 25  0     1  0  0  0  0  0999 V2000
   -3.0232   -3.6924    1.0038 H   0  0  0  0  0  0  0  0  0  0  0  0
   -3.0082   -2.6684    0.6318 C   0  0  0  0  0  0  0  0  0  0  0  0
   -3.6332   -2.0414    1.2658 H   0  0  0  0  0  0  0  0  0  0  0  0
   -3.3762   -2.6444   -0.3912 H   0  0  0  0  0  0  0  0  0  0  0  0
   -1.5882   -2.1554    0.6658 C   0  0  0  0  0  0  0  0  0  0  0  0
   -0.6832   -2.8764    1.0638 O   0  0  0  0  0  0  0  0  0  0  0  0
   -1.3952   -0.9084    0.2428 N   0  0  0  0  0  0  0  0  0  0  0  0
   -2.1972   -0.3644   -0.0422 H   0  0  0  0  0  0  0  0  0  0  0  0
   -0.1122   -0.1994    0.2658 C   0  0  1  0  0  0  0  0  0  0  0  0
    0.5635   -0.7260    0.9446 H   0  0  0  0  0  0  0  0  0  0  0  0
    0.4924   -0.2204   -1.1558 C   0  0  0  0  0  0  0  0  0  0  0  0
   -0.1768   -0.7653   -1.8208 H   0  0  0  0  0  0  0  0  0  0  0  0
    0.5829    0.8009   -1.5228 H   0  0  0  0  0  0  0  0  0  0  0  0
    1.8488   -0.9016   -1.2408 C   0  0  0  0  0  0  0  0  0  0  0  0
    2.2908   -1.6125   -0.3551 O   0  0  0  0  0  0  0  0  0  0  0  0
    2.5687   -0.6990   -2.3174 N   0  0  0  0  0  0  0  0  0  0  0  0
    3.4525   -1.1757   -2.3533 H   0  0  0  0  0  0  0  0  0  0  0  0
    2.2196   -0.1339   -3.0682 H   0  0  0  0  0  0  0  0  0  0  0  0
   -0.3126    1.2341    0.8050 C   0  0  0  0  0  0  0  0  0  0  0  0
   -1.2484    1.9199    0.3934 O   0  0  0  0  0  0  0  0  0  0  0  0
    0.5615    1.6875    1.7087 N   0  0  0  0  0  0  0  0  0  0  0  0
    1.3461    1.0849    1.9358 H   0  0  0  0  0  0  0  0  0  0  0  0
    0.5043    3.0121    2.3242 C   0  0  0  0  0  0  0  0  0  0  0  0
   -0.4649    3.1514    2.8080 H   0  0  0  0  0  0  0  0  0  0  0  0
    1.2959    3.1139    3.0678 H   0  0  0  0  0  0  0  0  0  0  0  0
    0.6273    3.7799    1.5584 H   0  0  0  0  0  0  0  0  0  0  0  0
  5  6  2  0  0  0  0
  5  7  1  0  0  0  0
  2  3  1  0  0  0  0
  2  4  1  0  0  0  0
  2  5  1  0  0  0  0
  1  2  1  0  0  0  0
 19 20  2  0  0  0  0
 19 21  1  0  0  0  0
 16 17  1  0  0  0  0
 16 18  1  0  0  0  0
 14 15  2  0  0  0  0
 14 16  1  0  0  0  0
 11 12  1  0  0  0  0
 11 13  1  0  0  0  0
 11 14  1  0  0  0  0
  9 10  1  0  0  0  0
  9 11  1  0  0  0  0
  9 19  1  0  0  0  0
  7  8  1  0  0  0  0
  7  9  1  0  0  0  0
 23 24  1  0  0  0  0
 23 25  1  0  0  0  0
 23 26  1  0  0  0  0
 21 22  1  0  0  0  0
 21 23  1  0  0  0  0
M  END
$$$$
default_name
  -OEChem-02102213163D

 26 25  0     1  0  0  0  0  0999 V2000
   -3.0232   -3.6924    1.0038 H   0  0  0  0  0  0  0  0  0  0  0  0
   -3.0082   -2.6684    0.6318 C   0  0  0  0  0  0  0  0  0  0  0  0
   -3.6332   -2.0414    1.2658 H   0  0  0  0  0  0  0  0  0  0  0  0
   -3.3762   -2.6444   -0.3912 H   0  0  0  0  0  0  0  0  0  0  0  0
   -1.5882   -2.1554    0.6658 C   0  0  0  0  0  0  0  0  0  0  0  0
   -0.6832   -2.8764    1.0638 O   0  0  0  0  0  0  0  0  0  0  0  0
   -1.3952   -0.9084    0.2428 N   0  0  0  0  0  0  0  0  0  0  0  0
   -2.1972   -0.3644   -0.0422 H   0  0  0  0  0  0  0  0  0  0  0  0
   -0.1122   -0.1994    0.2658 C   0  0  1  0  0  0  0  0  0  0  0  0
    0.5635   -0.7260    0.9446 H   0  0  0  0  0  0  0  0  0  0  0  0
    0.4924   -0.2204   -1.1558 C   0  0  0  0  0  0  0  0  0  0  0  0
   -0.1768   -0.7653   -1.8208 H   0  0  0  0  0  0  0  0  0  0  0  0
    0.5829    0.8009   -1.5228 H   0  0  0  0  0  0  0  0  0  0  0  0
    1.8488   -0.9016   -1.2408 C   0  0  0  0  0  0  0  0  0  0  0  0
    2.1829   -1.8094   -0.4995 O   0  0  0  0  0  0  0  0  0  0  0  0
    2.6906   -0.4770   -2.1516 N   0  0  0  0  0  0  0  0  0  0  0  0
    3.5721   -0.9573   -2.1958 H   0  0  0  0  0  0  0  0  0  0  0  0
    2.4327    0.2552   -2.7858 H   0  0  0  0  0  0  0  0  0  0  0  0
   -0.3126    1.2341    0.8050 C   0  0  0  0  0  0  0  0  0  0  0  0
   -1.2484    1.9199    0.3934 O   0  0  0  0  0  0  0  0  0  0  0  0
    0.5615    1.6875    1.7087 N   0  0  0  0  0  0  0  0  0  0  0  0
    1.3461    1.0849    1.9358 H   0  0  0  0  0  0  0  0  0  0  0  0
    0.5043    3.0121    2.3242 C   0  0  0  0  0  0  0  0  0  0  0  0
   -0.4649    3.1514    2.8080 H   0  0  0  0  0  0  0  0  0  0  0  0
    1.2959    3.1139    3.0678 H   0  0  0  0  0  0  0  0  0  0  0  0
    0.6273    3.7799    1.5584 H   0  0  0  0  0  0  0  0  0  0  0  0
  5  6  2  0  0  0  0
  5  7  1  0  0  0  0
  2  3  1  0  0  0  0
  2  4  1  0  0  0  0
  2  5  1  0  0  0  0
  1  2  1  0  0  0  0
 19 20  2  0  0  0  0
 19 21  1  0  0  0  0
 16 17  1  0  0  0  0
 16 18  1  0  0  0  0
 14 15  2  0  0  0  0
 14 16  1  0  0  0  0
 11 12  1  0  0  0  0
 11 13  1  0  0  0  0
 11 14  1  0  0  0  0
  9 10  1  0  0  0  0
  9 11  1  0  0  0  0
  9 19  1  0  0  0  0
  7  8  1  0  0  0  0
  7  9  1  0  0  0  0
 23 24  1  0  0  0  0
 23 25  1  0  0  0  0
 23 26  1  0  0  0  0
 21 22  1  0  0  0  0
 21 23  1  0  0  0  0
M  END
$$$$
default_name
  -OEChem-02102213163D

 26 25  0     1  0  0  0  0  0999 V2000
   -3.0232   -3.6924    1.0038 H   0  0  0  0  0  0  0  0  0  0  0  0
   -3.0082   -2.6684    0.6318 C   0  0  0  0  0  0  0  0  0  0  0  0
   -3.6332   -2.0414    1.2658 H   0  0  0  0  0  0  0  0  0  0  0  0
   -3.3762   -2.6444   -0.3912 H   0  0  0  0  0  0  0  0  0  0  0  0
   -1.5882   -2.1554    0.6658 C   0  0  0  0  0  0  0  0  0  0  0  0
   -0.6832   -2.8764    1.0638 O   0  0  0  0  0  0  0  0  0  0  0  0
   -1.3952   -0.9084    0.2428 N   0  0  0  0  0  0  0  0  0  0  0  0
   -2.1972   -0.3644   -0.0422 H   0  0  0  0  0  0  0  0  0  0  0  0
   -0.1122   -0.1994    0.2658 C   0  0  1  0  0  0  0  0  0  0  0  0
    0.5635   -0.7260    0.9446 H   0  0  0  0  0  0  0  0  0  0  0  0
    0.4924   -0.2204   -1.1558 C   0  0  0  0  0  0  0  0  0  0  0  0
   -0.1768   -0.7653   -1.8208 H   0  0  0  0  0  0  0  0  0  0  0  0
    0.5829    0.8009   -1.5228 H   0  0  0  0  0  0  0  0  0  0  0  0
    1.8488   -0.9016   -1.2408 C   0  0  0  0  0  0  0  0  0  0  0  0
    2.0926   -1.9646   -0.6969 O   0  0  0  0  0  0  0  0  0  0  0  0
    2.7923   -0.3027   -1.9260 N   0  0  0  0  0  0  0  0  0  0  0  0
    3.6724   -0.7845   -1.9794 H   0  0  0  0  0  0  0  0  0  0  0  0
    2.6115    0.5628   -2.3985 H   0  0  0  0  0  0  0  0  0  0  0  0
   -0.3126    1.2341    0.8050 C   0  0  0  0  0  0  0  0  0  0  0  0
   -1.2484    1.9199    0.3934 O   0  0  0  0  0  0  0  0  0  0  0  0
    0.5615    1.6875    1.7087 N   0  0  0  0  0  0  0  0  0  0  0  0
    1.3461    1.0849    1.9358 H   0  0  0  0  0  0  0  0  0  0  0  0
    0.5043    3.0121    2.3242 C   0  0  0  0  0  0  0  0  0  0  0  0
   -0.4649    3.1514    2.8080 H   0  0  0  0  0  0  0  0  0  0  0  0
    1.2959    3.1139    3.0678 H   0  0  0  0  0  0  0  0  0  0  0  0
    0.6273    3.7799    1.5584 H   0  0  0  0  0  0  0  0  0  0  0  0
  5  6  2  0  0  0  0
  5  7  1  0  0  0  0
  2  3  1  0  0  0  0
  2  4  1  0  0  0  0
  2  5  1  0  0  0  0
  1  2  1  0  0  0  0
 19 20  2  0  0  0  0
 19 21  1  0  0  0  0
 16 17  1  0  0  0  0
 16 18  1  0  0  0  0
 14 15  2  0  0  0  0
 14 16  1  0  0  0  0
 11 12  1  0  0  0  0
 11 13  1  0  0  0  0
 11 14  1  0  0  0  0
  9 10  1  0  0  0  0
  9 11  1  0  0  0  0
  9 19  1  0  0  0  0
  7  8  1  0  0  0  0
  7  9  1  0  0  0  0
 23 24  1  0  0  0  0
 23 25  1  0  0  0  0
 23 26  1  0  0  0  0
 21 22  1  0  0  0  0
 21 23  1  0  0  0  0
M  END
$$$$
default_name
  -OEChem-02102213163D

 26 25  0     1  0  0  0  0  0999 V2000
   -3.0232   -3.6924    1.0038 H   0  0  0  0  0  0  0  0  0  0  0  0
   -3.0082   -2.6684    0.6318 C   0  0  0  0  0  0  0  0  0  0  0  0
   -3.6332   -2.0414    1.2658 H   0  0  0  0  0  0  0  0  0  0  0  0
   -3.3762   -2.6444   -0.3912 H   0  0  0  0  0  0  0  0  0  0  0  0
   -1.5882   -2.1554    0.6658 C   0  0  0  0  0  0  0  0  0  0  0  0
   -0.6832   -2.8764    1.0638 O   0  0  0  0  0  0  0  0  0  0  0  0
   -1.3952   -0.9084    0.2428 N   0  0  0  0  0  0  0  0  0  0  0  0
   -2.1972   -0.3644   -0.0422 H   0  0  0  0  0  0  0  0  0  0  0  0
   -0.1122   -0.1994    0.2658 C   0  0  1  0  0  0  0  0  0  0  0  0
    0.5635   -0.7260    0.9446 H   0  0  0  0  0  0  0  0  0  0  0  0
    0.4924   -0.2204   -1.1558 C   0  0  0  0  0  0  0  0  0  0  0  0
   -0.1768   -0.7653   -1.8208 H   0  0  0  0  0  0  0  0  0  0  0  0
    0.5829    0.8009   -1.5228 H   0  0  0  0  0  0  0  0  0  0  0  0
    1.8488   -0.9016   -1.2408 C   0  0  0  0  0  0  0  0  0  0  0  0
    2.0260   -2.0676   -0.9339 O   0  0  0  0  0  0  0  0  0  0  0  0
    2.8669   -0.1878   -1.6562 N   0  0  0  0  0  0  0  0  0  0  0  0
    3.7468   -0.6690   -1.7188 H   0  0  0  0  0  0  0  0  0  0  0  0
    2.7436    0.7679   -1.9326 H   0  0  0  0  0  0  0  0  0  0  0  0
   -0.3126    1.2341    0.8050 C   0  0  0  0  0  0  0  0  0  0  0  0
   -1.2484    1.9199    0.3934 O   0  0  0  0  0  0  0  0  0  0  0  0
    0.5615    1.6875    1.7087 N   0  0  0  0  0  0  0  0  0  0  0  0
    1.3461    1.0849    1.9358 H   0  0  0  0  0  0  0  0  0  0  0  0
    0.5043    3.0121    2.3242 C   0  0  0  0  0  0  0  0  0  0  0  0
   -0.4649    3.1514    2.8080 H   0  0  0  0  0  0  0  0  0  0  0  0
    1.2959    3.1139    3.0678 H   0  0  0  0  0  0  0  0  0  0  0  0
    0.6273    3.7799    1.5584 H   0  0  0  0  0  0  0  0  0  0  0  0
  5  6  2  0  0  0  0
  5  7  1  0  0  0  0
  2  3  1  0  0  0  0
  2  4  1  0  0  0  0
  2  5  1  0  0  0  0
  1  2  1  0  0  0  0
 19 20  2  0  0  0  0
 19 21  1  0  0  0  0
 16 17  1  0  0  0  0
 16 18  1  0  0  0  0
 14 15  2  0  0  0  0
 14 16  1  0  0  0  0
 11 12  1  0  0  0  0
 11 13  1  0  0  0  0
 11 14  1  0  0  0  0
  9 10  1  0  0  0  0
  9 11  1  0  0  0  0
  9 19  1  0  0  0  0
  7  8  1  0  0  0  0
  7  9  1  0  0  0  0
 23 24  1  0  0  0  0
 23 25  1  0  0  0  0
 23 26  1  0  0  0  0
 21 22  1  0  0  0  0
 21 23  1  0  0  0  0
M  END
$$$$
default_name
  -OEChem-02102213163D

 26 25  0     1  0  0  0  0  0999 V2000
   -3.0232   -3.6924    1.0038 H   0  0  0  0  0  0  0  0  0  0  0  0
   -3.0082   -2.6684    0.6318 C   0  0  0  0  0  0  0  0  0  0  0  0
   -3.6332   -2.0414    1.2658 H   0  0  0  0  0  0  0  0  0  0  0  0
   -3.3762   -2.6444   -0.3912 H   0  0  0  0  0  0  0  0  0  0  0  0
   -1.5882   -2.1554    0.6658 C   0  0  0  0  0  0  0  0  0  0  0  0
   -0.6832   -2.8764    1.0638 O   0  0  0  0  0  0  0  0  0  0  0  0
   -1.3952   -0.9084    0.2428 N   0  0  0  0  0  0  0  0  0  0  0  0
   -2.1972   -0.3644   -0.0422 H   0  0  0  0  0  0  0  0  0  0  0  0
   -0.1122   -0.1994    0.2658 C   0  0  1  0  0  0  0  0  0  0  0  0
    0.5635   -0.7260    0.9446 H   0  0  0  0  0  0  0  0  0  0  0  0
    0.4924   -0.2204   -1.1558 C   0  0  0  0  0  0  0  0  0  0  0  0
   -0.1768   -0.7653   -1.8208 H   0  0  0  0  0  0  0  0  0  0  0  0
    0.5829    0.8009   -1.5228 H   0  0  0  0  0  0  0  0  0  0  0  0
    1.8488   -0.9016   -1.2408 C   0  0  0  0  0  0  0  0  0  0  0  0
    1.9877   -2.1115   -1.1943 O   0  0  0  0  0  0  0  0  0  0  0  0
    2.9093   -0.1403   -1.3603 N   0  0  0  0  0  0  0  0  0  0  0  0
    3.7900   -0.6186   -1.4317 H   0  0  0  0  0  0  0  0  0  0  0  0
    2.8202    0.8565   -1.4199 H   0  0  0  0  0  0  0  0  0  0  0  0
   -0.3126    1.2341    0.8050 C   0  0  0  0  0  0  0  0  0  0  0  0
   -1.2484    1.9199    0.3934 O   0  0  0  0  0  0  0  0  0  0  0  0
    0.5615    1.6875    1.7087 N   0  0  0  0  0  0  0  0  0  0  0  0
    1.3461    1.0849    1.9358 H   0  0  0  0  0  0  0  0  0  0  0  0
    0.5043    3.0121    2.3242 C   0  0  0  0  0  0  0  0  0  0  0  0
   -0.4649    3.1514    2.8080 H   0  0  0  0  0  0  0  0  0  0  0  0
    1.2959    3.1139    3.0678 H   0  0  0  0  0  0  0  0  0  0  0  0
    0.6273    3.7799    1.5584 H   0  0  0  0  0  0  0  0  0  0  0  0
  5  6  2  0  0  0  0
  5  7  1  0  0  0  0
  2  3  1  0  0  0  0
  2  4  1  0  0  0  0
  2  5  1  0  0  0  0
  1  2  1  0  0  0  0
 19 20  2  0  0  0  0
 19 21  1  0  0  0  0
 16 17  1  0  0  0  0
 16 18  1  0  0  0  0
 14 15  2  0  0  0  0
 14 16  1  0  0  0  0
 11 12  1  0  0  0  0
 11 13  1  0  0  0  0
 11 14  1  0  0  0  0
  9 10  1  0  0  0  0
  9 11  1  0  0  0  0
  9 19  1  0  0  0  0
  7  8  1  0  0  0  0
  7  9  1  0  0  0  0
 23 24  1  0  0  0  0
 23 25  1  0  0  0  0
 23 26  1  0  0  0  0
 21 22  1  0  0  0  0
 21 23  1  0  0  0  0
M  END
$$$$
default_name
  -OEChem-02102213163D

 26 25  0     1  0  0  0  0  0999 V2000
   -3.0232   -3.6924    1.0038 H   0  0  0  0  0  0  0  0  0  0  0  0
   -3.0082   -2.6684    0.6318 C   0  0  0  0  0  0  0  0  0  0  0  0
   -3.6332   -2.0414    1.2658 H   0  0  0  0  0  0  0  0  0  0  0  0
   -3.3762   -2.6444   -0.3912 H   0  0  0  0  0  0  0  0  0  0  0  0
   -1.5882   -2.1554    0.6658 C   0  0  0  0  0  0  0  0  0  0  0  0
   -0.6832   -2.8764    1.0638 O   0  0  0  0  0  0  0  0  0  0  0  0
   -1.3952   -0.9084    0.2428 N   0  0  0  0  0  0  0  0  0  0  0  0
   -2.1972   -0.3644   -0.0422 H   0  0  0  0  0  0  0  0  0  0  0  0
   -0.1122   -0.1994    0.2658 C   0  0  1  0  0  0  0  0  0  0  0  0
    0.5635   -0.7260    0.9446 H   0  0  0  0  0  0  0  0  0  0  0  0
    0.4924   -0.2204   -1.1558 C   0  0  0  0  0  0  0  0  0  0  0  0
   -0.1768   -0.7653   -1.8208 H   0  0  0  0  0  0  0  0  0  0  0  0
    0.5829    0.8009   -1.5228 H   0  0  0  0  0  0  0  0  0  0  0  0
    1.8488   -0.9016   -1.2408 C   0  0  0  0  0  0  0  0  0  0  0  0
    1.9802   -2.0931   -1.4605 O   0  0  0  0  0  0  0  0  0  0  0  0
    2.9166   -0.1633   -1.0586 N   0  0  0  0  0  0  0  0  0  0  0  0
    3.7992   -0.6369   -1.1378 H   0  0  0  0  0  0  0  0  0  0  0  0
    2.8360    0.8225   -0.8953 H   0  0  0  0  0  0  0  0  0  0  0  0
   -0.3126    1.2341    0.8050 C   0  0  0  0  0  0  0  0  0  0  0  0
   -1.2484    1.9199    0.3934 O   0  0  0  0  0  0  0  0  0  0  0  0
    0.5615    1.6875    1.7087 N   0  0  0  0  0  0  0  0  0  0  0  0
    1.3461    1.0849    1.9358 H   0  0  0  0  0  0  0  0  0  0  0  0
    0.5043    3.0121    2.3242 C   0  0  0  0  0  0  0  0  0  0  0  0
   -0.4649    3.1514    2.8080 H   0  0  0  0  0  0  0  0  0  0  0  0
    1.2959    3.1139    3.0678 H   0  0  0  0  0  0  0  0  0  0  0  0
    0.6273    3.7799    1.5584 H   0  0  0  0  0  0  0  0  0  0  0  0
  5  6  2  0  0  0  0
  5  7  1  0  0  0  0
  2  3  1  0  0  0  0
  2  4  1  0  0  0  0
  2  5  1  0  0  0  0
  1  2  1  0  0  0  0
 19 20  2  0  0  0  0
 19 21  1  0  0  0  0
 16 17  1  0  0  0  0
 16 18  1  0  0  0  0
 14 15  2  0  0  0  0
 14 16  1  0  0  0  0
 11 12  1  0  0  0  0
 11 13  1  0  0  0  0
 11 14  1  0  0  0  0
  9 10  1  0  0  0  0
  9 11  1  0  0  0  0
  9 19  1  0  0  0  0
  7  8  1  0  0  0  0
  7  9  1  0  0  0  0
 23 24  1  0  0  0  0
 23 25  1  0  0  0  0
 23 26  1  0  0  0  0
 21 22  1  0  0  0  0
 21 23  1  0  0  0  0
M  END
$$$$
default_name
  -OEChem-02102213163D

 26 25  0     1  0  0  0  0  0999 V2000
   -3.0232   -3.6924    1.0038 H   0  0  0  0  0  0  0  0  0  0  0  0
   -3.0082   -2.6684    0.6318 C   0  0  0  0  0  0  0  0  0  0  0  0
   -3.6332   -2.0414    1.2658 H   0  0  0  0  0  0  0  0  0  0  0  0
   -3.3762   -2.6444   -0.3912 H   0  0  0  0  0  0  0  0  0  0  0  0
   -1.5882   -2.1554    0.6658 C   0  0  0  0  0  0  0  0  0  0  0  0
   -0.6832   -2.8764    1.0638 O   0  0  0  0  0  0  0  0  0  0  0  0
   -1.3952   -0.9084    0.2428 N   0  0  0  0  0  0  0  0  0  0  0  0
   -2.1972   -0.3644   -0.0422 H   0  0  0  0  0  0  0  0  0  0  0  0
   -0.1122   -0.1994    0.2658 C   0  0  1  0  0  0  0  0  0  0  0  0
    0.5635   -0.7260    0.9446 H   0  0  0  0  0  0  0  0  0  0  0  0
    0.4924   -0.2204   -1.1558 C   0  0  0  0  0  0  0  0  0  0  0  0
   -0.1768   -0.7653   -1.8208 H   0  0  0  0  0  0  0  0  0  0  0  0
    0.5829    0.8009   -1.5228 H   0  0  0  0  0  0  0  0  0  0  0  0
    1.8488   -0.9016   -1.2408 C   0  0  0  0  0  0  0  0  0  0  0  0
    2.0042   -2.0138   -1.7142 O   0  0  0  0  0  0  0  0  0  0  0  0
    2.8884   -0.2553   -0.7716 N   0  0  0  0  0  0  0  0  0  0  0  0
    3.7738   -0.7226   -0.8571 H   0  0  0  0  0  0  0  0  0  0  0  0
    2.7900    0.6684   -0.3946 H   0  0  0  0  0  0  0  0  0  0  0  0
   -0.3126    1.2341    0.8050 C   0  0  0  0  0  0  0  0  0  0  0  0
   -1.2484    1.9199    0.3934 O   0  0  0  0  0  0  0  0  0  0  0  0
    0.5615    1.6875    1.7087 N   0  0  0  0  0  0  0  0  0  0  0  0
    1.3461    1.0849    1.9358 H   0  0  0  0  0  0  0  0  0  0  0  0
    0.5043    3.0121    2.3242 C   0  0  0  0  0  0  0  0  0  0  0  0
   -0.4649    3.1514    2.8080 H   0  0  0  0  0  0  0  0  0  0  0  0
    1.2959    3.1139    3.0678 H   0  0  0  0  0  0  0  0  0  0  0  0
    0.6273    3.7799    1.5584 H   0  0  0  0  0  0  0  0  0  0  0  0
  5  6  2  0  0  0  0
  5  7  1  0  0  0  0
  2  3  1  0  0  0  0
  2  4  1  0  0  0  0
  2  5  1  0  0  0  0
  1  2  1  0  0  0  0
 19 20  2  0  0  0  0
 19 21  1  0  0  0  0
 16 17  1  0  0  0  0
 16 18  1  0  0  0  0
 14 15  2  0  0  0  0
 14 16  1  0  0  0  0
 11 12  1  0  0  0  0
 11 13  1  0  0  0  0
 11 14  1  0  0  0  0
  9 10  1  0  0  0  0
  9 11  1  0  0  0  0
  9 19  1  0  0  0  0
  7  8  1  0  0  0  0
  7  9  1  0  0  0  0
 23 24  1  0  0  0  0
 23 25  1  0  0  0  0
 23 26  1  0  0  0  0
 21 22  1  0  0  0  0
 21 23  1  0  0  0  0
M  END
$$$$
default_name
  -OEChem-02102213163D

 26 25  0     1  0  0  0  0  0999 V2000
   -3.0232   -3.6924    1.0038 H   0  0  0  0  0  0  0  0  0  0  0  0
   -3.0082   -2.6684    0.6318 C   0  0  0  0  0  0  0  0  0  0  0  0
   -3.6332   -2.0414    1.2658 H   0  0  0  0  0  0  0  0  0  0  0  0
   -3.3762   -2.6444   -0.3912 H   0  0  0  0  0  0  0  0  0  0  0  0
   -1.5882   -2.1554    0.6658 C   0  0  0  0  0  0  0  0  0  0  0  0
   -0.6832   -2.8764    1.0638 O   0  0  0  0  0  0  0  0  0  0  0  0
   -1.3952   -0.9084    0.2428 N   0  0  0  0  0  0  0  0  0  0  0  0
   -2.1972   -0.3644   -0.0422 H   0  0  0  0  0  0  0  0  0  0  0  0
   -0.1122   -0.1994    0.2658 C   0  0  1  0  0  0  0  0  0  0  0  0
    0.5635   -0.7260    0.9446 H   0  0  0  0  0  0  0  0  0  0  0  0
    0.4924   -0.2204   -1.1558 C   0  0  0  0  0  0  0  0  0  0  0  0
   -0.1768   -0.7653   -1.8208 H   0  0  0  0  0  0  0  0  0  0  0  0
    0.5829    0.8009   -1.5228 H   0  0  0  0  0  0  0  0  0  0  0  0
    1.8488   -0.9016   -1.2408 C   0  0  0  0  0  0  0  0  0  0  0  0
    2.0578   -1.8789   -1.9381 O   0  0  0  0  0  0  0  0  0  0  0  0
    2.8265   -0.4101   -0.5190 N   0  0  0  0  0  0  0  0  0  0  0  0
    3.7154   -0.8698   -0.6087 H   0  0  0  0  0  0  0  0  0  0  0  0
    2.6852    0.4045    0.0481 H   0  0  0  0  0  0  0  0  0  0  0  0
   -0.3126    1.2341    0.8050 C   0  0  0  0  0  0  0  0  0  0  0  0
   -1.2484    1.9199    0.3934 O   0  0  0  0  0  0  0  0  0  0  0  0
    0.5615    1.6875    1.7087 N   0  0  0  0  0  0  0  0  0  0  0  0
    1.3461    1.0849    1.9358 H   0  0  0  0  0  0  0  0  0  0  0  0
    0.5043    3.0121    2.3242 C   0  0  0  0  0  0  0  0  0  0  0  0
   -0.4649    3.1514    2.8080 H   0  0  0  0  0  0  0  0  0  0  0  0
    1.2959    3.1139    3.0678 H   0  0  0  0  0  0  0  0  0  0  0  0
    0.6273    3.7799    1.5584 H   0  0  0  0  0  0  0  0  0  0  0  0
  5  6  2  0  0  0  0
  5  7  1  0  0  0  0
  2  3  1  0  0  0  0
  2  4  1  0  0  0  0
  2  5  1  0  0  0  0
  1  2  1  0  0  0  0
 19 20  2  0  0  0  0
 19 21  1  0  0  0  0
 16 17  1  0  0  0  0
 16 18  1  0  0  0  0
 14 15  2  0  0  0  0
 14 16  1  0  0  0  0
 11 12  1  0  0  0  0
 11 13  1  0  0  0  0
 11 14  1  0  0  0  0
  9 10  1  0  0  0  0
  9 11  1  0  0  0  0
  9 19  1  0  0  0  0
  7  8  1  0  0  0  0
  7  9  1  0  0  0  0
 23 24  1  0  0  0  0
 23 25  1  0  0  0  0
 23 26  1  0  0  0  0
 21 22  1  0  0  0  0
 21 23  1  0  0  0  0
M  END
$$$$
default_name
  -OEChem-02102213163D

 26 25  0     1  0  0  0  0  0999 V2000
   -3.0232   -3.6924    1.0038 H   0  0  0  0  0  0  0  0  0  0  0  0
   -3.0082   -2.6684    0.6318 C   0  0  0  0  0  0  0  0  0  0  0  0
   -3.6332   -2.0414    1.2658 H   0  0  0  0  0  0  0  0  0  0  0  0
   -3.3762   -2.6444   -0.3912 H   0  0  0  0  0  0  0  0  0  0  0  0
   -1.5882   -2.1554    0.6658 C   0  0  0  0  0  0  0  0  0  0  0  0
   -0.6832   -2.8764    1.0638 O   0  0  0  0  0  0  0  0  0  0  0  0
   -1.3952   -0.9084    0.2428 N   0  0  0  0  0  0  0  0  0  0  0  0
   -2.1972   -0.3644   -0.0422 H   0  0  0  0  0  0  0  0  0  0  0  0
   -0.1122   -0.1994    0.2658 C   0  0  1  0  0  0  0  0  0  0  0  0
    0.5635   -0.7260    0.9446 H   0  0  0  0  0  0  0  0  0  0  0  0
    0.4924   -0.2204   -1.1558 C   0  0  0  0  0  0  0  0  0  0  0  0
   -0.1768   -0.7653   -1.8208 H   0  0  0  0  0  0  0  0  0  0  0  0
    0.5829    0.8009   -1.5228 H   0  0  0  0  0  0  0  0  0  0  0  0
    1.8488   -0.9016   -1.2408 C   0  0  0  0  0  0  0  0  0  0  0  0
    2.1376   -1.6978   -2.1171 O   0  0  0  0  0  0  0  0  0  0  0  0
    2.7352   -0.6170   -0.3179 N   0  0  0  0  0  0  0  0  0  0  0  0
    3.6281   -1.0685   -0.4095 H   0  0  0  0  0  0  0  0  0  0  0  0
    2.5288    0.0489    0.4026 H   0  0  0  0  0  0  0  0  0  0  0  0
   -0.3126    1.2341    0.8050 C   0  0  0  0  0  0  0  0  0  0  0  0
   -1.2484    1.9199    0.3934 O   0  0  0  0  0  0  0  0  0  0  0  0
    0.5615    1.6875    1.7087 N   0  0  0  0  0  0  0  0  0  0  0  0
    1.3461    1.0849    1.9358 H   0  0  0  0  0  0  0  0  0  0  0  0
    0.5043    3.0121    2.3242 C   0  0  0  0  0  0  0  0  0  0  0  0
   -0.4649    3.1514    2.8080 H   0  0  0  0  0  0  0  0  0  0  0  0
    1.2959    3.1139    3.0678 H   0  0  0  0  0  0  0  0  0  0  0  0
    0.6273    3.7799    1.5584 H   0  0  0  0  0  0  0  0  0  0  0  0
  5  6  2  0  0  0  0
  5  7  1  0  0  0  0
  2  3  1  0  0  0  0
  2  4  1  0  0  0  0
  2  5  1  0  0  0  0
  1  2  1  0  0  0  0
 19 20  2  0  0  0  0
 19 21  1  0  0  0  0
 16 17  1  0  0  0  0
 16 18  1  0  0  0  0
 14 15  2  0  0  0  0
 14 16  1  0  0  0  0
 11 12  1  0  0  0  0
 11 13  1  0  0  0  0
 11 14  1  0  0  0  0
  9 10  1  0  0  0  0
  9 11  1  0  0  0  0
  9 19  1  0  0  0  0
  7  8  1  0  0  0  0
  7  9  1  0  0  0  0
 23 24  1  0  0  0  0
 23 25  1  0  0  0  0
 23 26  1  0  0  0  0
 21 22  1  0  0  0  0
 21 23  1  0  0  0  0
M  END
$$$$
default_name
  -OEChem-02102213163D

 26 25  0     1  0  0  0  0  0999 V2000
   -3.0232   -3.6924    1.0038 H   0  0  0  0  0  0  0  0  0  0  0  0
   -3.0082   -2.6684    0.6318 C   0  0  0  0  0  0  0  0  0  0  0  0
   -3.6332   -2.0414    1.2658 H   0  0  0  0  0  0  0  0  0  0  0  0
   -3.3762   -2.6444   -0.3912 H   0  0  0  0  0  0  0  0  0  0  0  0
   -1.5882   -2.1554    0.6658 C   0  0  0  0  0  0  0  0  0  0  0  0
   -0.6832   -2.8764    1.0638 O   0  0  0  0  0  0  0  0  0  0  0  0
   -1.3952   -0.9084    0.2428 N   0  0  0  0  0  0  0  0  0  0  0  0
   -2.1972   -0.3644   -0.0422 H   0  0  0  0  0  0  0  0  0  0  0  0
   -0.1122   -0.1994    0.2658 C   0  0  1  0  0  0  0  0  0  0  0  0
    0.5635   -0.7260    0.9446 H   0  0  0  0  0  0  0  0  0  0  0  0
    0.4924   -0.2204   -1.1558 C   0  0  0  0  0  0  0  0  0  0  0  0
   -0.1768   -0.7653   -1.8208 H   0  0  0  0  0  0  0  0  0  0  0  0
    0.5829    0.8009   -1.5228 H   0  0  0  0  0  0  0  0  0  0  0  0
    1.8488   -0.9016   -1.2408 C   0  0  0  0  0  0  0  0  0  0  0  0
    2.2381   -1.4826   -2.2389 O   0  0  0  0  0  0  0  0  0  0  0  0
    2.6206   -0.8620   -0.1820 N   0  0  0  0  0  0  0  0  0  0  0  0
    3.5178   -1.3052   -0.2731 H   0  0  0  0  0  0  0  0  0  0  0  0
    2.3315   -0.3742    0.6448 H   0  0  0  0  0  0  0  0  0  0  0  0
   -0.3126    1.2341    0.8050 C   0  0  0  0  0  0  0  0  0  0  0  0
   -1.2484    1.9199    0.3934 O   0  0  0  0  0  0  0  0  0  0  0  0
    0.5615    1.6875    1.7087 N   0  0  0  0  0  0  0  0  0  0  0  0
    1.3461    1.0849    1.9358 H   0  0  0  0  0  0  0  0  0  0  0  0
    0.5043    3.0121    2.3242 C   0  0  0  0  0  0  0  0  0  0  0  0
   -0.4649    3.1514    2.8080 H   0  0  0  0  0  0  0  0  0  0  0  0
    1.2959    3.1139    3.0678 H   0  0  0  0  0  0  0  0  0  0  0  0
    0.6273    3.7799    1.5584 H   0  0  0  0  0  0  0  0  0  0  0  0
  5  6  2  0  0  0  0
  5  7  1  0  0  0  0
  2  3  1  0  0  0  0
  2  4  1  0  0  0  0
  2  5  1  0  0  0  0
  1  2  1  0  0  0  0
 19 20  2  0  0  0  0
 19 21  1  0  0  0  0
 16 17  1  0  0  0  0
 16 18  1  0  0  0  0
 14 15  2  0  0  0  0
 14 16  1  0  0  0  0
 11 12  1  0  0  0  0
 11 13  1  0  0  0  0
 11 14  1  0  0  0  0
  9 10  1  0  0  0  0
  9 11  1  0  0  0  0
  9 19  1  0  0  0  0
  7  8  1  0  0  0  0
  7  9  1  0  0  0  0
 23 24  1  0  0  0  0
 23 25  1  0  0  0  0
 23 26  1  0  0  0  0
 21 22  1  0  0  0  0
 21 23  1  0  0  0  0
M  END
$$$$
default_name
  -OEChem-02102213163D

 26 25  0     1  0  0  0  0  0999 V2000
   -3.0232   -3.6924    1.0038 H   0  0  0  0  0  0  0  0  0  0  0  0
   -3.0082   -2.6684    0.6318 C   0  0  0  0  0  0  0  0  0  0  0  0
   -3.6332   -2.0414    1.2658 H   0  0  0  0  0  0  0  0  0  0  0  0
   -3.3762   -2.6444   -0.3912 H   0  0  0  0  0  0  0  0  0  0  0  0
   -1.5882   -2.1554    0.6658 C   0  0  0  0  0  0  0  0  0  0  0  0
   -0.6832   -2.8764    1.0638 O   0  0  0  0  0  0  0  0  0  0  0  0
   -1.3952   -0.9084    0.2428 N   0  0  0  0  0  0  0  0  0  0  0  0
   -2.1972   -0.3644   -0.0422 H   0  0  0  0  0  0  0  0  0  0  0  0
   -0.1122   -0.1994    0.2658 C   0  0  1  0  0  0  0  0  0  0  0  0
    0.5635   -0.7260    0.9446 H   0  0  0  0  0  0  0  0  0  0  0  0
    0.4924   -0.2204   -1.1558 C   0  0  0  0  0  0  0  0  0  0  0  0
   -0.1768   -0.7653   -1.8208 H   0  0  0  0  0  0  0  0  0  0  0  0
    0.5829    0.8009   -1.5228 H   0  0  0  0  0  0  0  0  0  0  0  0
    1.8488   -0.9016   -1.2408 C   0  0  0  0  0  0  0  0  0  0  0  0
    2.3523   -1.2480   -2.2951 O   0  0  0  0  0  0  0  0  0  0  0  0
    2.4907   -1.1283   -0.1206 N   0  0  0  0  0  0  0  0  0  0  0  0
    3.3920   -1.5637   -0.2088 H   0  0  0  0  0  0  0  0  0  0  0  0
    2.1067   -0.8359    0.7581 H   0  0  0  0  0  0  0  0  0  0  0  0
   -0.3126    1.2341    0.8050 C   0  0  0  0  0  0  0  0  0  0  0  0
   -1.2484    1.9199    0.3934 O   0  0  0  0  0  0  0  0  0  0  0  0
    0.5615    1.6875    1.7087 N   0  0  0  0  0  0  0  0  0  0  0  0
    1.3461    1.0849    1.9358 H   0  0  0  0  0  0  0  0  0  0  0  0
    0.5043    3.0121    2.3242 C   0  0  0  0  0  0  0  0  0  0  0  0
   -0.4649    3.1514    2.8080 H   0  0  0  0  0  0  0  0  0  0  0  0
    1.2959    3.1139    3.0678 H   0  0  0  0  0  0  0  0  0  0  0  0
    0.6273    3.7799    1.5584 H   0  0  0  0  0  0  0  0  0  0  0  0
  5  6  2  0  0  0  0
  5  7  1  0  0  0  0
  2  3  1  0  0  0  0
  2  4  1  0  0  0  0
  2  5  1  0  0  0  0
  1  2  1  0  0  0  0
 19 20  2  0  0  0  0
 19 21  1  0  0  0  0
 16 17  1  0  0  0  0
 16 18  1  0  0  0  0
 14 15  2  0  0  0  0
 14 16  1  0  0  0  0
 11 12  1  0  0  0  0
 11 13  1  0  0  0  0
 11 14  1  0  0  0  0
  9 10  1  0  0  0  0
  9 11  1  0  0  0  0
  9 19  1  0  0  0  0
  7  8  1  0  0  0  0
  7  9  1  0  0  0  0
 23 24  1  0  0  0  0
 23 25  1  0  0  0  0
 23 26  1  0  0  0  0
 21 22  1  0  0  0  0
 21 23  1  0  0  0  0
M  END
$$$$
default_name
  -OEChem-02102213163D

 26 25  0     1  0  0  0  0  0999 V2000
   -3.0232   -3.6924    1.0038 H   0  0  0  0  0  0  0  0  0  0  0  0
   -3.0082   -2.6684    0.6318 C   0  0  0  0  0  0  0  0  0  0  0  0
   -3.6332   -2.0414    1.2658 H   0  0  0  0  0  0  0  0  0  0  0  0
   -3.3762   -2.6444   -0.3912 H   0  0  0  0  0  0  0  0  0  0  0  0
   -1.5882   -2.1554    0.6658 C   0  0  0  0  0  0  0  0  0  0  0  0
   -0.6832   -2.8764    1.0638 O   0  0  0  0  0  0  0  0  0  0  0  0
   -1.3952   -0.9084    0.2428 N   0  0  0  0  0  0  0  0  0  0  0  0
   -2.1972   -0.3644   -0.0422 H   0  0  0  0  0  0  0  0  0  0  0  0
   -0.1122   -0.1994    0.2658 C   0  0  1  0  0  0  0  0  0  0  0  0
    0.5635   -0.7260    0.9446 H   0  0  0  0  0  0  0  0  0  0  0  0
    0.4924   -0.2204   -1.1558 C   0  0  0  0  0  0  0  0  0  0  0  0
   -0.2766   -0.5202   -1.8669 H   0  0  0  0  0  0  0  0  0  0  0  0
    0.8291    0.7815   -1.4177 H   0  0  0  0  0  0  0  0  0  0  0  0
    1.6489   -1.1931   -1.3215 C   0  0  0  0  0  0  0  0  0  0  0  0
    2.2453   -1.3416   -2.3739 O   0  0  0  0  0  0  0  0  0  0  0  0
    2.0043   -1.9042   -0.2792 N   0  0  0  0  0  0  0  0  0  0  0  0
    2.7825   -2.5255   -0.4134 H   0  0  0  0  0  0  0  0  0  0  0  0
    1.5421   -1.7869    0.6027 H   0  0  0  0  0  0  0  0  0  0  0  0
   -0.3126    1.2341    0.8050 C   0  0  0  0  0  0  0  0  0  0  0  0
   -1.2484    1.9199    0.3934 O   0  0  0  0  0  0  0  0  0  0  0  0
    0.5615    1.6875    1.7087 N   0  0  0  0  0  0  0  0  0  0  0  0
    1.3461    1.0849    1.9358 H   0  0  0  0  0  0  0  0  0  0  0  0
    0.5043    3.0121    2.3242 C   0  0  0  0  0  0  0  0  0  0  0  0
   -0.4649    3.1514    2.8080 H   0  0  0  0  0  0  0  0  0  0  0  0
    1.2959    3.1139    3.0678 H   0  0  0  0  0  0  0  0  0  0  0  0
    0.6273    3.7799    1.5584 H   0  0  0  0  0  0  0  0  0  0  0  0
  5  6  2  0  0  0  0
  5  7  1  0  0  0  0
  2  3  1  0  0  0  0
  2  4  1  0  0  0  0
  2  5  1  0  0  0  0
  1  2  1  0  0  0  0
 19 20  2  0  0  0  0
 19 21  1  0  0  0  0
 16 17  1  0  0  0  0
 16 18  1  0  0  0  0
 14 15  2  0  0  0  0
 14 16  1  0  0  0  0
 11 12  1  0  0  0  0
 11 13  1  0  0  0  0
 11 14  1  0  0  0  0
  9 10  1  0  0  0  0
  9 11  1  0  0  0  0
  9 19  1  0  0  0  0
  7  8  1  0  0  0  0
  7  9  1  0  0  0  0
 23 24  1  0  0  0  0
 23 25  1  0  0  0  0
 23 26  1  0  0  0  0
 21 22  1  0  0  0  0
 21 23  1  0  0  0  0
M  END
$$$$
default_name
  -OEChem-02102213163D

 26 25  0     1  0  0  0  0  0999 V2000
   -3.0232   -3.6924    1.0038 H   0  0  0  0  0  0  0  0  0  0  0  0
   -3.0082   -2.6684    0.6318 C   0  0  0  0  0  0  0  0  0  0  0  0
   -3.6332   -2.0414    1.2658 H   0  0  0  0  0  0  0  0  0  0  0  0
   -3.3762   -2.6444   -0.3912 H   0  0  0  0  0  0  0  0  0  0  0  0
   -1.5882   -2.1554    0.6658 C   0  0  0  0  0  0  0  0  0  0  0  0
   -0.6832   -2.8764    1.0638 O   0  0  0  0  0  0  0  0  0  0  0  0
   -1.3952   -0.9084    0.2428 N   0  0  0  0  0  0  0  0  0  0  0  0
   -2.1972   -0.3644   -0.0422 H   0  0  0  0  0  0  0  0  0  0  0  0
   -0.1122   -0.1994    0.2658 C   0  0  1  0  0  0  0  0  0  0  0  0
    0.5635   -0.7260    0.9446 H   0  0  0  0  0  0  0  0  0  0  0  0
    0.4924   -0.2204   -1.1558 C   0  0  0  0  0  0  0  0  0  0  0  0
   -0.2766   -0.5202   -1.8669 H   0  0  0  0  0  0  0  0  0  0  0  0
    0.8291    0.7815   -1.4177 H   0  0  0  0  0  0  0  0  0  0  0  0
    1.6489   -1.1931   -1.3215 C   0  0  0  0  0  0  0  0  0  0  0  0
    2.4123   -1.1606   -2.2709 O   0  0  0  0  0  0  0  0  0  0  0  0
    1.8153   -2.1086   -0.3981 N   0  0  0  0  0  0  0  0  0  0  0  0
    2.5978   -2.7261   -0.5250 H   0  0  0  0  0  0  0  0  0  0  0  0
    1.2127   -2.1444    0.4022 H   0  0  0  0  0  0  0  0  0  0  0  0
   -0.3126    1.2341    0.8050 C   0  0  0  0  0  0  0  0  0  0  0  0
   -1.2484    1.9199    0.3934 O   0  0  0  0  0  0  0  0  0  0  0  0
    0.5615    1.6875    1.7087 N   0  0  0  0  0  0  0  0  0  0  0  0
    1.3461    1.0849    1.9358 H   0  0  0  0  0  0  0  0  0  0  0  0
    0.5043    3.0121    2.3242 C   0  0  0  0  0  0  0  0  0  0  0  0
   -0.4649    3.1514    2.8080 H   0  0  0  0  0  0  0  0  0  0  0  0
    1.2959    3.1139    3.0678 H   0  0  0  0  0  0  0  0  0  0  0  0
    0.6273    3.7799    1.5584 H   0  0  0  0  0  0  0  0  0  0  0  0
  5  6  2  0  0  0  0
  5  7  1  0  0  0  0
  2  3  1  0  0  0  0
  2  4  1  0  0  0  0
  2  5  1  0  0  0  0
  1  2  1  0  0  0  0
 19 20  2  0  0  0  0
 19 21  1  0  0  0  0
 16 17  1  0  0  0  0
 16 18  1  0  0  0  0
 14 15  2  0  0  0  0
 14 16  1  0  0  0  0
 11 12  1  0  0  0  0
 11 13  1  0  0  0  0
 11 14  1  0  0  0  0
  9 10  1  0  0  0  0
  9 11  1  0  0  0  0
  9 19  1  0  0  0  0
  7  8  1  0  0  0  0
  7  9  1  0  0  0  0
 23 24  1  0  0  0  0
 23 25  1  0  0  0  0
 23 26  1  0  0  0  0
 21 22  1  0  0  0  0
 21 23  1  0  0  0  0
M  END
$$$$
default_name
  -OEChem-02102213163D

 26 25  0     1  0  0  0  0  0999 V2000
   -3.0232   -3.6924    1.0038 H   0  0  0  0  0  0  0  0  0  0  0  0
   -3.0082   -2.6684    0.6318 C   0  0  0  0  0  0  0  0  0  0  0  0
   -3.6332   -2.0414    1.2658 H   0  0  0  0  0  0  0  0  0  0  0  0
   -3.3762   -2.6444   -0.3912 H   0  0  0  0  0  0  0  0  0  0  0  0
   -1.5882   -2.1554    0.6658 C   0  0  0  0  0  0  0  0  0  0  0  0
   -0.6832   -2.8764    1.0638 O   0  0  0  0  0  0  0  0  0  0  0  0
   -1.3952   -0.9084    0.2428 N   0  0  0  0  0  0  0  0  0  0  0  0
   -2.1972   -0.3644   -0.0422 H   0  0  0  0  0  0  0  0  0  0  0  0
   -0.1122   -0.1994    0.2658 C   0  0  1  0  0  0  0  0  0  0  0  0
    0.5635   -0.7260    0.9446 H   0  0  0  0  0  0  0  0  0  0  0  0
    0.4924   -0.2204   -1.1558 C   0  0  0  0  0  0  0  0  0  0  0  0
   -0.2766   -0.5202   -1.8669 H   0  0  0  0  0  0  0  0  0  0  0  0
    0.8291    0.7815   -1.4177 H   0  0  0  0  0  0  0  0  0  0  0  0
    1.6489   -1.1931   -1.3215 C   0  0  0  0  0  0  0  0  0  0  0  0
    2.5616   -1.0108   -2.1082 O   0  0  0  0  0  0  0  0  0  0  0  0
    1.6468   -2.2772   -0.5846 N   0  0  0  0  0  0  0  0  0  0  0  0
    2.4322   -2.8926   -0.7028 H   0  0  0  0  0  0  0  0  0  0  0  0
    0.9176   -2.4410    0.0836 H   0  0  0  0  0  0  0  0  0  0  0  0
   -0.3126    1.2341    0.8050 C   0  0  0  0  0  0  0  0  0  0  0  0
   -1.2484    1.9199    0.3934 O   0  0  0  0  0  0  0  0  0  0  0  0
    0.5615    1.6875    1.7087 N   0  0  0  0  0  0  0  0  0  0  0  0
    1.3461    1.0849    1.9358 H   0  0  0  0  0  0  0  0  0  0  0  0
    0.5043    3.0121    2.3242 C   0  0  0  0  0  0  0  0  0  0  0  0
   -0.4649    3.1514    2.8080 H   0  0  0  0  0  0  0  0  0  0  0  0
    1.2959    3.1139    3.0678 H   0  0  0  0  0  0  0  0  0  0  0  0
    0.6273    3.7799    1.5584 H   0  0  0  0  0  0  0  0  0  0  0  0
  5  6  2  0  0  0  0
  5  7  1  0  0  0  0
  2  3  1  0  0  0  0
  2  4  1  0  0  0  0
  2  5  1  0  0  0  0
  1  2  1  0  0  0  0
 19 20  2  0  0  0  0
 19 21  1  0  0  0  0
 16 17  1  0  0  0  0
 16 18  1  0  0  0  0
 14 15  2  0  0  0  0
 14 16  1  0  0  0  0
 11 12  1  0  0  0  0
 11 13  1  0  0  0  0
 11 14  1  0  0  0  0
  9 10  1  0  0  0  0
  9 11  1  0  0  0  0
  9 19  1  0  0  0  0
  7  8  1  0  0  0  0
  7  9  1  0  0  0  0
 23 24  1  0  0  0  0
 23 25  1  0  0  0  0
 23 26  1  0  0  0  0
 21 22  1  0  0  0  0
 21 23  1  0  0  0  0
M  END
$$$$
default_name
  -OEChem-02102213163D

 26 25  0     1  0  0  0  0  0999 V2000
   -3.0232   -3.6924    1.0038 H   0  0  0  0  0  0  0  0  0  0  0  0
   -3.0082   -2.6684    0.6318 C   0  0  0  0  0  0  0  0  0  0  0  0
   -3.6332   -2.0414    1.2658 H   0  0  0  0  0  0  0  0  0  0  0  0
   -3.3762   -2.6444   -0.3912 H   0  0  0  0  0  0  0  0  0  0  0  0
   -1.5882   -2.1554    0.6658 C   0  0  0  0  0  0  0  0  0  0  0  0
   -0.6832   -2.8764    1.0638 O   0  0  0  0  0  0  0  0  0  0  0  0
   -1.3952   -0.9084    0.2428 N   0  0  0  0  0  0  0  0  0  0  0  0
   -2.1972   -0.3644   -0.0422 H   0  0  0  0  0  0  0  0  0  0  0  0
   -0.1122   -0.1994    0.2658 C   0  0  1  0  0  0  0  0  0  0  0  0
    0.5635   -0.7260    0.9446 H   0  0  0  0  0  0  0  0  0  0  0  0
    0.4924   -0.2204   -1.1558 C   0  0  0  0  0  0  0  0  0  0  0  0
   -0.2766   -0.5202   -1.8669 H   0  0  0  0  0  0  0  0  0  0  0  0
    0.8291    0.7815   -1.4177 H   0  0  0  0  0  0  0  0  0  0  0  0
    1.6489   -1.1931   -1.3215 C   0  0  0  0  0  0  0  0  0  0  0  0
    2.6831   -0.9023   -1.8969 O   0  0  0  0  0  0  0  0  0  0  0  0
    1.5101   -2.3986   -0.8258 N   0  0  0  0  0  0  0  0  0  0  0  0
    2.2971   -3.0139   -0.9349 H   0  0  0  0  0  0  0  0  0  0  0  0
    0.6769   -2.6565   -0.3315 H   0  0  0  0  0  0  0  0  0  0  0  0
   -0.3126    1.2341    0.8050 C   0  0  0  0  0  0  0  0  0  0  0  0
   -1.2484    1.9199    0.3934 O   0  0  0  0  0  0  0  0  0  0  0  0
    0.5615    1.6875    1.7087 N   0  0  0  0  0  0  0  0  0  0  0  0
    1.3461    1.0849    1.9358 H   0  0  0  0  0  0  0  0  0  0  0  0
    0.5043    3.0121    2.3242 C   0  0  0  0  0  0  0  0  0  0  0  0
   -0.4649    3.1514    2.8080 H   0  0  0  0  0  0  0  0  0  0  0  0
    1.2959    3.1139    3.0678 H   0  0  0  0  0  0  0  0  0  0  0  0
    0.6273    3.7799    1.5584 H   0  0  0  0  0  0  0  0  0  0  0  0
  5  6  2  0  0  0  0
  5  7  1  0  0  0  0
  2  3  1  0  0  0  0
  2  4  1  0  0  0  0
  2  5  1  0  0  0  0
  1  2  1  0  0  0  0
 19 20  2  0  0  0  0
 19 21  1  0  0  0  0
 16 17  1  0  0  0  0
 16 18  1  0  0  0  0
 14 15  2  0  0  0  0
 14 16  1  0  0  0  0
 11 12  1  0  0  0  0
 11 13  1  0  0  0  0
 11 14  1  0  0  0  0
  9 10  1  0  0  0  0
  9 11  1  0  0  0  0
  9 19  1  0  0  0  0
  7  8  1  0  0  0  0
  7  9  1  0  0  0  0
 23 24  1  0  0  0  0
 23 25  1  0  0  0  0
 23 26  1  0  0  0  0
 21 22  1  0  0  0  0
 21 23  1  0  0  0  0
M  END
$$$$
default_name
  -OEChem-02102213163D

 26 25  0     1  0  0  0  0  0999 V2000
   -3.0232   -3.6924    1.0038 H   0  0  0  0  0  0  0  0  0  0  0  0
   -3.0082   -2.6684    0.6318 C   0  0  0  0  0  0  0  0  0  0  0  0
   -3.6332   -2.0414    1.2658 H   0  0  0  0  0  0  0  0  0  0  0  0
   -3.3762   -2.6444   -0.3912 H   0  0  0  0  0  0  0  0  0  0  0  0
   -1.5882   -2.1554    0.6658 C   0  0  0  0  0  0  0  0  0  0  0  0
   -0.6832   -2.8764    1.0638 O   0  0  0  0  0  0  0  0  0  0  0  0
   -1.3952   -0.9084    0.2428 N   0  0  0  0  0  0  0  0  0  0  0  0
   -2.1972   -0.3644   -0.0422 H   0  0  0  0  0  0  0  0  0  0  0  0
   -0.1122   -0.1994    0.2658 C   0  0  1  0  0  0  0  0  0  0  0  0
    0.5635   -0.7260    0.9446 H   0  0  0  0  0  0  0  0  0  0  0  0
    0.4924   -0.2204   -1.1558 C   0  0  0  0  0  0  0  0  0  0  0  0
   -0.2766   -0.5202   -1.8669 H   0  0  0  0  0  0  0  0  0  0  0  0
    0.8291    0.7815   -1.4177 H   0  0  0  0  0  0  0  0  0  0  0  0
    1.6489   -1.1931   -1.3215 C   0  0  0  0  0  0  0  0  0  0  0  0
    2.7686   -0.8425   -1.6512 O   0  0  0  0  0  0  0  0  0  0  0  0
    1.4146   -2.4646   -1.1053 N   0  0  0  0  0  0  0  0  0  0  0  0
    2.2015   -3.0815   -1.2052 H   0  0  0  0  0  0  0  0  0  0  0  0
    0.5071   -2.7761   -0.8146 H   0  0  0  0  0  0  0  0  0  0  0  0
   -0.3126    1.2341    0.8050 C   0  0  0  0  0  0  0  0  0  0  0  0
   -1.2484    1.9199    0.3934 O   0  0  0  0  0  0  0  0  0  0  0  0
    0.5615    1.6875    1.7087 N   0  0  0  0  0  0  0  0  0  0  0  0
    1.3461    1.0849    1.9358 H   0  0  0  0  0  0  0  0  0  0  0  0
    0.5043    3.0121    2.3242 C   0  0  0  0  0  0  0  0  0  0  0  0
   -0.4649    3.1514    2.8080 H   0  0  0  0  0  0  0  0  0  0  0  0
    1.2959    3.1139    3.0678 H   0  0  0  0  0  0  0  0  0  0  0  0
    0.6273    3.7799    1.5584 H   0  0  0  0  0  0  0  0  0  0  0  0
  5  6  2  0  0  0  0
  5  7  1  0  0  0  0
  2  3  1  0  0  0  0
  2  4  1  0  0  0  0
  2  5  1  0  0  0  0
  1  2  1  0  0  0  0
 19 20  2  0  0  0  0
 19 21  1  0  0  0  0
 16 17  1  0  0  0  0
 16 18  1  0  0  0  0
 14 15  2  0  0  0  0
 14 16  1  0  0  0  0
 11 12  1  0  0  0  0
 11 13  1  0  0  0  0
 11 14  1  0  0  0  0
  9 10  1  0  0  0  0
  9 11  1  0  0  0  0
  9 19  1  0  0  0  0
  7  8  1  0  0  0  0
  7  9  1  0  0  0  0
 23 24  1  0  0  0  0
 23 25  1  0  0  0  0
 23 26  1  0  0  0  0
 21 22  1  0  0  0  0
 21 23  1  0  0  0  0
M  END
$$$$
default_name
  -OEChem-02102213163D

 26 25  0     1  0  0  0  0  0999 V2000
   -3.0232   -3.6924    1.0038 H   0  0  0  0  0  0  0  0  0  0  0  0
   -3.0082   -2.6684    0.6318 C   0  0  0  0  0  0  0  0  0  0  0  0
   -3.6332   -2.0414    1.2658 H   0  0  0  0  0  0  0  0  0  0  0  0
   -3.3762   -2.6444   -0.3912 H   0  0  0  0  0  0  0  0  0  0  0  0
   -1.5882   -2.1554    0.6658 C   0  0  0  0  0  0  0  0  0  0  0  0
   -0.6832   -2.8764    1.0638 O   0  0  0  0  0  0  0  0  0  0  0  0
   -1.3952   -0.9084    0.2428 N   0  0  0  0  0  0  0  0  0  0  0  0
   -2.1972   -0.3644   -0.0422 H   0  0  0  0  0  0  0  0  0  0  0  0
   -0.1122   -0.1994    0.2658 C   0  0  1  0  0  0  0  0  0  0  0  0
    0.5635   -0.7260    0.9446 H   0  0  0  0  0  0  0  0  0  0  0  0
    0.4924   -0.2204   -1.1558 C   0  0  0  0  0  0  0  0  0  0  0  0
   -0.2766   -0.5202   -1.8669 H   0  0  0  0  0  0  0  0  0  0  0  0
    0.8291    0.7815   -1.4177 H   0  0  0  0  0  0  0  0  0  0  0  0
    1.6489   -1.1931   -1.3215 C   0  0  0  0  0  0  0  0  0  0  0  0
    2.8121   -0.8356   -1.3880 O   0  0  0  0  0  0  0  0  0  0  0  0
    1.3668   -2.4706   -1.4041 N   0  0  0  0  0  0  0  0  0  0  0  0
    2.1520   -3.0908   -1.4955 H   0  0  0  0  0  0  0  0  0  0  0  0
    0.4198   -2.7917   -1.3330 H   0  0  0  0  0  0  0  0  0  0  0  0
   -0.3126    1.2341    0.8050 C   0  0  0  0  0  0  0  0  0  0  0  0
   -1.2484    1.9199    0.3934 O   0  0  0  0  0  0  0  0  0  0  0  0
    0.5615    1.6875    1.7087 N   0  0  0  0  0  0  0  0  0  0  0  0
    1.3461    1.0849    1.9358 H   0  0  0  0  0  0  0  0  0  0  0  0
    0.5043    3.0121    2.3242 C   0  0  0  0  0  0  0  0  0  0  0  0
   -0.4649    3.1514    2.8080 H   0  0  0  0  0  0  0  0  0  0  0  0
    1.2959    3.1139    3.0678 H   0  0  0  0  0  0  0  0  0  0  0  0
    0.6273    3.7799    1.5584 H   0  0  0  0  0  0  0  0  0  0  0  0
  5  6  2  0  0  0  0
  5  7  1  0  0  0  0
  2  3  1  0  0  0  0
  2  4  1  0  0  0  0
  2  5  1  0  0  0  0
  1  2  1  0  0  0  0
 19 20  2  0  0  0  0
 19 21  1  0  0  0  0
 16 17  1  0  0  0  0
 16 18  1  0  0  0  0
 14 15  2  0  0  0  0
 14 16  1  0  0  0  0
 11 12  1  0  0  0  0
 11 13  1  0  0  0  0
 11 14  1  0  0  0  0
  9 10  1  0  0  0  0
  9 11  1  0  0  0  0
  9 19  1  0  0  0  0
  7  8  1  0  0  0  0
  7  9  1  0  0  0  0
 23 24  1  0  0  0  0
 23 25  1  0  0  0  0
 23 26  1  0  0  0  0
 21 22  1  0  0  0  0
 21 23  1  0  0  0  0
M  END
$$$$
default_name
  -OEChem-02102213163D

 26 25  0     1  0  0  0  0  0999 V2000
   -3.0232   -3.6924    1.0038 H   0  0  0  0  0  0  0  0  0  0  0  0
   -3.0082   -2.6684    0.6318 C   0  0  0  0  0  0  0  0  0  0  0  0
   -3.6332   -2.0414    1.2658 H   0  0  0  0  0  0  0  0  0  0  0  0
   -3.3762   -2.6444   -0.3912 H   0  0  0  0  0  0  0  0  0  0  0  0
   -1.5882   -2.1554    0.6658 C   0  0  0  0  0  0  0  0  0  0  0  0
   -0.6832   -2.8764    1.0638 O   0  0  0  0  0  0  0  0  0  0  0  0
   -1.3952   -0.9084    0.2428 N   0  0  0  0  0  0  0  0  0  0  0  0
   -2.1972   -0.3644   -0.0422 H   0  0  0  0  0  0  0  0  0  0  0  0
   -0.1122   -0.1994    0.2658 C   0  0  1  0  0  0  0  0  0  0  0  0
    0.5635   -0.7260    0.9446 H   0  0  0  0  0  0  0  0  0  0  0  0
    0.4924   -0.2204   -1.1558 C   0  0  0  0  0  0  0  0  0  0  0  0
   -0.2766   -0.5202   -1.8669 H   0  0  0  0  0  0  0  0  0  0  0  0
    0.8291    0.7815   -1.4177 H   0  0  0  0  0  0  0  0  0  0  0  0
    1.6489   -1.1931   -1.3215 C   0  0  0  0  0  0  0  0  0  0  0  0
    2.8108   -0.8819   -1.1252 O   0  0  0  0  0  0  0  0  0  0  0  0
    1.3699   -2.4161   -1.7018 N   0  0  0  0  0  0  0  0  0  0  0  0
    2.1521   -3.0413   -1.7859 H   0  0  0  0  0  0  0  0  0  0  0  0
    0.4208   -2.7022   -1.8513 H   0  0  0  0  0  0  0  0  0  0  0  0
   -0.3126    1.2341    0.8050 C   0  0  0  0  0  0  0  0  0  0  0  0
   -1.2484    1.9199    0.3934 O   0  0  0  0  0  0  0  0  0  0  0  0
    0.5615    1.6875    1.7087 N   0  0  0  0  0  0  0  0  0  0  0  0
    1.3461    1.0849    1.9358 H   0  0  0  0  0  0  0  0  0  0  0  0
    0.5043    3.0121    2.3242 C   0  0  0  0  0  0  0  0  0  0  0  0
   -0.4649    3.1514    2.8080 H   0  0  0  0  0  0  0  0  0  0  0  0
    1.2959    3.1139    3.0678 H   0  0  0  0  0  0  0  0  0  0  0  0
    0.6273    3.7799    1.5584 H   0  0  0  0  0  0  0  0  0  0  0  0
  5  6  2  0  0  0  0
  5  7  1  0  0  0  0
  2  3  1  0  0  0  0
  2  4  1  0  0  0  0
  2  5  1  0  0  0  0
  1  2  1  0  0  0  0
 19 20  2  0  0  0  0
 19 21  1  0  0  0  0
 16 17  1  0  0  0  0
 16 18  1  0  0  0  0
 14 15  2  0  0  0  0
 14 16  1  0  0  0  0
 11 12  1  0  0  0  0
 11 13  1  0  0  0  0
 11 14  1  0  0  0  0
  9 10  1  0  0  0  0
  9 11  1  0  0  0  0
  9 19  1  0  0  0  0
  7  8  1  0  0  0  0
  7  9  1  0  0  0  0
 23 24  1  0  0  0  0
 23 25  1  0  0  0  0
 23 26  1  0  0  0  0
 21 22  1  0  0  0  0
 21 23  1  0  0  0  0
M  END
$$$$
default_name
  -OEChem-02102213163D

 26 25  0     1  0  0  0  0  0999 V2000
   -3.0232   -3.6924    1.0038 H   0  0  0  0  0  0  0  0  0  0  0  0
   -3.0082   -2.6684    0.6318 C   0  0  0  0  0  0  0  0  0  0  0  0
   -3.6332   -2.0414    1.2658 H   0  0  0  0  0  0  0  0  0  0  0  0
   -3.3762   -2.6444   -0.3912 H   0  0  0  0  0  0  0  0  0  0  0  0
   -1.5882   -2.1554    0.6658 C   0  0  0  0  0  0  0  0  0  0  0  0
   -0.6832   -2.8764    1.0638 O   0  0  0  0  0  0  0  0  0  0  0  0
   -1.3952   -0.9084    0.2428 N   0  0  0  0  0  0  0  0  0  0  0  0
   -2.1972   -0.3644   -0.0422 H   0  0  0  0  0  0  0  0  0  0  0  0
   -0.1122   -0.1994    0.2658 C   0  0  1  0  0  0  0  0  0  0  0  0
    0.5635   -0.7260    0.9446 H   0  0  0  0  0  0  0  0  0  0  0  0
    0.4924   -0.2204   -1.1558 C   0  0  0  0  0  0  0  0  0  0  0  0
   -0.2766   -0.5202   -1.8669 H   0  0  0  0  0  0  0  0  0  0  0  0
    0.8291    0.7815   -1.4177 H   0  0  0  0  0  0  0  0  0  0  0  0
    1.6489   -1.1931   -1.3215 C   0  0  0  0  0  0  0  0  0  0  0  0
    2.7646   -0.9784   -0.8806 O   0  0  0  0  0  0  0  0  0  0  0  0
    1.4238   -2.3051   -1.9781 N   0  0  0  0  0  0  0  0  0  0  0  0
    2.2016   -2.9363   -2.0567 H   0  0  0  0  0  0  0  0  0  0  0  0
    0.5101   -2.5138   -2.3341 H   0  0  0  0  0  0  0  0  0  0  0  0
   -0.3126    1.2341    0.8050 C   0  0  0  0  0  0  0  0  0  0  0  0
   -1.2484    1.9199    0.3934 O   0  0  0  0  0  0  0  0  0  0  0  0
    0.5615    1.6875    1.7087 N   0  0  0  0  0  0  0  0  0  0  0  0
    1.3461    1.0849    1.9358 H   0  0  0  0  0  0  0  0  0  0  0  0
    0.5043    3.0121    2.3242 C   0  0  0  0  0  0  0  0  0  0  0  0
   -0.4649    3.1514    2.8080 H   0  0  0  0  0  0  0  0  0  0  0  0
    1.2959    3.1139    3.0678 H   0  0  0  0  0  0  0  0  0  0  0  0
    0.6273    3.7799    1.5584 H   0  0  0  0  0  0  0  0  0  0  0  0
  5  6  2  0  0  0  0
  5  7  1  0  0  0  0
  2  3  1  0  0  0  0
  2  4  1  0  0  0  0
  2  5  1  0  0  0  0
  1  2  1  0  0  0  0
 19 20  2  0  0  0  0
 19 21  1  0  0  0  0
 16 17  1  0  0  0  0
 16 18  1  0  0  0  0
 14 15  2  0  0  0  0
 14 16  1  0  0  0  0
 11 12  1  0  0  0  0
 11 13  1  0  0  0  0
 11 14  1  0  0  0  0
  9 10  1  0  0  0  0
  9 11  1  0  0  0  0
  9 19  1  0  0  0  0
  7  8  1  0  0  0  0
  7  9  1  0  0  0  0
 23 24  1  0  0  0  0
 23 25  1  0  0  0  0
 23 26  1  0  0  0  0
 21 22  1  0  0  0  0
 21 23  1  0  0  0  0
M  END
$$$$
default_name
  -OEChem-02102213163D

 26 25  0     1  0  0  0  0  0999 V2000
   -3.0232   -3.6924    1.0038 H   0  0  0  0  0  0  0  0  0  0  0  0
   -3.0082   -2.6684    0.6318 C   0  0  0  0  0  0  0  0  0  0  0  0
   -3.6332   -2.0414    1.2658 H   0  0  0  0  0  0  0  0  0  0  0  0
   -3.3762   -2.6444   -0.3912 H   0  0  0  0  0  0  0  0  0  0  0  0
   -1.5882   -2.1554    0.6658 C   0  0  0  0  0  0  0  0  0  0  0  0
   -0.6832   -2.8764    1.0638 O   0  0  0  0  0  0  0  0  0  0  0  0
   -1.3952   -0.9084    0.2428 N   0  0  0  0  0  0  0  0  0  0  0  0
   -2.1972   -0.3644   -0.0422 H   0  0  0  0  0  0  0  0  0  0  0  0
   -0.1122   -0.1994    0.2658 C   0  0  1  0  0  0  0  0  0  0  0  0
    0.5635   -0.7260    0.9446 H   0  0  0  0  0  0  0  0  0  0  0  0
    0.4924   -0.2204   -1.1558 C   0  0  0  0  0  0  0  0  0  0  0  0
   -0.2766   -0.5202   -1.8669 H   0  0  0  0  0  0  0  0  0  0  0  0
    0.8291    0.7815   -1.4177 H   0  0  0  0  0  0  0  0  0  0  0  0
    1.6489   -1.1931   -1.3215 C   0  0  0  0  0  0  0  0  0  0  0  0
    2.6769   -1.1185   -0.6711 O   0  0  0  0  0  0  0  0  0  0  0  0
    1.5247   -2.1449   -2.2142 N   0  0  0  0  0  0  0  0  0  0  0  0
    2.2972   -2.7830   -2.2893 H   0  0  0  0  0  0  0  0  0  0  0  0
    0.6817   -2.2392   -2.7485 H   0  0  0  0  0  0  0  0  0  0  0  0
   -0.3126    1.2341    0.8050 C   0  0  0  0  0  0  0  0  0  0  0  0
   -1.2484    1.9199    0.3934 O   0  0  0  0  0  0  0  0  0  0  0  0
    0.5615    1.6875    1.7087 N   0  0  0  0  0  0  0  0  0  0  0  0
    1.3461    1.0849    1.9358 H   0  0  0  0  0  0  0  0  0  0  0  0
    0.5043    3.0121    2.3242 C   0  0  0  0  0  0  0  0  0  0  0  0
   -0.4649    3.1514    2.8080 H   0  0  0  0  0  0  0  0  0  0  0  0
    1.2959    3.1139    3.0678 H   0  0  0  0  0  0  0  0  0  0  0  0
    0.6273    3.7799    1.5584 H   0  0  0  0  0  0  0  0  0  0  0  0
  5  6  2  0  0  0  0
  5  7  1  0  0  0  0
  2  3  1  0  0  0  0
  2  4  1  0  0  0  0
  2  5  1  0  0  0  0
  1  2  1  0  0  0  0
 19 20  2  0  0  0  0
 19 21  1  0  0  0  0
 16 17  1  0  0  0  0
 16 18  1  0  0  0  0
 14 15  2  0  0  0  0
 14 16  1  0  0  0  0
 11 12  1  0  0  0  0
 11 13  1  0  0  0  0
 11 14  1  0  0  0  0
  9 10  1  0  0  0  0
  9 11  1  0  0  0  0
  9 19  1  0  0  0  0
  7  8  1  0  0  0  0
  7  9  1  0  0  0  0
 23 24  1  0  0  0  0
 23 25  1  0  0  0  0
 23 26  1  0  0  0  0
 21 22  1  0  0  0  0
 21 23  1  0  0  0  0
M  END
$$$$
default_name
  -OEChem-02102213163D

 26 25  0     1  0  0  0  0  0999 V2000
   -3.0232   -3.6924    1.0038 H   0  0  0  0  0  0  0  0  0  0  0  0
   -3.0082   -2.6684    0.6318 C   0  0  0  0  0  0  0  0  0  0  0  0
   -3.6332   -2.0414    1.2658 H   0  0  0  0  0  0  0  0  0  0  0  0
   -3.3762   -2.6444   -0.3912 H   0  0  0  0  0  0  0  0  0  0  0  0
   -1.5882   -2.1554    0.6658 C   0  0  0  0  0  0  0  0  0  0  0  0
   -0.6832   -2.8764    1.0638 O   0  0  0  0  0  0  0  0  0  0  0  0
   -1.3952   -0.9084    0.2428 N   0  0  0  0  0  0  0  0  0  0  0  0
   -2.1972   -0.3644   -0.0422 H   0  0  0  0  0  0  0  0  0  0  0  0
   -0.1122   -0.1994    0.2658 C   0  0  1  0  0  0  0  0  0  0  0  0
    0.5635   -0.7260    0.9446 H   0  0  0  0  0  0  0  0  0  0  0  0
    0.4924   -0.2204   -1.1558 C   0  0  0  0  0  0  0  0  0  0  0  0
   -0.2766   -0.5202   -1.8669 H   0  0  0  0  0  0  0  0  0  0  0  0
    0.8291    0.7815   -1.4177 H   0  0  0  0  0  0  0  0  0  0  0  0
    1.6489   -1.1931   -1.3215 C   0  0  0  0  0  0  0  0  0  0  0  0
    2.5535   -1.2925   -0.5108 O   0  0  0  0  0  0  0  0  0  0  0  0
    1.6658   -1.9465   -2.3941 N   0  0  0  0  0  0  0  0  0  0  0  0
    2.4325   -2.5917   -2.4680 H   0  0  0  0  0  0  0  0  0  0  0  0
    0.9237   -1.8973   -3.0664 H   0  0  0  0  0  0  0  0  0  0  0  0
   -0.3126    1.2341    0.8050 C   0  0  0  0  0  0  0  0  0  0  0  0
   -1.2484    1.9199    0.3934 O   0  0  0  0  0  0  0  0  0  0  0  0
    0.5615    1.6875    1.7087 N   0  0  0  0  0  0  0  0  0  0  0  0
    1.3461    1.0849    1.9358 H   0  0  0  0  0  0  0  0  0  0  0  0
    0.5043    3.0121    2.3242 C   0  0  0  0  0  0  0  0  0  0  0  0
   -0.4649    3.1514    2.8080 H   0  0  0  0  0  0  0  0  0  0  0  0
    1.2959    3.1139    3.0678 H   0  0  0  0  0  0  0  0  0  0  0  0
    0.6273    3.7799    1.5584 H   0  0  0  0  0  0  0  0  0  0  0  0
  5  6  2  0  0  0  0
  5  7  1  0  0  0  0
  2  3  1  0  0  0  0
  2  4  1  0  0  0  0
  2  5  1  0  0  0  0
  1  2  1  0  0  0  0
 19 20  2  0  0  0  0
 19 21  1  0  0  0  0
 16 17  1  0  0  0  0
 16 18  1  0  0  0  0
 14 15  2  0  0  0  0
 14 16  1  0  0  0  0
 11 12  1  0  0  0  0
 11 13  1  0  0  0  0
 11 14  1  0  0  0  0
  9 10  1  0  0  0  0
  9 11  1  0  0  0  0
  9 19  1  0  0  0  0
  7  8  1  0  0  0  0
  7  9  1  0  0  0  0
 23 24  1  0  0  0  0
 23 25  1  0  0  0  0
 23 26  1  0  0  0  0
 21 22  1  0  0  0  0
 21 23  1  0  0  0  0
M  END
$$$$
default_name
  -OEChem-02102213163D

 26 25  0     1  0  0  0  0  0999 V2000
   -3.0232   -3.6924    1.0038 H   0  0  0  0  0  0  0  0  0  0  0  0
   -3.0082   -2.6684    0.6318 C   0  0  0  0  0  0  0  0  0  0  0  0
   -3.6332   -2.0414    1.2658 H   0  0  0  0  0  0  0  0  0  0  0  0
   -3.3762   -2.6444   -0.3912 H   0  0  0  0  0  0  0  0  0  0  0  0
   -1.5882   -2.1554    0.6658 C   0  0  0  0  0  0  0  0  0  0  0  0
   -0.6832   -2.8764    1.0638 O   0  0  0  0  0  0  0  0  0  0  0  0
   -1.3952   -0.9084    0.2428 N   0  0  0  0  0  0  0  0  0  0  0  0
   -2.1972   -0.3644   -0.0422 H   0  0  0  0  0  0  0  0  0  0  0  0
   -0.1122   -0.1994    0.2658 C   0  0  1  0  0  0  0  0  0  0  0  0
    0.5635   -0.7260    0.9446 H   0  0  0  0  0  0  0  0  0  0  0  0
    0.4924   -0.2204   -1.1558 C   0  0  0  0  0  0  0  0  0  0  0  0
   -0.2766   -0.5202   -1.8669 H   0  0  0  0  0  0  0  0  0  0  0  0
    0.8291    0.7815   -1.4177 H   0  0  0  0  0  0  0  0  0  0  0  0
    1.6489   -1.1931   -1.3215 C   0  0  0  0  0  0  0  0  0  0  0  0
    2.4028   -1.4887   -0.4107 O   0  0  0  0  0  0  0  0  0  0  0  0
    1.8374   -1.7234   -2.5053 N   0  0  0  0  0  0  0  0  0  0  0  0
    2.5981   -2.3756   -2.5806 H   0  0  0  0  0  0  0  0  0  0  0  0
    1.2199   -1.5112   -3.2660 H   0  0  0  0  0  0  0  0  0  0  0  0
   -0.3126    1.2341    0.8050 C   0  0  0  0  0  0  0  0  0  0  0  0
   -1.2484    1.9199    0.3934 O   0  0  0  0  0  0  0  0  0  0  0  0
    0.5615    1.6875    1.7087 N   0  0  0  0  0  0  0  0  0  0  0  0
    1.3461    1.0849    1.9358 H   0  0  0  0  0  0  0  0  0  0  0  0
    0.5043    3.0121    2.3242 C   0  0  0  0  0  0  0  0  0  0  0  0
   -0.4649    3.1514    2.8080 H   0  0  0  0  0  0  0  0  0  0  0  0
    1.2959    3.1139    3.0678 H   0  0  0  0  0  0  0  0  0  0  0  0
    0.6273    3.7799    1.5584 H   0  0  0  0  0  0  0  0  0  0  0  0
  5  6  2  0  0  0  0
  5  7  1  0  0  0  0
  2  3  1  0  0  0  0
  2  4  1  0  0  0  0
  2  5  1  0  0  0  0
  1  2  1  0  0  0  0
 19 20  2  0  0  0  0
 19 21  1  0  0  0  0
 16 17  1  0  0  0  0
 16 18  1  0  0  0  0
 14 15  2  0  0  0  0
 14 16  1  0  0  0  0
 11 12  1  0  0  0  0
 11 13  1  0  0  0  0
 11 14  1  0  0  0  0
  9 10  1  0  0  0  0
  9 11  1  0  0  0  0
  9 19  1  0  0  0  0
  7  8  1  0  0  0  0
  7  9  1  0  0  0  0
 23 24  1  0  0  0  0
 23 25  1  0  0  0  0
 23 26  1  0  0  0  0
 21 22  1  0  0  0  0
 21 23  1  0  0  0  0
M  END
$$$$
default_name
  -OEChem-02102213163D

 26 25  0     1  0  0  0  0  0999 V2000
   -3.0232   -3.6924    1.0038 H   0  0  0  0  0  0  0  0  0  0  0  0
   -3.0082   -2.6684    0.6318 C   0  0  0  0  0  0  0  0  0  0  0  0
   -3.6332   -2.0414    1.2658 H   0  0  0  0  0  0  0  0  0  0  0  0
   -3.3762   -2.6444   -0.3912 H   0  0  0  0  0  0  0  0  0  0  0  0
   -1.5882   -2.1554    0.6658 C   0  0  0  0  0  0  0  0  0  0  0  0
   -0.6832   -2.8764    1.0638 O   0  0  0  0  0  0  0  0  0  0  0  0
   -1.3952   -0.9084    0.2428 N   0  0  0  0  0  0  0  0  0  0  0  0
   -2.1972   -0.3644   -0.0422 H   0  0  0  0  0  0  0  0  0  0  0  0
   -0.1122   -0.1994    0.2658 C   0  0  1  0  0  0  0  0  0  0  0  0
    0.5635   -0.7260    0.9446 H   0  0  0  0  0  0  0  0  0  0  0  0
    0.4924   -0.2204   -1.1558 C   0  0  0  0  0  0  0  0  0  0  0  0
   -0.2766   -0.5202   -1.8669 H   0  0  0  0  0  0  0  0  0  0  0  0
    0.8291    0.7815   -1.4177 H   0  0  0  0  0  0  0  0  0  0  0  0
    1.6489   -1.1931   -1.3215 C   0  0  0  0  0  0  0  0  0  0  0  0
    2.2351   -1.6937   -0.3775 O   0  0  0  0  0  0  0  0  0  0  0  0
    2.0280   -1.4909   -2.5405 N   0  0  0  0  0  0  0  0  0  0  0  0
    2.7828   -2.1494   -2.6194 H   0  0  0  0  0  0  0  0  0  0  0  0
    1.5498   -1.1073   -3.3338 H   0  0  0  0  0  0  0  0  0  0  0  0
   -0.3126    1.2341    0.8050 C   0  0  0  0  0  0  0  0  0  0  0  0
   -1.2484    1.9199    0.3934 O   0  0  0  0  0  0  0  0  0  0  0  0
    0.5615    1.6875    1.7087 N   0  0  0  0  0  0  0  0  0  0  0  0
    1.3461    1.0849    1.9358 H   0  0  0  0  0  0  0  0  0  0  0  0
    0.5043    3.0121    2.3242 C   0  0  0  0  0  0  0  0  0  0  0  0
   -0.4649    3.1514    2.8080 H   0  0  0  0  0  0  0  0  0  0  0  0
    1.2959    3.1139    3.0678 H   0  0  0  0  0  0  0  0  0  0  0  0
    0.6273    3.7799    1.5584 H   0  0  0  0  0  0  0  0  0  0  0  0
  5  6  2  0  0  0  0
  5  7  1  0  0  0  0
  2  3  1  0  0  0  0
  2  4  1  0  0  0  0
  2  5  1  0  0  0  0
  1  2  1  0  0  0  0
 19 20  2  0  0  0  0
 19 21  1  0  0  0  0
 16 17  1  0  0  0  0
 16 18  1  0  0  0  0
 14 15  2  0  0  0  0
 14 16  1  0  0  0  0
 11 12  1  0  0  0  0
 11 13  1  0  0  0  0
 11 14  1  0  0  0  0
  9 10  1  0  0  0  0
  9 11  1  0  0  0  0
  9 19  1  0  0  0  0
  7  8  1  0  0  0  0
  7  9  1  0  0  0  0
 23 24  1  0  0  0  0
 23 25  1  0  0  0  0
 23 26  1  0  0  0  0
 21 22  1  0  0  0  0
 21 23  1  0  0  0  0
M  END
$$$$
default_name
  -OEChem-02102213163D

 26 25  0     1  0  0  0  0  0999 V2000
   -3.0232   -3.6924    1.0038 H   0  0  0  0  0  0  0  0  0  0  0  0
   -3.0082   -2.6684    0.6318 C   0  0  0  0  0  0  0  0  0  0  0  0
   -3.6332   -2.0414    1.2658 H   0  0  0  0  0  0  0  0  0  0  0  0
   -3.3762   -2.6444   -0.3912 H   0  0  0  0  0  0  0  0  0  0  0  0
   -1.5882   -2.1554    0.6658 C   0  0  0  0  0  0  0  0  0  0  0  0
   -0.6832   -2.8764    1.0638 O   0  0  0  0  0  0  0  0  0  0  0  0
   -1.3952   -0.9084    0.2428 N   0  0  0  0  0  0  0  0  0  0  0  0
   -2.1972   -0.3644   -0.0422 H   0  0  0  0  0  0  0  0  0  0  0  0
   -0.1122   -0.1994    0.2658 C   0  0  1  0  0  0  0  0  0  0  0  0
    0.5635   -0.7260    0.9446 H   0  0  0  0  0  0  0  0  0  0  0  0
    0.4924   -0.2204   -1.1558 C   0  0  0  0  0  0  0  0  0  0  0  0
   -0.2766   -0.5202   -1.8669 H   0  0  0  0  0  0  0  0  0  0  0  0
    0.8291    0.7815   -1.4177 H   0  0  0  0  0  0  0  0  0  0  0  0
    1.6489   -1.1931   -1.3215 C   0  0  0  0  0  0  0  0  0  0  0  0
    2.0619   -1.8935   -0.4137 O   0  0  0  0  0  0  0  0  0  0  0  0
    2.2244   -1.2648   -2.4971 N   0  0  0  0  0  0  0  0  0  0  0  0
    2.9740   -1.9285   -2.5817 H   0  0  0  0  0  0  0  0  0  0  0  0
    1.8912   -0.7132   -3.2651 H   0  0  0  0  0  0  0  0  0  0  0  0
   -0.3126    1.2341    0.8050 C   0  0  0  0  0  0  0  0  0  0  0  0
   -1.2484    1.9199    0.3934 O   0  0  0  0  0  0  0  0  0  0  0  0
    0.5615    1.6875    1.7087 N   0  0  0  0  0  0  0  0  0  0  0  0
    1.3461    1.0849    1.9358 H   0  0  0  0  0  0  0  0  0  0  0  0
    0.5043    3.0121    2.3242 C   0  0  0  0  0  0  0  0  0  0  0  0
   -0.4649    3.1514    2.8080 H   0  0  0  0  0  0  0  0  0  0  0  0
    1.2959    3.1139    3.0678 H   0  0  0  0  0  0  0  0  0  0  0  0
    0.6273    3.7799    1.5584 H   0  0  0  0  0  0  0  0  0  0  0  0
  5  6  2  0  0  0  0
  5  7  1  0  0  0  0
  2  3  1  0  0  0  0
  2  4  1  0  0  0  0
  2  5  1  0  0  0  0
  1  2  1  0  0  0  0
 19 20  2  0  0  0  0
 19 21  1  0  0  0  0
 16 17  1  0  0  0  0
 16 18  1  0  0  0  0
 14 15  2  0  0  0  0
 14 16  1  0  0  0  0
 11 12  1  0  0  0  0
 11 13  1  0  0  0  0
 11 14  1  0  0  0  0
  9 10  1  0  0  0  0
  9 11  1  0  0  0  0
  9 19  1  0  0  0  0
  7  8  1  0  0  0  0
  7  9  1  0  0  0  0
 23 24  1  0  0  0  0
 23 25  1  0  0  0  0
 23 26  1  0  0  0  0
 21 22  1  0  0  0  0
 21 23  1  0  0  0  0
M  END
$$$$
default_name
  -OEChem-02102213163D

 26 25  0     1  0  0  0  0  0999 V2000
   -3.0232   -3.6924    1.0038 H   0  0  0  0  0  0  0  0  0  0  0  0
   -3.0082   -2.6684    0.6318 C   0  0  0  0  0  0  0  0  0  0  0  0
   -3.6332   -2.0414    1.2658 H   0  0  0  0  0  0  0  0  0  0  0  0
   -3.3762   -2.6444   -0.3912 H   0  0  0  0  0  0  0  0  0  0  0  0
   -1.5882   -2.1554    0.6658 C   0  0  0  0  0  0  0  0  0  0  0  0
   -0.6832   -2.8764    1.0638 O   0  0  0  0  0  0  0  0  0  0  0  0
   -1.3952   -0.9084    0.2428 N   0  0  0  0  0  0  0  0  0  0  0  0
   -2.1972   -0.3644   -0.0422 H   0  0  0  0  0  0  0  0  0  0  0  0
   -0.1122   -0.1994    0.2658 C   0  0  1  0  0  0  0  0  0  0  0  0
    0.5635   -0.7260    0.9446 H   0  0  0  0  0  0  0  0  0  0  0  0
    0.4924   -0.2204   -1.1558 C   0  0  0  0  0  0  0  0  0  0  0  0
   -0.2766   -0.5202   -1.8669 H   0  0  0  0  0  0  0  0  0  0  0  0
    0.8291    0.7815   -1.4177 H   0  0  0  0  0  0  0  0  0  0  0  0
    1.6489   -1.1931   -1.3215 C   0  0  0  0  0  0  0  0  0  0  0  0
    1.8950   -2.0745   -0.5166 O   0  0  0  0  0  0  0  0  0  0  0  0
    2.4133   -1.0604   -2.3781 N   0  0  0  0  0  0  0  0  0  0  0  0
    3.1587   -1.7279   -2.4701 H   0  0  0  0  0  0  0  0  0  0  0  0
    2.2206   -0.3556   -3.0645 H   0  0  0  0  0  0  0  0  0  0  0  0
   -0.3126    1.2341    0.8050 C   0  0  0  0  0  0  0  0  0  0  0  0
   -1.2484    1.9199    0.3934 O   0  0  0  0  0  0  0  0  0  0  0  0
    0.5615    1.6875    1.7087 N   0  0  0  0  0  0  0  0  0  0  0  0
    1.3461    1.0849    1.9358 H   0  0  0  0  0  0  0  0  0  0  0  0
    0.5043    3.0121    2.3242 C   0  0  0  0  0  0  0  0  0  0  0  0
   -0.4649    3.1514    2.8080 H   0  0  0  0  0  0  0  0  0  0  0  0
    1.2959    3.1139    3.0678 H   0  0  0  0  0  0  0  0  0  0  0  0
    0.6273    3.7799    1.5584 H   0  0  0  0  0  0  0  0  0  0  0  0
  5  6  2  0  0  0  0
  5  7  1  0  0  0  0
  2  3  1  0  0  0  0
  2  4  1  0  0  0  0
  2  5  1  0  0  0  0
  1  2  1  0  0  0  0
 19 20  2  0  0  0  0
 19 21  1  0  0  0  0
 16 17  1  0  0  0  0
 16 18  1  0  0  0  0
 14 15  2  0  0  0  0
 14 16  1  0  0  0  0
 11 12  1  0  0  0  0
 11 13  1  0  0  0  0
 11 14  1  0  0  0  0
  9 10  1  0  0  0  0
  9 11  1  0  0  0  0
  9 19  1  0  0  0  0
  7  8  1  0  0  0  0
  7  9  1  0  0  0  0
 23 24  1  0  0  0  0
 23 25  1  0  0  0  0
 23 26  1  0  0  0  0
 21 22  1  0  0  0  0
 21 23  1  0  0  0  0
M  END
$$$$
default_name
  -OEChem-02102213163D

 26 25  0     1  0  0  0  0  0999 V2000
   -3.0232   -3.6924    1.0038 H   0  0  0  0  0  0  0  0  0  0  0  0
   -3.0082   -2.6684    0.6318 C   0  0  0  0  0  0  0  0  0  0  0  0
   -3.6332   -2.0414    1.2658 H   0  0  0  0  0  0  0  0  0  0  0  0
   -3.3762   -2.6444   -0.3912 H   0  0  0  0  0  0  0  0  0  0  0  0
   -1.5882   -2.1554    0.6658 C   0  0  0  0  0  0  0  0  0  0  0  0
   -0.6832   -2.8764    1.0638 O   0  0  0  0  0  0  0  0  0  0  0  0
   -1.3952   -0.9084    0.2428 N   0  0  0  0  0  0  0  0  0  0  0  0
   -2.1972   -0.3644   -0.0422 H   0  0  0  0  0  0  0  0  0  0  0  0
   -0.1122   -0.1994    0.2658 C   0  0  1  0  0  0  0  0  0  0  0  0
    0.5635   -0.7260    0.9446 H   0  0  0  0  0  0  0  0  0  0  0  0
    0.4924   -0.2204   -1.1558 C   0  0  0  0  0  0  0  0  0  0  0  0
   -0.2766   -0.5202   -1.8669 H   0  0  0  0  0  0  0  0  0  0  0  0
    0.8291    0.7815   -1.4177 H   0  0  0  0  0  0  0  0  0  0  0  0
    1.6489   -1.1931   -1.3215 C   0  0  0  0  0  0  0  0  0  0  0  0
    1.7456   -2.2243   -0.6793 O   0  0  0  0  0  0  0  0  0  0  0  0
    2.5818   -0.8918   -2.1917 N   0  0  0  0  0  0  0  0  0  0  0  0
    3.3243   -1.5613   -2.2923 H   0  0  0  0  0  0  0  0  0  0  0  0
    2.5157   -0.0590   -2.7459 H   0  0  0  0  0  0  0  0  0  0  0  0
   -0.3126    1.2341    0.8050 C   0  0  0  0  0  0  0  0  0  0  0  0
   -1.2484    1.9199    0.3934 O   0  0  0  0  0  0  0  0  0  0  0  0
    0.5615    1.6875    1.7087 N   0  0  0  0  0  0  0  0  0  0  0  0
    1.3461    1.0849    1.9358 H   0  0  0  0  0  0  0  0  0  0  0  0
    0.5043    3.0121    2.3242 C   0  0  0  0  0  0  0  0  0  0  0  0
   -0.4649    3.1514    2.8080 H   0  0  0  0  0  0  0  0  0  0  0  0
    1.2959    3.1139    3.0678 H   0  0  0  0  0  0  0  0  0  0  0  0
    0.6273    3.7799    1.5584 H   0  0  0  0  0  0  0  0  0  0  0  0
  5  6  2  0  0  0  0
  5  7  1  0  0  0  0
  2  3  1  0  0  0  0
  2  4  1  0  0  0  0
  2  5  1  0  0  0  0
  1  2  1  0  0  0  0
 19 20  2  0  0  0  0
 19 21  1  0  0  0  0
 16 17  1  0  0  0  0
 16 18  1  0  0  0  0
 14 15  2  0  0  0  0
 14 16  1  0  0  0  0
 11 12  1  0  0  0  0
 11 13  1  0  0  0  0
 11 14  1  0  0  0  0
  9 10  1  0  0  0  0
  9 11  1  0  0  0  0
  9 19  1  0  0  0  0
  7  8  1  0  0  0  0
  7  9  1  0  0  0  0
 23 24  1  0  0  0  0
 23 25  1  0  0  0  0
 23 26  1  0  0  0  0
 21 22  1  0  0  0  0
 21 23  1  0  0  0  0
M  END
$$$$
default_name
  -OEChem-02102213163D

 26 25  0     1  0  0  0  0  0999 V2000
   -3.0232   -3.6924    1.0038 H   0  0  0  0  0  0  0  0  0  0  0  0
   -3.0082   -2.6684    0.6318 C   0  0  0  0  0  0  0  0  0  0  0  0
   -3.6332   -2.0414    1.2658 H   0  0  0  0  0  0  0  0  0  0  0  0
   -3.3762   -2.6444   -0.3912 H   0  0  0  0  0  0  0  0  0  0  0  0
   -1.5882   -2.1554    0.6658 C   0  0  0  0  0  0  0  0  0  0  0  0
   -0.6832   -2.8764    1.0638 O   0  0  0  0  0  0  0  0  0  0  0  0
   -1.3952   -0.9084    0.2428 N   0  0  0  0  0  0  0  0  0  0  0  0
   -2.1972   -0.3644   -0.0422 H   0  0  0  0  0  0  0  0  0  0  0  0
   -0.1122   -0.1994    0.2658 C   0  0  1  0  0  0  0  0  0  0  0  0
    0.5635   -0.7260    0.9446 H   0  0  0  0  0  0  0  0  0  0  0  0
    0.4924   -0.2204   -1.1558 C   0  0  0  0  0  0  0  0  0  0  0  0
   -0.2766   -0.5202   -1.8669 H   0  0  0  0  0  0  0  0  0  0  0  0
    0.8291    0.7815   -1.4177 H   0  0  0  0  0  0  0  0  0  0  0  0
    1.6489   -1.1931   -1.3215 C   0  0  0  0  0  0  0  0  0  0  0  0
    1.6241   -2.3328   -0.8907 O   0  0  0  0  0  0  0  0  0  0  0  0
    2.7185   -0.7703   -1.9505 N   0  0  0  0  0  0  0  0  0  0  0  0
    3.4594   -1.4401   -2.0603 H   0  0  0  0  0  0  0  0  0  0  0  0
    2.7563    0.1564   -2.3309 H   0  0  0  0  0  0  0  0  0  0  0  0
   -0.3126    1.2341    0.8050 C   0  0  0  0  0  0  0  0  0  0  0  0
   -1.2484    1.9199    0.3934 O   0  0  0  0  0  0  0  0  0  0  0  0
    0.5615    1.6875    1.7087 N   0  0  0  0  0  0  0  0  0  0  0  0
    1.3461    1.0849    1.9358 H   0  0  0  0  0  0  0  0  0  0  0  0
    0.5043    3.0121    2.3242 C   0  0  0  0  0  0  0  0  0  0  0  0
   -0.4649    3.1514    2.8080 H   0  0  0  0  0  0  0  0  0  0  0  0
    1.2959    3.1139    3.0678 H   0  0  0  0  0  0  0  0  0  0  0  0
    0.6273    3.7799    1.5584 H   0  0  0  0  0  0  0  0  0  0  0  0
  5  6  2  0  0  0  0
  5  7  1  0  0  0  0
  2  3  1  0  0  0  0
  2  4  1  0  0  0  0
  2  5  1  0  0  0  0
  1  2  1  0  0  0  0
 19 20  2  0  0  0  0
 19 21  1  0  0  0  0
 16 17  1  0  0  0  0
 16 18  1  0  0  0  0
 14 15  2  0  0  0  0
 14 16  1  0  0  0  0
 11 12  1  0  0  0  0
 11 13  1  0  0  0  0
 11 14  1  0  0  0  0
  9 10  1  0  0  0  0
  9 11  1  0  0  0  0
  9 19  1  0  0  0  0
  7  8  1  0  0  0  0
  7  9  1  0  0  0  0
 23 24  1  0  0  0  0
 23 25  1  0  0  0  0
 23 26  1  0  0  0  0
 21 22  1  0  0  0  0
 21 23  1  0  0  0  0
M  END
$$$$
default_name
  -OEChem-02102213163D

 26 25  0     1  0  0  0  0  0999 V2000
   -3.0232   -3.6924    1.0038 H   0  0  0  0  0  0  0  0  0  0  0  0
   -3.0082   -2.6684    0.6318 C   0  0  0  0  0  0  0  0  0  0  0  0
   -3.6332   -2.0414    1.2658 H   0  0  0  0  0  0  0  0  0  0  0  0
   -3.3762   -2.6444   -0.3912 H   0  0  0  0  0  0  0  0  0  0  0  0
   -1.5882   -2.1554    0.6658 C   0  0  0  0  0  0  0  0  0  0  0  0
   -0.6832   -2.8764    1.0638 O   0  0  0  0  0  0  0  0  0  0  0  0
   -1.3952   -0.9084    0.2428 N   0  0  0  0  0  0  0  0  0  0  0  0
   -2.1972   -0.3644   -0.0422 H   0  0  0  0  0  0  0  0  0  0  0  0
   -0.1122   -0.1994    0.2658 C   0  0  1  0  0  0  0  0  0  0  0  0
    0.5635   -0.7260    0.9446 H   0  0  0  0  0  0  0  0  0  0  0  0
    0.4924   -0.2204   -1.1558 C   0  0  0  0  0  0  0  0  0  0  0  0
   -0.2766   -0.5202   -1.8669 H   0  0  0  0  0  0  0  0  0  0  0  0
    0.8291    0.7815   -1.4177 H   0  0  0  0  0  0  0  0  0  0  0  0
    1.6489   -1.1931   -1.3215 C   0  0  0  0  0  0  0  0  0  0  0  0
    1.5386   -2.3926   -1.1363 O   0  0  0  0  0  0  0  0  0  0  0  0
    2.8140   -0.7044   -1.6710 N   0  0  0  0  0  0  0  0  0  0  0  0
    3.5550   -1.3725   -1.7899 H   0  0  0  0  0  0  0  0  0  0  0  0
    2.9261    0.2760   -1.8477 H   0  0  0  0  0  0  0  0  0  0  0  0
   -0.3126    1.2341    0.8050 C   0  0  0  0  0  0  0  0  0  0  0  0
   -1.2484    1.9199    0.3934 O   0  0  0  0  0  0  0  0  0  0  0  0
    0.5615    1.6875    1.7087 N   0  0  0  0  0  0  0  0  0  0  0  0
    1.3461    1.0849    1.9358 H   0  0  0  0  0  0  0  0  0  0  0  0
    0.5043    3.0121    2.3242 C   0  0  0  0  0  0  0  0  0  0  0  0
   -0.4649    3.1514    2.8080 H   0  0  0  0  0  0  0  0  0  0  0  0
    1.2959    3.1139    3.0678 H   0  0  0  0  0  0  0  0  0  0  0  0
    0.6273    3.7799    1.5584 H   0  0  0  0  0  0  0  0  0  0  0  0
  5  6  2  0  0  0  0
  5  7  1  0  0  0  0
  2  3  1  0  0  0  0
  2  4  1  0  0  0  0
  2  5  1  0  0  0  0
  1  2  1  0  0  0  0
 19 20  2  0  0  0  0
 19 21  1  0  0  0  0
 16 17  1  0  0  0  0
 16 18  1  0  0  0  0
 14 15  2  0  0  0  0
 14 16  1  0  0  0  0
 11 12  1  0  0  0  0
 11 13  1  0  0  0  0
 11 14  1  0  0  0  0
  9 10  1  0  0  0  0
  9 11  1  0  0  0  0
  9 19  1  0  0  0  0
  7  8  1  0  0  0  0
  7  9  1  0  0  0  0
 23 24  1  0  0  0  0
 23 25  1  0  0  0  0
 23 26  1  0  0  0  0
 21 22  1  0  0  0  0
 21 23  1  0  0  0  0
M  END
$$$$
default_name
  -OEChem-02102213163D

 26 25  0     1  0  0  0  0  0999 V2000
   -3.0232   -3.6924    1.0038 H   0  0  0  0  0  0  0  0  0  0  0  0
   -3.0082   -2.6684    0.6318 C   0  0  0  0  0  0  0  0  0  0  0  0
   -3.6332   -2.0414    1.2658 H   0  0  0  0  0  0  0  0  0  0  0  0
   -3.3762   -2.6444   -0.3912 H   0  0  0  0  0  0  0  0  0  0  0  0
   -1.5882   -2.1554    0.6658 C   0  0  0  0  0  0  0  0  0  0  0  0
   -0.6832   -2.8764    1.0638 O   0  0  0  0  0  0  0  0  0  0  0  0
   -1.3952   -0.9084    0.2428 N   0  0  0  0  0  0  0  0  0  0  0  0
   -2.1972   -0.3644   -0.0422 H   0  0  0  0  0  0  0  0  0  0  0  0
   -0.1122   -0.1994    0.2658 C   0  0  1  0  0  0  0  0  0  0  0  0
    0.5635   -0.7260    0.9446 H   0  0  0  0  0  0  0  0  0  0  0  0
    0.4924   -0.2204   -1.1558 C   0  0  0  0  0  0  0  0  0  0  0  0
   -0.2766   -0.5202   -1.8669 H   0  0  0  0  0  0  0  0  0  0  0  0
    0.8291    0.7815   -1.4177 H   0  0  0  0  0  0  0  0  0  0  0  0
    1.6489   -1.1931   -1.3215 C   0  0  0  0  0  0  0  0  0  0  0  0
    1.4951   -2.3995   -1.3996 O   0  0  0  0  0  0  0  0  0  0  0  0
    2.8618   -0.6984   -1.3722 N   0  0  0  0  0  0  0  0  0  0  0  0
    3.6045   -1.3632   -1.4996 H   0  0  0  0  0  0  0  0  0  0  0  0
    3.0135    0.2916   -1.3293 H   0  0  0  0  0  0  0  0  0  0  0  0
   -0.3126    1.2341    0.8050 C   0  0  0  0  0  0  0  0  0  0  0  0
   -1.2484    1.9199    0.3934 O   0  0  0  0  0  0  0  0  0  0  0  0
    0.5615    1.6875    1.7087 N   0  0  0  0  0  0  0  0  0  0  0  0
    1.3461    1.0849    1.9358 H   0  0  0  0  0  0  0  0  0  0  0  0
    0.5043    3.0121    2.3242 C   0  0  0  0  0  0  0  0  0  0  0  0
   -0.4649    3.1514    2.8080 H   0  0  0  0  0  0  0  0  0  0  0  0
    1.2959    3.1139    3.0678 H   0  0  0  0  0  0  0  0  0  0  0  0
    0.6273    3.7799    1.5584 H   0  0  0  0  0  0  0  0  0  0  0  0
  5  6  2  0  0  0  0
  5  7  1  0  0  0  0
  2  3  1  0  0  0  0
  2  4  1  0  0  0  0
  2  5  1  0  0  0  0
  1  2  1  0  0  0  0
 19 20  2  0  0  0  0
 19 21  1  0  0  0  0
 16 17  1  0  0  0  0
 16 18  1  0  0  0  0
 14 15  2  0  0  0  0
 14 16  1  0  0  0  0
 11 12  1  0  0  0  0
 11 13  1  0  0  0  0
 11 14  1  0  0  0  0
  9 10  1  0  0  0  0
  9 11  1  0  0  0  0
  9 19  1  0  0  0  0
  7  8  1  0  0  0  0
  7  9  1  0  0  0  0
 23 24  1  0  0  0  0
 23 25  1  0  0  0  0
 23 26  1  0  0  0  0
 21 22  1  0  0  0  0
 21 23  1  0  0  0  0
M  END
$$$$
default_name
  -OEChem-02102213163D

 26 25  0     1  0  0  0  0  0999 V2000
   -3.0232   -3.6924    1.0038 H   0  0  0  0  0  0  0  0  0  0  0  0
   -3.0082   -2.6684    0.6318 C   0  0  0  0  0  0  0  0  0  0  0  0
   -3.6332   -2.0414    1.2658 H   0  0  0  0  0  0  0  0  0  0  0  0
   -3.3762   -2.6444   -0.3912 H   0  0  0  0  0  0  0  0  0  0  0  0
   -1.5882   -2.1554    0.6658 C   0  0  0  0  0  0  0  0  0  0  0  0
   -0.6832   -2.8764    1.0638 O   0  0  0  0  0  0  0  0  0  0  0  0
   -1.3952   -0.9084    0.2428 N   0  0  0  0  0  0  0  0  0  0  0  0
   -2.1972   -0.3644   -0.0422 H   0  0  0  0  0  0  0  0  0  0  0  0
   -0.1122   -0.1994    0.2658 C   0  0  1  0  0  0  0  0  0  0  0  0
    0.5635   -0.7260    0.9446 H   0  0  0  0  0  0  0  0  0  0  0  0
    0.4924   -0.2204   -1.1558 C   0  0  0  0  0  0  0  0  0  0  0  0
   -0.2766   -0.5202   -1.8669 H   0  0  0  0  0  0  0  0  0  0  0  0
    0.8291    0.7815   -1.4177 H   0  0  0  0  0  0  0  0  0  0  0  0
    1.6489   -1.1931   -1.3215 C   0  0  0  0  0  0  0  0  0  0  0  0
    1.4965   -2.3532   -1.6624 O   0  0  0  0  0  0  0  0  0  0  0  0
    2.8587   -0.7528   -1.0745 N   0  0  0  0  0  0  0  0  0  0  0  0
    3.6044   -1.4127   -1.2092 H   0  0  0  0  0  0  0  0  0  0  0  0
    3.0125    0.2022   -0.8111 H   0  0  0  0  0  0  0  0  0  0  0  0
   -0.3126    1.2341    0.8050 C   0  0  0  0  0  0  0  0  0  0  0  0
   -1.2484    1.9199    0.3934 O   0  0  0  0  0  0  0  0  0  0  0  0
    0.5615    1.6875    1.7087 N   0  0  0  0  0  0  0  0  0  0  0  0
    1.3461    1.0849    1.9358 H   0  0  0  0  0  0  0  0  0  0  0  0
    0.5043    3.0121    2.3242 C   0  0  0  0  0  0  0  0  0  0  0  0
   -0.4649    3.1514    2.8080 H   0  0  0  0  0  0  0  0  0  0  0  0
    1.2959    3.1139    3.0678 H   0  0  0  0  0  0  0  0  0  0  0  0
    0.6273    3.7799    1.5584 H   0  0  0  0  0  0  0  0  0  0  0  0
  5  6  2  0  0  0  0
  5  7  1  0  0  0  0
  2  3  1  0  0  0  0
  2  4  1  0  0  0  0
  2  5  1  0  0  0  0
  1  2  1  0  0  0  0
 19 20  2  0  0  0  0
 19 21  1  0  0  0  0
 16 17  1  0  0  0  0
 16 18  1  0  0  0  0
 14 15  2  0  0  0  0
 14 16  1  0  0  0  0
 11 12  1  0  0  0  0
 11 13  1  0  0  0  0
 11 14  1  0  0  0  0
  9 10  1  0  0  0  0
  9 11  1  0  0  0  0
  9 19  1  0  0  0  0
  7  8  1  0  0  0  0
  7  9  1  0  0  0  0
 23 24  1  0  0  0  0
 23 25  1  0  0  0  0
 23 26  1  0  0  0  0
 21 22  1  0  0  0  0
 21 23  1  0  0  0  0
M  END
$$$$
default_name
  -OEChem-02102213163D

 26 25  0     1  0  0  0  0  0999 V2000
   -3.0232   -3.6924    1.0038 H   0  0  0  0  0  0  0  0  0  0  0  0
   -3.0082   -2.6684    0.6318 C   0  0  0  0  0  0  0  0  0  0  0  0
   -3.6332   -2.0414    1.2658 H   0  0  0  0  0  0  0  0  0  0  0  0
   -3.3762   -2.6444   -0.3912 H   0  0  0  0  0  0  0  0  0  0  0  0
   -1.5882   -2.1554    0.6658 C   0  0  0  0  0  0  0  0  0  0  0  0
   -0.6832   -2.8764    1.0638 O   0  0  0  0  0  0  0  0  0  0  0  0
   -1.3952   -0.9084    0.2428 N   0  0  0  0  0  0  0  0  0  0  0  0
   -2.1972   -0.3644   -0.0422 H   0  0  0  0  0  0  0  0  0  0  0  0
   -0.1122   -0.1994    0.2658 C   0  0  1  0  0  0  0  0  0  0  0  0
    0.5635   -0.7260    0.9446 H   0  0  0  0  0  0  0  0  0  0  0  0
    0.4924   -0.2204   -1.1558 C   0  0  0  0  0  0  0  0  0  0  0  0
   -0.2766   -0.5202   -1.8669 H   0  0  0  0  0  0  0  0  0  0  0  0
    0.8291    0.7815   -1.4177 H   0  0  0  0  0  0  0  0  0  0  0  0
    1.6489   -1.1931   -1.3215 C   0  0  0  0  0  0  0  0  0  0  0  0
    1.5426   -2.2567   -1.9069 O   0  0  0  0  0  0  0  0  0  0  0  0
    2.8048   -0.8639   -0.7982 N   0  0  0  0  0  0  0  0  0  0  0  0
    3.5549   -1.5177   -0.9384 H   0  0  0  0  0  0  0  0  0  0  0  0
    2.9232    0.0137   -0.3283 H   0  0  0  0  0  0  0  0  0  0  0  0
   -0.3126    1.2341    0.8050 C   0  0  0  0  0  0  0  0  0  0  0  0
   -1.2484    1.9199    0.3934 O   0  0  0  0  0  0  0  0  0  0  0  0
    0.5615    1.6875    1.7087 N   0  0  0  0  0  0  0  0  0  0  0  0
    1.3461    1.0849    1.9358 H   0  0  0  0  0  0  0  0  0  0  0  0
    0.5043    3.0121    2.3242 C   0  0  0  0  0  0  0  0  0  0  0  0
   -0.4649    3.1514    2.8080 H   0  0  0  0  0  0  0  0  0  0  0  0
    1.2959    3.1139    3.0678 H   0  0  0  0  0  0  0  0  0  0  0  0
    0.6273    3.7799    1.5584 H   0  0  0  0  0  0  0  0  0  0  0  0
  5  6  2  0  0  0  0
  5  7  1  0  0  0  0
  2  3  1  0  0  0  0
  2  4  1  0  0  0  0
  2  5  1  0  0  0  0
  1  2  1  0  0  0  0
 19 20  2  0  0  0  0
 19 21  1  0  0  0  0
 16 17  1  0  0  0  0
 16 18  1  0  0  0  0
 14 15  2  0  0  0  0
 14 16  1  0  0  0  0
 11 12  1  0  0  0  0
 11 13  1  0  0  0  0
 11 14  1  0  0  0  0
  9 10  1  0  0  0  0
  9 11  1  0  0  0  0
  9 19  1  0  0  0  0
  7  8  1  0  0  0  0
  7  9  1  0  0  0  0
 23 24  1  0  0  0  0
 23 25  1  0  0  0  0
 23 26  1  0  0  0  0
 21 22  1  0  0  0  0
 21 23  1  0  0  0  0
M  END
$$$$
default_name
  -OEChem-02102213163D

 26 25  0     1  0  0  0  0  0999 V2000
   -3.0232   -3.6924    1.0038 H   0  0  0  0  0  0  0  0  0  0  0  0
   -3.0082   -2.6684    0.6318 C   0  0  0  0  0  0  0  0  0  0  0  0
   -3.6332   -2.0414    1.2658 H   0  0  0  0  0  0  0  0  0  0  0  0
   -3.3762   -2.6444   -0.3912 H   0  0  0  0  0  0  0  0  0  0  0  0
   -1.5882   -2.1554    0.6658 C   0  0  0  0  0  0  0  0  0  0  0  0
   -0.6832   -2.8764    1.0638 O   0  0  0  0  0  0  0  0  0  0  0  0
   -1.3952   -0.9084    0.2428 N   0  0  0  0  0  0  0  0  0  0  0  0
   -2.1972   -0.3644   -0.0422 H   0  0  0  0  0  0  0  0  0  0  0  0
   -0.1122   -0.1994    0.2658 C   0  0  1  0  0  0  0  0  0  0  0  0
    0.5635   -0.7260    0.9446 H   0  0  0  0  0  0  0  0  0  0  0  0
    0.4924   -0.2204   -1.1558 C   0  0  0  0  0  0  0  0  0  0  0  0
   -0.2766   -0.5202   -1.8669 H   0  0  0  0  0  0  0  0  0  0  0  0
    0.8291    0.7815   -1.4177 H   0  0  0  0  0  0  0  0  0  0  0  0
    1.6489   -1.1931   -1.3215 C   0  0  0  0  0  0  0  0  0  0  0  0
    1.6304   -2.1166   -2.1164 O   0  0  0  0  0  0  0  0  0  0  0  0
    2.7039   -1.0241   -0.5620 N   0  0  0  0  0  0  0  0  0  0  0  0
    3.4593   -1.6710   -0.7058 H   0  0  0  0  0  0  0  0  0  0  0  0
    2.7516   -0.2608    0.0862 H   0  0  0  0  0  0  0  0  0  0  0  0
   -0.3126    1.2341    0.8050 C   0  0  0  0  0  0  0  0  0  0  0  0
   -1.2484    1.9199    0.3934 O   0  0  0  0  0  0  0  0  0  0  0  0
    0.5615    1.6875    1.7087 N   0  0  0  0  0  0  0  0  0  0  0  0
    1.3461    1.0849    1.9358 H   0  0  0  0  0  0  0  0  0  0  0  0
    0.5043    3.0121    2.3242 C   0  0  0  0  0  0  0  0  0  0  0  0
   -0.4649    3.1514    2.8080 H   0  0  0  0  0  0  0  0  0  0  0  0
    1.2959    3.1139    3.0678 H   0  0  0  0  0  0  0  0  0  0  0  0
    0.6273    3.7799    1.5584 H   0  0  0  0  0  0  0  0  0  0  0  0
  5  6  2  0  0  0  0
  5  7  1  0  0  0  0
  2  3  1  0  0  0  0
  2  4  1  0  0  0  0
  2  5  1  0  0  0  0
  1  2  1  0  0  0  0
 19 20  2  0  0  0  0
 19 21  1  0  0  0  0
 16 17  1  0  0  0  0
 16 18  1  0  0  0  0
 14 15  2  0  0  0  0
 14 16  1  0  0  0  0
 11 12  1  0  0  0  0
 11 13  1  0  0  0  0
 11 14  1  0  0  0  0
  9 10  1  0  0  0  0
  9 11  1  0  0  0  0
  9 19  1  0  0  0  0
  7  8  1  0  0  0  0
  7  9  1  0  0  0  0
 23 24  1  0  0  0  0
 23 25  1  0  0  0  0
 23 26  1  0  0  0  0
 21 22  1  0  0  0  0
 21 23  1  0  0  0  0
M  END
$$$$
default_name
  -OEChem-02102213163D

 26 25  0     1  0  0  0  0  0999 V2000
   -3.0232   -3.6924    1.0038 H   0  0  0  0  0  0  0  0  0  0  0  0
   -3.0082   -2.6684    0.6318 C   0  0  0  0  0  0  0  0  0  0  0  0
   -3.6332   -2.0414    1.2658 H   0  0  0  0  0  0  0  0  0  0  0  0
   -3.3762   -2.6444   -0.3912 H   0  0  0  0  0  0  0  0  0  0  0  0
   -1.5882   -2.1554    0.6658 C   0  0  0  0  0  0  0  0  0  0  0  0
   -0.6832   -2.8764    1.0638 O   0  0  0  0  0  0  0  0  0  0  0  0
   -1.3952   -0.9084    0.2428 N   0  0  0  0  0  0  0  0  0  0  0  0
   -2.1972   -0.3644   -0.0422 H   0  0  0  0  0  0  0  0  0  0  0  0
   -0.1122   -0.1994    0.2658 C   0  0  1  0  0  0  0  0  0  0  0  0
    0.5635   -0.7260    0.9446 H   0  0  0  0  0  0  0  0  0  0  0  0
    0.4924   -0.2204   -1.1558 C   0  0  0  0  0  0  0  0  0  0  0  0
   -0.2766   -0.5202   -1.8669 H   0  0  0  0  0  0  0  0  0  0  0  0
    0.8291    0.7815   -1.4177 H   0  0  0  0  0  0  0  0  0  0  0  0
    1.6489   -1.1931   -1.3215 C   0  0  0  0  0  0  0  0  0  0  0  0
    1.7538   -1.9426   -2.2767 O   0  0  0  0  0  0  0  0  0  0  0  0
    2.5628   -1.2225   -0.3822 N   0  0  0  0  0  0  0  0  0  0  0  0
    3.3240   -1.8622   -0.5271 H   0  0  0  0  0  0  0  0  0  0  0  0
    2.5095   -0.6028    0.4040 H   0  0  0  0  0  0  0  0  0  0  0  0
   -0.3126    1.2341    0.8050 C   0  0  0  0  0  0  0  0  0  0  0  0
   -1.2484    1.9199    0.3934 O   0  0  0  0  0  0  0  0  0  0  0  0
    0.5615    1.6875    1.7087 N   0  0  0  0  0  0  0  0  0  0  0  0
    1.3461    1.0849    1.9358 H   0  0  0  0  0  0  0  0  0  0  0  0
    0.5043    3.0121    2.3242 C   0  0  0  0  0  0  0  0  0  0  0  0
   -0.4649    3.1514    2.8080 H   0  0  0  0  0  0  0  0  0  0  0  0
    1.2959    3.1139    3.0678 H   0  0  0  0  0  0  0  0  0  0  0  0
    0.6273    3.7799    1.5584 H   0  0  0  0  0  0  0  0  0  0  0  0
  5  6  2  0  0  0  0
  5  7  1  0  0  0  0
  2  3  1  0  0  0  0
  2  4  1  0  0  0  0
  2  5  1  0  0  0  0
  1  2  1  0  0  0  0
 19 20  2  0  0  0  0
 19 21  1  0  0  0  0
 16 17  1  0  0  0  0
 16 18  1  0  0  0  0
 14 15  2  0  0  0  0
 14 16  1  0  0  0  0
 11 12  1  0  0  0  0
 11 13  1  0  0  0  0
 11 14  1  0  0  0  0
  9 10  1  0  0  0  0
  9 11  1  0  0  0  0
  9 19  1  0  0  0  0
  7  8  1  0  0  0  0
  7  9  1  0  0  0  0
 23 24  1  0  0  0  0
 23 25  1  0  0  0  0
 23 26  1  0  0  0  0
 21 22  1  0  0  0  0
 21 23  1  0  0  0  0
M  END
$$$$
default_name
  -OEChem-02102213163D

 26 25  0     1  0  0  0  0  0999 V2000
   -3.0232   -3.6924    1.0038 H   0  0  0  0  0  0  0  0  0  0  0  0
   -3.0082   -2.6684    0.6318 C   0  0  0  0  0  0  0  0  0  0  0  0
   -3.6332   -2.0414    1.2658 H   0  0  0  0  0  0  0  0  0  0  0  0
   -3.3762   -2.6444   -0.3912 H   0  0  0  0  0  0  0  0  0  0  0  0
   -1.5882   -2.1554    0.6658 C   0  0  0  0  0  0  0  0  0  0  0  0
   -0.6832   -2.8764    1.0638 O   0  0  0  0  0  0  0  0  0  0  0  0
   -1.3952   -0.9084    0.2428 N   0  0  0  0  0  0  0  0  0  0  0  0
   -2.1972   -0.3644   -0.0422 H   0  0  0  0  0  0  0  0  0  0  0  0
   -0.1122   -0.1994    0.2658 C   0  0  1  0  0  0  0  0  0  0  0  0
    0.5635   -0.7260    0.9446 H   0  0  0  0  0  0  0  0  0  0  0  0
    0.4924   -0.2204   -1.1558 C   0  0  0  0  0  0  0  0  0  0  0  0
   -0.2766   -0.5202   -1.8669 H   0  0  0  0  0  0  0  0  0  0  0  0
    0.8291    0.7815   -1.4177 H   0  0  0  0  0  0  0  0  0  0  0  0
    1.6489   -1.1931   -1.3215 C   0  0  0  0  0  0  0  0  0  0  0  0
    1.9045   -1.7464   -2.3769 O   0  0  0  0  0  0  0  0  0  0  0  0
    2.3912   -1.4455   -0.2709 N   0  0  0  0  0  0  0  0  0  0  0  0
    3.1584   -2.0783   -0.4145 H   0  0  0  0  0  0  0  0  0  0  0  0
    2.2134   -0.9889    0.6036 H   0  0  0  0  0  0  0  0  0  0  0  0
   -0.3126    1.2341    0.8050 C   0  0  0  0  0  0  0  0  0  0  0  0
   -1.2484    1.9199    0.3934 O   0  0  0  0  0  0  0  0  0  0  0  0
    0.5615    1.6875    1.7087 N   0  0  0  0  0  0  0  0  0  0  0  0
    1.3461    1.0849    1.9358 H   0  0  0  0  0  0  0  0  0  0  0  0
    0.5043    3.0121    2.3242 C   0  0  0  0  0  0  0  0  0  0  0  0
   -0.4649    3.1514    2.8080 H   0  0  0  0  0  0  0  0  0  0  0  0
    1.2959    3.1139    3.0678 H   0  0  0  0  0  0  0  0  0  0  0  0
    0.6273    3.7799    1.5584 H   0  0  0  0  0  0  0  0  0  0  0  0
  5  6  2  0  0  0  0
  5  7  1  0  0  0  0
  2  3  1  0  0  0  0
  2  4  1  0  0  0  0
  2  5  1  0  0  0  0
  1  2  1  0  0  0  0
 19 20  2  0  0  0  0
 19 21  1  0  0  0  0
 16 17  1  0  0  0  0
 16 18  1  0  0  0  0
 14 15  2  0  0  0  0
 14 16  1  0  0  0  0
 11 12  1  0  0  0  0
 11 13  1  0  0  0  0
 11 14  1  0  0  0  0
  9 10  1  0  0  0  0
  9 11  1  0  0  0  0
  9 19  1  0  0  0  0
  7  8  1  0  0  0  0
  7  9  1  0  0  0  0
 23 24  1  0  0  0  0
 23 25  1  0  0  0  0
 23 26  1  0  0  0  0
 21 22  1  0  0  0  0
 21 23  1  0  0  0  0
M  END
$$$$
default_name
  -OEChem-02102213163D

 26 25  0     1  0  0  0  0  0999 V2000
   -3.0232   -3.6924    1.0038 H   0  0  0  0  0  0  0  0  0  0  0  0
   -3.0082   -2.6684    0.6318 C   0  0  0  0  0  0  0  0  0  0  0  0
   -3.6332   -2.0414    1.2658 H   0  0  0  0  0  0  0  0  0  0  0  0
   -3.3762   -2.6444   -0.3912 H   0  0  0  0  0  0  0  0  0  0  0  0
   -1.5882   -2.1554    0.6658 C   0  0  0  0  0  0  0  0  0  0  0  0
   -0.6832   -2.8764    1.0638 O   0  0  0  0  0  0  0  0  0  0  0  0
   -1.3952   -0.9084    0.2428 N   0  0  0  0  0  0  0  0  0  0  0  0
   -2.1972   -0.3644   -0.0422 H   0  0  0  0  0  0  0  0  0  0  0  0
   -0.1122   -0.1994    0.2658 C   0  0  1  0  0  0  0  0  0  0  0  0
    0.5635   -0.7260    0.9446 H   0  0  0  0  0  0  0  0  0  0  0  0
    0.4924   -0.2204   -1.1558 C   0  0  0  0  0  0  0  0  0  0  0  0
   -0.2766   -0.5202   -1.8669 H   0  0  0  0  0  0  0  0  0  0  0  0
    0.8291    0.7815   -1.4177 H   0  0  0  0  0  0  0  0  0  0  0  0
    1.6489   -1.1931   -1.3215 C   0  0  0  0  0  0  0  0  0  0  0  0
    2.0721   -1.5414   -2.4100 O   0  0  0  0  0  0  0  0  0  0  0  0
    2.2007   -1.6781   -0.2358 N   0  0  0  0  0  0  0  0  0  0  0  0
    2.9737   -2.3045   -0.3757 H   0  0  0  0  0  0  0  0  0  0  0  0
    1.8835   -1.3927    0.6714 H   0  0  0  0  0  0  0  0  0  0  0  0
   -0.3126    1.2341    0.8050 C   0  0  0  0  0  0  0  0  0  0  0  0
   -1.2484    1.9199    0.3934 O   0  0  0  0  0  0  0  0  0  0  0  0
    0.5615    1.6875    1.7087 N   0  0  0  0  0  0  0  0  0  0  0  0
    1.3461    1.0849    1.9358 H   0  0  0  0  0  0  0  0  0  0  0  0
    0.5043    3.0121    2.3242 C   0  0  0  0  0  0  0  0  0  0  0  0
   -0.4649    3.1514    2.8080 H   0  0  0  0  0  0  0  0  0  0  0  0
    1.2959    3.1139    3.0678 H   0  0  0  0  0  0  0  0  0  0  0  0
    0.6273    3.7799    1.5584 H   0  0  0  0  0  0  0  0  0  0  0  0
  5  6  2  0  0  0  0
  5  7  1  0  0  0  0
  2  3  1  0  0  0  0
  2  4  1  0  0  0  0
  2  5  1  0  0  0  0
  1  2  1  0  0  0  0
 19 20  2  0  0  0  0
 19 21  1  0  0  0  0
 16 17  1  0  0  0  0
 16 18  1  0  0  0  0
 14 15  2  0  0  0  0
 14 16  1  0  0  0  0
 11 12  1  0  0  0  0
 11 13  1  0  0  0  0
 11 14  1  0  0  0  0
  9 10  1  0  0  0  0
  9 11  1  0  0  0  0
  9 19  1  0  0  0  0
  7  8  1  0  0  0  0
  7  9  1  0  0  0  0
 23 24  1  0  0  0  0
 23 25  1  0  0  0  0
 23 26  1  0  0  0  0
 21 22  1  0  0  0  0
 21 23  1  0  0  0  0
M  END
$$$$
default_name
  -OEChem-02102213163D

 26 25  0     1  0  0  0  0  0999 V2000
   -3.0232   -3.6924    1.0038 H   0  0  0  0  0  0  0  0  0  0  0  0
   -3.0082   -2.6684    0.6318 C   0  0  0  0  0  0  0  0  0  0  0  0
   -3.6332   -2.0414    1.2658 H   0  0  0  0  0  0  0  0  0  0  0  0
   -3.3762   -2.6444   -0.3912 H   0  0  0  0  0  0  0  0  0  0  0  0
   -1.5882   -2.1554    0.6658 C   0  0  0  0  0  0  0  0  0  0  0  0
   -0.6832   -2.8764    1.0638 O   0  0  0  0  0  0  0  0  0  0  0  0
   -1.3952   -0.9084    0.2428 N   0  0  0  0  0  0  0  0  0  0  0  0
   -2.1972   -0.3644   -0.0422 H   0  0  0  0  0  0  0  0  0  0  0  0
   -0.1122   -0.1994    0.2658 C   0  0  1  0  0  0  0  0  0  0  0  0
    0.5635   -0.7260    0.9446 H   0  0  0  0  0  0  0  0  0  0  0  0
    0.4924   -0.2204   -1.1558 C   0  0  0  0  0  0  0  0  0  0  0  0
   -0.3145   -0.2550   -1.8869 H   0  0  0  0  0  0  0  0  0  0  0  0
    1.0619    0.6936   -1.3174 H   0  0  0  0  0  0  0  0  0  0  0  0
    1.3867   -1.4189   -1.4297 C   0  0  0  0  0  0  0  0  0  0  0  0
    1.9472   -1.5983   -2.4969 O   0  0  0  0  0  0  0  0  0  0  0  0
    1.5461   -2.2956   -0.4682 N   0  0  0  0  0  0  0  0  0  0  0  0
    2.1562   -3.0676   -0.6718 H   0  0  0  0  0  0  0  0  0  0  0  0
    1.1113   -2.1611    0.4250 H   0  0  0  0  0  0  0  0  0  0  0  0
   -0.3126    1.2341    0.8050 C   0  0  0  0  0  0  0  0  0  0  0  0
   -1.2484    1.9199    0.3934 O   0  0  0  0  0  0  0  0  0  0  0  0
    0.5615    1.6875    1.7087 N   0  0  0  0  0  0  0  0  0  0  0  0
    1.3461    1.0849    1.9358 H   0  0  0  0  0  0  0  0  0  0  0  0
    0.5043    3.0121    2.3242 C   0  0  0  0  0  0  0  0  0  0  0  0
   -0.4649    3.1514    2.8080 H   0  0  0  0  0  0  0  0  0  0  0  0
    1.2959    3.1139    3.0678 H   0  0  0  0  0  0  0  0  0  0  0  0
    0.6273    3.7799    1.5584 H   0  0  0  0  0  0  0  0  0  0  0  0
  5  6  2  0  0  0  0
  5  7  1  0  0  0  0
  2  3  1  0  0  0  0
  2  4  1  0  0  0  0
  2  5  1  0  0  0  0
  1  2  1  0  0  0  0
 19 20  2  0  0  0  0
 19 21  1  0  0  0  0
 16 17  1  0  0  0  0
 16 18  1  0  0  0  0
 14 15  2  0  0  0  0
 14 16  1  0  0  0  0
 11 12  1  0  0  0  0
 11 13  1  0  0  0  0
 11 14  1  0  0  0  0
  9 10  1  0  0  0  0
  9 11  1  0  0  0  0
  9 19  1  0  0  0  0
  7  8  1  0  0  0  0
  7  9  1  0  0  0  0
 23 24  1  0  0  0  0
 23 25  1  0  0  0  0
 23 26  1  0  0  0  0
 21 22  1  0  0  0  0
 21 23  1  0  0  0  0
M  END
$$$$
default_name
  -OEChem-02102213163D

 26 25  0     1  0  0  0  0  0999 V2000
   -3.0232   -3.6924    1.0038 H   0  0  0  0  0  0  0  0  0  0  0  0
   -3.0082   -2.6684    0.6318 C   0  0  0  0  0  0  0  0  0  0  0  0
   -3.6332   -2.0414    1.2658 H   0  0  0  0  0  0  0  0  0  0  0  0
   -3.3762   -2.6444   -0.3912 H   0  0  0  0  0  0  0  0  0  0  0  0
   -1.5882   -2.1554    0.6658 C   0  0  0  0  0  0  0  0  0  0  0  0
   -0.6832   -2.8764    1.0638 O   0  0  0  0  0  0  0  0  0  0  0  0
   -1.3952   -0.9084    0.2428 N   0  0  0  0  0  0  0  0  0  0  0  0
   -2.1972   -0.3644   -0.0422 H   0  0  0  0  0  0  0  0  0  0  0  0
   -0.1122   -0.1994    0.2658 C   0  0  1  0  0  0  0  0  0  0  0  0
    0.5635   -0.7260    0.9446 H   0  0  0  0  0  0  0  0  0  0  0  0
    0.4924   -0.2204   -1.1558 C   0  0  0  0  0  0  0  0  0  0  0  0
   -0.3145   -0.2550   -1.8869 H   0  0  0  0  0  0  0  0  0  0  0  0
    1.0619    0.6936   -1.3174 H   0  0  0  0  0  0  0  0  0  0  0  0
    1.3867   -1.4189   -1.4297 C   0  0  0  0  0  0  0  0  0  0  0  0
    2.1508   -1.4737   -2.3775 O   0  0  0  0  0  0  0  0  0  0  0  0
    1.3159   -2.4359   -0.6057 N   0  0  0  0  0  0  0  0  0  0  0  0
    1.9308   -3.2061   -0.8016 H   0  0  0  0  0  0  0  0  0  0  0  0
    0.7094   -2.4077    0.1921 H   0  0  0  0  0  0  0  0  0  0  0  0
   -0.3126    1.2341    0.8050 C   0  0  0  0  0  0  0  0  0  0  0  0
   -1.2484    1.9199    0.3934 O   0  0  0  0  0  0  0  0  0  0  0  0
    0.5615    1.6875    1.7087 N   0  0  0  0  0  0  0  0  0  0  0  0
    1.3461    1.0849    1.9358 H   0  0  0  0  0  0  0  0  0  0  0  0
    0.5043    3.0121    2.3242 C   0  0  0  0  0  0  0  0  0  0  0  0
   -0.4649    3.1514    2.8080 H   0  0  0  0  0  0  0  0  0  0  0  0
    1.2959    3.1139    3.0678 H   0  0  0  0  0  0  0  0  0  0  0  0
    0.6273    3.7799    1.5584 H   0  0  0  0  0  0  0  0  0  0  0  0
  5  6  2  0  0  0  0
  5  7  1  0  0  0  0
  2  3  1  0  0  0  0
  2  4  1  0  0  0  0
  2  5  1  0  0  0  0
  1  2  1  0  0  0  0
 19 20  2  0  0  0  0
 19 21  1  0  0  0  0
 16 17  1  0  0  0  0
 16 18  1  0  0  0  0
 14 15  2  0  0  0  0
 14 16  1  0  0  0  0
 11 12  1  0  0  0  0
 11 13  1  0  0  0  0
 11 14  1  0  0  0  0
  9 10  1  0  0  0  0
  9 11  1  0  0  0  0
  9 19  1  0  0  0  0
  7  8  1  0  0  0  0
  7  9  1  0  0  0  0
 23 24  1  0  0  0  0
 23 25  1  0  0  0  0
 23 26  1  0  0  0  0
 21 22  1  0  0  0  0
 21 23  1  0  0  0  0
M  END
$$$$
default_name
  -OEChem-02102213163D

 26 25  0     1  0  0  0  0  0999 V2000
   -3.0232   -3.6924    1.0038 H   0  0  0  0  0  0  0  0  0  0  0  0
   -3.0082   -2.6684    0.6318 C   0  0  0  0  0  0  0  0  0  0  0  0
   -3.6332   -2.0414    1.2658 H   0  0  0  0  0  0  0  0  0  0  0  0
   -3.3762   -2.6444   -0.3912 H   0  0  0  0  0  0  0  0  0  0  0  0
   -1.5882   -2.1554    0.6658 C   0  0  0  0  0  0  0  0  0  0  0  0
   -0.6832   -2.8764    1.0638 O   0  0  0  0  0  0  0  0  0  0  0  0
   -1.3952   -0.9084    0.2428 N   0  0  0  0  0  0  0  0  0  0  0  0
   -2.1972   -0.3644   -0.0422 H   0  0  0  0  0  0  0  0  0  0  0  0
   -0.1122   -0.1994    0.2658 C   0  0  1  0  0  0  0  0  0  0  0  0
    0.5635   -0.7260    0.9446 H   0  0  0  0  0  0  0  0  0  0  0  0
    0.4924   -0.2204   -1.1558 C   0  0  0  0  0  0  0  0  0  0  0  0
   -0.3145   -0.2550   -1.8869 H   0  0  0  0  0  0  0  0  0  0  0  0
    1.0619    0.6936   -1.3174 H   0  0  0  0  0  0  0  0  0  0  0  0
    1.3867   -1.4189   -1.4297 C   0  0  0  0  0  0  0  0  0  0  0  0
    2.3289   -1.3809   -2.2018 O   0  0  0  0  0  0  0  0  0  0  0  0
    1.1150   -2.5399   -0.8069 N   0  0  0  0  0  0  0  0  0  0  0  0
    1.7332   -3.3096   -0.9940 H   0  0  0  0  0  0  0  0  0  0  0  0
    0.3573   -2.5917   -0.1525 H   0  0  0  0  0  0  0  0  0  0  0  0
   -0.3126    1.2341    0.8050 C   0  0  0  0  0  0  0  0  0  0  0  0
   -1.2484    1.9199    0.3934 O   0  0  0  0  0  0  0  0  0  0  0  0
    0.5615    1.6875    1.7087 N   0  0  0  0  0  0  0  0  0  0  0  0
    1.3461    1.0849    1.9358 H   0  0  0  0  0  0  0  0  0  0  0  0
    0.5043    3.0121    2.3242 C   0  0  0  0  0  0  0  0  0  0  0  0
   -0.4649    3.1514    2.8080 H   0  0  0  0  0  0  0  0  0  0  0  0
    1.2959    3.1139    3.0678 H   0  0  0  0  0  0  0  0  0  0  0  0
    0.6273    3.7799    1.5584 H   0  0  0  0  0  0  0  0  0  0  0  0
  5  6  2  0  0  0  0
  5  7  1  0  0  0  0
  2  3  1  0  0  0  0
  2  4  1  0  0  0  0
  2  5  1  0  0  0  0
  1  2  1  0  0  0  0
 19 20  2  0  0  0  0
 19 21  1  0  0  0  0
 16 17  1  0  0  0  0
 16 18  1  0  0  0  0
 14 15  2  0  0  0  0
 14 16  1  0  0  0  0
 11 12  1  0  0  0  0
 11 13  1  0  0  0  0
 11 14  1  0  0  0  0
  9 10  1  0  0  0  0
  9 11  1  0  0  0  0
  9 19  1  0  0  0  0
  7  8  1  0  0  0  0
  7  9  1  0  0  0  0
 23 24  1  0  0  0  0
 23 25  1  0  0  0  0
 23 26  1  0  0  0  0
 21 22  1  0  0  0  0
 21 23  1  0  0  0  0
M  END
$$$$
default_name
  -OEChem-02102213163D

 26 25  0     1  0  0  0  0  0999 V2000
   -3.0232   -3.6924    1.0038 H   0  0  0  0  0  0  0  0  0  0  0  0
   -3.0082   -2.6684    0.6318 C   0  0  0  0  0  0  0  0  0  0  0  0
   -3.6332   -2.0414    1.2658 H   0  0  0  0  0  0  0  0  0  0  0  0
   -3.3762   -2.6444   -0.3912 H   0  0  0  0  0  0  0  0  0  0  0  0
   -1.5882   -2.1554    0.6658 C   0  0  0  0  0  0  0  0  0  0  0  0
   -0.6832   -2.8764    1.0638 O   0  0  0  0  0  0  0  0  0  0  0  0
   -1.3952   -0.9084    0.2428 N   0  0  0  0  0  0  0  0  0  0  0  0
   -2.1972   -0.3644   -0.0422 H   0  0  0  0  0  0  0  0  0  0  0  0
   -0.1122   -0.1994    0.2658 C   0  0  1  0  0  0  0  0  0  0  0  0
    0.5635   -0.7260    0.9446 H   0  0  0  0  0  0  0  0  0  0  0  0
    0.4924   -0.2204   -1.1558 C   0  0  0  0  0  0  0  0  0  0  0  0
   -0.3145   -0.2550   -1.8869 H   0  0  0  0  0  0  0  0  0  0  0  0
    1.0619    0.6936   -1.3174 H   0  0  0  0  0  0  0  0  0  0  0  0
    1.3867   -1.4189   -1.4297 C   0  0  0  0  0  0  0  0  0  0  0  0
    2.4694   -1.3264   -1.9815 O   0  0  0  0  0  0  0  0  0  0  0  0
    0.9572   -2.6003   -1.0579 N   0  0  0  0  0  0  0  0  0  0  0  0
    1.5767   -3.3711   -1.2359 H   0  0  0  0  0  0  0  0  0  0  0  0
    0.0789   -2.7006   -0.5852 H   0  0  0  0  0  0  0  0  0  0  0  0
   -0.3126    1.2341    0.8050 C   0  0  0  0  0  0  0  0  0  0  0  0
   -1.2484    1.9199    0.3934 O   0  0  0  0  0  0  0  0  0  0  0  0
    0.5615    1.6875    1.7087 N   0  0  0  0  0  0  0  0  0  0  0  0
    1.3461    1.0849    1.9358 H   0  0  0  0  0  0  0  0  0  0  0  0
    0.5043    3.0121    2.3242 C   0  0  0  0  0  0  0  0  0  0  0  0
   -0.4649    3.1514    2.8080 H   0  0  0  0  0  0  0  0  0  0  0  0
    1.2959    3.1139    3.0678 H   0  0  0  0  0  0  0  0  0  0  0  0
    0.6273    3.7799    1.5584 H   0  0  0  0  0  0  0  0  0  0  0  0
  5  6  2  0  0  0  0
  5  7  1  0  0  0  0
  2  3  1  0  0  0  0
  2  4  1  0  0  0  0
  2  5  1  0  0  0  0
  1  2  1  0  0  0  0
 19 20  2  0  0  0  0
 19 21  1  0  0  0  0
 16 17  1  0  0  0  0
 16 18  1  0  0  0  0
 14 15  2  0  0  0  0
 14 16  1  0  0  0  0
 11 12  1  0  0  0  0
 11 13  1  0  0  0  0
 11 14  1  0  0  0  0
  9 10  1  0  0  0  0
  9 11  1  0  0  0  0
  9 19  1  0  0  0  0
  7  8  1  0  0  0  0
  7  9  1  0  0  0  0
 23 24  1  0  0  0  0
 23 25  1  0  0  0  0
 23 26  1  0  0  0  0
 21 22  1  0  0  0  0
 21 23  1  0  0  0  0
M  END
$$$$
default_name
  -OEChem-02102213163D

 26 25  0     1  0  0  0  0  0999 V2000
   -3.0232   -3.6924    1.0038 H   0  0  0  0  0  0  0  0  0  0  0  0
   -3.0082   -2.6684    0.6318 C   0  0  0  0  0  0  0  0  0  0  0  0
   -3.6332   -2.0414    1.2658 H   0  0  0  0  0  0  0  0  0  0  0  0
   -3.3762   -2.6444   -0.3912 H   0  0  0  0  0  0  0  0  0  0  0  0
   -1.5882   -2.1554    0.6658 C   0  0  0  0  0  0  0  0  0  0  0  0
   -0.6832   -2.8764    1.0638 O   0  0  0  0  0  0  0  0  0  0  0  0
   -1.3952   -0.9084    0.2428 N   0  0  0  0  0  0  0  0  0  0  0  0
   -2.1972   -0.3644   -0.0422 H   0  0  0  0  0  0  0  0  0  0  0  0
   -0.1122   -0.1994    0.2658 C   0  0  1  0  0  0  0  0  0  0  0  0
    0.5635   -0.7260    0.9446 H   0  0  0  0  0  0  0  0  0  0  0  0
    0.4924   -0.2204   -1.1558 C   0  0  0  0  0  0  0  0  0  0  0  0
   -0.3145   -0.2550   -1.8869 H   0  0  0  0  0  0  0  0  0  0  0  0
    1.0619    0.6936   -1.3174 H   0  0  0  0  0  0  0  0  0  0  0  0
    1.3867   -1.4189   -1.4297 C   0  0  0  0  0  0  0  0  0  0  0  0
    2.5627   -1.3138   -1.7318 O   0  0  0  0  0  0  0  0  0  0  0  0
    0.8532   -2.6130   -1.3419 N   0  0  0  0  0  0  0  0  0  0  0  0
    1.4721   -3.3863   -1.5109 H   0  0  0  0  0  0  0  0  0  0  0  0
   -0.1068   -2.7269   -1.0765 H   0  0  0  0  0  0  0  0  0  0  0  0
   -0.3126    1.2341    0.8050 C   0  0  0  0  0  0  0  0  0  0  0  0
   -1.2484    1.9199    0.3934 O   0  0  0  0  0  0  0  0  0  0  0  0
    0.5615    1.6875    1.7087 N   0  0  0  0  0  0  0  0  0  0  0  0
    1.3461    1.0849    1.9358 H   0  0  0  0  0  0  0  0  0  0  0  0
    0.5043    3.0121    2.3242 C   0  0  0  0  0  0  0  0  0  0  0  0
   -0.4649    3.1514    2.8080 H   0  0  0  0  0  0  0  0  0  0  0  0
    1.2959    3.1139    3.0678 H   0  0  0  0  0  0  0  0  0  0  0  0
    0.6273    3.7799    1.5584 H   0  0  0  0  0  0  0  0  0  0  0  0
  5  6  2  0  0  0  0
  5  7  1  0  0  0  0
  2  3  1  0  0  0  0
  2  4  1  0  0  0  0
  2  5  1  0  0  0  0
  1  2  1  0  0  0  0
 19 20  2  0  0  0  0
 19 21  1  0  0  0  0
 16 17  1  0  0  0  0
 16 18  1  0  0  0  0
 14 15  2  0  0  0  0
 14 16  1  0  0  0  0
 11 12  1  0  0  0  0
 11 13  1  0  0  0  0
 11 14  1  0  0  0  0
  9 10  1  0  0  0  0
  9 11  1  0  0  0  0
  9 19  1  0  0  0  0
  7  8  1  0  0  0  0
  7  9  1  0  0  0  0
 23 24  1  0  0  0  0
 23 25  1  0  0  0  0
 23 26  1  0  0  0  0
 21 22  1  0  0  0  0
 21 23  1  0  0  0  0
M  END
$$$$
default_name
  -OEChem-02102213163D

 26 25  0     1  0  0  0  0  0999 V2000
   -3.0232   -3.6924    1.0038 H   0  0  0  0  0  0  0  0  0  0  0  0
   -3.0082   -2.6684    0.6318 C   0  0  0  0  0  0  0  0  0  0  0  0
   -3.6332   -2.0414    1.2658 H   0  0  0  0  0  0  0  0  0  0  0  0
   -3.3762   -2.6444   -0.3912 H   0  0  0  0  0  0  0  0  0  0  0  0
   -1.5882   -2.1554    0.6658 C   0  0  0  0  0  0  0  0  0  0  0  0
   -0.6832   -2.8764    1.0638 O   0  0  0  0  0  0  0  0  0  0  0  0
   -1.3952   -0.9084    0.2428 N   0  0  0  0  0  0  0  0  0  0  0  0
   -2.1972   -0.3644   -0.0422 H   0  0  0  0  0  0  0  0  0  0  0  0
   -0.1122   -0.1994    0.2658 C   0  0  1  0  0  0  0  0  0  0  0  0
    0.5635   -0.7260    0.9446 H   0  0  0  0  0  0  0  0  0  0  0  0
    0.4924   -0.2204   -1.1558 C   0  0  0  0  0  0  0  0  0  0  0  0
   -0.3145   -0.2550   -1.8869 H   0  0  0  0  0  0  0  0  0  0  0  0
    1.0619    0.6936   -1.3174 H   0  0  0  0  0  0  0  0  0  0  0  0
    1.3867   -1.4189   -1.4297 C   0  0  0  0  0  0  0  0  0  0  0  0
    2.6025   -1.3441   -1.4696 O   0  0  0  0  0  0  0  0  0  0  0  0
    0.8100   -2.5772   -1.6393 N   0  0  0  0  0  0  0  0  0  0  0  0
    1.4264   -3.3543   -1.8002 H   0  0  0  0  0  0  0  0  0  0  0  0
   -0.1872   -2.6689   -1.5930 H   0  0  0  0  0  0  0  0  0  0  0  0
   -0.3126    1.2341    0.8050 C   0  0  0  0  0  0  0  0  0  0  0  0
   -1.2484    1.9199    0.3934 O   0  0  0  0  0  0  0  0  0  0  0  0
    0.5615    1.6875    1.7087 N   0  0  0  0  0  0  0  0  0  0  0  0
    1.3461    1.0849    1.9358 H   0  0  0  0  0  0  0  0  0  0  0  0
    0.5043    3.0121    2.3242 C   0  0  0  0  0  0  0  0  0  0  0  0
   -0.4649    3.1514    2.8080 H   0  0  0  0  0  0  0  0  0  0  0  0
    1.2959    3.1139    3.0678 H   0  0  0  0  0  0  0  0  0  0  0  0
    0.6273    3.7799    1.5584 H   0  0  0  0  0  0  0  0  0  0  0  0
  5  6  2  0  0  0  0
  5  7  1  0  0  0  0
  2  3  1  0  0  0  0
  2  4  1  0  0  0  0
  2  5  1  0  0  0  0
  1  2  1  0  0  0  0
 19 20  2  0  0  0  0
 19 21  1  0  0  0  0
 16 17  1  0  0  0  0
 16 18  1  0  0  0  0
 14 15  2  0  0  0  0
 14 16  1  0  0  0  0
 11 12  1  0  0  0  0
 11 13  1  0  0  0  0
 11 14  1  0  0  0  0
  9 10  1  0  0  0  0
  9 11  1  0  0  0  0
  9 19  1  0  0  0  0
  7  8  1  0  0  0  0
  7  9  1  0  0  0  0
 23 24  1  0  0  0  0
 23 25  1  0  0  0  0
 23 26  1  0  0  0  0
 21 22  1  0  0  0  0
 21 23  1  0  0  0  0
M  END
$$$$
default_name
  -OEChem-02102213163D

 26 25  0     1  0  0  0  0  0999 V2000
   -3.0232   -3.6924    1.0038 H   0  0  0  0  0  0  0  0  0  0  0  0
   -3.0082   -2.6684    0.6318 C   0  0  0  0  0  0  0  0  0  0  0  0
   -3.6332   -2.0414    1.2658 H   0  0  0  0  0  0  0  0  0  0  0  0
   -3.3762   -2.6444   -0.3912 H   0  0  0  0  0  0  0  0  0  0  0  0
   -1.5882   -2.1554    0.6658 C   0  0  0  0  0  0  0  0  0  0  0  0
   -0.6832   -2.8764    1.0638 O   0  0  0  0  0  0  0  0  0  0  0  0
   -1.3952   -0.9084    0.2428 N   0  0  0  0  0  0  0  0  0  0  0  0
   -2.1972   -0.3644   -0.0422 H   0  0  0  0  0  0  0  0  0  0  0  0
   -0.1122   -0.1994    0.2658 C   0  0  1  0  0  0  0  0  0  0  0  0
    0.5635   -0.7260    0.9446 H   0  0  0  0  0  0  0  0  0  0  0  0
    0.4924   -0.2204   -1.1558 C   0  0  0  0  0  0  0  0  0  0  0  0
   -0.3145   -0.2550   -1.8869 H   0  0  0  0  0  0  0  0  0  0  0  0
    1.0619    0.6936   -1.3174 H   0  0  0  0  0  0  0  0  0  0  0  0
    1.3867   -1.4189   -1.4297 C   0  0  0  0  0  0  0  0  0  0  0  0
    2.5860   -1.4150   -1.2129 O   0  0  0  0  0  0  0  0  0  0  0  0
    0.8307   -2.4954   -1.9299 N   0  0  0  0  0  0  0  0  0  0  0  0
    1.4428   -3.2772   -2.0840 H   0  0  0  0  0  0  0  0  0  0  0  0
   -0.1567   -2.5305   -2.0994 H   0  0  0  0  0  0  0  0  0  0  0  0
   -0.3126    1.2341    0.8050 C   0  0  0  0  0  0  0  0  0  0  0  0
   -1.2484    1.9199    0.3934 O   0  0  0  0  0  0  0  0  0  0  0  0
    0.5615    1.6875    1.7087 N   0  0  0  0  0  0  0  0  0  0  0  0
    1.3461    1.0849    1.9358 H   0  0  0  0  0  0  0  0  0  0  0  0
    0.5043    3.0121    2.3242 C   0  0  0  0  0  0  0  0  0  0  0  0
   -0.4649    3.1514    2.8080 H   0  0  0  0  0  0  0  0  0  0  0  0
    1.2959    3.1139    3.0678 H   0  0  0  0  0  0  0  0  0  0  0  0
    0.6273    3.7799    1.5584 H   0  0  0  0  0  0  0  0  0  0  0  0
  5  6  2  0  0  0  0
  5  7  1  0  0  0  0
  2  3  1  0  0  0  0
  2  4  1  0  0  0  0
  2  5  1  0  0  0  0
  1  2  1  0  0  0  0
 19 20  2  0  0  0  0
 19 21  1  0  0  0  0
 16 17  1  0  0  0  0
 16 18  1  0  0  0  0
 14 15  2  0  0  0  0
 14 16  1  0  0  0  0
 11 12  1  0  0  0  0
 11 13  1  0  0  0  0
 11 14  1  0  0  0  0
  9 10  1  0  0  0  0
  9 11  1  0  0  0  0
  9 19  1  0  0  0  0
  7  8  1  0  0  0  0
  7  9  1  0  0  0  0
 23 24  1  0  0  0  0
 23 25  1  0  0  0  0
 23 26  1  0  0  0  0
 21 22  1  0  0  0  0
 21 23  1  0  0  0  0
M  END
$$$$
default_name
  -OEChem-02102213163D

 26 25  0     1  0  0  0  0  0999 V2000
   -3.0232   -3.6924    1.0038 H   0  0  0  0  0  0  0  0  0  0  0  0
   -3.0082   -2.6684    0.6318 C   0  0  0  0  0  0  0  0  0  0  0  0
   -3.6332   -2.0414    1.2658 H   0  0  0  0  0  0  0  0  0  0  0  0
   -3.3762   -2.6444   -0.3912 H   0  0  0  0  0  0  0  0  0  0  0  0
   -1.5882   -2.1554    0.6658 C   0  0  0  0  0  0  0  0  0  0  0  0
   -0.6832   -2.8764    1.0638 O   0  0  0  0  0  0  0  0  0  0  0  0
   -1.3952   -0.9084    0.2428 N   0  0  0  0  0  0  0  0  0  0  0  0
   -2.1972   -0.3644   -0.0422 H   0  0  0  0  0  0  0  0  0  0  0  0
   -0.1122   -0.1994    0.2658 C   0  0  1  0  0  0  0  0  0  0  0  0
    0.5635   -0.7260    0.9446 H   0  0  0  0  0  0  0  0  0  0  0  0
    0.4924   -0.2204   -1.1558 C   0  0  0  0  0  0  0  0  0  0  0  0
   -0.3145   -0.2550   -1.8869 H   0  0  0  0  0  0  0  0  0  0  0  0
    1.0619    0.6936   -1.3174 H   0  0  0  0  0  0  0  0  0  0  0  0
    1.3867   -1.4189   -1.4297 C   0  0  0  0  0  0  0  0  0  0  0  0
    2.5144   -1.5219   -0.9791 O   0  0  0  0  0  0  0  0  0  0  0  0
    0.9138   -2.3731   -2.1940 N   0  0  0  0  0  0  0  0  0  0  0  0
    1.5202   -3.1603   -2.3432 H   0  0  0  0  0  0  0  0  0  0  0  0
   -0.0175   -2.3210   -2.5613 H   0  0  0  0  0  0  0  0  0  0  0  0
   -0.3126    1.2341    0.8050 C   0  0  0  0  0  0  0  0  0  0  0  0
   -1.2484    1.9199    0.3934 O   0  0  0  0  0  0  0  0  0  0  0  0
    0.5615    1.6875    1.7087 N   0  0  0  0  0  0  0  0  0  0  0  0
    1.3461    1.0849    1.9358 H   0  0  0  0  0  0  0  0  0  0  0  0
    0.5043    3.0121    2.3242 C   0  0  0  0  0  0  0  0  0  0  0  0
   -0.4649    3.1514    2.8080 H   0  0  0  0  0  0  0  0  0  0  0  0
    1.2959    3.1139    3.0678 H   0  0  0  0  0  0  0  0  0  0  0  0
    0.6273    3.7799    1.5584 H   0  0  0  0  0  0  0  0  0  0  0  0
  5  6  2  0  0  0  0
  5  7  1  0  0  0  0
  2  3  1  0  0  0  0
  2  4  1  0  0  0  0
  2  5  1  0  0  0  0
  1  2  1  0  0  0  0
 19 20  2  0  0  0  0
 19 21  1  0  0  0  0
 16 17  1  0  0  0  0
 16 18  1  0  0  0  0
 14 15  2  0  0  0  0
 14 16  1  0  0  0  0
 11 12  1  0  0  0  0
 11 13  1  0  0  0  0
 11 14  1  0  0  0  0
  9 10  1  0  0  0  0
  9 11  1  0  0  0  0
  9 19  1  0  0  0  0
  7  8  1  0  0  0  0
  7  9  1  0  0  0  0
 23 24  1  0  0  0  0
 23 25  1  0  0  0  0
 23 26  1  0  0  0  0
 21 22  1  0  0  0  0
 21 23  1  0  0  0  0
M  END
$$$$
default_name
  -OEChem-02102213163D

 26 25  0     1  0  0  0  0  0999 V2000
   -3.0232   -3.6924    1.0038 H   0  0  0  0  0  0  0  0  0  0  0  0
   -3.0082   -2.6684    0.6318 C   0  0  0  0  0  0  0  0  0  0  0  0
   -3.6332   -2.0414    1.2658 H   0  0  0  0  0  0  0  0  0  0  0  0
   -3.3762   -2.6444   -0.3912 H   0  0  0  0  0  0  0  0  0  0  0  0
   -1.5882   -2.1554    0.6658 C   0  0  0  0  0  0  0  0  0  0  0  0
   -0.6832   -2.8764    1.0638 O   0  0  0  0  0  0  0  0  0  0  0  0
   -1.3952   -0.9084    0.2428 N   0  0  0  0  0  0  0  0  0  0  0  0
   -2.1972   -0.3644   -0.0422 H   0  0  0  0  0  0  0  0  0  0  0  0
   -0.1122   -0.1994    0.2658 C   0  0  1  0  0  0  0  0  0  0  0  0
    0.5635   -0.7260    0.9446 H   0  0  0  0  0  0  0  0  0  0  0  0
    0.4924   -0.2204   -1.1558 C   0  0  0  0  0  0  0  0  0  0  0  0
   -0.3145   -0.2550   -1.8869 H   0  0  0  0  0  0  0  0  0  0  0  0
    1.0619    0.6936   -1.3174 H   0  0  0  0  0  0  0  0  0  0  0  0
    1.3867   -1.4189   -1.4297 C   0  0  0  0  0  0  0  0  0  0  0  0
    2.3925   -1.6574   -0.7841 O   0  0  0  0  0  0  0  0  0  0  0  0
    1.0537   -2.2186   -2.4135 N   0  0  0  0  0  0  0  0  0  0  0  0
    1.6533   -3.0115   -2.5598 H   0  0  0  0  0  0  0  0  0  0  0  0
    0.2209   -2.0549   -2.9472 H   0  0  0  0  0  0  0  0  0  0  0  0
   -0.3126    1.2341    0.8050 C   0  0  0  0  0  0  0  0  0  0  0  0
   -1.2484    1.9199    0.3934 O   0  0  0  0  0  0  0  0  0  0  0  0
    0.5615    1.6875    1.7087 N   0  0  0  0  0  0  0  0  0  0  0  0
    1.3461    1.0849    1.9358 H   0  0  0  0  0  0  0  0  0  0  0  0
    0.5043    3.0121    2.3242 C   0  0  0  0  0  0  0  0  0  0  0  0
   -0.4649    3.1514    2.8080 H   0  0  0  0  0  0  0  0  0  0  0  0
    1.2959    3.1139    3.0678 H   0  0  0  0  0  0  0  0  0  0  0  0
    0.6273    3.7799    1.5584 H   0  0  0  0  0  0  0  0  0  0  0  0
  5  6  2  0  0  0  0
  5  7  1  0  0  0  0
  2  3  1  0  0  0  0
  2  4  1  0  0  0  0
  2  5  1  0  0  0  0
  1  2  1  0  0  0  0
 19 20  2  0  0  0  0
 19 21  1  0  0  0  0
 16 17  1  0  0  0  0
 16 18  1  0  0  0  0
 14 15  2  0  0  0  0
 14 16  1  0  0  0  0
 11 12  1  0  0  0  0
 11 13  1  0  0  0  0
 11 14  1  0  0  0  0
  9 10  1  0  0  0  0
  9 11  1  0  0  0  0
  9 19  1  0  0  0  0
  7  8  1  0  0  0  0
  7  9  1  0  0  0  0
 23 24  1  0  0  0  0
 23 25  1  0  0  0  0
 23 26  1  0  0  0  0
 21 22  1  0  0  0  0
 21 23  1  0  0  0  0
M  END
$$$$
default_name
  -OEChem-02102213163D

 26 25  0     1  0  0  0  0  0999 V2000
   -3.0232   -3.6924    1.0038 H   0  0  0  0  0  0  0  0  0  0  0  0
   -3.0082   -2.6684    0.6318 C   0  0  0  0  0  0  0  0  0  0  0  0
   -3.6332   -2.0414    1.2658 H   0  0  0  0  0  0  0  0  0  0  0  0
   -3.3762   -2.6444   -0.3912 H   0  0  0  0  0  0  0  0  0  0  0  0
   -1.5882   -2.1554    0.6658 C   0  0  0  0  0  0  0  0  0  0  0  0
   -0.6832   -2.8764    1.0638 O   0  0  0  0  0  0  0  0  0  0  0  0
   -1.3952   -0.9084    0.2428 N   0  0  0  0  0  0  0  0  0  0  0  0
   -2.1972   -0.3644   -0.0422 H   0  0  0  0  0  0  0  0  0  0  0  0
   -0.1122   -0.1994    0.2658 C   0  0  1  0  0  0  0  0  0  0  0  0
    0.5635   -0.7260    0.9446 H   0  0  0  0  0  0  0  0  0  0  0  0
    0.4924   -0.2204   -1.1558 C   0  0  0  0  0  0  0  0  0  0  0  0
   -0.3145   -0.2550   -1.8869 H   0  0  0  0  0  0  0  0  0  0  0  0
    1.0619    0.6936   -1.3174 H   0  0  0  0  0  0  0  0  0  0  0  0
    1.3867   -1.4189   -1.4297 C   0  0  0  0  0  0  0  0  0  0  0  0
    2.2287   -1.8122   -0.6412 O   0  0  0  0  0  0  0  0  0  0  0  0
    1.2407   -2.0424   -2.5734 N   0  0  0  0  0  0  0  0  0  0  0  0
    1.8329   -2.8410   -2.7193 H   0  0  0  0  0  0  0  0  0  0  0  0
    0.5424   -1.7502   -3.2307 H   0  0  0  0  0  0  0  0  0  0  0  0
   -0.3126    1.2341    0.8050 C   0  0  0  0  0  0  0  0  0  0  0  0
   -1.2484    1.9199    0.3934 O   0  0  0  0  0  0  0  0  0  0  0  0
    0.5615    1.6875    1.7087 N   0  0  0  0  0  0  0  0  0  0  0  0
    1.3461    1.0849    1.9358 H   0  0  0  0  0  0  0  0  0  0  0  0
    0.5043    3.0121    2.3242 C   0  0  0  0  0  0  0  0  0  0  0  0
   -0.4649    3.1514    2.8080 H   0  0  0  0  0  0  0  0  0  0  0  0
    1.2959    3.1139    3.0678 H   0  0  0  0  0  0  0  0  0  0  0  0
    0.6273    3.7799    1.5584 H   0  0  0  0  0  0  0  0  0  0  0  0
  5  6  2  0  0  0  0
  5  7  1  0  0  0  0
  2  3  1  0  0  0  0
  2  4  1  0  0  0  0
  2  5  1  0  0  0  0
  1  2  1  0  0  0  0
 19 20  2  0  0  0  0
 19 21  1  0  0  0  0
 16 17  1  0  0  0  0
 16 18  1  0  0  0  0
 14 15  2  0  0  0  0
 14 16  1  0  0  0  0
 11 12  1  0  0  0  0
 11 13  1  0  0  0  0
 11 14  1  0  0  0  0
  9 10  1  0  0  0  0
  9 11  1  0  0  0  0
  9 19  1  0  0  0  0
  7  8  1  0  0  0  0
  7  9  1  0  0  0  0
 23 24  1  0  0  0  0
 23 25  1  0  0  0  0
 23 26  1  0  0  0  0
 21 22  1  0  0  0  0
 21 23  1  0  0  0  0
M  END
$$$$
default_name
  -OEChem-02102213163D

 26 25  0     1  0  0  0  0  0999 V2000
   -3.0232   -3.6924    1.0038 H   0  0  0  0  0  0  0  0  0  0  0  0
   -3.0082   -2.6684    0.6318 C   0  0  0  0  0  0  0  0  0  0  0  0
   -3.6332   -2.0414    1.2658 H   0  0  0  0  0  0  0  0  0  0  0  0
   -3.3762   -2.6444   -0.3912 H   0  0  0  0  0  0  0  0  0  0  0  0
   -1.5882   -2.1554    0.6658 C   0  0  0  0  0  0  0  0  0  0  0  0
   -0.6832   -2.8764    1.0638 O   0  0  0  0  0  0  0  0  0  0  0  0
   -1.3952   -0.9084    0.2428 N   0  0  0  0  0  0  0  0  0  0  0  0
   -2.1972   -0.3644   -0.0422 H   0  0  0  0  0  0  0  0  0  0  0  0
   -0.1122   -0.1994    0.2658 C   0  0  1  0  0  0  0  0  0  0  0  0
    0.5635   -0.7260    0.9446 H   0  0  0  0  0  0  0  0  0  0  0  0
    0.4924   -0.2204   -1.1558 C   0  0  0  0  0  0  0  0  0  0  0  0
   -0.3145   -0.2550   -1.8869 H   0  0  0  0  0  0  0  0  0  0  0  0
    1.0619    0.6936   -1.3174 H   0  0  0  0  0  0  0  0  0  0  0  0
    1.3867   -1.4189   -1.4297 C   0  0  0  0  0  0  0  0  0  0  0  0
    2.0341   -1.9760   -0.5603 O   0  0  0  0  0  0  0  0  0  0  0  0
    1.4623   -1.8567   -2.6629 N   0  0  0  0  0  0  0  0  0  0  0  0
    2.0469   -2.6604   -2.8108 H   0  0  0  0  0  0  0  0  0  0  0  0
    0.9250   -1.4278   -3.3926 H   0  0  0  0  0  0  0  0  0  0  0  0
   -0.3126    1.2341    0.8050 C   0  0  0  0  0  0  0  0  0  0  0  0
   -1.2484    1.9199    0.3934 O   0  0  0  0  0  0  0  0  0  0  0  0
    0.5615    1.6875    1.7087 N   0  0  0  0  0  0  0  0  0  0  0  0
    1.3461    1.0849    1.9358 H   0  0  0  0  0  0  0  0  0  0  0  0
    0.5043    3.0121    2.3242 C   0  0  0  0  0  0  0  0  0  0  0  0
   -0.4649    3.1514    2.8080 H   0  0  0  0  0  0  0  0  0  0  0  0
    1.2959    3.1139    3.0678 H   0  0  0  0  0  0  0  0  0  0  0  0
    0.6273    3.7799    1.5584 H   0  0  0  0  0  0  0  0  0  0  0  0
  5  6  2  0  0  0  0
  5  7  1  0  0  0  0
  2  3  1  0  0  0  0
  2  4  1  0  0  0  0
  2  5  1  0  0  0  0
  1  2  1  0  0  0  0
 19 20  2  0  0  0  0
 19 21  1  0  0  0  0
 16 17  1  0  0  0  0
 16 18  1  0  0  0  0
 14 15  2  0  0  0  0
 14 16  1  0  0  0  0
 11 12  1  0  0  0  0
 11 13  1  0  0  0  0
 11 14  1  0  0  0  0
  9 10  1  0  0  0  0
  9 11  1  0  0  0  0
  9 19  1  0  0  0  0
  7  8  1  0  0  0  0
  7  9  1  0  0  0  0
 23 24  1  0  0  0  0
 23 25  1  0  0  0  0
 23 26  1  0  0  0  0
 21 22  1  0  0  0  0
 21 23  1  0  0  0  0
M  END
$$$$
default_name
  -OEChem-02102213163D

 26 25  0     1  0  0  0  0  0999 V2000
   -3.0232   -3.6924    1.0038 H   0  0  0  0  0  0  0  0  0  0  0  0
   -3.0082   -2.6684    0.6318 C   0  0  0  0  0  0  0  0  0  0  0  0
   -3.6332   -2.0414    1.2658 H   0  0  0  0  0  0  0  0  0  0  0  0
   -3.3762   -2.6444   -0.3912 H   0  0  0  0  0  0  0  0  0  0  0  0
   -1.5882   -2.1554    0.6658 C   0  0  0  0  0  0  0  0  0  0  0  0
   -0.6832   -2.8764    1.0638 O   0  0  0  0  0  0  0  0  0  0  0  0
   -1.3952   -0.9084    0.2428 N   0  0  0  0  0  0  0  0  0  0  0  0
   -2.1972   -0.3644   -0.0422 H   0  0  0  0  0  0  0  0  0  0  0  0
   -0.1122   -0.1994    0.2658 C   0  0  1  0  0  0  0  0  0  0  0  0
    0.5635   -0.7260    0.9446 H   0  0  0  0  0  0  0  0  0  0  0  0
    0.4924   -0.2204   -1.1558 C   0  0  0  0  0  0  0  0  0  0  0  0
   -0.3145   -0.2550   -1.8869 H   0  0  0  0  0  0  0  0  0  0  0  0
    1.0619    0.6936   -1.3174 H   0  0  0  0  0  0  0  0  0  0  0  0
    1.3867   -1.4189   -1.4297 C   0  0  0  0  0  0  0  0  0  0  0  0
    1.8219   -2.1373   -0.5467 O   0  0  0  0  0  0  0  0  0  0  0  0
    1.7032   -1.6739   -2.6759 N   0  0  0  0  0  0  0  0  0  0  0  0
    2.2808   -2.4820   -2.8280 H   0  0  0  0  0  0  0  0  0  0  0  0
    1.3427   -1.1094   -3.4218 H   0  0  0  0  0  0  0  0  0  0  0  0
   -0.3126    1.2341    0.8050 C   0  0  0  0  0  0  0  0  0  0  0  0
   -1.2484    1.9199    0.3934 O   0  0  0  0  0  0  0  0  0  0  0  0
    0.5615    1.6875    1.7087 N   0  0  0  0  0  0  0  0  0  0  0  0
    1.3461    1.0849    1.9358 H   0  0  0  0  0  0  0  0  0  0  0  0
    0.5043    3.0121    2.3242 C   0  0  0  0  0  0  0  0  0  0  0  0
   -0.4649    3.1514    2.8080 H   0  0  0  0  0  0  0  0  0  0  0  0
    1.2959    3.1139    3.0678 H   0  0  0  0  0  0  0  0  0  0  0  0
    0.6273    3.7799    1.5584 H   0  0  0  0  0  0  0  0  0  0  0  0
  5  6  2  0  0  0  0
  5  7  1  0  0  0  0
  2  3  1  0  0  0  0
  2  4  1  0  0  0  0
  2  5  1  0  0  0  0
  1  2  1  0  0  0  0
 19 20  2  0  0  0  0
 19 21  1  0  0  0  0
 16 17  1  0  0  0  0
 16 18  1  0  0  0  0
 14 15  2  0  0  0  0
 14 16  1  0  0  0  0
 11 12  1  0  0  0  0
 11 13  1  0  0  0  0
 11 14  1  0  0  0  0
  9 10  1  0  0  0  0
  9 11  1  0  0  0  0
  9 19  1  0  0  0  0
  7  8  1  0  0  0  0
  7  9  1  0  0  0  0
 23 24  1  0  0  0  0
 23 25  1  0  0  0  0
 23 26  1  0  0  0  0
 21 22  1  0  0  0  0
 21 23  1  0  0  0  0
M  END
$$$$
default_name
  -OEChem-02102213163D

 26 25  0     1  0  0  0  0  0999 V2000
   -3.0232   -3.6924    1.0038 H   0  0  0  0  0  0  0  0  0  0  0  0
   -3.0082   -2.6684    0.6318 C   0  0  0  0  0  0  0  0  0  0  0  0
   -3.6332   -2.0414    1.2658 H   0  0  0  0  0  0  0  0  0  0  0  0
   -3.3762   -2.6444   -0.3912 H   0  0  0  0  0  0  0  0  0  0  0  0
   -1.5882   -2.1554    0.6658 C   0  0  0  0  0  0  0  0  0  0  0  0
   -0.6832   -2.8764    1.0638 O   0  0  0  0  0  0  0  0  0  0  0  0
   -1.3952   -0.9084    0.2428 N   0  0  0  0  0  0  0  0  0  0  0  0
   -2.1972   -0.3644   -0.0422 H   0  0  0  0  0  0  0  0  0  0  0  0
   -0.1122   -0.1994    0.2658 C   0  0  1  0  0  0  0  0  0  0  0  0
    0.5635   -0.7260    0.9446 H   0  0  0  0  0  0  0  0  0  0  0  0
    0.4924   -0.2204   -1.1558 C   0  0  0  0  0  0  0  0  0  0  0  0
   -0.3145   -0.2550   -1.8869 H   0  0  0  0  0  0  0  0  0  0  0  0
    1.0619    0.6936   -1.3174 H   0  0  0  0  0  0  0  0  0  0  0  0
    1.3867   -1.4189   -1.4297 C   0  0  0  0  0  0  0  0  0  0  0  0
    1.6068   -2.2854   -0.6014 O   0  0  0  0  0  0  0  0  0  0  0  0
    1.9471   -1.5067   -2.6115 N   0  0  0  0  0  0  0  0  0  0  0  0
    2.5184   -2.3179   -2.7697 H   0  0  0  0  0  0  0  0  0  0  0  0
    1.7668   -0.8170   -3.3164 H   0  0  0  0  0  0  0  0  0  0  0  0
   -0.3126    1.2341    0.8050 C   0  0  0  0  0  0  0  0  0  0  0  0
   -1.2484    1.9199    0.3934 O   0  0  0  0  0  0  0  0  0  0  0  0
    0.5615    1.6875    1.7087 N   0  0  0  0  0  0  0  0  0  0  0  0
    1.3461    1.0849    1.9358 H   0  0  0  0  0  0  0  0  0  0  0  0
    0.5043    3.0121    2.3242 C   0  0  0  0  0  0  0  0  0  0  0  0
   -0.4649    3.1514    2.8080 H   0  0  0  0  0  0  0  0  0  0  0  0
    1.2959    3.1139    3.0678 H   0  0  0  0  0  0  0  0  0  0  0  0
    0.6273    3.7799    1.5584 H   0  0  0  0  0  0  0  0  0  0  0  0
  5  6  2  0  0  0  0
  5  7  1  0  0  0  0
  2  3  1  0  0  0  0
  2  4  1  0  0  0  0
  2  5  1  0  0  0  0
  1  2  1  0  0  0  0
 19 20  2  0  0  0  0
 19 21  1  0  0  0  0
 16 17  1  0  0  0  0
 16 18  1  0  0  0  0
 14 15  2  0  0  0  0
 14 16  1  0  0  0  0
 11 12  1  0  0  0  0
 11 13  1  0  0  0  0
 11 14  1  0  0  0  0
  9 10  1  0  0  0  0
  9 11  1  0  0  0  0
  9 19  1  0  0  0  0
  7  8  1  0  0  0  0
  7  9  1  0  0  0  0
 23 24  1  0  0  0  0
 23 25  1  0  0  0  0
 23 26  1  0  0  0  0
 21 22  1  0  0  0  0
 21 23  1  0  0  0  0
M  END
$$$$
default_name
  -OEChem-02102213163D

 26 25  0     1  0  0  0  0  0999 V2000
   -3.0232   -3.6924    1.0038 H   0  0  0  0  0  0  0  0  0  0  0  0
   -3.0082   -2.6684    0.6318 C   0  0  0  0  0  0  0  0  0  0  0  0
   -3.6332   -2.0414    1.2658 H   0  0  0  0  0  0  0  0  0  0  0  0
   -3.3762   -2.6444   -0.3912 H   0  0  0  0  0  0  0  0  0  0  0  0
   -1.5882   -2.1554    0.6658 C   0  0  0  0  0  0  0  0  0  0  0  0
   -0.6832   -2.8764    1.0638 O   0  0  0  0  0  0  0  0  0  0  0  0
   -1.3952   -0.9084    0.2428 N   0  0  0  0  0  0  0  0  0  0  0  0
   -2.1972   -0.3644   -0.0422 H   0  0  0  0  0  0  0  0  0  0  0  0
   -0.1122   -0.1994    0.2658 C   0  0  1  0  0  0  0  0  0  0  0  0
    0.5635   -0.7260    0.9446 H   0  0  0  0  0  0  0  0  0  0  0  0
    0.4924   -0.2204   -1.1558 C   0  0  0  0  0  0  0  0  0  0  0  0
   -0.3145   -0.2550   -1.8869 H   0  0  0  0  0  0  0  0  0  0  0  0
    1.0619    0.6936   -1.3174 H   0  0  0  0  0  0  0  0  0  0  0  0
    1.3867   -1.4189   -1.4297 C   0  0  0  0  0  0  0  0  0  0  0  0
    1.4032   -2.4101   -0.7208 O   0  0  0  0  0  0  0  0  0  0  0  0
    2.1773   -1.3663   -2.4740 N   0  0  0  0  0  0  0  0  0  0  0  0
    2.7438   -2.1794   -2.6399 H   0  0  0  0  0  0  0  0  0  0  0  0
    2.1687   -0.5704   -3.0834 H   0  0  0  0  0  0  0  0  0  0  0  0
   -0.3126    1.2341    0.8050 C   0  0  0  0  0  0  0  0  0  0  0  0
   -1.2484    1.9199    0.3934 O   0  0  0  0  0  0  0  0  0  0  0  0
    0.5615    1.6875    1.7087 N   0  0  0  0  0  0  0  0  0  0  0  0
    1.3461    1.0849    1.9358 H   0  0  0  0  0  0  0  0  0  0  0  0
    0.5043    3.0121    2.3242 C   0  0  0  0  0  0  0  0  0  0  0  0
   -0.4649    3.1514    2.8080 H   0  0  0  0  0  0  0  0  0  0  0  0
    1.2959    3.1139    3.0678 H   0  0  0  0  0  0  0  0  0  0  0  0
    0.6273    3.7799    1.5584 H   0  0  0  0  0  0  0  0  0  0  0  0
  5  6  2  0  0  0  0
  5  7  1  0  0  0  0
  2  3  1  0  0  0  0
  2  4  1  0  0  0  0
  2  5  1  0  0  0  0
  1  2  1  0  0  0  0
 19 20  2  0  0  0  0
 19 21  1  0  0  0  0
 16 17  1  0  0  0  0
 16 18  1  0  0  0  0
 14 15  2  0  0  0  0
 14 16  1  0  0  0  0
 11 12  1  0  0  0  0
 11 13  1  0  0  0  0
 11 14  1  0  0  0  0
  9 10  1  0  0  0  0
  9 11  1  0  0  0  0
  9 19  1  0  0  0  0
  7  8  1  0  0  0  0
  7  9  1  0  0  0  0
 23 24  1  0  0  0  0
 23 25  1  0  0  0  0
 23 26  1  0  0  0  0
 21 22  1  0  0  0  0
 21 23  1  0  0  0  0
M  END
$$$$
default_name
  -OEChem-02102213163D

 26 25  0     1  0  0  0  0  0999 V2000
   -3.0232   -3.6924    1.0038 H   0  0  0  0  0  0  0  0  0  0  0  0
   -3.0082   -2.6684    0.6318 C   0  0  0  0  0  0  0  0  0  0  0  0
   -3.6332   -2.0414    1.2658 H   0  0  0  0  0  0  0  0  0  0  0  0
   -3.3762   -2.6444   -0.3912 H   0  0  0  0  0  0  0  0  0  0  0  0
   -1.5882   -2.1554    0.6658 C   0  0  0  0  0  0  0  0  0  0  0  0
   -0.6832   -2.8764    1.0638 O   0  0  0  0  0  0  0  0  0  0  0  0
   -1.3952   -0.9084    0.2428 N   0  0  0  0  0  0  0  0  0  0  0  0
   -2.1972   -0.3644   -0.0422 H   0  0  0  0  0  0  0  0  0  0  0  0
   -0.1122   -0.1994    0.2658 C   0  0  1  0  0  0  0  0  0  0  0  0
    0.5635   -0.7260    0.9446 H   0  0  0  0  0  0  0  0  0  0  0  0
    0.4924   -0.2204   -1.1558 C   0  0  0  0  0  0  0  0  0  0  0  0
   -0.3145   -0.2550   -1.8869 H   0  0  0  0  0  0  0  0  0  0  0  0
    1.0619    0.6936   -1.3174 H   0  0  0  0  0  0  0  0  0  0  0  0
    1.3867   -1.4189   -1.4297 C   0  0  0  0  0  0  0  0  0  0  0  0
    1.2251   -2.5028   -0.8966 O   0  0  0  0  0  0  0  0  0  0  0  0
    2.3781   -1.2624   -2.2728 N   0  0  0  0  0  0  0  0  0  0  0  0
    2.9414   -2.0759   -2.4475 H   0  0  0  0  0  0  0  0  0  0  0  0
    2.5208   -0.3863   -2.7389 H   0  0  0  0  0  0  0  0  0  0  0  0
   -0.3126    1.2341    0.8050 C   0  0  0  0  0  0  0  0  0  0  0  0
   -1.2484    1.9199    0.3934 O   0  0  0  0  0  0  0  0  0  0  0  0
    0.5615    1.6875    1.7087 N   0  0  0  0  0  0  0  0  0  0  0  0
    1.3461    1.0849    1.9358 H   0  0  0  0  0  0  0  0  0  0  0  0
    0.5043    3.0121    2.3242 C   0  0  0  0  0  0  0  0  0  0  0  0
   -0.4649    3.1514    2.8080 H   0  0  0  0  0  0  0  0  0  0  0  0
    1.2959    3.1139    3.0678 H   0  0  0  0  0  0  0  0  0  0  0  0
    0.6273    3.7799    1.5584 H   0  0  0  0  0  0  0  0  0  0  0  0
  5  6  2  0  0  0  0
  5  7  1  0  0  0  0
  2  3  1  0  0  0  0
  2  4  1  0  0  0  0
  2  5  1  0  0  0  0
  1  2  1  0  0  0  0
 19 20  2  0  0  0  0
 19 21  1  0  0  0  0
 16 17  1  0  0  0  0
 16 18  1  0  0  0  0
 14 15  2  0  0  0  0
 14 16  1  0  0  0  0
 11 12  1  0  0  0  0
 11 13  1  0  0  0  0
 11 14  1  0  0  0  0
  9 10  1  0  0  0  0
  9 11  1  0  0  0  0
  9 19  1  0  0  0  0
  7  8  1  0  0  0  0
  7  9  1  0  0  0  0
 23 24  1  0  0  0  0
 23 25  1  0  0  0  0
 23 26  1  0  0  0  0
 21 22  1  0  0  0  0
 21 23  1  0  0  0  0
M  END
$$$$
default_name
  -OEChem-02102213163D

 26 25  0     1  0  0  0  0  0999 V2000
   -3.0232   -3.6924    1.0038 H   0  0  0  0  0  0  0  0  0  0  0  0
   -3.0082   -2.6684    0.6318 C   0  0  0  0  0  0  0  0  0  0  0  0
   -3.6332   -2.0414    1.2658 H   0  0  0  0  0  0  0  0  0  0  0  0
   -3.3762   -2.6444   -0.3912 H   0  0  0  0  0  0  0  0  0  0  0  0
   -1.5882   -2.1554    0.6658 C   0  0  0  0  0  0  0  0  0  0  0  0
   -0.6832   -2.8764    1.0638 O   0  0  0  0  0  0  0  0  0  0  0  0
   -1.3952   -0.9084    0.2428 N   0  0  0  0  0  0  0  0  0  0  0  0
   -2.1972   -0.3644   -0.0422 H   0  0  0  0  0  0  0  0  0  0  0  0
   -0.1122   -0.1994    0.2658 C   0  0  1  0  0  0  0  0  0  0  0  0
    0.5635   -0.7260    0.9446 H   0  0  0  0  0  0  0  0  0  0  0  0
    0.4924   -0.2204   -1.1558 C   0  0  0  0  0  0  0  0  0  0  0  0
   -0.3145   -0.2550   -1.8869 H   0  0  0  0  0  0  0  0  0  0  0  0
    1.0619    0.6936   -1.3174 H   0  0  0  0  0  0  0  0  0  0  0  0
    1.3867   -1.4189   -1.4297 C   0  0  0  0  0  0  0  0  0  0  0  0
    1.0846   -2.5573   -1.1168 O   0  0  0  0  0  0  0  0  0  0  0  0
    2.5359   -1.2020   -2.0218 N   0  0  0  0  0  0  0  0  0  0  0  0
    3.0979   -2.0145   -2.2055 H   0  0  0  0  0  0  0  0  0  0  0  0
    2.7993   -0.2774   -2.3062 H   0  0  0  0  0  0  0  0  0  0  0  0
   -0.3126    1.2341    0.8050 C   0  0  0  0  0  0  0  0  0  0  0  0
   -1.2484    1.9199    0.3934 O   0  0  0  0  0  0  0  0  0  0  0  0
    0.5615    1.6875    1.7087 N   0  0  0  0  0  0  0  0  0  0  0  0
    1.3461    1.0849    1.9358 H   0  0  0  0  0  0  0  0  0  0  0  0
    0.5043    3.0121    2.3242 C   0  0  0  0  0  0  0  0  0  0  0  0
   -0.4649    3.1514    2.8080 H   0  0  0  0  0  0  0  0  0  0  0  0
    1.2959    3.1139    3.0678 H   0  0  0  0  0  0  0  0  0  0  0  0
    0.6273    3.7799    1.5584 H   0  0  0  0  0  0  0  0  0  0  0  0
  5  6  2  0  0  0  0
  5  7  1  0  0  0  0
  2  3  1  0  0  0  0
  2  4  1  0  0  0  0
  2  5  1  0  0  0  0
  1  2  1  0  0  0  0
 19 20  2  0  0  0  0
 19 21  1  0  0  0  0
 16 17  1  0  0  0  0
 16 18  1  0  0  0  0
 14 15  2  0  0  0  0
 14 16  1  0  0  0  0
 11 12  1  0  0  0  0
 11 13  1  0  0  0  0
 11 14  1  0  0  0  0
  9 10  1  0  0  0  0
  9 11  1  0  0  0  0
  9 19  1  0  0  0  0
  7  8  1  0  0  0  0
  7  9  1  0  0  0  0
 23 24  1  0  0  0  0
 23 25  1  0  0  0  0
 23 26  1  0  0  0  0
 21 22  1  0  0  0  0
 21 23  1  0  0  0  0
M  END
$$$$
default_name
  -OEChem-02102213163D

 26 25  0     1  0  0  0  0  0999 V2000
   -3.0232   -3.6924    1.0038 H   0  0  0  0  0  0  0  0  0  0  0  0
   -3.0082   -2.6684    0.6318 C   0  0  0  0  0  0  0  0  0  0  0  0
   -3.6332   -2.0414    1.2658 H   0  0  0  0  0  0  0  0  0  0  0  0
   -3.3762   -2.6444   -0.3912 H   0  0  0  0  0  0  0  0  0  0  0  0
   -1.5882   -2.1554    0.6658 C   0  0  0  0  0  0  0  0  0  0  0  0
   -0.6832   -2.8764    1.0638 O   0  0  0  0  0  0  0  0  0  0  0  0
   -1.3952   -0.9084    0.2428 N   0  0  0  0  0  0  0  0  0  0  0  0
   -2.1972   -0.3644   -0.0422 H   0  0  0  0  0  0  0  0  0  0  0  0
   -0.1122   -0.1994    0.2658 C   0  0  1  0  0  0  0  0  0  0  0  0
    0.5635   -0.7260    0.9446 H   0  0  0  0  0  0  0  0  0  0  0  0
    0.4924   -0.2204   -1.1558 C   0  0  0  0  0  0  0  0  0  0  0  0
   -0.3145   -0.2550   -1.8869 H   0  0  0  0  0  0  0  0  0  0  0  0
    1.0619    0.6936   -1.3174 H   0  0  0  0  0  0  0  0  0  0  0  0
    1.3867   -1.4189   -1.4297 C   0  0  0  0  0  0  0  0  0  0  0  0
    0.9912   -2.5699   -1.3665 O   0  0  0  0  0  0  0  0  0  0  0  0
    2.6400   -1.1892   -1.7378 N   0  0  0  0  0  0  0  0  0  0  0  0
    3.2025   -1.9992   -1.9306 H   0  0  0  0  0  0  0  0  0  0  0  0
    2.9850   -0.2511   -1.8149 H   0  0  0  0  0  0  0  0  0  0  0  0
   -0.3126    1.2341    0.8050 C   0  0  0  0  0  0  0  0  0  0  0  0
   -1.2484    1.9199    0.3934 O   0  0  0  0  0  0  0  0  0  0  0  0
    0.5615    1.6875    1.7087 N   0  0  0  0  0  0  0  0  0  0  0  0
    1.3461    1.0849    1.9358 H   0  0  0  0  0  0  0  0  0  0  0  0
    0.5043    3.0121    2.3242 C   0  0  0  0  0  0  0  0  0  0  0  0
   -0.4649    3.1514    2.8080 H   0  0  0  0  0  0  0  0  0  0  0  0
    1.2959    3.1139    3.0678 H   0  0  0  0  0  0  0  0  0  0  0  0
    0.6273    3.7799    1.5584 H   0  0  0  0  0  0  0  0  0  0  0  0
  5  6  2  0  0  0  0
  5  7  1  0  0  0  0
  2  3  1  0  0  0  0
  2  4  1  0  0  0  0
  2  5  1  0  0  0  0
  1  2  1  0  0  0  0
 19 20  2  0  0  0  0
 19 21  1  0  0  0  0
 16 17  1  0  0  0  0
 16 18  1  0  0  0  0
 14 15  2  0  0  0  0
 14 16  1  0  0  0  0
 11 12  1  0  0  0  0
 11 13  1  0  0  0  0
 11 14  1  0  0  0  0
  9 10  1  0  0  0  0
  9 11  1  0  0  0  0
  9 19  1  0  0  0  0
  7  8  1  0  0  0  0
  7  9  1  0  0  0  0
 23 24  1  0  0  0  0
 23 25  1  0  0  0  0
 23 26  1  0  0  0  0
 21 22  1  0  0  0  0
 21 23  1  0  0  0  0
M  END
$$$$
default_name
  -OEChem-02102213163D

 26 25  0     1  0  0  0  0  0999 V2000
   -3.0232   -3.6924    1.0038 H   0  0  0  0  0  0  0  0  0  0  0  0
   -3.0082   -2.6684    0.6318 C   0  0  0  0  0  0  0  0  0  0  0  0
   -3.6332   -2.0414    1.2658 H   0  0  0  0  0  0  0  0  0  0  0  0
   -3.3762   -2.6444   -0.3912 H   0  0  0  0  0  0  0  0  0  0  0  0
   -1.5882   -2.1554    0.6658 C   0  0  0  0  0  0  0  0  0  0  0  0
   -0.6832   -2.8764    1.0638 O   0  0  0  0  0  0  0  0  0  0  0  0
   -1.3952   -0.9084    0.2428 N   0  0  0  0  0  0  0  0  0  0  0  0
   -2.1972   -0.3644   -0.0422 H   0  0  0  0  0  0  0  0  0  0  0  0
   -0.1122   -0.1994    0.2658 C   0  0  1  0  0  0  0  0  0  0  0  0
    0.5635   -0.7260    0.9446 H   0  0  0  0  0  0  0  0  0  0  0  0
    0.4924   -0.2204   -1.1558 C   0  0  0  0  0  0  0  0  0  0  0  0
   -0.3145   -0.2550   -1.8869 H   0  0  0  0  0  0  0  0  0  0  0  0
    1.0619    0.6936   -1.3174 H   0  0  0  0  0  0  0  0  0  0  0  0
    1.3867   -1.4189   -1.4297 C   0  0  0  0  0  0  0  0  0  0  0  0
    0.9515   -2.5397   -1.6287 O   0  0  0  0  0  0  0  0  0  0  0  0
    2.6831   -1.2250   -1.4404 N   0  0  0  0  0  0  0  0  0  0  0  0
    3.2482   -2.0312   -1.6413 H   0  0  0  0  0  0  0  0  0  0  0  0
    3.0653   -0.3092   -1.2984 H   0  0  0  0  0  0  0  0  0  0  0  0
   -0.3126    1.2341    0.8050 C   0  0  0  0  0  0  0  0  0  0  0  0
   -1.2484    1.9199    0.3934 O   0  0  0  0  0  0  0  0  0  0  0  0
    0.5615    1.6875    1.7087 N   0  0  0  0  0  0  0  0  0  0  0  0
    1.3461    1.0849    1.9358 H   0  0  0  0  0  0  0  0  0  0  0  0
    0.5043    3.0121    2.3242 C   0  0  0  0  0  0  0  0  0  0  0  0
   -0.4649    3.1514    2.8080 H   0  0  0  0  0  0  0  0  0  0  0  0
    1.2959    3.1139    3.0678 H   0  0  0  0  0  0  0  0  0  0  0  0
    0.6273    3.7799    1.5584 H   0  0  0  0  0  0  0  0  0  0  0  0
  5  6  2  0  0  0  0
  5  7  1  0  0  0  0
  2  3  1  0  0  0  0
  2  4  1  0  0  0  0
  2  5  1  0  0  0  0
  1  2  1  0  0  0  0
 19 20  2  0  0  0  0
 19 21  1  0  0  0  0
 16 17  1  0  0  0  0
 16 18  1  0  0  0  0
 14 15  2  0  0  0  0
 14 16  1  0  0  0  0
 11 12  1  0  0  0  0
 11 13  1  0  0  0  0
 11 14  1  0  0  0  0
  9 10  1  0  0  0  0
  9 11  1  0  0  0  0
  9 19  1  0  0  0  0
  7  8  1  0  0  0  0
  7  9  1  0  0  0  0
 23 24  1  0  0  0  0
 23 25  1  0  0  0  0
 23 26  1  0  0  0  0
 21 22  1  0  0  0  0
 21 23  1  0  0  0  0
M  END
$$$$
default_name
  -OEChem-02102213163D

 26 25  0     1  0  0  0  0  0999 V2000
   -3.0232   -3.6924    1.0038 H   0  0  0  0  0  0  0  0  0  0  0  0
   -3.0082   -2.6684    0.6318 C   0  0  0  0  0  0  0  0  0  0  0  0
   -3.6332   -2.0414    1.2658 H   0  0  0  0  0  0  0  0  0  0  0  0
   -3.3762   -2.6444   -0.3912 H   0  0  0  0  0  0  0  0  0  0  0  0
   -1.5882   -2.1554    0.6658 C   0  0  0  0  0  0  0  0  0  0  0  0
   -0.6832   -2.8764    1.0638 O   0  0  0  0  0  0  0  0  0  0  0  0
   -1.3952   -0.9084    0.2428 N   0  0  0  0  0  0  0  0  0  0  0  0
   -2.1972   -0.3644   -0.0422 H   0  0  0  0  0  0  0  0  0  0  0  0
   -0.1122   -0.1994    0.2658 C   0  0  1  0  0  0  0  0  0  0  0  0
    0.5635   -0.7260    0.9446 H   0  0  0  0  0  0  0  0  0  0  0  0
    0.4924   -0.2204   -1.1558 C   0  0  0  0  0  0  0  0  0  0  0  0
   -0.3145   -0.2550   -1.8869 H   0  0  0  0  0  0  0  0  0  0  0  0
    1.0619    0.6936   -1.3174 H   0  0  0  0  0  0  0  0  0  0  0  0
    1.3867   -1.4189   -1.4297 C   0  0  0  0  0  0  0  0  0  0  0  0
    0.9680   -2.4687   -1.8854 O   0  0  0  0  0  0  0  0  0  0  0  0
    2.6624   -1.3068   -1.1498 N   0  0  0  0  0  0  0  0  0  0  0  0
    3.2318   -2.1084   -1.3574 H   0  0  0  0  0  0  0  0  0  0  0  0
    3.0349   -0.4476   -0.7920 H   0  0  0  0  0  0  0  0  0  0  0  0
   -0.3126    1.2341    0.8050 C   0  0  0  0  0  0  0  0  0  0  0  0
   -1.2484    1.9199    0.3934 O   0  0  0  0  0  0  0  0  0  0  0  0
    0.5615    1.6875    1.7087 N   0  0  0  0  0  0  0  0  0  0  0  0
    1.3461    1.0849    1.9358 H   0  0  0  0  0  0  0  0  0  0  0  0
    0.5043    3.0121    2.3242 C   0  0  0  0  0  0  0  0  0  0  0  0
   -0.4649    3.1514    2.8080 H   0  0  0  0  0  0  0  0  0  0  0  0
    1.2959    3.1139    3.0678 H   0  0  0  0  0  0  0  0  0  0  0  0
    0.6273    3.7799    1.5584 H   0  0  0  0  0  0  0  0  0  0  0  0
  5  6  2  0  0  0  0
  5  7  1  0  0  0  0
  2  3  1  0  0  0  0
  2  4  1  0  0  0  0
  2  5  1  0  0  0  0
  1  2  1  0  0  0  0
 19 20  2  0  0  0  0
 19 21  1  0  0  0  0
 16 17  1  0  0  0  0
 16 18  1  0  0  0  0
 14 15  2  0  0  0  0
 14 16  1  0  0  0  0
 11 12  1  0  0  0  0
 11 13  1  0  0  0  0
 11 14  1  0  0  0  0
  9 10  1  0  0  0  0
  9 11  1  0  0  0  0
  9 19  1  0  0  0  0
  7  8  1  0  0  0  0
  7  9  1  0  0  0  0
 23 24  1  0  0  0  0
 23 25  1  0  0  0  0
 23 26  1  0  0  0  0
 21 22  1  0  0  0  0
 21 23  1  0  0  0  0
M  END
$$$$
default_name
  -OEChem-02102213163D

 26 25  0     1  0  0  0  0  0999 V2000
   -3.0232   -3.6924    1.0038 H   0  0  0  0  0  0  0  0  0  0  0  0
   -3.0082   -2.6684    0.6318 C   0  0  0  0  0  0  0  0  0  0  0  0
   -3.6332   -2.0414    1.2658 H   0  0  0  0  0  0  0  0  0  0  0  0
   -3.3762   -2.6444   -0.3912 H   0  0  0  0  0  0  0  0  0  0  0  0
   -1.5882   -2.1554    0.6658 C   0  0  0  0  0  0  0  0  0  0  0  0
   -0.6832   -2.8764    1.0638 O   0  0  0  0  0  0  0  0  0  0  0  0
   -1.3952   -0.9084    0.2428 N   0  0  0  0  0  0  0  0  0  0  0  0
   -2.1972   -0.3644   -0.0422 H   0  0  0  0  0  0  0  0  0  0  0  0
   -0.1122   -0.1994    0.2658 C   0  0  1  0  0  0  0  0  0  0  0  0
    0.5635   -0.7260    0.9446 H   0  0  0  0  0  0  0  0  0  0  0  0
    0.4924   -0.2204   -1.1558 C   0  0  0  0  0  0  0  0  0  0  0  0
   -0.3145   -0.2550   -1.8869 H   0  0  0  0  0  0  0  0  0  0  0  0
    1.0619    0.6936   -1.3174 H   0  0  0  0  0  0  0  0  0  0  0  0
    1.3867   -1.4189   -1.4297 C   0  0  0  0  0  0  0  0  0  0  0  0
    1.0396   -2.3618   -2.1193 O   0  0  0  0  0  0  0  0  0  0  0  0
    2.5793   -1.4292   -0.8857 N   0  0  0  0  0  0  0  0  0  0  0  0
    3.1544   -2.2253   -1.0983 H   0  0  0  0  0  0  0  0  0  0  0  0
    2.8957   -0.6570   -0.3301 H   0  0  0  0  0  0  0  0  0  0  0  0
   -0.3126    1.2341    0.8050 C   0  0  0  0  0  0  0  0  0  0  0  0
   -1.2484    1.9199    0.3934 O   0  0  0  0  0  0  0  0  0  0  0  0
    0.5615    1.6875    1.7087 N   0  0  0  0  0  0  0  0  0  0  0  0
    1.3461    1.0849    1.9358 H   0  0  0  0  0  0  0  0  0  0  0  0
    0.5043    3.0121    2.3242 C   0  0  0  0  0  0  0  0  0  0  0  0
   -0.4649    3.1514    2.8080 H   0  0  0  0  0  0  0  0  0  0  0  0
    1.2959    3.1139    3.0678 H   0  0  0  0  0  0  0  0  0  0  0  0
    0.6273    3.7799    1.5584 H   0  0  0  0  0  0  0  0  0  0  0  0
  5  6  2  0  0  0  0
  5  7  1  0  0  0  0
  2  3  1  0  0  0  0
  2  4  1  0  0  0  0
  2  5  1  0  0  0  0
  1  2  1  0  0  0  0
 19 20  2  0  0  0  0
 19 21  1  0  0  0  0
 16 17  1  0  0  0  0
 16 18  1  0  0  0  0
 14 15  2  0  0  0  0
 14 16  1  0  0  0  0
 11 12  1  0  0  0  0
 11 13  1  0  0  0  0
 11 14  1  0  0  0  0
  9 10  1  0  0  0  0
  9 11  1  0  0  0  0
  9 19  1  0  0  0  0
  7  8  1  0  0  0  0
  7  9  1  0  0  0  0
 23 24  1  0  0  0  0
 23 25  1  0  0  0  0
 23 26  1  0  0  0  0
 21 22  1  0  0  0  0
 21 23  1  0  0  0  0
M  END
$$$$
default_name
  -OEChem-02102213163D

 26 25  0     1  0  0  0  0  0999 V2000
   -3.0232   -3.6924    1.0038 H   0  0  0  0  0  0  0  0  0  0  0  0
   -3.0082   -2.6684    0.6318 C   0  0  0  0  0  0  0  0  0  0  0  0
   -3.6332   -2.0414    1.2658 H   0  0  0  0  0  0  0  0  0  0  0  0
   -3.3762   -2.6444   -0.3912 H   0  0  0  0  0  0  0  0  0  0  0  0
   -1.5882   -2.1554    0.6658 C   0  0  0  0  0  0  0  0  0  0  0  0
   -0.6832   -2.8764    1.0638 O   0  0  0  0  0  0  0  0  0  0  0  0
   -1.3952   -0.9084    0.2428 N   0  0  0  0  0  0  0  0  0  0  0  0
   -2.1972   -0.3644   -0.0422 H   0  0  0  0  0  0  0  0  0  0  0  0
   -0.1122   -0.1994    0.2658 C   0  0  1  0  0  0  0  0  0  0  0  0
    0.5635   -0.7260    0.9446 H   0  0  0  0  0  0  0  0  0  0  0  0
    0.4924   -0.2204   -1.1558 C   0  0  0  0  0  0  0  0  0  0  0  0
   -0.3145   -0.2550   -1.8869 H   0  0  0  0  0  0  0  0  0  0  0  0
    1.0619    0.6936   -1.3174 H   0  0  0  0  0  0  0  0  0  0  0  0
    1.3867   -1.4189   -1.4297 C   0  0  0  0  0  0  0  0  0  0  0  0
    1.1614   -2.2264   -2.3142 O   0  0  0  0  0  0  0  0  0  0  0  0
    2.4395   -1.5837   -0.6662 N   0  0  0  0  0  0  0  0  0  0  0  0
    3.0213   -2.3741   -0.8816 H   0  0  0  0  0  0  0  0  0  0  0  0
    2.6572   -0.9231    0.0558 H   0  0  0  0  0  0  0  0  0  0  0  0
   -0.3126    1.2341    0.8050 C   0  0  0  0  0  0  0  0  0  0  0  0
   -1.2484    1.9199    0.3934 O   0  0  0  0  0  0  0  0  0  0  0  0
    0.5615    1.6875    1.7087 N   0  0  0  0  0  0  0  0  0  0  0  0
    1.3461    1.0849    1.9358 H   0  0  0  0  0  0  0  0  0  0  0  0
    0.5043    3.0121    2.3242 C   0  0  0  0  0  0  0  0  0  0  0  0
   -0.4649    3.1514    2.8080 H   0  0  0  0  0  0  0  0  0  0  0  0
    1.2959    3.1139    3.0678 H   0  0  0  0  0  0  0  0  0  0  0  0
    0.6273    3.7799    1.5584 H   0  0  0  0  0  0  0  0  0  0  0  0
  5  6  2  0  0  0  0
  5  7  1  0  0  0  0
  2  3  1  0  0  0  0
  2  4  1  0  0  0  0
  2  5  1  0  0  0  0
  1  2  1  0  0  0  0
 19 20  2  0  0  0  0
 19 21  1  0  0  0  0
 16 17  1  0  0  0  0
 16 18  1  0  0  0  0
 14 15  2  0  0  0  0
 14 16  1  0  0  0  0
 11 12  1  0  0  0  0
 11 13  1  0  0  0  0
 11 14  1  0  0  0  0
  9 10  1  0  0  0  0
  9 11  1  0  0  0  0
  9 19  1  0  0  0  0
  7  8  1  0  0  0  0
  7  9  1  0  0  0  0
 23 24  1  0  0  0  0
 23 25  1  0  0  0  0
 23 26  1  0  0  0  0
 21 22  1  0  0  0  0
 21 23  1  0  0  0  0
M  END
$$$$
default_name
  -OEChem-02102213163D

 26 25  0     1  0  0  0  0  0999 V2000
   -3.0232   -3.6924    1.0038 H   0  0  0  0  0  0  0  0  0  0  0  0
   -3.0082   -2.6684    0.6318 C   0  0  0  0  0  0  0  0  0  0  0  0
   -3.6332   -2.0414    1.2658 H   0  0  0  0  0  0  0  0  0  0  0  0
   -3.3762   -2.6444   -0.3912 H   0  0  0  0  0  0  0  0  0  0  0  0
   -1.5882   -2.1554    0.6658 C   0  0  0  0  0  0  0  0  0  0  0  0
   -0.6832   -2.8764    1.0638 O   0  0  0  0  0  0  0  0  0  0  0  0
   -1.3952   -0.9084    0.2428 N   0  0  0  0  0  0  0  0  0  0  0  0
   -2.1972   -0.3644   -0.0422 H   0  0  0  0  0  0  0  0  0  0  0  0
   -0.1122   -0.1994    0.2658 C   0  0  1  0  0  0  0  0  0  0  0  0
    0.5635   -0.7260    0.9446 H   0  0  0  0  0  0  0  0  0  0  0  0
    0.4924   -0.2204   -1.1558 C   0  0  0  0  0  0  0  0  0  0  0  0
   -0.3145   -0.2550   -1.8869 H   0  0  0  0  0  0  0  0  0  0  0  0
    1.0619    0.6936   -1.3174 H   0  0  0  0  0  0  0  0  0  0  0  0
    1.3867   -1.4189   -1.4297 C   0  0  0  0  0  0  0  0  0  0  0  0
    1.3253   -2.0715   -2.4571 O   0  0  0  0  0  0  0  0  0  0  0  0
    2.2524   -1.7598   -0.5063 N   0  0  0  0  0  0  0  0  0  0  0  0
    2.8417   -2.5446   -0.7221 H   0  0  0  0  0  0  0  0  0  0  0  0
    2.3357   -1.2278    0.3393 H   0  0  0  0  0  0  0  0  0  0  0  0
   -0.3126    1.2341    0.8050 C   0  0  0  0  0  0  0  0  0  0  0  0
   -1.2484    1.9199    0.3934 O   0  0  0  0  0  0  0  0  0  0  0  0
    0.5615    1.6875    1.7087 N   0  0  0  0  0  0  0  0  0  0  0  0
    1.3461    1.0849    1.9358 H   0  0  0  0  0  0  0  0  0  0  0  0
    0.5043    3.0121    2.3242 C   0  0  0  0  0  0  0  0  0  0  0  0
   -0.4649    3.1514    2.8080 H   0  0  0  0  0  0  0  0  0  0  0  0
    1.2959    3.1139    3.0678 H   0  0  0  0  0  0  0  0  0  0  0  0
    0.6273    3.7799    1.5584 H   0  0  0  0  0  0  0  0  0  0  0  0
  5  6  2  0  0  0  0
  5  7  1  0  0  0  0
  2  3  1  0  0  0  0
  2  4  1  0  0  0  0
  2  5  1  0  0  0  0
  1  2  1  0  0  0  0
 19 20  2  0  0  0  0
 19 21  1  0  0  0  0
 16 17  1  0  0  0  0
 16 18  1  0  0  0  0
 14 15  2  0  0  0  0
 14 16  1  0  0  0  0
 11 12  1  0  0  0  0
 11 13  1  0  0  0  0
 11 14  1  0  0  0  0
  9 10  1  0  0  0  0
  9 11  1  0  0  0  0
  9 19  1  0  0  0  0
  7  8  1  0  0  0  0
  7  9  1  0  0  0  0
 23 24  1  0  0  0  0
 23 25  1  0  0  0  0
 23 26  1  0  0  0  0
 21 22  1  0  0  0  0
 21 23  1  0  0  0  0
M  END
$$$$
default_name
  -OEChem-02102213163D

 26 25  0     1  0  0  0  0  0999 V2000
   -3.0232   -3.6924    1.0038 H   0  0  0  0  0  0  0  0  0  0  0  0
   -3.0082   -2.6684    0.6318 C   0  0  0  0  0  0  0  0  0  0  0  0
   -3.6332   -2.0414    1.2658 H   0  0  0  0  0  0  0  0  0  0  0  0
   -3.3762   -2.6444   -0.3912 H   0  0  0  0  0  0  0  0  0  0  0  0
   -1.5882   -2.1554    0.6658 C   0  0  0  0  0  0  0  0  0  0  0  0
   -0.6832   -2.8764    1.0638 O   0  0  0  0  0  0  0  0  0  0  0  0
   -1.3952   -0.9084    0.2428 N   0  0  0  0  0  0  0  0  0  0  0  0
   -2.1972   -0.3644   -0.0422 H   0  0  0  0  0  0  0  0  0  0  0  0
   -0.1122   -0.1994    0.2658 C   0  0  1  0  0  0  0  0  0  0  0  0
    0.5635   -0.7260    0.9446 H   0  0  0  0  0  0  0  0  0  0  0  0
    0.4924   -0.2204   -1.1558 C   0  0  0  0  0  0  0  0  0  0  0  0
   -0.3145   -0.2550   -1.8869 H   0  0  0  0  0  0  0  0  0  0  0  0
    1.0619    0.6936   -1.3174 H   0  0  0  0  0  0  0  0  0  0  0  0
    1.3867   -1.4189   -1.4297 C   0  0  0  0  0  0  0  0  0  0  0  0
    1.5199   -1.9078   -2.5380 O   0  0  0  0  0  0  0  0  0  0  0  0
    2.0309   -1.9456   -0.4168 N   0  0  0  0  0  0  0  0  0  0  0  0
    2.6276   -2.7252   -0.6307 H   0  0  0  0  0  0  0  0  0  0  0  0
    1.9531   -1.5503    0.5012 H   0  0  0  0  0  0  0  0  0  0  0  0
   -0.3126    1.2341    0.8050 C   0  0  0  0  0  0  0  0  0  0  0  0
   -1.2484    1.9199    0.3934 O   0  0  0  0  0  0  0  0  0  0  0  0
    0.5615    1.6875    1.7087 N   0  0  0  0  0  0  0  0  0  0  0  0
    1.3461    1.0849    1.9358 H   0  0  0  0  0  0  0  0  0  0  0  0
    0.5043    3.0121    2.3242 C   0  0  0  0  0  0  0  0  0  0  0  0
   -0.4649    3.1514    2.8080 H   0  0  0  0  0  0  0  0  0  0  0  0
    1.2959    3.1139    3.0678 H   0  0  0  0  0  0  0  0  0  0  0  0
    0.6273    3.7799    1.5584 H   0  0  0  0  0  0  0  0  0  0  0  0
  5  6  2  0  0  0  0
  5  7  1  0  0  0  0
  2  3  1  0  0  0  0
  2  4  1  0  0  0  0
  2  5  1  0  0  0  0
  1  2  1  0  0  0  0
 19 20  2  0  0  0  0
 19 21  1  0  0  0  0
 16 17  1  0  0  0  0
 16 18  1  0  0  0  0
 14 15  2  0  0  0  0
 14 16  1  0  0  0  0
 11 12  1  0  0  0  0
 11 13  1  0  0  0  0
 11 14  1  0  0  0  0
  9 10  1  0  0  0  0
  9 11  1  0  0  0  0
  9 19  1  0  0  0  0
  7  8  1  0  0  0  0
  7  9  1  0  0  0  0
 23 24  1  0  0  0  0
 23 25  1  0  0  0  0
 23 26  1  0  0  0  0
 21 22  1  0  0  0  0
 21 23  1  0  0  0  0
M  END
$$$$
default_name
  -OEChem-02102213163D

 26 25  0     1  0  0  0  0  0999 V2000
   -3.0232   -3.6924    1.0038 H   0  0  0  0  0  0  0  0  0  0  0  0
   -3.0082   -2.6684    0.6318 C   0  0  0  0  0  0  0  0  0  0  0  0
   -3.6332   -2.0414    1.2658 H   0  0  0  0  0  0  0  0  0  0  0  0
   -3.3762   -2.6444   -0.3912 H   0  0  0  0  0  0  0  0  0  0  0  0
   -1.5882   -2.1554    0.6658 C   0  0  0  0  0  0  0  0  0  0  0  0
   -0.6832   -2.8764    1.0638 O   0  0  0  0  0  0  0  0  0  0  0  0
   -1.3952   -0.9084    0.2428 N   0  0  0  0  0  0  0  0  0  0  0  0
   -2.1972   -0.3644   -0.0422 H   0  0  0  0  0  0  0  0  0  0  0  0
   -0.1122   -0.1994    0.2658 C   0  0  1  0  0  0  0  0  0  0  0  0
    0.5635   -0.7260    0.9446 H   0  0  0  0  0  0  0  0  0  0  0  0
    0.4924   -0.2204   -1.1558 C   0  0  0  0  0  0  0  0  0  0  0  0
   -0.3145   -0.2550   -1.8869 H   0  0  0  0  0  0  0  0  0  0  0  0
    1.0619    0.6936   -1.3174 H   0  0  0  0  0  0  0  0  0  0  0  0
    1.3867   -1.4189   -1.4297 C   0  0  0  0  0  0  0  0  0  0  0  0
    1.7320   -1.7464   -2.5516 O   0  0  0  0  0  0  0  0  0  0  0  0
    1.7900   -2.1283   -0.4038 N   0  0  0  0  0  0  0  0  0  0  0  0
    2.3938   -2.9036   -0.6135 H   0  0  0  0  0  0  0  0  0  0  0  0
    1.5355   -1.8686    0.5305 H   0  0  0  0  0  0  0  0  0  0  0  0
   -0.3126    1.2341    0.8050 C   0  0  0  0  0  0  0  0  0  0  0  0
   -1.2484    1.9199    0.3934 O   0  0  0  0  0  0  0  0  0  0  0  0
    0.5615    1.6875    1.7087 N   0  0  0  0  0  0  0  0  0  0  0  0
    1.3461    1.0849    1.9358 H   0  0  0  0  0  0  0  0  0  0  0  0
    0.5043    3.0121    2.3242 C   0  0  0  0  0  0  0  0  0  0  0  0
   -0.4649    3.1514    2.8080 H   0  0  0  0  0  0  0  0  0  0  0  0
    1.2959    3.1139    3.0678 H   0  0  0  0  0  0  0  0  0  0  0  0
    0.6273    3.7799    1.5584 H   0  0  0  0  0  0  0  0  0  0  0  0
  5  6  2  0  0  0  0
  5  7  1  0  0  0  0
  2  3  1  0  0  0  0
  2  4  1  0  0  0  0
  2  5  1  0  0  0  0
  1  2  1  0  0  0  0
 19 20  2  0  0  0  0
 19 21  1  0  0  0  0
 16 17  1  0  0  0  0
 16 18  1  0  0  0  0
 14 15  2  0  0  0  0
 14 16  1  0  0  0  0
 11 12  1  0  0  0  0
 11 13  1  0  0  0  0
 11 14  1  0  0  0  0
  9 10  1  0  0  0  0
  9 11  1  0  0  0  0
  9 19  1  0  0  0  0
  7  8  1  0  0  0  0
  7  9  1  0  0  0  0
 23 24  1  0  0  0  0
 23 25  1  0  0  0  0
 23 26  1  0  0  0  0
 21 22  1  0  0  0  0
 21 23  1  0  0  0  0
M  END
$$$$
default_name
  -OEChem-02102213163D

 26 25  0     1  0  0  0  0  0999 V2000
   -3.0232   -3.6924    1.0038 H   0  0  0  0  0  0  0  0  0  0  0  0
   -3.0082   -2.6684    0.6318 C   0  0  0  0  0  0  0  0  0  0  0  0
   -3.6332   -2.0414    1.2658 H   0  0  0  0  0  0  0  0  0  0  0  0
   -3.3762   -2.6444   -0.3912 H   0  0  0  0  0  0  0  0  0  0  0  0
   -1.5882   -2.1554    0.6658 C   0  0  0  0  0  0  0  0  0  0  0  0
   -0.6832   -2.8764    1.0638 O   0  0  0  0  0  0  0  0  0  0  0  0
   -1.3952   -0.9084    0.2428 N   0  0  0  0  0  0  0  0  0  0  0  0
   -2.1972   -0.3644   -0.0422 H   0  0  0  0  0  0  0  0  0  0  0  0
   -0.1122   -0.1994    0.2658 C   0  0  1  0  0  0  0  0  0  0  0  0
    0.5635   -0.7260    0.9446 H   0  0  0  0  0  0  0  0  0  0  0  0
    0.4924   -0.2204   -1.1558 C   0  0  0  0  0  0  0  0  0  0  0  0
   -0.2879    0.0123   -1.8796 H   0  0  0  0  0  0  0  0  0  0  0  0
    1.2656    0.5430   -1.2286 H   0  0  0  0  0  0  0  0  0  0  0  0
    1.0800   -1.5636   -1.5580 C   0  0  0  0  0  0  0  0  0  0  0  0
    1.5985   -1.7628   -2.6427 O   0  0  0  0  0  0  0  0  0  0  0  0
    1.0110   -2.5454   -0.6921 N   0  0  0  0  0  0  0  0  0  0  0  0
    1.4230   -3.4160   -0.9785 H   0  0  0  0  0  0  0  0  0  0  0  0
    0.6066   -2.4019    0.2139 H   0  0  0  0  0  0  0  0  0  0  0  0
   -0.3126    1.2341    0.8050 C   0  0  0  0  0  0  0  0  0  0  0  0
   -1.2484    1.9199    0.3934 O   0  0  0  0  0  0  0  0  0  0  0  0
    0.5615    1.6875    1.7087 N   0  0  0  0  0  0  0  0  0  0  0  0
    1.3461    1.0849    1.9358 H   0  0  0  0  0  0  0  0  0  0  0  0
    0.5043    3.0121    2.3242 C   0  0  0  0  0  0  0  0  0  0  0  0
   -0.4649    3.1514    2.8080 H   0  0  0  0  0  0  0  0  0  0  0  0
    1.2959    3.1139    3.0678 H   0  0  0  0  0  0  0  0  0  0  0  0
    0.6273    3.7799    1.5584 H   0  0  0  0  0  0  0  0  0  0  0  0
  5  6  2  0  0  0  0
  5  7  1  0  0  0  0
  2  3  1  0  0  0  0
  2  4  1  0  0  0  0
  2  5  1  0  0  0  0
  1  2  1  0  0  0  0
 19 20  2  0  0  0  0
 19 21  1  0  0  0  0
 16 17  1  0  0  0  0
 16 18  1  0  0  0  0
 14 15  2  0  0  0  0
 14 16  1  0  0  0  0
 11 12  1  0  0  0  0
 11 13  1  0  0  0  0
 11 14  1  0  0  0  0
  9 10  1  0  0  0  0
  9 11  1  0  0  0  0
  9 19  1  0  0  0  0
  7  8  1  0  0  0  0
  7  9  1  0  0  0  0
 23 24  1  0  0  0  0
 23 25  1  0  0  0  0
 23 26  1  0  0  0  0
 21 22  1  0  0  0  0
 21 23  1  0  0  0  0
M  END
$$$$
default_name
  -OEChem-02102213163D

 26 25  0     1  0  0  0  0  0999 V2000
   -3.0232   -3.6924    1.0038 H   0  0  0  0  0  0  0  0  0  0  0  0
   -3.0082   -2.6684    0.6318 C   0  0  0  0  0  0  0  0  0  0  0  0
   -3.6332   -2.0414    1.2658 H   0  0  0  0  0  0  0  0  0  0  0  0
   -3.3762   -2.6444   -0.3912 H   0  0  0  0  0  0  0  0  0  0  0  0
   -1.5882   -2.1554    0.6658 C   0  0  0  0  0  0  0  0  0  0  0  0
   -0.6832   -2.8764    1.0638 O   0  0  0  0  0  0  0  0  0  0  0  0
   -1.3952   -0.9084    0.2428 N   0  0  0  0  0  0  0  0  0  0  0  0
   -2.1972   -0.3644   -0.0422 H   0  0  0  0  0  0  0  0  0  0  0  0
   -0.1122   -0.1994    0.2658 C   0  0  1  0  0  0  0  0  0  0  0  0
    0.5635   -0.7260    0.9446 H   0  0  0  0  0  0  0  0  0  0  0  0
    0.4924   -0.2204   -1.1558 C   0  0  0  0  0  0  0  0  0  0  0  0
   -0.2879    0.0123   -1.8796 H   0  0  0  0  0  0  0  0  0  0  0  0
    1.2656    0.5430   -1.2286 H   0  0  0  0  0  0  0  0  0  0  0  0
    1.0800   -1.5636   -1.5580 C   0  0  0  0  0  0  0  0  0  0  0  0
    1.8240   -1.7030   -2.5131 O   0  0  0  0  0  0  0  0  0  0  0  0
    0.7562   -2.6122   -0.8411 N   0  0  0  0  0  0  0  0  0  0  0  0
    1.1732   -3.4829   -1.1197 H   0  0  0  0  0  0  0  0  0  0  0  0
    0.1614   -2.5208   -0.0394 H   0  0  0  0  0  0  0  0  0  0  0  0
   -0.3126    1.2341    0.8050 C   0  0  0  0  0  0  0  0  0  0  0  0
   -1.2484    1.9199    0.3934 O   0  0  0  0  0  0  0  0  0  0  0  0
    0.5615    1.6875    1.7087 N   0  0  0  0  0  0  0  0  0  0  0  0
    1.3461    1.0849    1.9358 H   0  0  0  0  0  0  0  0  0  0  0  0
    0.5043    3.0121    2.3242 C   0  0  0  0  0  0  0  0  0  0  0  0
   -0.4649    3.1514    2.8080 H   0  0  0  0  0  0  0  0  0  0  0  0
    1.2959    3.1139    3.0678 H   0  0  0  0  0  0  0  0  0  0  0  0
    0.6273    3.7799    1.5584 H   0  0  0  0  0  0  0  0  0  0  0  0
  5  6  2  0  0  0  0
  5  7  1  0  0  0  0
  2  3  1  0  0  0  0
  2  4  1  0  0  0  0
  2  5  1  0  0  0  0
  1  2  1  0  0  0  0
 19 20  2  0  0  0  0
 19 21  1  0  0  0  0
 16 17  1  0  0  0  0
 16 18  1  0  0  0  0
 14 15  2  0  0  0  0
 14 16  1  0  0  0  0
 11 12  1  0  0  0  0
 11 13  1  0  0  0  0
 11 14  1  0  0  0  0
  9 10  1  0  0  0  0
  9 11  1  0  0  0  0
  9 19  1  0  0  0  0
  7  8  1  0  0  0  0
  7  9  1  0  0  0  0
 23 24  1  0  0  0  0
 23 25  1  0  0  0  0
 23 26  1  0  0  0  0
 21 22  1  0  0  0  0
 21 23  1  0  0  0  0
M  END
$$$$
default_name
  -OEChem-02102213163D

 26 25  0     1  0  0  0  0  0999 V2000
   -3.0232   -3.6924    1.0038 H   0  0  0  0  0  0  0  0  0  0  0  0
   -3.0082   -2.6684    0.6318 C   0  0  0  0  0  0  0  0  0  0  0  0
   -3.6332   -2.0414    1.2658 H   0  0  0  0  0  0  0  0  0  0  0  0
   -3.3762   -2.6444   -0.3912 H   0  0  0  0  0  0  0  0  0  0  0  0
   -1.5882   -2.1554    0.6658 C   0  0  0  0  0  0  0  0  0  0  0  0
   -0.6832   -2.8764    1.0638 O   0  0  0  0  0  0  0  0  0  0  0  0
   -1.3952   -0.9084    0.2428 N   0  0  0  0  0  0  0  0  0  0  0  0
   -2.1972   -0.3644   -0.0422 H   0  0  0  0  0  0  0  0  0  0  0  0
   -0.1122   -0.1994    0.2658 C   0  0  1  0  0  0  0  0  0  0  0  0
    0.5635   -0.7260    0.9446 H   0  0  0  0  0  0  0  0  0  0  0  0
    0.4924   -0.2204   -1.1558 C   0  0  0  0  0  0  0  0  0  0  0  0
   -0.2879    0.0123   -1.8796 H   0  0  0  0  0  0  0  0  0  0  0  0
    1.2656    0.5430   -1.2286 H   0  0  0  0  0  0  0  0  0  0  0  0
    1.0800   -1.5636   -1.5580 C   0  0  0  0  0  0  0  0  0  0  0  0
    2.0162   -1.6736   -2.3304 O   0  0  0  0  0  0  0  0  0  0  0  0
    0.5396   -2.6444   -1.0500 N   0  0  0  0  0  0  0  0  0  0  0  0
    0.9597   -3.5164   -1.3199 H   0  0  0  0  0  0  0  0  0  0  0  0
   -0.2190   -2.5799   -0.3977 H   0  0  0  0  0  0  0  0  0  0  0  0
   -0.3126    1.2341    0.8050 C   0  0  0  0  0  0  0  0  0  0  0  0
   -1.2484    1.9199    0.3934 O   0  0  0  0  0  0  0  0  0  0  0  0
    0.5615    1.6875    1.7087 N   0  0  0  0  0  0  0  0  0  0  0  0
    1.3461    1.0849    1.9358 H   0  0  0  0  0  0  0  0  0  0  0  0
    0.5043    3.0121    2.3242 C   0  0  0  0  0  0  0  0  0  0  0  0
   -0.4649    3.1514    2.8080 H   0  0  0  0  0  0  0  0  0  0  0  0
    1.2959    3.1139    3.0678 H   0  0  0  0  0  0  0  0  0  0  0  0
    0.6273    3.7799    1.5584 H   0  0  0  0  0  0  0  0  0  0  0  0
  5  6  2  0  0  0  0
  5  7  1  0  0  0  0
  2  3  1  0  0  0  0
  2  4  1  0  0  0  0
  2  5  1  0  0  0  0
  1  2  1  0  0  0  0
 19 20  2  0  0  0  0
 19 21  1  0  0  0  0
 16 17  1  0  0  0  0
 16 18  1  0  0  0  0
 14 15  2  0  0  0  0
 14 16  1  0  0  0  0
 11 12  1  0  0  0  0
 11 13  1  0  0  0  0
 11 14  1  0  0  0  0
  9 10  1  0  0  0  0
  9 11  1  0  0  0  0
  9 19  1  0  0  0  0
  7  8  1  0  0  0  0
  7  9  1  0  0  0  0
 23 24  1  0  0  0  0
 23 25  1  0  0  0  0
 23 26  1  0  0  0  0
 21 22  1  0  0  0  0
 21 23  1  0  0  0  0
M  END
$$$$
default_name
  -OEChem-02102213163D

 26 25  0     1  0  0  0  0  0999 V2000
   -3.0232   -3.6924    1.0038 H   0  0  0  0  0  0  0  0  0  0  0  0
   -3.0082   -2.6684    0.6318 C   0  0  0  0  0  0  0  0  0  0  0  0
   -3.6332   -2.0414    1.2658 H   0  0  0  0  0  0  0  0  0  0  0  0
   -3.3762   -2.6444   -0.3912 H   0  0  0  0  0  0  0  0  0  0  0  0
   -1.5882   -2.1554    0.6658 C   0  0  0  0  0  0  0  0  0  0  0  0
   -0.6832   -2.8764    1.0638 O   0  0  0  0  0  0  0  0  0  0  0  0
   -1.3952   -0.9084    0.2428 N   0  0  0  0  0  0  0  0  0  0  0  0
   -2.1972   -0.3644   -0.0422 H   0  0  0  0  0  0  0  0  0  0  0  0
   -0.1122   -0.1994    0.2658 C   0  0  1  0  0  0  0  0  0  0  0  0
    0.5635   -0.7260    0.9446 H   0  0  0  0  0  0  0  0  0  0  0  0
    0.4924   -0.2204   -1.1558 C   0  0  0  0  0  0  0  0  0  0  0  0
   -0.2879    0.0123   -1.8796 H   0  0  0  0  0  0  0  0  0  0  0  0
    1.2656    0.5430   -1.2286 H   0  0  0  0  0  0  0  0  0  0  0  0
    1.0800   -1.5636   -1.5580 C   0  0  0  0  0  0  0  0  0  0  0  0
    2.1622   -1.6766   -2.1070 O   0  0  0  0  0  0  0  0  0  0  0  0
    0.3759   -2.6398   -1.3046 N   0  0  0  0  0  0  0  0  0  0  0  0
    0.7969   -3.5141   -1.5654 H   0  0  0  0  0  0  0  0  0  0  0  0
   -0.5084   -2.5751   -0.8368 H   0  0  0  0  0  0  0  0  0  0  0  0
   -0.3126    1.2341    0.8050 C   0  0  0  0  0  0  0  0  0  0  0  0
   -1.2484    1.9199    0.3934 O   0  0  0  0  0  0  0  0  0  0  0  0
    0.5615    1.6875    1.7087 N   0  0  0  0  0  0  0  0  0  0  0  0
    1.3461    1.0849    1.9358 H   0  0  0  0  0  0  0  0  0  0  0  0
    0.5043    3.0121    2.3242 C   0  0  0  0  0  0  0  0  0  0  0  0
   -0.4649    3.1514    2.8080 H   0  0  0  0  0  0  0  0  0  0  0  0
    1.2959    3.1139    3.0678 H   0  0  0  0  0  0  0  0  0  0  0  0
    0.6273    3.7799    1.5584 H   0  0  0  0  0  0  0  0  0  0  0  0
  5  6  2  0  0  0  0
  5  7  1  0  0  0  0
  2  3  1  0  0  0  0
  2  4  1  0  0  0  0
  2  5  1  0  0  0  0
  1  2  1  0  0  0  0
 19 20  2  0  0  0  0
 19 21  1  0  0  0  0
 16 17  1  0  0  0  0
 16 18  1  0  0  0  0
 14 15  2  0  0  0  0
 14 16  1  0  0  0  0
 11 12  1  0  0  0  0
 11 13  1  0  0  0  0
 11 14  1  0  0  0  0
  9 10  1  0  0  0  0
  9 11  1  0  0  0  0
  9 19  1  0  0  0  0
  7  8  1  0  0  0  0
  7  9  1  0  0  0  0
 23 24  1  0  0  0  0
 23 25  1  0  0  0  0
 23 26  1  0  0  0  0
 21 22  1  0  0  0  0
 21 23  1  0  0  0  0
M  END
$$$$
default_name
  -OEChem-02102213163D

 26 25  0     1  0  0  0  0  0999 V2000
   -3.0232   -3.6924    1.0038 H   0  0  0  0  0  0  0  0  0  0  0  0
   -3.0082   -2.6684    0.6318 C   0  0  0  0  0  0  0  0  0  0  0  0
   -3.6332   -2.0414    1.2658 H   0  0  0  0  0  0  0  0  0  0  0  0
   -3.3762   -2.6444   -0.3912 H   0  0  0  0  0  0  0  0  0  0  0  0
   -1.5882   -2.1554    0.6658 C   0  0  0  0  0  0  0  0  0  0  0  0
   -0.6832   -2.8764    1.0638 O   0  0  0  0  0  0  0  0  0  0  0  0
   -1.3952   -0.9084    0.2428 N   0  0  0  0  0  0  0  0  0  0  0  0
   -2.1972   -0.3644   -0.0422 H   0  0  0  0  0  0  0  0  0  0  0  0
   -0.1122   -0.1994    0.2658 C   0  0  1  0  0  0  0  0  0  0  0  0
    0.5635   -0.7260    0.9446 H   0  0  0  0  0  0  0  0  0  0  0  0
    0.4924   -0.2204   -1.1558 C   0  0  0  0  0  0  0  0  0  0  0  0
   -0.2879    0.0123   -1.8796 H   0  0  0  0  0  0  0  0  0  0  0  0
    1.2656    0.5430   -1.2286 H   0  0  0  0  0  0  0  0  0  0  0  0
    1.0800   -1.5636   -1.5580 C   0  0  0  0  0  0  0  0  0  0  0  0
    2.2518   -1.7119   -1.8581 O   0  0  0  0  0  0  0  0  0  0  0  0
    0.2763   -2.5987   -1.5874 N   0  0  0  0  0  0  0  0  0  0  0  0
    0.6961   -3.4761   -1.8396 H   0  0  0  0  0  0  0  0  0  0  0  0
   -0.6873   -2.5067   -1.3266 H   0  0  0  0  0  0  0  0  0  0  0  0
   -0.3126    1.2341    0.8050 C   0  0  0  0  0  0  0  0  0  0  0  0
   -1.2484    1.9199    0.3934 O   0  0  0  0  0  0  0  0  0  0  0  0
    0.5615    1.6875    1.7087 N   0  0  0  0  0  0  0  0  0  0  0  0
    1.3461    1.0849    1.9358 H   0  0  0  0  0  0  0  0  0  0  0  0
    0.5043    3.0121    2.3242 C   0  0  0  0  0  0  0  0  0  0  0  0
   -0.4649    3.1514    2.8080 H   0  0  0  0  0  0  0  0  0  0  0  0
    1.2959    3.1139    3.0678 H   0  0  0  0  0  0  0  0  0  0  0  0
    0.6273    3.7799    1.5584 H   0  0  0  0  0  0  0  0  0  0  0  0
  5  6  2  0  0  0  0
  5  7  1  0  0  0  0
  2  3  1  0  0  0  0
  2  4  1  0  0  0  0
  2  5  1  0  0  0  0
  1  2  1  0  0  0  0
 19 20  2  0  0  0  0
 19 21  1  0  0  0  0
 16 17  1  0  0  0  0
 16 18  1  0  0  0  0
 14 15  2  0  0  0  0
 14 16  1  0  0  0  0
 11 12  1  0  0  0  0
 11 13  1  0  0  0  0
 11 14  1  0  0  0  0
  9 10  1  0  0  0  0
  9 11  1  0  0  0  0
  9 19  1  0  0  0  0
  7  8  1  0  0  0  0
  7  9  1  0  0  0  0
 23 24  1  0  0  0  0
 23 25  1  0  0  0  0
 23 26  1  0  0  0  0
 21 22  1  0  0  0  0
 21 23  1  0  0  0  0
M  END
$$$$
default_name
  -OEChem-02102213163D

 26 25  0     1  0  0  0  0  0999 V2000
   -3.0232   -3.6924    1.0038 H   0  0  0  0  0  0  0  0  0  0  0  0
   -3.0082   -2.6684    0.6318 C   0  0  0  0  0  0  0  0  0  0  0  0
   -3.6332   -2.0414    1.2658 H   0  0  0  0  0  0  0  0  0  0  0  0
   -3.3762   -2.6444   -0.3912 H   0  0  0  0  0  0  0  0  0  0  0  0
   -1.5882   -2.1554    0.6658 C   0  0  0  0  0  0  0  0  0  0  0  0
   -0.6832   -2.8764    1.0638 O   0  0  0  0  0  0  0  0  0  0  0  0
   -1.3952   -0.9084    0.2428 N   0  0  0  0  0  0  0  0  0  0  0  0
   -2.1972   -0.3644   -0.0422 H   0  0  0  0  0  0  0  0  0  0  0  0
   -0.1122   -0.1994    0.2658 C   0  0  1  0  0  0  0  0  0  0  0  0
    0.5635   -0.7260    0.9446 H   0  0  0  0  0  0  0  0  0  0  0  0
    0.4924   -0.2204   -1.1558 C   0  0  0  0  0  0  0  0  0  0  0  0
   -0.2879    0.0123   -1.8796 H   0  0  0  0  0  0  0  0  0  0  0  0
    1.2656    0.5430   -1.2286 H   0  0  0  0  0  0  0  0  0  0  0  0
    1.0800   -1.5636   -1.5580 C   0  0  0  0  0  0  0  0  0  0  0  0
    2.2791   -1.7770   -1.6007 O   0  0  0  0  0  0  0  0  0  0  0  0
    0.2477   -2.5239   -1.8793 N   0  0  0  0  0  0  0  0  0  0  0  0
    0.6639   -3.4052   -2.1237 H   0  0  0  0  0  0  0  0  0  0  0  0
   -0.7434   -2.3794   -1.8338 H   0  0  0  0  0  0  0  0  0  0  0  0
   -0.3126    1.2341    0.8050 C   0  0  0  0  0  0  0  0  0  0  0  0
   -1.2484    1.9199    0.3934 O   0  0  0  0  0  0  0  0  0  0  0  0
    0.5615    1.6875    1.7087 N   0  0  0  0  0  0  0  0  0  0  0  0
    1.3461    1.0849    1.9358 H   0  0  0  0  0  0  0  0  0  0  0  0
    0.5043    3.0121    2.3242 C   0  0  0  0  0  0  0  0  0  0  0  0
   -0.4649    3.1514    2.8080 H   0  0  0  0  0  0  0  0  0  0  0  0
    1.2959    3.1139    3.0678 H   0  0  0  0  0  0  0  0  0  0  0  0
    0.6273    3.7799    1.5584 H   0  0  0  0  0  0  0  0  0  0  0  0
  5  6  2  0  0  0  0
  5  7  1  0  0  0  0
  2  3  1  0  0  0  0
  2  4  1  0  0  0  0
  2  5  1  0  0  0  0
  1  2  1  0  0  0  0
 19 20  2  0  0  0  0
 19 21  1  0  0  0  0
 16 17  1  0  0  0  0
 16 18  1  0  0  0  0
 14 15  2  0  0  0  0
 14 16  1  0  0  0  0
 11 12  1  0  0  0  0
 11 13  1  0  0  0  0
 11 14  1  0  0  0  0
  9 10  1  0  0  0  0
  9 11  1  0  0  0  0
  9 19  1  0  0  0  0
  7  8  1  0  0  0  0
  7  9  1  0  0  0  0
 23 24  1  0  0  0  0
 23 25  1  0  0  0  0
 23 26  1  0  0  0  0
 21 22  1  0  0  0  0
 21 23  1  0  0  0  0
M  END
$$$$
default_name
  -OEChem-02102213163D

 26 25  0     1  0  0  0  0  0999 V2000
   -3.0232   -3.6924    1.0038 H   0  0  0  0  0  0  0  0  0  0  0  0
   -3.0082   -2.6684    0.6318 C   0  0  0  0  0  0  0  0  0  0  0  0
   -3.6332   -2.0414    1.2658 H   0  0  0  0  0  0  0  0  0  0  0  0
   -3.3762   -2.6444   -0.3912 H   0  0  0  0  0  0  0  0  0  0  0  0
   -1.5882   -2.1554    0.6658 C   0  0  0  0  0  0  0  0  0  0  0  0
   -0.6832   -2.8764    1.0638 O   0  0  0  0  0  0  0  0  0  0  0  0
   -1.3952   -0.9084    0.2428 N   0  0  0  0  0  0  0  0  0  0  0  0
   -2.1972   -0.3644   -0.0422 H   0  0  0  0  0  0  0  0  0  0  0  0
   -0.1122   -0.1994    0.2658 C   0  0  1  0  0  0  0  0  0  0  0  0
    0.5635   -0.7260    0.9446 H   0  0  0  0  0  0  0  0  0  0  0  0
    0.4924   -0.2204   -1.1558 C   0  0  0  0  0  0  0  0  0  0  0  0
   -0.2879    0.0123   -1.8796 H   0  0  0  0  0  0  0  0  0  0  0  0
    1.2656    0.5430   -1.2286 H   0  0  0  0  0  0  0  0  0  0  0  0
    1.0800   -1.5636   -1.5580 C   0  0  0  0  0  0  0  0  0  0  0  0
    2.2422   -1.8675   -1.3524 O   0  0  0  0  0  0  0  0  0  0  0  0
    0.2918   -2.4205   -2.1602 N   0  0  0  0  0  0  0  0  0  0  0  0
    0.7027   -3.3060   -2.3984 H   0  0  0  0  0  0  0  0  0  0  0  0
   -0.6728   -2.2019   -2.3238 H   0  0  0  0  0  0  0  0  0  0  0  0
   -0.3126    1.2341    0.8050 C   0  0  0  0  0  0  0  0  0  0  0  0
   -1.2484    1.9199    0.3934 O   0  0  0  0  0  0  0  0  0  0  0  0
    0.5615    1.6875    1.7087 N   0  0  0  0  0  0  0  0  0  0  0  0
    1.3461    1.0849    1.9358 H   0  0  0  0  0  0  0  0  0  0  0  0
    0.5043    3.0121    2.3242 C   0  0  0  0  0  0  0  0  0  0  0  0
   -0.4649    3.1514    2.8080 H   0  0  0  0  0  0  0  0  0  0  0  0
    1.2959    3.1139    3.0678 H   0  0  0  0  0  0  0  0  0  0  0  0
    0.6273    3.7799    1.5584 H   0  0  0  0  0  0  0  0  0  0  0  0
  5  6  2  0  0  0  0
  5  7  1  0  0  0  0
  2  3  1  0  0  0  0
  2  4  1  0  0  0  0
  2  5  1  0  0  0  0
  1  2  1  0  0  0  0
 19 20  2  0  0  0  0
 19 21  1  0  0  0  0
 16 17  1  0  0  0  0
 16 18  1  0  0  0  0
 14 15  2  0  0  0  0
 14 16  1  0  0  0  0
 11 12  1  0  0  0  0
 11 13  1  0  0  0  0
 11 14  1  0  0  0  0
  9 10  1  0  0  0  0
  9 11  1  0  0  0  0
  9 19  1  0  0  0  0
  7  8  1  0  0  0  0
  7  9  1  0  0  0  0
 23 24  1  0  0  0  0
 23 25  1  0  0  0  0
 23 26  1  0  0  0  0
 21 22  1  0  0  0  0
 21 23  1  0  0  0  0
M  END
$$$$
default_name
  -OEChem-02102213163D

 26 25  0     1  0  0  0  0  0999 V2000
   -3.0232   -3.6924    1.0038 H   0  0  0  0  0  0  0  0  0  0  0  0
   -3.0082   -2.6684    0.6318 C   0  0  0  0  0  0  0  0  0  0  0  0
   -3.6332   -2.0414    1.2658 H   0  0  0  0  0  0  0  0  0  0  0  0
   -3.3762   -2.6444   -0.3912 H   0  0  0  0  0  0  0  0  0  0  0  0
   -1.5882   -2.1554    0.6658 C   0  0  0  0  0  0  0  0  0  0  0  0
   -0.6832   -2.8764    1.0638 O   0  0  0  0  0  0  0  0  0  0  0  0
   -1.3952   -0.9084    0.2428 N   0  0  0  0  0  0  0  0  0  0  0  0
   -2.1972   -0.3644   -0.0422 H   0  0  0  0  0  0  0  0  0  0  0  0
   -0.1122   -0.1994    0.2658 C   0  0  1  0  0  0  0  0  0  0  0  0
    0.5635   -0.7260    0.9446 H   0  0  0  0  0  0  0  0  0  0  0  0
    0.4924   -0.2204   -1.1558 C   0  0  0  0  0  0  0  0  0  0  0  0
   -0.2879    0.0123   -1.8796 H   0  0  0  0  0  0  0  0  0  0  0  0
    1.2656    0.5430   -1.2286 H   0  0  0  0  0  0  0  0  0  0  0  0
    1.0800   -1.5636   -1.5580 C   0  0  0  0  0  0  0  0  0  0  0  0
    2.1435   -1.9773   -1.1300 O   0  0  0  0  0  0  0  0  0  0  0  0
    0.4058   -2.2955   -2.4112 N   0  0  0  0  0  0  0  0  0  0  0  0
    0.8097   -3.1853   -2.6450 H   0  0  0  0  0  0  0  0  0  0  0  0
   -0.4805   -1.9862   -2.7632 H   0  0  0  0  0  0  0  0  0  0  0  0
   -0.3126    1.2341    0.8050 C   0  0  0  0  0  0  0  0  0  0  0  0
   -1.2484    1.9199    0.3934 O   0  0  0  0  0  0  0  0  0  0  0  0
    0.5615    1.6875    1.7087 N   0  0  0  0  0  0  0  0  0  0  0  0
    1.3461    1.0849    1.9358 H   0  0  0  0  0  0  0  0  0  0  0  0
    0.5043    3.0121    2.3242 C   0  0  0  0  0  0  0  0  0  0  0  0
   -0.4649    3.1514    2.8080 H   0  0  0  0  0  0  0  0  0  0  0  0
    1.2959    3.1139    3.0678 H   0  0  0  0  0  0  0  0  0  0  0  0
    0.6273    3.7799    1.5584 H   0  0  0  0  0  0  0  0  0  0  0  0
  5  6  2  0  0  0  0
  5  7  1  0  0  0  0
  2  3  1  0  0  0  0
  2  4  1  0  0  0  0
  2  5  1  0  0  0  0
  1  2  1  0  0  0  0
 19 20  2  0  0  0  0
 19 21  1  0  0  0  0
 16 17  1  0  0  0  0
 16 18  1  0  0  0  0
 14 15  2  0  0  0  0
 14 16  1  0  0  0  0
 11 12  1  0  0  0  0
 11 13  1  0  0  0  0
 11 14  1  0  0  0  0
  9 10  1  0  0  0  0
  9 11  1  0  0  0  0
  9 19  1  0  0  0  0
  7  8  1  0  0  0  0
  7  9  1  0  0  0  0
 23 24  1  0  0  0  0
 23 25  1  0  0  0  0
 23 26  1  0  0  0  0
 21 22  1  0  0  0  0
 21 23  1  0  0  0  0
M  END
$$$$
default_name
  -OEChem-02102213163D

 26 25  0     1  0  0  0  0  0999 V2000
   -3.0232   -3.6924    1.0038 H   0  0  0  0  0  0  0  0  0  0  0  0
   -3.0082   -2.6684    0.6318 C   0  0  0  0  0  0  0  0  0  0  0  0
   -3.6332   -2.0414    1.2658 H   0  0  0  0  0  0  0  0  0  0  0  0
   -3.3762   -2.6444   -0.3912 H   0  0  0  0  0  0  0  0  0  0  0  0
   -1.5882   -2.1554    0.6658 C   0  0  0  0  0  0  0  0  0  0  0  0
   -0.6832   -2.8764    1.0638 O   0  0  0  0  0  0  0  0  0  0  0  0
   -1.3952   -0.9084    0.2428 N   0  0  0  0  0  0  0  0  0  0  0  0
   -2.1972   -0.3644   -0.0422 H   0  0  0  0  0  0  0  0  0  0  0  0
   -0.1122   -0.1994    0.2658 C   0  0  1  0  0  0  0  0  0  0  0  0
    0.5635   -0.7260    0.9446 H   0  0  0  0  0  0  0  0  0  0  0  0
    0.4924   -0.2204   -1.1558 C   0  0  0  0  0  0  0  0  0  0  0  0
   -0.2879    0.0123   -1.8796 H   0  0  0  0  0  0  0  0  0  0  0  0
    1.2656    0.5430   -1.2286 H   0  0  0  0  0  0  0  0  0  0  0  0
    1.0800   -1.5636   -1.5580 C   0  0  0  0  0  0  0  0  0  0  0  0
    1.9898   -2.0988   -0.9488 O   0  0  0  0  0  0  0  0  0  0  0  0
    0.5818   -2.1574   -2.6151 N   0  0  0  0  0  0  0  0  0  0  0  0
    0.9777   -3.0515   -2.8465 H   0  0  0  0  0  0  0  0  0  0  0  0
   -0.1795   -1.7470   -3.1220 H   0  0  0  0  0  0  0  0  0  0  0  0
   -0.3126    1.2341    0.8050 C   0  0  0  0  0  0  0  0  0  0  0  0
   -1.2484    1.9199    0.3934 O   0  0  0  0  0  0  0  0  0  0  0  0
    0.5615    1.6875    1.7087 N   0  0  0  0  0  0  0  0  0  0  0  0
    1.3461    1.0849    1.9358 H   0  0  0  0  0  0  0  0  0  0  0  0
    0.5043    3.0121    2.3242 C   0  0  0  0  0  0  0  0  0  0  0  0
   -0.4649    3.1514    2.8080 H   0  0  0  0  0  0  0  0  0  0  0  0
    1.2959    3.1139    3.0678 H   0  0  0  0  0  0  0  0  0  0  0  0
    0.6273    3.7799    1.5584 H   0  0  0  0  0  0  0  0  0  0  0  0
  5  6  2  0  0  0  0
  5  7  1  0  0  0  0
  2  3  1  0  0  0  0
  2  4  1  0  0  0  0
  2  5  1  0  0  0  0
  1  2  1  0  0  0  0
 19 20  2  0  0  0  0
 19 21  1  0  0  0  0
 16 17  1  0  0  0  0
 16 18  1  0  0  0  0
 14 15  2  0  0  0  0
 14 16  1  0  0  0  0
 11 12  1  0  0  0  0
 11 13  1  0  0  0  0
 11 14  1  0  0  0  0
  9 10  1  0  0  0  0
  9 11  1  0  0  0  0
  9 19  1  0  0  0  0
  7  8  1  0  0  0  0
  7  9  1  0  0  0  0
 23 24  1  0  0  0  0
 23 25  1  0  0  0  0
 23 26  1  0  0  0  0
 21 22  1  0  0  0  0
 21 23  1  0  0  0  0
M  END
$$$$
default_name
  -OEChem-02102213163D

 26 25  0     1  0  0  0  0  0999 V2000
   -3.0232   -3.6924    1.0038 H   0  0  0  0  0  0  0  0  0  0  0  0
   -3.0082   -2.6684    0.6318 C   0  0  0  0  0  0  0  0  0  0  0  0
   -3.6332   -2.0414    1.2658 H   0  0  0  0  0  0  0  0  0  0  0  0
   -3.3762   -2.6444   -0.3912 H   0  0  0  0  0  0  0  0  0  0  0  0
   -1.5882   -2.1554    0.6658 C   0  0  0  0  0  0  0  0  0  0  0  0
   -0.6832   -2.8764    1.0638 O   0  0  0  0  0  0  0  0  0  0  0  0
   -1.3952   -0.9084    0.2428 N   0  0  0  0  0  0  0  0  0  0  0  0
   -2.1972   -0.3644   -0.0422 H   0  0  0  0  0  0  0  0  0  0  0  0
   -0.1122   -0.1994    0.2658 C   0  0  1  0  0  0  0  0  0  0  0  0
    0.5635   -0.7260    0.9446 H   0  0  0  0  0  0  0  0  0  0  0  0
    0.4924   -0.2204   -1.1558 C   0  0  0  0  0  0  0  0  0  0  0  0
   -0.2879    0.0123   -1.8796 H   0  0  0  0  0  0  0  0  0  0  0  0
    1.2656    0.5430   -1.2286 H   0  0  0  0  0  0  0  0  0  0  0  0
    1.0800   -1.5636   -1.5580 C   0  0  0  0  0  0  0  0  0  0  0  0
    1.7916   -2.2237   -0.8210 O   0  0  0  0  0  0  0  0  0  0  0  0
    0.8079   -2.0157   -2.7579 N   0  0  0  0  0  0  0  0  0  0  0  0
    1.1953   -2.9135   -2.9894 H   0  0  0  0  0  0  0  0  0  0  0  0
    0.2097   -1.5008   -3.3759 H   0  0  0  0  0  0  0  0  0  0  0  0
   -0.3126    1.2341    0.8050 C   0  0  0  0  0  0  0  0  0  0  0  0
   -1.2484    1.9199    0.3934 O   0  0  0  0  0  0  0  0  0  0  0  0
    0.5615    1.6875    1.7087 N   0  0  0  0  0  0  0  0  0  0  0  0
    1.3461    1.0849    1.9358 H   0  0  0  0  0  0  0  0  0  0  0  0
    0.5043    3.0121    2.3242 C   0  0  0  0  0  0  0  0  0  0  0  0
   -0.4649    3.1514    2.8080 H   0  0  0  0  0  0  0  0  0  0  0  0
    1.2959    3.1139    3.0678 H   0  0  0  0  0  0  0  0  0  0  0  0
    0.6273    3.7799    1.5584 H   0  0  0  0  0  0  0  0  0  0  0  0
  5  6  2  0  0  0  0
  5  7  1  0  0  0  0
  2  3  1  0  0  0  0
  2  4  1  0  0  0  0
  2  5  1  0  0  0  0
  1  2  1  0  0  0  0
 19 20  2  0  0  0  0
 19 21  1  0  0  0  0
 16 17  1  0  0  0  0
 16 18  1  0  0  0  0
 14 15  2  0  0  0  0
 14 16  1  0  0  0  0
 11 12  1  0  0  0  0
 11 13  1  0  0  0  0
 11 14  1  0  0  0  0
  9 10  1  0  0  0  0
  9 11  1  0  0  0  0
  9 19  1  0  0  0  0
  7  8  1  0  0  0  0
  7  9  1  0  0  0  0
 23 24  1  0  0  0  0
 23 25  1  0  0  0  0
 23 26  1  0  0  0  0
 21 22  1  0  0  0  0
 21 23  1  0  0  0  0
M  END
$$$$
default_name
  -OEChem-02102213163D

 26 25  0     1  0  0  0  0  0999 V2000
   -3.0232   -3.6924    1.0038 H   0  0  0  0  0  0  0  0  0  0  0  0
   -3.0082   -2.6684    0.6318 C   0  0  0  0  0  0  0  0  0  0  0  0
   -3.6332   -2.0414    1.2658 H   0  0  0  0  0  0  0  0  0  0  0  0
   -3.3762   -2.6444   -0.3912 H   0  0  0  0  0  0  0  0  0  0  0  0
   -1.5882   -2.1554    0.6658 C   0  0  0  0  0  0  0  0  0  0  0  0
   -0.6832   -2.8764    1.0638 O   0  0  0  0  0  0  0  0  0  0  0  0
   -1.3952   -0.9084    0.2428 N   0  0  0  0  0  0  0  0  0  0  0  0
   -2.1972   -0.3644   -0.0422 H   0  0  0  0  0  0  0  0  0  0  0  0
   -0.1122   -0.1994    0.2658 C   0  0  1  0  0  0  0  0  0  0  0  0
    0.5635   -0.7260    0.9446 H   0  0  0  0  0  0  0  0  0  0  0  0
    0.4924   -0.2204   -1.1558 C   0  0  0  0  0  0  0  0  0  0  0  0
   -0.2879    0.0123   -1.8796 H   0  0  0  0  0  0  0  0  0  0  0  0
    1.2656    0.5430   -1.2286 H   0  0  0  0  0  0  0  0  0  0  0  0
    1.0800   -1.5636   -1.5580 C   0  0  0  0  0  0  0  0  0  0  0  0
    1.5624   -2.3436   -0.7554 O   0  0  0  0  0  0  0  0  0  0  0  0
    1.0687   -1.8801   -2.8300 N   0  0  0  0  0  0  0  0  0  0  0  0
    1.4476   -2.7808   -3.0639 H   0  0  0  0  0  0  0  0  0  0  0  0
    0.6606   -1.2641   -3.5075 H   0  0  0  0  0  0  0  0  0  0  0  0
   -0.3126    1.2341    0.8050 C   0  0  0  0  0  0  0  0  0  0  0  0
   -1.2484    1.9199    0.3934 O   0  0  0  0  0  0  0  0  0  0  0  0
    0.5615    1.6875    1.7087 N   0  0  0  0  0  0  0  0  0  0  0  0
    1.3461    1.0849    1.9358 H   0  0  0  0  0  0  0  0  0  0  0  0
    0.5043    3.0121    2.3242 C   0  0  0  0  0  0  0  0  0  0  0  0
   -0.4649    3.1514    2.8080 H   0  0  0  0  0  0  0  0  0  0  0  0
    1.2959    3.1139    3.0678 H   0  0  0  0  0  0  0  0  0  0  0  0
    0.6273    3.7799    1.5584 H   0  0  0  0  0  0  0  0  0  0  0  0
  5  6  2  0  0  0  0
  5  7  1  0  0  0  0
  2  3  1  0  0  0  0
  2  4  1  0  0  0  0
  2  5  1  0  0  0  0
  1  2  1  0  0  0  0
 19 20  2  0  0  0  0
 19 21  1  0  0  0  0
 16 17  1  0  0  0  0
 16 18  1  0  0  0  0
 14 15  2  0  0  0  0
 14 16  1  0  0  0  0
 11 12  1  0  0  0  0
 11 13  1  0  0  0  0
 11 14  1  0  0  0  0
  9 10  1  0  0  0  0
  9 11  1  0  0  0  0
  9 19  1  0  0  0  0
  7  8  1  0  0  0  0
  7  9  1  0  0  0  0
 23 24  1  0  0  0  0
 23 25  1  0  0  0  0
 23 26  1  0  0  0  0
 21 22  1  0  0  0  0
 21 23  1  0  0  0  0
M  END
$$$$
default_name
  -OEChem-02102213163D

 26 25  0     1  0  0  0  0  0999 V2000
   -3.0232   -3.6924    1.0038 H   0  0  0  0  0  0  0  0  0  0  0  0
   -3.0082   -2.6684    0.6318 C   0  0  0  0  0  0  0  0  0  0  0  0
   -3.6332   -2.0414    1.2658 H   0  0  0  0  0  0  0  0  0  0  0  0
   -3.3762   -2.6444   -0.3912 H   0  0  0  0  0  0  0  0  0  0  0  0
   -1.5882   -2.1554    0.6658 C   0  0  0  0  0  0  0  0  0  0  0  0
   -0.6832   -2.8764    1.0638 O   0  0  0  0  0  0  0  0  0  0  0  0
   -1.3952   -0.9084    0.2428 N   0  0  0  0  0  0  0  0  0  0  0  0
   -2.1972   -0.3644   -0.0422 H   0  0  0  0  0  0  0  0  0  0  0  0
   -0.1122   -0.1994    0.2658 C   0  0  1  0  0  0  0  0  0  0  0  0
    0.5635   -0.7260    0.9446 H   0  0  0  0  0  0  0  0  0  0  0  0
    0.4924   -0.2204   -1.1558 C   0  0  0  0  0  0  0  0  0  0  0  0
   -0.2879    0.0123   -1.8796 H   0  0  0  0  0  0  0  0  0  0  0  0
    1.2656    0.5430   -1.2286 H   0  0  0  0  0  0  0  0  0  0  0  0
    1.0800   -1.5636   -1.5580 C   0  0  0  0  0  0  0  0  0  0  0  0
    1.3178   -2.4503   -0.7565 O   0  0  0  0  0  0  0  0  0  0  0  0
    1.3464   -1.7597   -2.8264 N   0  0  0  0  0  0  0  0  0  0  0  0
    1.7174   -2.6625   -3.0649 H   0  0  0  0  0  0  0  0  0  0  0  0
    1.1423   -1.0532   -3.5079 H   0  0  0  0  0  0  0  0  0  0  0  0
   -0.3126    1.2341    0.8050 C   0  0  0  0  0  0  0  0  0  0  0  0
   -1.2484    1.9199    0.3934 O   0  0  0  0  0  0  0  0  0  0  0  0
    0.5615    1.6875    1.7087 N   0  0  0  0  0  0  0  0  0  0  0  0
    1.3461    1.0849    1.9358 H   0  0  0  0  0  0  0  0  0  0  0  0
    0.5043    3.0121    2.3242 C   0  0  0  0  0  0  0  0  0  0  0  0
   -0.4649    3.1514    2.8080 H   0  0  0  0  0  0  0  0  0  0  0  0
    1.2959    3.1139    3.0678 H   0  0  0  0  0  0  0  0  0  0  0  0
    0.6273    3.7799    1.5584 H   0  0  0  0  0  0  0  0  0  0  0  0
  5  6  2  0  0  0  0
  5  7  1  0  0  0  0
  2  3  1  0  0  0  0
  2  4  1  0  0  0  0
  2  5  1  0  0  0  0
  1  2  1  0  0  0  0
 19 20  2  0  0  0  0
 19 21  1  0  0  0  0
 16 17  1  0  0  0  0
 16 18  1  0  0  0  0
 14 15  2  0  0  0  0
 14 16  1  0  0  0  0
 11 12  1  0  0  0  0
 11 13  1  0  0  0  0
 11 14  1  0  0  0  0
  9 10  1  0  0  0  0
  9 11  1  0  0  0  0
  9 19  1  0  0  0  0
  7  8  1  0  0  0  0
  7  9  1  0  0  0  0
 23 24  1  0  0  0  0
 23 25  1  0  0  0  0
 23 26  1  0  0  0  0
 21 22  1  0  0  0  0
 21 23  1  0  0  0  0
M  END
$$$$
default_name
  -OEChem-02102213163D

 26 25  0     1  0  0  0  0  0999 V2000
   -3.0232   -3.6924    1.0038 H   0  0  0  0  0  0  0  0  0  0  0  0
   -3.0082   -2.6684    0.6318 C   0  0  0  0  0  0  0  0  0  0  0  0
   -3.6332   -2.0414    1.2658 H   0  0  0  0  0  0  0  0  0  0  0  0
   -3.3762   -2.6444   -0.3912 H   0  0  0  0  0  0  0  0  0  0  0  0
   -1.5882   -2.1554    0.6658 C   0  0  0  0  0  0  0  0  0  0  0  0
   -0.6832   -2.8764    1.0638 O   0  0  0  0  0  0  0  0  0  0  0  0
   -1.3952   -0.9084    0.2428 N   0  0  0  0  0  0  0  0  0  0  0  0
   -2.1972   -0.3644   -0.0422 H   0  0  0  0  0  0  0  0  0  0  0  0
   -0.1122   -0.1994    0.2658 C   0  0  1  0  0  0  0  0  0  0  0  0
    0.5635   -0.7260    0.9446 H   0  0  0  0  0  0  0  0  0  0  0  0
    0.4924   -0.2204   -1.1558 C   0  0  0  0  0  0  0  0  0  0  0  0
   -0.2879    0.0123   -1.8796 H   0  0  0  0  0  0  0  0  0  0  0  0
    1.2656    0.5430   -1.2286 H   0  0  0  0  0  0  0  0  0  0  0  0
    1.0800   -1.5636   -1.5580 C   0  0  0  0  0  0  0  0  0  0  0  0
    1.0744   -2.5366   -0.8241 O   0  0  0  0  0  0  0  0  0  0  0  0
    1.6220   -1.6627   -2.7474 N   0  0  0  0  0  0  0  0  0  0  0  0
    1.9863   -2.5666   -2.9923 H   0  0  0  0  0  0  0  0  0  0  0  0
    1.6222   -0.8825   -3.3769 H   0  0  0  0  0  0  0  0  0  0  0  0
   -0.3126    1.2341    0.8050 C   0  0  0  0  0  0  0  0  0  0  0  0
   -1.2484    1.9199    0.3934 O   0  0  0  0  0  0  0  0  0  0  0  0
    0.5615    1.6875    1.7087 N   0  0  0  0  0  0  0  0  0  0  0  0
    1.3461    1.0849    1.9358 H   0  0  0  0  0  0  0  0  0  0  0  0
    0.5043    3.0121    2.3242 C   0  0  0  0  0  0  0  0  0  0  0  0
   -0.4649    3.1514    2.8080 H   0  0  0  0  0  0  0  0  0  0  0  0
    1.2959    3.1139    3.0678 H   0  0  0  0  0  0  0  0  0  0  0  0
    0.6273    3.7799    1.5584 H   0  0  0  0  0  0  0  0  0  0  0  0
  5  6  2  0  0  0  0
  5  7  1  0  0  0  0
  2  3  1  0  0  0  0
  2  4  1  0  0  0  0
  2  5  1  0  0  0  0
  1  2  1  0  0  0  0
 19 20  2  0  0  0  0
 19 21  1  0  0  0  0
 16 17  1  0  0  0  0
 16 18  1  0  0  0  0
 14 15  2  0  0  0  0
 14 16  1  0  0  0  0
 11 12  1  0  0  0  0
 11 13  1  0  0  0  0
 11 14  1  0  0  0  0
  9 10  1  0  0  0  0
  9 11  1  0  0  0  0
  9 19  1  0  0  0  0
  7  8  1  0  0  0  0
  7  9  1  0  0  0  0
 23 24  1  0  0  0  0
 23 25  1  0  0  0  0
 23 26  1  0  0  0  0
 21 22  1  0  0  0  0
 21 23  1  0  0  0  0
M  END
$$$$
default_name
  -OEChem-02102213163D

 26 25  0     1  0  0  0  0  0999 V2000
   -3.0232   -3.6924    1.0038 H   0  0  0  0  0  0  0  0  0  0  0  0
   -3.0082   -2.6684    0.6318 C   0  0  0  0  0  0  0  0  0  0  0  0
   -3.6332   -2.0414    1.2658 H   0  0  0  0  0  0  0  0  0  0  0  0
   -3.3762   -2.6444   -0.3912 H   0  0  0  0  0  0  0  0  0  0  0  0
   -1.5882   -2.1554    0.6658 C   0  0  0  0  0  0  0  0  0  0  0  0
   -0.6832   -2.8764    1.0638 O   0  0  0  0  0  0  0  0  0  0  0  0
   -1.3952   -0.9084    0.2428 N   0  0  0  0  0  0  0  0  0  0  0  0
   -2.1972   -0.3644   -0.0422 H   0  0  0  0  0  0  0  0  0  0  0  0
   -0.1122   -0.1994    0.2658 C   0  0  1  0  0  0  0  0  0  0  0  0
    0.5635   -0.7260    0.9446 H   0  0  0  0  0  0  0  0  0  0  0  0
    0.4924   -0.2204   -1.1558 C   0  0  0  0  0  0  0  0  0  0  0  0
   -0.2879    0.0123   -1.8796 H   0  0  0  0  0  0  0  0  0  0  0  0
    1.2656    0.5430   -1.2286 H   0  0  0  0  0  0  0  0  0  0  0  0
    1.0800   -1.5636   -1.5580 C   0  0  0  0  0  0  0  0  0  0  0  0
    0.8490   -2.5964   -0.9537 O   0  0  0  0  0  0  0  0  0  0  0  0
    1.8768   -1.5959   -2.5984 N   0  0  0  0  0  0  0  0  0  0  0  0
    2.2361   -2.4996   -2.8511 H   0  0  0  0  0  0  0  0  0  0  0  0
    2.0675   -0.7635   -3.1236 H   0  0  0  0  0  0  0  0  0  0  0  0
   -0.3126    1.2341    0.8050 C   0  0  0  0  0  0  0  0  0  0  0  0
   -1.2484    1.9199    0.3934 O   0  0  0  0  0  0  0  0  0  0  0  0
    0.5615    1.6875    1.7087 N   0  0  0  0  0  0  0  0  0  0  0  0
    1.3461    1.0849    1.9358 H   0  0  0  0  0  0  0  0  0  0  0  0
    0.5043    3.0121    2.3242 C   0  0  0  0  0  0  0  0  0  0  0  0
   -0.4649    3.1514    2.8080 H   0  0  0  0  0  0  0  0  0  0  0  0
    1.2959    3.1139    3.0678 H   0  0  0  0  0  0  0  0  0  0  0  0
    0.6273    3.7799    1.5584 H   0  0  0  0  0  0  0  0  0  0  0  0
  5  6  2  0  0  0  0
  5  7  1  0  0  0  0
  2  3  1  0  0  0  0
  2  4  1  0  0  0  0
  2  5  1  0  0  0  0
  1  2  1  0  0  0  0
 19 20  2  0  0  0  0
 19 21  1  0  0  0  0
 16 17  1  0  0  0  0
 16 18  1  0  0  0  0
 14 15  2  0  0  0  0
 14 16  1  0  0  0  0
 11 12  1  0  0  0  0
 11 13  1  0  0  0  0
 11 14  1  0  0  0  0
  9 10  1  0  0  0  0
  9 11  1  0  0  0  0
  9 19  1  0  0  0  0
  7  8  1  0  0  0  0
  7  9  1  0  0  0  0
 23 24  1  0  0  0  0
 23 25  1  0  0  0  0
 23 26  1  0  0  0  0
 21 22  1  0  0  0  0
 21 23  1  0  0  0  0
M  END
$$$$
default_name
  -OEChem-02102213163D

 26 25  0     1  0  0  0  0  0999 V2000
   -3.0232   -3.6924    1.0038 H   0  0  0  0  0  0  0  0  0  0  0  0
   -3.0082   -2.6684    0.6318 C   0  0  0  0  0  0  0  0  0  0  0  0
   -3.6332   -2.0414    1.2658 H   0  0  0  0  0  0  0  0  0  0  0  0
   -3.3762   -2.6444   -0.3912 H   0  0  0  0  0  0  0  0  0  0  0  0
   -1.5882   -2.1554    0.6658 C   0  0  0  0  0  0  0  0  0  0  0  0
   -0.6832   -2.8764    1.0638 O   0  0  0  0  0  0  0  0  0  0  0  0
   -1.3952   -0.9084    0.2428 N   0  0  0  0  0  0  0  0  0  0  0  0
   -2.1972   -0.3644   -0.0422 H   0  0  0  0  0  0  0  0  0  0  0  0
   -0.1122   -0.1994    0.2658 C   0  0  1  0  0  0  0  0  0  0  0  0
    0.5635   -0.7260    0.9446 H   0  0  0  0  0  0  0  0  0  0  0  0
    0.4924   -0.2204   -1.1558 C   0  0  0  0  0  0  0  0  0  0  0  0
   -0.2879    0.0123   -1.8796 H   0  0  0  0  0  0  0  0  0  0  0  0
    1.2656    0.5430   -1.2286 H   0  0  0  0  0  0  0  0  0  0  0  0
    1.0800   -1.5636   -1.5580 C   0  0  0  0  0  0  0  0  0  0  0  0
    0.6567   -2.6258   -1.1365 O   0  0  0  0  0  0  0  0  0  0  0  0
    2.0934   -1.5637   -2.3895 N   0  0  0  0  0  0  0  0  0  0  0  0
    2.4496   -2.4661   -2.6509 H   0  0  0  0  0  0  0  0  0  0  0  0
    2.4478   -0.7045   -2.7652 H   0  0  0  0  0  0  0  0  0  0  0  0
   -0.3126    1.2341    0.8050 C   0  0  0  0  0  0  0  0  0  0  0  0
   -1.2484    1.9199    0.3934 O   0  0  0  0  0  0  0  0  0  0  0  0
    0.5615    1.6875    1.7087 N   0  0  0  0  0  0  0  0  0  0  0  0
    1.3461    1.0849    1.9358 H   0  0  0  0  0  0  0  0  0  0  0  0
    0.5043    3.0121    2.3242 C   0  0  0  0  0  0  0  0  0  0  0  0
   -0.4649    3.1514    2.8080 H   0  0  0  0  0  0  0  0  0  0  0  0
    1.2959    3.1139    3.0678 H   0  0  0  0  0  0  0  0  0  0  0  0
    0.6273    3.7799    1.5584 H   0  0  0  0  0  0  0  0  0  0  0  0
  5  6  2  0  0  0  0
  5  7  1  0  0  0  0
  2  3  1  0  0  0  0
  2  4  1  0  0  0  0
  2  5  1  0  0  0  0
  1  2  1  0  0  0  0
 19 20  2  0  0  0  0
 19 21  1  0  0  0  0
 16 17  1  0  0  0  0
 16 18  1  0  0  0  0
 14 15  2  0  0  0  0
 14 16  1  0  0  0  0
 11 12  1  0  0  0  0
 11 13  1  0  0  0  0
 11 14  1  0  0  0  0
  9 10  1  0  0  0  0
  9 11  1  0  0  0  0
  9 19  1  0  0  0  0
  7  8  1  0  0  0  0
  7  9  1  0  0  0  0
 23 24  1  0  0  0  0
 23 25  1  0  0  0  0
 23 26  1  0  0  0  0
 21 22  1  0  0  0  0
 21 23  1  0  0  0  0
M  END
$$$$
default_name
  -OEChem-02102213163D

 26 25  0     1  0  0  0  0  0999 V2000
   -3.0232   -3.6924    1.0038 H   0  0  0  0  0  0  0  0  0  0  0  0
   -3.0082   -2.6684    0.6318 C   0  0  0  0  0  0  0  0  0  0  0  0
   -3.6332   -2.0414    1.2658 H   0  0  0  0  0  0  0  0  0  0  0  0
   -3.3762   -2.6444   -0.3912 H   0  0  0  0  0  0  0  0  0  0  0  0
   -1.5882   -2.1554    0.6658 C   0  0  0  0  0  0  0  0  0  0  0  0
   -0.6832   -2.8764    1.0638 O   0  0  0  0  0  0  0  0  0  0  0  0
   -1.3952   -0.9084    0.2428 N   0  0  0  0  0  0  0  0  0  0  0  0
   -2.1972   -0.3644   -0.0422 H   0  0  0  0  0  0  0  0  0  0  0  0
   -0.1122   -0.1994    0.2658 C   0  0  1  0  0  0  0  0  0  0  0  0
    0.5635   -0.7260    0.9446 H   0  0  0  0  0  0  0  0  0  0  0  0
    0.4924   -0.2204   -1.1558 C   0  0  0  0  0  0  0  0  0  0  0  0
   -0.2879    0.0123   -1.8796 H   0  0  0  0  0  0  0  0  0  0  0  0
    1.2656    0.5430   -1.2286 H   0  0  0  0  0  0  0  0  0  0  0  0
    1.0800   -1.5636   -1.5580 C   0  0  0  0  0  0  0  0  0  0  0  0
    0.5107   -2.6228   -1.3599 O   0  0  0  0  0  0  0  0  0  0  0  0
    2.2571   -1.5683   -2.1349 N   0  0  0  0  0  0  0  0  0  0  0  0
    2.6123   -2.4684   -2.4053 H   0  0  0  0  0  0  0  0  0  0  0  0
    2.7373   -0.7093   -2.3262 H   0  0  0  0  0  0  0  0  0  0  0  0
   -0.3126    1.2341    0.8050 C   0  0  0  0  0  0  0  0  0  0  0  0
   -1.2484    1.9199    0.3934 O   0  0  0  0  0  0  0  0  0  0  0  0
    0.5615    1.6875    1.7087 N   0  0  0  0  0  0  0  0  0  0  0  0
    1.3461    1.0849    1.9358 H   0  0  0  0  0  0  0  0  0  0  0  0
    0.5043    3.0121    2.3242 C   0  0  0  0  0  0  0  0  0  0  0  0
   -0.4649    3.1514    2.8080 H   0  0  0  0  0  0  0  0  0  0  0  0
    1.2959    3.1139    3.0678 H   0  0  0  0  0  0  0  0  0  0  0  0
    0.6273    3.7799    1.5584 H   0  0  0  0  0  0  0  0  0  0  0  0
  5  6  2  0  0  0  0
  5  7  1  0  0  0  0
  2  3  1  0  0  0  0
  2  4  1  0  0  0  0
  2  5  1  0  0  0  0
  1  2  1  0  0  0  0
 19 20  2  0  0  0  0
 19 21  1  0  0  0  0
 16 17  1  0  0  0  0
 16 18  1  0  0  0  0
 14 15  2  0  0  0  0
 14 16  1  0  0  0  0
 11 12  1  0  0  0  0
 11 13  1  0  0  0  0
 11 14  1  0  0  0  0
  9 10  1  0  0  0  0
  9 11  1  0  0  0  0
  9 19  1  0  0  0  0
  7  8  1  0  0  0  0
  7  9  1  0  0  0  0
 23 24  1  0  0  0  0
 23 25  1  0  0  0  0
 23 26  1  0  0  0  0
 21 22  1  0  0  0  0
 21 23  1  0  0  0  0
M  END
$$$$
default_name
  -OEChem-02102213163D

 26 25  0     1  0  0  0  0  0999 V2000
   -3.0232   -3.6924    1.0038 H   0  0  0  0  0  0  0  0  0  0  0  0
   -3.0082   -2.6684    0.6318 C   0  0  0  0  0  0  0  0  0  0  0  0
   -3.6332   -2.0414    1.2658 H   0  0  0  0  0  0  0  0  0  0  0  0
   -3.3762   -2.6444   -0.3912 H   0  0  0  0  0  0  0  0  0  0  0  0
   -1.5882   -2.1554    0.6658 C   0  0  0  0  0  0  0  0  0  0  0  0
   -0.6832   -2.8764    1.0638 O   0  0  0  0  0  0  0  0  0  0  0  0
   -1.3952   -0.9084    0.2428 N   0  0  0  0  0  0  0  0  0  0  0  0
   -2.1972   -0.3644   -0.0422 H   0  0  0  0  0  0  0  0  0  0  0  0
   -0.1122   -0.1994    0.2658 C   0  0  1  0  0  0  0  0  0  0  0  0
    0.5635   -0.7260    0.9446 H   0  0  0  0  0  0  0  0  0  0  0  0
    0.4924   -0.2204   -1.1558 C   0  0  0  0  0  0  0  0  0  0  0  0
   -0.2879    0.0123   -1.8796 H   0  0  0  0  0  0  0  0  0  0  0  0
    1.2656    0.5430   -1.2286 H   0  0  0  0  0  0  0  0  0  0  0  0
    1.0800   -1.5636   -1.5580 C   0  0  0  0  0  0  0  0  0  0  0  0
    0.4211   -2.5875   -1.6088 O   0  0  0  0  0  0  0  0  0  0  0  0
    2.3566   -1.6094   -1.8521 N   0  0  0  0  0  0  0  0  0  0  0  0
    2.7132   -2.5064   -2.1311 H   0  0  0  0  0  0  0  0  0  0  0  0
    2.9161   -0.7777   -1.8364 H   0  0  0  0  0  0  0  0  0  0  0  0
   -0.3126    1.2341    0.8050 C   0  0  0  0  0  0  0  0  0  0  0  0
   -1.2484    1.9199    0.3934 O   0  0  0  0  0  0  0  0  0  0  0  0
    0.5615    1.6875    1.7087 N   0  0  0  0  0  0  0  0  0  0  0  0
    1.3461    1.0849    1.9358 H   0  0  0  0  0  0  0  0  0  0  0  0
    0.5043    3.0121    2.3242 C   0  0  0  0  0  0  0  0  0  0  0  0
   -0.4649    3.1514    2.8080 H   0  0  0  0  0  0  0  0  0  0  0  0
    1.2959    3.1139    3.0678 H   0  0  0  0  0  0  0  0  0  0  0  0
    0.6273    3.7799    1.5584 H   0  0  0  0  0  0  0  0  0  0  0  0
  5  6  2  0  0  0  0
  5  7  1  0  0  0  0
  2  3  1  0  0  0  0
  2  4  1  0  0  0  0
  2  5  1  0  0  0  0
  1  2  1  0  0  0  0
 19 20  2  0  0  0  0
 19 21  1  0  0  0  0
 16 17  1  0  0  0  0
 16 18  1  0  0  0  0
 14 15  2  0  0  0  0
 14 16  1  0  0  0  0
 11 12  1  0  0  0  0
 11 13  1  0  0  0  0
 11 14  1  0  0  0  0
  9 10  1  0  0  0  0
  9 11  1  0  0  0  0
  9 19  1  0  0  0  0
  7  8  1  0  0  0  0
  7  9  1  0  0  0  0
 23 24  1  0  0  0  0
 23 25  1  0  0  0  0
 23 26  1  0  0  0  0
 21 22  1  0  0  0  0
 21 23  1  0  0  0  0
M  END
$$$$
default_name
  -OEChem-02102213163D

 26 25  0     1  0  0  0  0  0999 V2000
   -3.0232   -3.6924    1.0038 H   0  0  0  0  0  0  0  0  0  0  0  0
   -3.0082   -2.6684    0.6318 C   0  0  0  0  0  0  0  0  0  0  0  0
   -3.6332   -2.0414    1.2658 H   0  0  0  0  0  0  0  0  0  0  0  0
   -3.3762   -2.6444   -0.3912 H   0  0  0  0  0  0  0  0  0  0  0  0
   -1.5882   -2.1554    0.6658 C   0  0  0  0  0  0  0  0  0  0  0  0
   -0.6832   -2.8764    1.0638 O   0  0  0  0  0  0  0  0  0  0  0  0
   -1.3952   -0.9084    0.2428 N   0  0  0  0  0  0  0  0  0  0  0  0
   -2.1972   -0.3644   -0.0422 H   0  0  0  0  0  0  0  0  0  0  0  0
   -0.1122   -0.1994    0.2658 C   0  0  1  0  0  0  0  0  0  0  0  0
    0.5635   -0.7260    0.9446 H   0  0  0  0  0  0  0  0  0  0  0  0
    0.4924   -0.2204   -1.1558 C   0  0  0  0  0  0  0  0  0  0  0  0
   -0.2879    0.0123   -1.8796 H   0  0  0  0  0  0  0  0  0  0  0  0
    1.2656    0.5430   -1.2286 H   0  0  0  0  0  0  0  0  0  0  0  0
    1.0800   -1.5636   -1.5580 C   0  0  0  0  0  0  0  0  0  0  0  0
    0.3938   -2.5224   -1.8661 O   0  0  0  0  0  0  0  0  0  0  0  0
    2.3853   -1.6842   -1.5603 N   0  0  0  0  0  0  0  0  0  0  0  0
    2.7454   -2.5774   -1.8470 H   0  0  0  0  0  0  0  0  0  0  0  0
    2.9722   -0.9050   -1.3292 H   0  0  0  0  0  0  0  0  0  0  0  0
   -0.3126    1.2341    0.8050 C   0  0  0  0  0  0  0  0  0  0  0  0
   -1.2484    1.9199    0.3934 O   0  0  0  0  0  0  0  0  0  0  0  0
    0.5615    1.6875    1.7087 N   0  0  0  0  0  0  0  0  0  0  0  0
    1.3461    1.0849    1.9358 H   0  0  0  0  0  0  0  0  0  0  0  0
    0.5043    3.0121    2.3242 C   0  0  0  0  0  0  0  0  0  0  0  0
   -0.4649    3.1514    2.8080 H   0  0  0  0  0  0  0  0  0  0  0  0
    1.2959    3.1139    3.0678 H   0  0  0  0  0  0  0  0  0  0  0  0
    0.6273    3.7799    1.5584 H   0  0  0  0  0  0  0  0  0  0  0  0
  5  6  2  0  0  0  0
  5  7  1  0  0  0  0
  2  3  1  0  0  0  0
  2  4  1  0  0  0  0
  2  5  1  0  0  0  0
  1  2  1  0  0  0  0
 19 20  2  0  0  0  0
 19 21  1  0  0  0  0
 16 17  1  0  0  0  0
 16 18  1  0  0  0  0
 14 15  2  0  0  0  0
 14 16  1  0  0  0  0
 11 12  1  0  0  0  0
 11 13  1  0  0  0  0
 11 14  1  0  0  0  0
  9 10  1  0  0  0  0
  9 11  1  0  0  0  0
  9 19  1  0  0  0  0
  7  8  1  0  0  0  0
  7  9  1  0  0  0  0
 23 24  1  0  0  0  0
 23 25  1  0  0  0  0
 23 26  1  0  0  0  0
 21 22  1  0  0  0  0
 21 23  1  0  0  0  0
M  END
$$$$
default_name
  -OEChem-02102213163D

 26 25  0     1  0  0  0  0  0999 V2000
   -3.0232   -3.6924    1.0038 H   0  0  0  0  0  0  0  0  0  0  0  0
   -3.0082   -2.6684    0.6318 C   0  0  0  0  0  0  0  0  0  0  0  0
   -3.6332   -2.0414    1.2658 H   0  0  0  0  0  0  0  0  0  0  0  0
   -3.3762   -2.6444   -0.3912 H   0  0  0  0  0  0  0  0  0  0  0  0
   -1.5882   -2.1554    0.6658 C   0  0  0  0  0  0  0  0  0  0  0  0
   -0.6832   -2.8764    1.0638 O   0  0  0  0  0  0  0  0  0  0  0  0
   -1.3952   -0.9084    0.2428 N   0  0  0  0  0  0  0  0  0  0  0  0
   -2.1972   -0.3644   -0.0422 H   0  0  0  0  0  0  0  0  0  0  0  0
   -0.1122   -0.1994    0.2658 C   0  0  1  0  0  0  0  0  0  0  0  0
    0.5635   -0.7260    0.9446 H   0  0  0  0  0  0  0  0  0  0  0  0
    0.4924   -0.2204   -1.1558 C   0  0  0  0  0  0  0  0  0  0  0  0
   -0.2879    0.0123   -1.8796 H   0  0  0  0  0  0  0  0  0  0  0  0
    1.2656    0.5430   -1.2286 H   0  0  0  0  0  0  0  0  0  0  0  0
    1.0800   -1.5636   -1.5580 C   0  0  0  0  0  0  0  0  0  0  0  0
    0.4307   -2.4319   -2.1145 O   0  0  0  0  0  0  0  0  0  0  0  0
    2.3412   -1.7876   -1.2793 N   0  0  0  0  0  0  0  0  0  0  0  0
    2.7066   -2.6766   -1.5723 H   0  0  0  0  0  0  0  0  0  0  0  0
    2.9017   -1.0825   -0.8392 H   0  0  0  0  0  0  0  0  0  0  0  0
   -0.3126    1.2341    0.8050 C   0  0  0  0  0  0  0  0  0  0  0  0
   -1.2484    1.9199    0.3934 O   0  0  0  0  0  0  0  0  0  0  0  0
    0.5615    1.6875    1.7087 N   0  0  0  0  0  0  0  0  0  0  0  0
    1.3461    1.0849    1.9358 H   0  0  0  0  0  0  0  0  0  0  0  0
    0.5043    3.0121    2.3242 C   0  0  0  0  0  0  0  0  0  0  0  0
   -0.4649    3.1514    2.8080 H   0  0  0  0  0  0  0  0  0  0  0  0
    1.2959    3.1139    3.0678 H   0  0  0  0  0  0  0  0  0  0  0  0
    0.6273    3.7799    1.5584 H   0  0  0  0  0  0  0  0  0  0  0  0
  5  6  2  0  0  0  0
  5  7  1  0  0  0  0
  2  3  1  0  0  0  0
  2  4  1  0  0  0  0
  2  5  1  0  0  0  0
  1  2  1  0  0  0  0
 19 20  2  0  0  0  0
 19 21  1  0  0  0  0
 16 17  1  0  0  0  0
 16 18  1  0  0  0  0
 14 15  2  0  0  0  0
 14 16  1  0  0  0  0
 11 12  1  0  0  0  0
 11 13  1  0  0  0  0
 11 14  1  0  0  0  0
  9 10  1  0  0  0  0
  9 11  1  0  0  0  0
  9 19  1  0  0  0  0
  7  8  1  0  0  0  0
  7  9  1  0  0  0  0
 23 24  1  0  0  0  0
 23 25  1  0  0  0  0
 23 26  1  0  0  0  0
 21 22  1  0  0  0  0
 21 23  1  0  0  0  0
M  END
$$$$
default_name
  -OEChem-02102213163D

 26 25  0     1  0  0  0  0  0999 V2000
   -3.0232   -3.6924    1.0038 H   0  0  0  0  0  0  0  0  0  0  0  0
   -3.0082   -2.6684    0.6318 C   0  0  0  0  0  0  0  0  0  0  0  0
   -3.6332   -2.0414    1.2658 H   0  0  0  0  0  0  0  0  0  0  0  0
   -3.3762   -2.6444   -0.3912 H   0  0  0  0  0  0  0  0  0  0  0  0
   -1.5882   -2.1554    0.6658 C   0  0  0  0  0  0  0  0  0  0  0  0
   -0.6832   -2.8764    1.0638 O   0  0  0  0  0  0  0  0  0  0  0  0
   -1.3952   -0.9084    0.2428 N   0  0  0  0  0  0  0  0  0  0  0  0
   -2.1972   -0.3644   -0.0422 H   0  0  0  0  0  0  0  0  0  0  0  0
   -0.1122   -0.1994    0.2658 C   0  0  1  0  0  0  0  0  0  0  0  0
    0.5635   -0.7260    0.9446 H   0  0  0  0  0  0  0  0  0  0  0  0
    0.4924   -0.2204   -1.1558 C   0  0  0  0  0  0  0  0  0  0  0  0
   -0.2879    0.0123   -1.8796 H   0  0  0  0  0  0  0  0  0  0  0  0
    1.2656    0.5430   -1.2286 H   0  0  0  0  0  0  0  0  0  0  0  0
    1.0800   -1.5636   -1.5580 C   0  0  0  0  0  0  0  0  0  0  0  0
    0.5294   -2.3221   -2.3368 O   0  0  0  0  0  0  0  0  0  0  0  0
    2.2272   -1.9126   -1.0283 N   0  0  0  0  0  0  0  0  0  0  0  0
    2.5996   -2.7972   -1.3258 H   0  0  0  0  0  0  0  0  0  0  0  0
    2.7094   -1.2982   -0.3998 H   0  0  0  0  0  0  0  0  0  0  0  0
   -0.3126    1.2341    0.8050 C   0  0  0  0  0  0  0  0  0  0  0  0
   -1.2484    1.9199    0.3934 O   0  0  0  0  0  0  0  0  0  0  0  0
    0.5615    1.6875    1.7087 N   0  0  0  0  0  0  0  0  0  0  0  0
    1.3461    1.0849    1.9358 H   0  0  0  0  0  0  0  0  0  0  0  0
    0.5043    3.0121    2.3242 C   0  0  0  0  0  0  0  0  0  0  0  0
   -0.4649    3.1514    2.8080 H   0  0  0  0  0  0  0  0  0  0  0  0
    1.2959    3.1139    3.0678 H   0  0  0  0  0  0  0  0  0  0  0  0
    0.6273    3.7799    1.5584 H   0  0  0  0  0  0  0  0  0  0  0  0
  5  6  2  0  0  0  0
  5  7  1  0  0  0  0
  2  3  1  0  0  0  0
  2  4  1  0  0  0  0
  2  5  1  0  0  0  0
  1  2  1  0  0  0  0
 19 20  2  0  0  0  0
 19 21  1  0  0  0  0
 16 17  1  0  0  0  0
 16 18  1  0  0  0  0
 14 15  2  0  0  0  0
 14 16  1  0  0  0  0
 11 12  1  0  0  0  0
 11 13  1  0  0  0  0
 11 14  1  0  0  0  0
  9 10  1  0  0  0  0
  9 11  1  0  0  0  0
  9 19  1  0  0  0  0
  7  8  1  0  0  0  0
  7  9  1  0  0  0  0
 23 24  1  0  0  0  0
 23 25  1  0  0  0  0
 23 26  1  0  0  0  0
 21 22  1  0  0  0  0
 21 23  1  0  0  0  0
M  END
$$$$
default_name
  -OEChem-02102213163D

 26 25  0     1  0  0  0  0  0999 V2000
   -3.0232   -3.6924    1.0038 H   0  0  0  0  0  0  0  0  0  0  0  0
   -3.0082   -2.6684    0.6318 C   0  0  0  0  0  0  0  0  0  0  0  0
   -3.6332   -2.0414    1.2658 H   0  0  0  0  0  0  0  0  0  0  0  0
   -3.3762   -2.6444   -0.3912 H   0  0  0  0  0  0  0  0  0  0  0  0
   -1.5882   -2.1554    0.6658 C   0  0  0  0  0  0  0  0  0  0  0  0
   -0.6832   -2.8764    1.0638 O   0  0  0  0  0  0  0  0  0  0  0  0
   -1.3952   -0.9084    0.2428 N   0  0  0  0  0  0  0  0  0  0  0  0
   -2.1972   -0.3644   -0.0422 H   0  0  0  0  0  0  0  0  0  0  0  0
   -0.1122   -0.1994    0.2658 C   0  0  1  0  0  0  0  0  0  0  0  0
    0.5635   -0.7260    0.9446 H   0  0  0  0  0  0  0  0  0  0  0  0
    0.4924   -0.2204   -1.1558 C   0  0  0  0  0  0  0  0  0  0  0  0
   -0.2879    0.0123   -1.8796 H   0  0  0  0  0  0  0  0  0  0  0  0
    1.2656    0.5430   -1.2286 H   0  0  0  0  0  0  0  0  0  0  0  0
    1.0800   -1.5636   -1.5580 C   0  0  0  0  0  0  0  0  0  0  0  0
    0.6831   -2.2006   -2.5181 O   0  0  0  0  0  0  0  0  0  0  0  0
    2.0512   -2.0507   -0.8245 N   0  0  0  0  0  0  0  0  0  0  0  0
    2.4315   -2.9311   -1.1242 H   0  0  0  0  0  0  0  0  0  0  0  0
    2.4084   -1.5373   -0.0409 H   0  0  0  0  0  0  0  0  0  0  0  0
   -0.3126    1.2341    0.8050 C   0  0  0  0  0  0  0  0  0  0  0  0
   -1.2484    1.9199    0.3934 O   0  0  0  0  0  0  0  0  0  0  0  0
    0.5615    1.6875    1.7087 N   0  0  0  0  0  0  0  0  0  0  0  0
    1.3461    1.0849    1.9358 H   0  0  0  0  0  0  0  0  0  0  0  0
    0.5043    3.0121    2.3242 C   0  0  0  0  0  0  0  0  0  0  0  0
   -0.4649    3.1514    2.8080 H   0  0  0  0  0  0  0  0  0  0  0  0
    1.2959    3.1139    3.0678 H   0  0  0  0  0  0  0  0  0  0  0  0
    0.6273    3.7799    1.5584 H   0  0  0  0  0  0  0  0  0  0  0  0
  5  6  2  0  0  0  0
  5  7  1  0  0  0  0
  2  3  1  0  0  0  0
  2  4  1  0  0  0  0
  2  5  1  0  0  0  0
  1  2  1  0  0  0  0
 19 20  2  0  0  0  0
 19 21  1  0  0  0  0
 16 17  1  0  0  0  0
 16 18  1  0  0  0  0
 14 15  2  0  0  0  0
 14 16  1  0  0  0  0
 11 12  1  0  0  0  0
 11 13  1  0  0  0  0
 11 14  1  0  0  0  0
  9 10  1  0  0  0  0
  9 11  1  0  0  0  0
  9 19  1  0  0  0  0
  7  8  1  0  0  0  0
  7  9  1  0  0  0  0
 23 24  1  0  0  0  0
 23 25  1  0  0  0  0
 23 26  1  0  0  0  0
 21 22  1  0  0  0  0
 21 23  1  0  0  0  0
M  END
$$$$
default_name
  -OEChem-02102213163D

 26 25  0     1  0  0  0  0  0999 V2000
   -3.0232   -3.6924    1.0038 H   0  0  0  0  0  0  0  0  0  0  0  0
   -3.0082   -2.6684    0.6318 C   0  0  0  0  0  0  0  0  0  0  0  0
   -3.6332   -2.0414    1.2658 H   0  0  0  0  0  0  0  0  0  0  0  0
   -3.3762   -2.6444   -0.3912 H   0  0  0  0  0  0  0  0  0  0  0  0
   -1.5882   -2.1554    0.6658 C   0  0  0  0  0  0  0  0  0  0  0  0
   -0.6832   -2.8764    1.0638 O   0  0  0  0  0  0  0  0  0  0  0  0
   -1.3952   -0.9084    0.2428 N   0  0  0  0  0  0  0  0  0  0  0  0
   -2.1972   -0.3644   -0.0422 H   0  0  0  0  0  0  0  0  0  0  0  0
   -0.1122   -0.1994    0.2658 C   0  0  1  0  0  0  0  0  0  0  0  0
    0.5635   -0.7260    0.9446 H   0  0  0  0  0  0  0  0  0  0  0  0
    0.4924   -0.2204   -1.1558 C   0  0  0  0  0  0  0  0  0  0  0  0
   -0.2879    0.0123   -1.8796 H   0  0  0  0  0  0  0  0  0  0  0  0
    1.2656    0.5430   -1.2286 H   0  0  0  0  0  0  0  0  0  0  0  0
    1.0800   -1.5636   -1.5580 C   0  0  0  0  0  0  0  0  0  0  0  0
    0.8813   -2.0757   -2.6458 O   0  0  0  0  0  0  0  0  0  0  0  0
    1.8250   -2.1924   -0.6816 N   0  0  0  0  0  0  0  0  0  0  0  0
    2.2140   -3.0690   -0.9813 H   0  0  0  0  0  0  0  0  0  0  0  0
    2.0192   -1.7836    0.2129 H   0  0  0  0  0  0  0  0  0  0  0  0
   -0.3126    1.2341    0.8050 C   0  0  0  0  0  0  0  0  0  0  0  0
   -1.2484    1.9199    0.3934 O   0  0  0  0  0  0  0  0  0  0  0  0
    0.5615    1.6875    1.7087 N   0  0  0  0  0  0  0  0  0  0  0  0
    1.3461    1.0849    1.9358 H   0  0  0  0  0  0  0  0  0  0  0  0
    0.5043    3.0121    2.3242 C   0  0  0  0  0  0  0  0  0  0  0  0
   -0.4649    3.1514    2.8080 H   0  0  0  0  0  0  0  0  0  0  0  0
    1.2959    3.1139    3.0678 H   0  0  0  0  0  0  0  0  0  0  0  0
    0.6273    3.7799    1.5584 H   0  0  0  0  0  0  0  0  0  0  0  0
  5  6  2  0  0  0  0
  5  7  1  0  0  0  0
  2  3  1  0  0  0  0
  2  4  1  0  0  0  0
  2  5  1  0  0  0  0
  1  2  1  0  0  0  0
 19 20  2  0  0  0  0
 19 21  1  0  0  0  0
 16 17  1  0  0  0  0
 16 18  1  0  0  0  0
 14 15  2  0  0  0  0
 14 16  1  0  0  0  0
 11 12  1  0  0  0  0
 11 13  1  0  0  0  0
 11 14  1  0  0  0  0
  9 10  1  0  0  0  0
  9 11  1  0  0  0  0
  9 19  1  0  0  0  0
  7  8  1  0  0  0  0
  7  9  1  0  0  0  0
 23 24  1  0  0  0  0
 23 25  1  0  0  0  0
 23 26  1  0  0  0  0
 21 22  1  0  0  0  0
 21 23  1  0  0  0  0
M  END
$$$$
default_name
  -OEChem-02102213163D

 26 25  0     1  0  0  0  0  0999 V2000
   -3.0232   -3.6924    1.0038 H   0  0  0  0  0  0  0  0  0  0  0  0
   -3.0082   -2.6684    0.6318 C   0  0  0  0  0  0  0  0  0  0  0  0
   -3.6332   -2.0414    1.2658 H   0  0  0  0  0  0  0  0  0  0  0  0
   -3.3762   -2.6444   -0.3912 H   0  0  0  0  0  0  0  0  0  0  0  0
   -1.5882   -2.1554    0.6658 C   0  0  0  0  0  0  0  0  0  0  0  0
   -0.6832   -2.8764    1.0638 O   0  0  0  0  0  0  0  0  0  0  0  0
   -1.3952   -0.9084    0.2428 N   0  0  0  0  0  0  0  0  0  0  0  0
   -2.1972   -0.3644   -0.0422 H   0  0  0  0  0  0  0  0  0  0  0  0
   -0.1122   -0.1994    0.2658 C   0  0  1  0  0  0  0  0  0  0  0  0
    0.5635   -0.7260    0.9446 H   0  0  0  0  0  0  0  0  0  0  0  0
    0.4924   -0.2204   -1.1558 C   0  0  0  0  0  0  0  0  0  0  0  0
   -0.2879    0.0123   -1.8796 H   0  0  0  0  0  0  0  0  0  0  0  0
    1.2656    0.5430   -1.2286 H   0  0  0  0  0  0  0  0  0  0  0  0
    1.0800   -1.5636   -1.5580 C   0  0  0  0  0  0  0  0  0  0  0  0
    1.1105   -1.9557   -2.7114 O   0  0  0  0  0  0  0  0  0  0  0  0
    1.5643   -2.3280   -0.6096 N   0  0  0  0  0  0  0  0  0  0  0  0
    1.9617   -3.2017   -0.9068 H   0  0  0  0  0  0  0  0  0  0  0  0
    1.5683   -2.0203    0.3445 H   0  0  0  0  0  0  0  0  0  0  0  0
   -0.3126    1.2341    0.8050 C   0  0  0  0  0  0  0  0  0  0  0  0
   -1.2484    1.9199    0.3934 O   0  0  0  0  0  0  0  0  0  0  0  0
    0.5615    1.6875    1.7087 N   0  0  0  0  0  0  0  0  0  0  0  0
    1.3461    1.0849    1.9358 H   0  0  0  0  0  0  0  0  0  0  0  0
    0.5043    3.0121    2.3242 C   0  0  0  0  0  0  0  0  0  0  0  0
   -0.4649    3.1514    2.8080 H   0  0  0  0  0  0  0  0  0  0  0  0
    1.2959    3.1139    3.0678 H   0  0  0  0  0  0  0  0  0  0  0  0
    0.6273    3.7799    1.5584 H   0  0  0  0  0  0  0  0  0  0  0  0
  5  6  2  0  0  0  0
  5  7  1  0  0  0  0
  2  3  1  0  0  0  0
  2  4  1  0  0  0  0
  2  5  1  0  0  0  0
  1  2  1  0  0  0  0
 19 20  2  0  0  0  0
 19 21  1  0  0  0  0
 16 17  1  0  0  0  0
 16 18  1  0  0  0  0
 14 15  2  0  0  0  0
 14 16  1  0  0  0  0
 11 12  1  0  0  0  0
 11 13  1  0  0  0  0
 11 14  1  0  0  0  0
  9 10  1  0  0  0  0
  9 11  1  0  0  0  0
  9 19  1  0  0  0  0
  7  8  1  0  0  0  0
  7  9  1  0  0  0  0
 23 24  1  0  0  0  0
 23 25  1  0  0  0  0
 23 26  1  0  0  0  0
 21 22  1  0  0  0  0
 21 23  1  0  0  0  0
M  END
$$$$
default_name
  -OEChem-02102213163D

 26 25  0     1  0  0  0  0  0999 V2000
   -3.0232   -3.6924    1.0038 H   0  0  0  0  0  0  0  0  0  0  0  0
   -3.0082   -2.6684    0.6318 C   0  0  0  0  0  0  0  0  0  0  0  0
   -3.6332   -2.0414    1.2658 H   0  0  0  0  0  0  0  0  0  0  0  0
   -3.3762   -2.6444   -0.3912 H   0  0  0  0  0  0  0  0  0  0  0  0
   -1.5882   -2.1554    0.6658 C   0  0  0  0  0  0  0  0  0  0  0  0
   -0.6832   -2.8764    1.0638 O   0  0  0  0  0  0  0  0  0  0  0  0
   -1.3952   -0.9084    0.2428 N   0  0  0  0  0  0  0  0  0  0  0  0
   -2.1972   -0.3644   -0.0422 H   0  0  0  0  0  0  0  0  0  0  0  0
   -0.1122   -0.1994    0.2658 C   0  0  1  0  0  0  0  0  0  0  0  0
    0.5635   -0.7260    0.9446 H   0  0  0  0  0  0  0  0  0  0  0  0
    0.4924   -0.2204   -1.1558 C   0  0  0  0  0  0  0  0  0  0  0  0
   -0.2879    0.0123   -1.8796 H   0  0  0  0  0  0  0  0  0  0  0  0
    1.2656    0.5430   -1.2286 H   0  0  0  0  0  0  0  0  0  0  0  0
    1.0800   -1.5636   -1.5580 C   0  0  0  0  0  0  0  0  0  0  0  0
    1.3551   -1.8490   -2.7104 O   0  0  0  0  0  0  0  0  0  0  0  0
    1.2866   -2.4484   -0.6131 N   0  0  0  0  0  0  0  0  0  0  0  0
    1.6919   -3.3200   -0.9059 H   0  0  0  0  0  0  0  0  0  0  0  0
    1.0865   -2.2311    0.3449 H   0  0  0  0  0  0  0  0  0  0  0  0
   -0.3126    1.2341    0.8050 C   0  0  0  0  0  0  0  0  0  0  0  0
   -1.2484    1.9199    0.3934 O   0  0  0  0  0  0  0  0  0  0  0  0
    0.5615    1.6875    1.7087 N   0  0  0  0  0  0  0  0  0  0  0  0
    1.3461    1.0849    1.9358 H   0  0  0  0  0  0  0  0  0  0  0  0
    0.5043    3.0121    2.3242 C   0  0  0  0  0  0  0  0  0  0  0  0
   -0.4649    3.1514    2.8080 H   0  0  0  0  0  0  0  0  0  0  0  0
    1.2959    3.1139    3.0678 H   0  0  0  0  0  0  0  0  0  0  0  0
    0.6273    3.7799    1.5584 H   0  0  0  0  0  0  0  0  0  0  0  0
  5  6  2  0  0  0  0
  5  7  1  0  0  0  0
  2  3  1  0  0  0  0
  2  4  1  0  0  0  0
  2  5  1  0  0  0  0
  1  2  1  0  0  0  0
 19 20  2  0  0  0  0
 19 21  1  0  0  0  0
 16 17  1  0  0  0  0
 16 18  1  0  0  0  0
 14 15  2  0  0  0  0
 14 16  1  0  0  0  0
 11 12  1  0  0  0  0
 11 13  1  0  0  0  0
 11 14  1  0  0  0  0
  9 10  1  0  0  0  0
  9 11  1  0  0  0  0
  9 19  1  0  0  0  0
  7  8  1  0  0  0  0
  7  9  1  0  0  0  0
 23 24  1  0  0  0  0
 23 25  1  0  0  0  0
 23 26  1  0  0  0  0
 21 22  1  0  0  0  0
 21 23  1  0  0  0  0
M  END
$$$$
default_name
  -OEChem-02102213163D

 26 25  0     1  0  0  0  0  0999 V2000
   -3.0232   -3.6924    1.0038 H   0  0  0  0  0  0  0  0  0  0  0  0
   -3.0082   -2.6684    0.6318 C   0  0  0  0  0  0  0  0  0  0  0  0
   -3.6332   -2.0414    1.2658 H   0  0  0  0  0  0  0  0  0  0  0  0
   -3.3762   -2.6444   -0.3912 H   0  0  0  0  0  0  0  0  0  0  0  0
   -1.5882   -2.1554    0.6658 C   0  0  0  0  0  0  0  0  0  0  0  0
   -0.6832   -2.8764    1.0638 O   0  0  0  0  0  0  0  0  0  0  0  0
   -1.3952   -0.9084    0.2428 N   0  0  0  0  0  0  0  0  0  0  0  0
   -2.1972   -0.3644   -0.0422 H   0  0  0  0  0  0  0  0  0  0  0  0
   -0.1122   -0.1994    0.2658 C   0  0  1  0  0  0  0  0  0  0  0  0
    0.5635   -0.7260    0.9446 H   0  0  0  0  0  0  0  0  0  0  0  0
    0.4924   -0.2204   -1.1558 C   0  0  0  0  0  0  0  0  0  0  0  0
   -0.1986    0.2633   -1.8453 H   0  0  0  0  0  0  0  0  0  0  0  0
    1.4261    0.3401   -1.1573 H   0  0  0  0  0  0  0  0  0  0  0  0
    0.7498   -1.6173   -1.6976 C   0  0  0  0  0  0  0  0  0  0  0  0
    1.2230   -1.8239   -2.8015 O   0  0  0  0  0  0  0  0  0  0  0  0
    0.4355   -2.6365   -0.9356 N   0  0  0  0  0  0  0  0  0  0  0  0
    0.6329   -3.5468   -1.3126 H   0  0  0  0  0  0  0  0  0  0  0  0
    0.0626   -2.4929   -0.0161 H   0  0  0  0  0  0  0  0  0  0  0  0
   -0.3126    1.2341    0.8050 C   0  0  0  0  0  0  0  0  0  0  0  0
   -1.2484    1.9199    0.3934 O   0  0  0  0  0  0  0  0  0  0  0  0
    0.5615    1.6875    1.7087 N   0  0  0  0  0  0  0  0  0  0  0  0
    1.3461    1.0849    1.9358 H   0  0  0  0  0  0  0  0  0  0  0  0
    0.5043    3.0121    2.3242 C   0  0  0  0  0  0  0  0  0  0  0  0
   -0.4649    3.1514    2.8080 H   0  0  0  0  0  0  0  0  0  0  0  0
    1.2959    3.1139    3.0678 H   0  0  0  0  0  0  0  0  0  0  0  0
    0.6273    3.7799    1.5584 H   0  0  0  0  0  0  0  0  0  0  0  0
  5  6  2  0  0  0  0
  5  7  1  0  0  0  0
  2  3  1  0  0  0  0
  2  4  1  0  0  0  0
  2  5  1  0  0  0  0
  1  2  1  0  0  0  0
 19 20  2  0  0  0  0
 19 21  1  0  0  0  0
 16 17  1  0  0  0  0
 16 18  1  0  0  0  0
 14 15  2  0  0  0  0
 14 16  1  0  0  0  0
 11 12  1  0  0  0  0
 11 13  1  0  0  0  0
 11 14  1  0  0  0  0
  9 10  1  0  0  0  0
  9 11  1  0  0  0  0
  9 19  1  0  0  0  0
  7  8  1  0  0  0  0
  7  9  1  0  0  0  0
 23 24  1  0  0  0  0
 23 25  1  0  0  0  0
 23 26  1  0  0  0  0
 21 22  1  0  0  0  0
 21 23  1  0  0  0  0
M  END
$$$$
default_name
  -OEChem-02102213163D

 26 25  0     1  0  0  0  0  0999 V2000
   -3.0232   -3.6924    1.0038 H   0  0  0  0  0  0  0  0  0  0  0  0
   -3.0082   -2.6684    0.6318 C   0  0  0  0  0  0  0  0  0  0  0  0
   -3.6332   -2.0414    1.2658 H   0  0  0  0  0  0  0  0  0  0  0  0
   -3.3762   -2.6444   -0.3912 H   0  0  0  0  0  0  0  0  0  0  0  0
   -1.5882   -2.1554    0.6658 C   0  0  0  0  0  0  0  0  0  0  0  0
   -0.6832   -2.8764    1.0638 O   0  0  0  0  0  0  0  0  0  0  0  0
   -1.3952   -0.9084    0.2428 N   0  0  0  0  0  0  0  0  0  0  0  0
   -2.1972   -0.3644   -0.0422 H   0  0  0  0  0  0  0  0  0  0  0  0
   -0.1122   -0.1994    0.2658 C   0  0  1  0  0  0  0  0  0  0  0  0
    0.5635   -0.7260    0.9446 H   0  0  0  0  0  0  0  0  0  0  0  0
    0.4924   -0.2204   -1.1558 C   0  0  0  0  0  0  0  0  0  0  0  0
   -0.1986    0.2633   -1.8453 H   0  0  0  0  0  0  0  0  0  0  0  0
    1.4261    0.3401   -1.1573 H   0  0  0  0  0  0  0  0  0  0  0  0
    0.7498   -1.6173   -1.6976 C   0  0  0  0  0  0  0  0  0  0  0  0
    1.4542   -1.8329   -2.6685 O   0  0  0  0  0  0  0  0  0  0  0  0
    0.1744   -2.6253   -1.0884 N   0  0  0  0  0  0  0  0  0  0  0  0
    0.3766   -3.5377   -1.4577 H   0  0  0  0  0  0  0  0  0  0  0  0
   -0.3941   -2.4762   -0.2763 H   0  0  0  0  0  0  0  0  0  0  0  0
   -0.3126    1.2341    0.8050 C   0  0  0  0  0  0  0  0  0  0  0  0
   -1.2484    1.9199    0.3934 O   0  0  0  0  0  0  0  0  0  0  0  0
    0.5615    1.6875    1.7087 N   0  0  0  0  0  0  0  0  0  0  0  0
    1.3461    1.0849    1.9358 H   0  0  0  0  0  0  0  0  0  0  0  0
    0.5043    3.0121    2.3242 C   0  0  0  0  0  0  0  0  0  0  0  0
   -0.4649    3.1514    2.8080 H   0  0  0  0  0  0  0  0  0  0  0  0
    1.2959    3.1139    3.0678 H   0  0  0  0  0  0  0  0  0  0  0  0
    0.6273    3.7799    1.5584 H   0  0  0  0  0  0  0  0  0  0  0  0
  5  6  2  0  0  0  0
  5  7  1  0  0  0  0
  2  3  1  0  0  0  0
  2  4  1  0  0  0  0
  2  5  1  0  0  0  0
  1  2  1  0  0  0  0
 19 20  2  0  0  0  0
 19 21  1  0  0  0  0
 16 17  1  0  0  0  0
 16 18  1  0  0  0  0
 14 15  2  0  0  0  0
 14 16  1  0  0  0  0
 11 12  1  0  0  0  0
 11 13  1  0  0  0  0
 11 14  1  0  0  0  0
  9 10  1  0  0  0  0
  9 11  1  0  0  0  0
  9 19  1  0  0  0  0
  7  8  1  0  0  0  0
  7  9  1  0  0  0  0
 23 24  1  0  0  0  0
 23 25  1  0  0  0  0
 23 26  1  0  0  0  0
 21 22  1  0  0  0  0
 21 23  1  0  0  0  0
M  END
$$$$
default_name
  -OEChem-02102213163D

 26 25  0     1  0  0  0  0  0999 V2000
   -3.0232   -3.6924    1.0038 H   0  0  0  0  0  0  0  0  0  0  0  0
   -3.0082   -2.6684    0.6318 C   0  0  0  0  0  0  0  0  0  0  0  0
   -3.6332   -2.0414    1.2658 H   0  0  0  0  0  0  0  0  0  0  0  0
   -3.3762   -2.6444   -0.3912 H   0  0  0  0  0  0  0  0  0  0  0  0
   -1.5882   -2.1554    0.6658 C   0  0  0  0  0  0  0  0  0  0  0  0
   -0.6832   -2.8764    1.0638 O   0  0  0  0  0  0  0  0  0  0  0  0
   -1.3952   -0.9084    0.2428 N   0  0  0  0  0  0  0  0  0  0  0  0
   -2.1972   -0.3644   -0.0422 H   0  0  0  0  0  0  0  0  0  0  0  0
   -0.1122   -0.1994    0.2658 C   0  0  1  0  0  0  0  0  0  0  0  0
    0.5635   -0.7260    0.9446 H   0  0  0  0  0  0  0  0  0  0  0  0
    0.4924   -0.2204   -1.1558 C   0  0  0  0  0  0  0  0  0  0  0  0
   -0.1986    0.2633   -1.8453 H   0  0  0  0  0  0  0  0  0  0  0  0
    1.4261    0.3401   -1.1573 H   0  0  0  0  0  0  0  0  0  0  0  0
    0.7498   -1.6173   -1.6976 C   0  0  0  0  0  0  0  0  0  0  0  0
    1.6450   -1.8688   -2.4854 O   0  0  0  0  0  0  0  0  0  0  0  0
   -0.0403   -2.5838   -1.2976 N   0  0  0  0  0  0  0  0  0  0  0  0
    0.1645   -3.4989   -1.6584 H   0  0  0  0  0  0  0  0  0  0  0  0
   -0.7719   -2.4065   -0.6355 H   0  0  0  0  0  0  0  0  0  0  0  0
   -0.3126    1.2341    0.8050 C   0  0  0  0  0  0  0  0  0  0  0  0
   -1.2484    1.9199    0.3934 O   0  0  0  0  0  0  0  0  0  0  0  0
    0.5615    1.6875    1.7087 N   0  0  0  0  0  0  0  0  0  0  0  0
    1.3461    1.0849    1.9358 H   0  0  0  0  0  0  0  0  0  0  0  0
    0.5043    3.0121    2.3242 C   0  0  0  0  0  0  0  0  0  0  0  0
   -0.4649    3.1514    2.8080 H   0  0  0  0  0  0  0  0  0  0  0  0
    1.2959    3.1139    3.0678 H   0  0  0  0  0  0  0  0  0  0  0  0
    0.6273    3.7799    1.5584 H   0  0  0  0  0  0  0  0  0  0  0  0
  5  6  2  0  0  0  0
  5  7  1  0  0  0  0
  2  3  1  0  0  0  0
  2  4  1  0  0  0  0
  2  5  1  0  0  0  0
  1  2  1  0  0  0  0
 19 20  2  0  0  0  0
 19 21  1  0  0  0  0
 16 17  1  0  0  0  0
 16 18  1  0  0  0  0
 14 15  2  0  0  0  0
 14 16  1  0  0  0  0
 11 12  1  0  0  0  0
 11 13  1  0  0  0  0
 11 14  1  0  0  0  0
  9 10  1  0  0  0  0
  9 11  1  0  0  0  0
  9 19  1  0  0  0  0
  7  8  1  0  0  0  0
  7  9  1  0  0  0  0
 23 24  1  0  0  0  0
 23 25  1  0  0  0  0
 23 26  1  0  0  0  0
 21 22  1  0  0  0  0
 21 23  1  0  0  0  0
M  END
$$$$
default_name
  -OEChem-02102213163D

 26 25  0     1  0  0  0  0  0999 V2000
   -3.0232   -3.6924    1.0038 H   0  0  0  0  0  0  0  0  0  0  0  0
   -3.0082   -2.6684    0.6318 C   0  0  0  0  0  0  0  0  0  0  0  0
   -3.6332   -2.0414    1.2658 H   0  0  0  0  0  0  0  0  0  0  0  0
   -3.3762   -2.6444   -0.3912 H   0  0  0  0  0  0  0  0  0  0  0  0
   -1.5882   -2.1554    0.6658 C   0  0  0  0  0  0  0  0  0  0  0  0
   -0.6832   -2.8764    1.0638 O   0  0  0  0  0  0  0  0  0  0  0  0
   -1.3952   -0.9084    0.2428 N   0  0  0  0  0  0  0  0  0  0  0  0
   -2.1972   -0.3644   -0.0422 H   0  0  0  0  0  0  0  0  0  0  0  0
   -0.1122   -0.1994    0.2658 C   0  0  1  0  0  0  0  0  0  0  0  0
    0.5635   -0.7260    0.9446 H   0  0  0  0  0  0  0  0  0  0  0  0
    0.4924   -0.2204   -1.1558 C   0  0  0  0  0  0  0  0  0  0  0  0
   -0.1986    0.2633   -1.8453 H   0  0  0  0  0  0  0  0  0  0  0  0
    1.4261    0.3401   -1.1573 H   0  0  0  0  0  0  0  0  0  0  0  0
    0.7498   -1.6173   -1.6976 C   0  0  0  0  0  0  0  0  0  0  0  0
    1.7825   -1.9290   -2.2647 O   0  0  0  0  0  0  0  0  0  0  0  0
   -0.1941   -2.5146   -1.5489 N   0  0  0  0  0  0  0  0  0  0  0  0
    0.0108   -3.4331   -1.9010 H   0  0  0  0  0  0  0  0  0  0  0  0
   -1.0449   -2.2885   -1.0692 H   0  0  0  0  0  0  0  0  0  0  0  0
   -0.3126    1.2341    0.8050 C   0  0  0  0  0  0  0  0  0  0  0  0
   -1.2484    1.9199    0.3934 O   0  0  0  0  0  0  0  0  0  0  0  0
    0.5615    1.6875    1.7087 N   0  0  0  0  0  0  0  0  0  0  0  0
    1.3461    1.0849    1.9358 H   0  0  0  0  0  0  0  0  0  0  0  0
    0.5043    3.0121    2.3242 C   0  0  0  0  0  0  0  0  0  0  0  0
   -0.4649    3.1514    2.8080 H   0  0  0  0  0  0  0  0  0  0  0  0
    1.2959    3.1139    3.0678 H   0  0  0  0  0  0  0  0  0  0  0  0
    0.6273    3.7799    1.5584 H   0  0  0  0  0  0  0  0  0  0  0  0
  5  6  2  0  0  0  0
  5  7  1  0  0  0  0
  2  3  1  0  0  0  0
  2  4  1  0  0  0  0
  2  5  1  0  0  0  0
  1  2  1  0  0  0  0
 19 20  2  0  0  0  0
 19 21  1  0  0  0  0
 16 17  1  0  0  0  0
 16 18  1  0  0  0  0
 14 15  2  0  0  0  0
 14 16  1  0  0  0  0
 11 12  1  0  0  0  0
 11 13  1  0  0  0  0
 11 14  1  0  0  0  0
  9 10  1  0  0  0  0
  9 11  1  0  0  0  0
  9 19  1  0  0  0  0
  7  8  1  0  0  0  0
  7  9  1  0  0  0  0
 23 24  1  0  0  0  0
 23 25  1  0  0  0  0
 23 26  1  0  0  0  0
 21 22  1  0  0  0  0
 21 23  1  0  0  0  0
M  END
$$$$
default_name
  -OEChem-02102213163D

 26 25  0     1  0  0  0  0  0999 V2000
   -3.0232   -3.6924    1.0038 H   0  0  0  0  0  0  0  0  0  0  0  0
   -3.0082   -2.6684    0.6318 C   0  0  0  0  0  0  0  0  0  0  0  0
   -3.6332   -2.0414    1.2658 H   0  0  0  0  0  0  0  0  0  0  0  0
   -3.3762   -2.6444   -0.3912 H   0  0  0  0  0  0  0  0  0  0  0  0
   -1.5882   -2.1554    0.6658 C   0  0  0  0  0  0  0  0  0  0  0  0
   -0.6832   -2.8764    1.0638 O   0  0  0  0  0  0  0  0  0  0  0  0
   -1.3952   -0.9084    0.2428 N   0  0  0  0  0  0  0  0  0  0  0  0
   -2.1972   -0.3644   -0.0422 H   0  0  0  0  0  0  0  0  0  0  0  0
   -0.1122   -0.1994    0.2658 C   0  0  1  0  0  0  0  0  0  0  0  0
    0.5635   -0.7260    0.9446 H   0  0  0  0  0  0  0  0  0  0  0  0
    0.4924   -0.2204   -1.1558 C   0  0  0  0  0  0  0  0  0  0  0  0
   -0.1986    0.2633   -1.8453 H   0  0  0  0  0  0  0  0  0  0  0  0
    1.4261    0.3401   -1.1573 H   0  0  0  0  0  0  0  0  0  0  0  0
    0.7498   -1.6173   -1.6976 C   0  0  0  0  0  0  0  0  0  0  0  0
    1.8572   -2.0096   -2.0215 O   0  0  0  0  0  0  0  0  0  0  0  0
   -0.2766   -2.4227   -1.8252 N   0  0  0  0  0  0  0  0  0  0  0  0
   -0.0738   -3.3448   -2.1690 H   0  0  0  0  0  0  0  0  0  0  0  0
   -1.1946   -2.1304   -1.5480 H   0  0  0  0  0  0  0  0  0  0  0  0
   -0.3126    1.2341    0.8050 C   0  0  0  0  0  0  0  0  0  0  0  0
   -1.2484    1.9199    0.3934 O   0  0  0  0  0  0  0  0  0  0  0  0
    0.5615    1.6875    1.7087 N   0  0  0  0  0  0  0  0  0  0  0  0
    1.3461    1.0849    1.9358 H   0  0  0  0  0  0  0  0  0  0  0  0
    0.5043    3.0121    2.3242 C   0  0  0  0  0  0  0  0  0  0  0  0
   -0.4649    3.1514    2.8080 H   0  0  0  0  0  0  0  0  0  0  0  0
    1.2959    3.1139    3.0678 H   0  0  0  0  0  0  0  0  0  0  0  0
    0.6273    3.7799    1.5584 H   0  0  0  0  0  0  0  0  0  0  0  0
  5  6  2  0  0  0  0
  5  7  1  0  0  0  0
  2  3  1  0  0  0  0
  2  4  1  0  0  0  0
  2  5  1  0  0  0  0
  1  2  1  0  0  0  0
 19 20  2  0  0  0  0
 19 21  1  0  0  0  0
 16 17  1  0  0  0  0
 16 18  1  0  0  0  0
 14 15  2  0  0  0  0
 14 16  1  0  0  0  0
 11 12  1  0  0  0  0
 11 13  1  0  0  0  0
 11 14  1  0  0  0  0
  9 10  1  0  0  0  0
  9 11  1  0  0  0  0
  9 19  1  0  0  0  0
  7  8  1  0  0  0  0
  7  9  1  0  0  0  0
 23 24  1  0  0  0  0
 23 25  1  0  0  0  0
 23 26  1  0  0  0  0
 21 22  1  0  0  0  0
 21 23  1  0  0  0  0
M  END
$$$$
default_name
  -OEChem-02102213163D

 26 25  0     1  0  0  0  0  0999 V2000
   -3.0232   -3.6924    1.0038 H   0  0  0  0  0  0  0  0  0  0  0  0
   -3.0082   -2.6684    0.6318 C   0  0  0  0  0  0  0  0  0  0  0  0
   -3.6332   -2.0414    1.2658 H   0  0  0  0  0  0  0  0  0  0  0  0
   -3.3762   -2.6444   -0.3912 H   0  0  0  0  0  0  0  0  0  0  0  0
   -1.5882   -2.1554    0.6658 C   0  0  0  0  0  0  0  0  0  0  0  0
   -0.6832   -2.8764    1.0638 O   0  0  0  0  0  0  0  0  0  0  0  0
   -1.3952   -0.9084    0.2428 N   0  0  0  0  0  0  0  0  0  0  0  0
   -2.1972   -0.3644   -0.0422 H   0  0  0  0  0  0  0  0  0  0  0  0
   -0.1122   -0.1994    0.2658 C   0  0  1  0  0  0  0  0  0  0  0  0
    0.5635   -0.7260    0.9446 H   0  0  0  0  0  0  0  0  0  0  0  0
    0.4924   -0.2204   -1.1558 C   0  0  0  0  0  0  0  0  0  0  0  0
   -0.1986    0.2633   -1.8453 H   0  0  0  0  0  0  0  0  0  0  0  0
    1.4261    0.3401   -1.1573 H   0  0  0  0  0  0  0  0  0  0  0  0
    0.7498   -1.6173   -1.6976 C   0  0  0  0  0  0  0  0  0  0  0  0
    1.8642   -2.1049   -1.7724 O   0  0  0  0  0  0  0  0  0  0  0  0
   -0.2820   -2.3141   -2.1076 N   0  0  0  0  0  0  0  0  0  0  0  0
   -0.0836   -3.2399   -2.4441 H   0  0  0  0  0  0  0  0  0  0  0  0
   -1.2108   -1.9430   -2.0390 H   0  0  0  0  0  0  0  0  0  0  0  0
   -0.3126    1.2341    0.8050 C   0  0  0  0  0  0  0  0  0  0  0  0
   -1.2484    1.9199    0.3934 O   0  0  0  0  0  0  0  0  0  0  0  0
    0.5615    1.6875    1.7087 N   0  0  0  0  0  0  0  0  0  0  0  0
    1.3461    1.0849    1.9358 H   0  0  0  0  0  0  0  0  0  0  0  0
    0.5043    3.0121    2.3242 C   0  0  0  0  0  0  0  0  0  0  0  0
   -0.4649    3.1514    2.8080 H   0  0  0  0  0  0  0  0  0  0  0  0
    1.2959    3.1139    3.0678 H   0  0  0  0  0  0  0  0  0  0  0  0
    0.6273    3.7799    1.5584 H   0  0  0  0  0  0  0  0  0  0  0  0
  5  6  2  0  0  0  0
  5  7  1  0  0  0  0
  2  3  1  0  0  0  0
  2  4  1  0  0  0  0
  2  5  1  0  0  0  0
  1  2  1  0  0  0  0
 19 20  2  0  0  0  0
 19 21  1  0  0  0  0
 16 17  1  0  0  0  0
 16 18  1  0  0  0  0
 14 15  2  0  0  0  0
 14 16  1  0  0  0  0
 11 12  1  0  0  0  0
 11 13  1  0  0  0  0
 11 14  1  0  0  0  0
  9 10  1  0  0  0  0
  9 11  1  0  0  0  0
  9 19  1  0  0  0  0
  7  8  1  0  0  0  0
  7  9  1  0  0  0  0
 23 24  1  0  0  0  0
 23 25  1  0  0  0  0
 23 26  1  0  0  0  0
 21 22  1  0  0  0  0
 21 23  1  0  0  0  0
M  END
$$$$
default_name
  -OEChem-02102213163D

 26 25  0     1  0  0  0  0  0999 V2000
   -3.0232   -3.6924    1.0038 H   0  0  0  0  0  0  0  0  0  0  0  0
   -3.0082   -2.6684    0.6318 C   0  0  0  0  0  0  0  0  0  0  0  0
   -3.6332   -2.0414    1.2658 H   0  0  0  0  0  0  0  0  0  0  0  0
   -3.3762   -2.6444   -0.3912 H   0  0  0  0  0  0  0  0  0  0  0  0
   -1.5882   -2.1554    0.6658 C   0  0  0  0  0  0  0  0  0  0  0  0
   -0.6832   -2.8764    1.0638 O   0  0  0  0  0  0  0  0  0  0  0  0
   -1.3952   -0.9084    0.2428 N   0  0  0  0  0  0  0  0  0  0  0  0
   -2.1972   -0.3644   -0.0422 H   0  0  0  0  0  0  0  0  0  0  0  0
   -0.1122   -0.1994    0.2658 C   0  0  1  0  0  0  0  0  0  0  0  0
    0.5635   -0.7260    0.9446 H   0  0  0  0  0  0  0  0  0  0  0  0
    0.4924   -0.2204   -1.1558 C   0  0  0  0  0  0  0  0  0  0  0  0
   -0.1986    0.2633   -1.8453 H   0  0  0  0  0  0  0  0  0  0  0  0
    1.4261    0.3401   -1.1573 H   0  0  0  0  0  0  0  0  0  0  0  0
    0.7498   -1.6173   -1.6976 C   0  0  0  0  0  0  0  0  0  0  0  0
    1.8028   -2.2086   -1.5342 O   0  0  0  0  0  0  0  0  0  0  0  0
   -0.2101   -2.1964   -2.3770 N   0  0  0  0  0  0  0  0  0  0  0  0
   -0.0181   -3.1256   -2.7076 H   0  0  0  0  0  0  0  0  0  0  0  0
   -1.0923   -1.7388   -2.5090 H   0  0  0  0  0  0  0  0  0  0  0  0
   -0.3126    1.2341    0.8050 C   0  0  0  0  0  0  0  0  0  0  0  0
   -1.2484    1.9199    0.3934 O   0  0  0  0  0  0  0  0  0  0  0  0
    0.5615    1.6875    1.7087 N   0  0  0  0  0  0  0  0  0  0  0  0
    1.3461    1.0849    1.9358 H   0  0  0  0  0  0  0  0  0  0  0  0
    0.5043    3.0121    2.3242 C   0  0  0  0  0  0  0  0  0  0  0  0
   -0.4649    3.1514    2.8080 H   0  0  0  0  0  0  0  0  0  0  0  0
    1.2959    3.1139    3.0678 H   0  0  0  0  0  0  0  0  0  0  0  0
    0.6273    3.7799    1.5584 H   0  0  0  0  0  0  0  0  0  0  0  0
  5  6  2  0  0  0  0
  5  7  1  0  0  0  0
  2  3  1  0  0  0  0
  2  4  1  0  0  0  0
  2  5  1  0  0  0  0
  1  2  1  0  0  0  0
 19 20  2  0  0  0  0
 19 21  1  0  0  0  0
 16 17  1  0  0  0  0
 16 18  1  0  0  0  0
 14 15  2  0  0  0  0
 14 16  1  0  0  0  0
 11 12  1  0  0  0  0
 11 13  1  0  0  0  0
 11 14  1  0  0  0  0
  9 10  1  0  0  0  0
  9 11  1  0  0  0  0
  9 19  1  0  0  0  0
  7  8  1  0  0  0  0
  7  9  1  0  0  0  0
 23 24  1  0  0  0  0
 23 25  1  0  0  0  0
 23 26  1  0  0  0  0
 21 22  1  0  0  0  0
 21 23  1  0  0  0  0
M  END
$$$$
default_name
  -OEChem-02102213163D

 26 25  0     1  0  0  0  0  0999 V2000
   -3.0232   -3.6924    1.0038 H   0  0  0  0  0  0  0  0  0  0  0  0
   -3.0082   -2.6684    0.6318 C   0  0  0  0  0  0  0  0  0  0  0  0
   -3.6332   -2.0414    1.2658 H   0  0  0  0  0  0  0  0  0  0  0  0
   -3.3762   -2.6444   -0.3912 H   0  0  0  0  0  0  0  0  0  0  0  0
   -1.5882   -2.1554    0.6658 C   0  0  0  0  0  0  0  0  0  0  0  0
   -0.6832   -2.8764    1.0638 O   0  0  0  0  0  0  0  0  0  0  0  0
   -1.3952   -0.9084    0.2428 N   0  0  0  0  0  0  0  0  0  0  0  0
   -2.1972   -0.3644   -0.0422 H   0  0  0  0  0  0  0  0  0  0  0  0
   -0.1122   -0.1994    0.2658 C   0  0  1  0  0  0  0  0  0  0  0  0
    0.5635   -0.7260    0.9446 H   0  0  0  0  0  0  0  0  0  0  0  0
    0.4924   -0.2204   -1.1558 C   0  0  0  0  0  0  0  0  0  0  0  0
   -0.1986    0.2633   -1.8453 H   0  0  0  0  0  0  0  0  0  0  0  0
    1.4261    0.3401   -1.1573 H   0  0  0  0  0  0  0  0  0  0  0  0
    0.7498   -1.6173   -1.6976 C   0  0  0  0  0  0  0  0  0  0  0  0
    1.6774   -2.3135   -1.3233 O   0  0  0  0  0  0  0  0  0  0  0  0
   -0.0657   -2.0775   -2.6150 N   0  0  0  0  0  0  0  0  0  0  0  0
    0.1185   -3.0097   -2.9415 H   0  0  0  0  0  0  0  0  0  0  0  0
   -0.8472   -1.5320   -2.9259 H   0  0  0  0  0  0  0  0  0  0  0  0
   -0.3126    1.2341    0.8050 C   0  0  0  0  0  0  0  0  0  0  0  0
   -1.2484    1.9199    0.3934 O   0  0  0  0  0  0  0  0  0  0  0  0
    0.5615    1.6875    1.7087 N   0  0  0  0  0  0  0  0  0  0  0  0
    1.3461    1.0849    1.9358 H   0  0  0  0  0  0  0  0  0  0  0  0
    0.5043    3.0121    2.3242 C   0  0  0  0  0  0  0  0  0  0  0  0
   -0.4649    3.1514    2.8080 H   0  0  0  0  0  0  0  0  0  0  0  0
    1.2959    3.1139    3.0678 H   0  0  0  0  0  0  0  0  0  0  0  0
    0.6273    3.7799    1.5584 H   0  0  0  0  0  0  0  0  0  0  0  0
  5  6  2  0  0  0  0
  5  7  1  0  0  0  0
  2  3  1  0  0  0  0
  2  4  1  0  0  0  0
  2  5  1  0  0  0  0
  1  2  1  0  0  0  0
 19 20  2  0  0  0  0
 19 21  1  0  0  0  0
 16 17  1  0  0  0  0
 16 18  1  0  0  0  0
 14 15  2  0  0  0  0
 14 16  1  0  0  0  0
 11 12  1  0  0  0  0
 11 13  1  0  0  0  0
 11 14  1  0  0  0  0
  9 10  1  0  0  0  0
  9 11  1  0  0  0  0
  9 19  1  0  0  0  0
  7  8  1  0  0  0  0
  7  9  1  0  0  0  0
 23 24  1  0  0  0  0
 23 25  1  0  0  0  0
 23 26  1  0  0  0  0
 21 22  1  0  0  0  0
 21 23  1  0  0  0  0
M  END
$$$$
default_name
  -OEChem-02102213163D

 26 25  0     1  0  0  0  0  0999 V2000
   -3.0232   -3.6924    1.0038 H   0  0  0  0  0  0  0  0  0  0  0  0
   -3.0082   -2.6684    0.6318 C   0  0  0  0  0  0  0  0  0  0  0  0
   -3.6332   -2.0414    1.2658 H   0  0  0  0  0  0  0  0  0  0  0  0
   -3.3762   -2.6444   -0.3912 H   0  0  0  0  0  0  0  0  0  0  0  0
   -1.5882   -2.1554    0.6658 C   0  0  0  0  0  0  0  0  0  0  0  0
   -0.6832   -2.8764    1.0638 O   0  0  0  0  0  0  0  0  0  0  0  0
   -1.3952   -0.9084    0.2428 N   0  0  0  0  0  0  0  0  0  0  0  0
   -2.1972   -0.3644   -0.0422 H   0  0  0  0  0  0  0  0  0  0  0  0
   -0.1122   -0.1994    0.2658 C   0  0  1  0  0  0  0  0  0  0  0  0
    0.5635   -0.7260    0.9446 H   0  0  0  0  0  0  0  0  0  0  0  0
    0.4924   -0.2204   -1.1558 C   0  0  0  0  0  0  0  0  0  0  0  0
   -0.1986    0.2633   -1.8453 H   0  0  0  0  0  0  0  0  0  0  0  0
    1.4261    0.3401   -1.1573 H   0  0  0  0  0  0  0  0  0  0  0  0
    0.7498   -1.6173   -1.6976 C   0  0  0  0  0  0  0  0  0  0  0  0
    1.4964   -2.4125   -1.1540 O   0  0  0  0  0  0  0  0  0  0  0  0
    0.1413   -1.9655   -2.8052 N   0  0  0  0  0  0  0  0  0  0  0  0
    0.3167   -2.9001   -3.1299 H   0  0  0  0  0  0  0  0  0  0  0  0
   -0.4923   -1.3366   -3.2612 H   0  0  0  0  0  0  0  0  0  0  0  0
   -0.3126    1.2341    0.8050 C   0  0  0  0  0  0  0  0  0  0  0  0
   -1.2484    1.9199    0.3934 O   0  0  0  0  0  0  0  0  0  0  0  0
    0.5615    1.6875    1.7087 N   0  0  0  0  0  0  0  0  0  0  0  0
    1.3461    1.0849    1.9358 H   0  0  0  0  0  0  0  0  0  0  0  0
    0.5043    3.0121    2.3242 C   0  0  0  0  0  0  0  0  0  0  0  0
   -0.4649    3.1514    2.8080 H   0  0  0  0  0  0  0  0  0  0  0  0
    1.2959    3.1139    3.0678 H   0  0  0  0  0  0  0  0  0  0  0  0
    0.6273    3.7799    1.5584 H   0  0  0  0  0  0  0  0  0  0  0  0
  5  6  2  0  0  0  0
  5  7  1  0  0  0  0
  2  3  1  0  0  0  0
  2  4  1  0  0  0  0
  2  5  1  0  0  0  0
  1  2  1  0  0  0  0
 19 20  2  0  0  0  0
 19 21  1  0  0  0  0
 16 17  1  0  0  0  0
 16 18  1  0  0  0  0
 14 15  2  0  0  0  0
 14 16  1  0  0  0  0
 11 12  1  0  0  0  0
 11 13  1  0  0  0  0
 11 14  1  0  0  0  0
  9 10  1  0  0  0  0
  9 11  1  0  0  0  0
  9 19  1  0  0  0  0
  7  8  1  0  0  0  0
  7  9  1  0  0  0  0
 23 24  1  0  0  0  0
 23 25  1  0  0  0  0
 23 26  1  0  0  0  0
 21 22  1  0  0  0  0
 21 23  1  0  0  0  0
M  END
$$$$
default_name
  -OEChem-02102213163D

 26 25  0     1  0  0  0  0  0999 V2000
   -3.0232   -3.6924    1.0038 H   0  0  0  0  0  0  0  0  0  0  0  0
   -3.0082   -2.6684    0.6318 C   0  0  0  0  0  0  0  0  0  0  0  0
   -3.6332   -2.0414    1.2658 H   0  0  0  0  0  0  0  0  0  0  0  0
   -3.3762   -2.6444   -0.3912 H   0  0  0  0  0  0  0  0  0  0  0  0
   -1.5882   -2.1554    0.6658 C   0  0  0  0  0  0  0  0  0  0  0  0
   -0.6832   -2.8764    1.0638 O   0  0  0  0  0  0  0  0  0  0  0  0
   -1.3952   -0.9084    0.2428 N   0  0  0  0  0  0  0  0  0  0  0  0
   -2.1972   -0.3644   -0.0422 H   0  0  0  0  0  0  0  0  0  0  0  0
   -0.1122   -0.1994    0.2658 C   0  0  1  0  0  0  0  0  0  0  0  0
    0.5635   -0.7260    0.9446 H   0  0  0  0  0  0  0  0  0  0  0  0
    0.4924   -0.2204   -1.1558 C   0  0  0  0  0  0  0  0  0  0  0  0
   -0.1986    0.2633   -1.8453 H   0  0  0  0  0  0  0  0  0  0  0  0
    1.4261    0.3401   -1.1573 H   0  0  0  0  0  0  0  0  0  0  0  0
    0.7498   -1.6173   -1.6976 C   0  0  0  0  0  0  0  0  0  0  0  0
    1.2721   -2.4989   -1.0379 O   0  0  0  0  0  0  0  0  0  0  0  0
    0.3969   -1.8682   -2.9349 N   0  0  0  0  0  0  0  0  0  0  0  0
    0.5631   -2.8043   -3.2599 H   0  0  0  0  0  0  0  0  0  0  0  0
   -0.0518   -1.1658   -3.4921 H   0  0  0  0  0  0  0  0  0  0  0  0
   -0.3126    1.2341    0.8050 C   0  0  0  0  0  0  0  0  0  0  0  0
   -1.2484    1.9199    0.3934 O   0  0  0  0  0  0  0  0  0  0  0  0
    0.5615    1.6875    1.7087 N   0  0  0  0  0  0  0  0  0  0  0  0
    1.3461    1.0849    1.9358 H   0  0  0  0  0  0  0  0  0  0  0  0
    0.5043    3.0121    2.3242 C   0  0  0  0  0  0  0  0  0  0  0  0
   -0.4649    3.1514    2.8080 H   0  0  0  0  0  0  0  0  0  0  0  0
    1.2959    3.1139    3.0678 H   0  0  0  0  0  0  0  0  0  0  0  0
    0.6273    3.7799    1.5584 H   0  0  0  0  0  0  0  0  0  0  0  0
  5  6  2  0  0  0  0
  5  7  1  0  0  0  0
  2  3  1  0  0  0  0
  2  4  1  0  0  0  0
  2  5  1  0  0  0  0
  1  2  1  0  0  0  0
 19 20  2  0  0  0  0
 19 21  1  0  0  0  0
 16 17  1  0  0  0  0
 16 18  1  0  0  0  0
 14 15  2  0  0  0  0
 14 16  1  0  0  0  0
 11 12  1  0  0  0  0
 11 13  1  0  0  0  0
 11 14  1  0  0  0  0
  9 10  1  0  0  0  0
  9 11  1  0  0  0  0
  9 19  1  0  0  0  0
  7  8  1  0  0  0  0
  7  9  1  0  0  0  0
 23 24  1  0  0  0  0
 23 25  1  0  0  0  0
 23 26  1  0  0  0  0
 21 22  1  0  0  0  0
 21 23  1  0  0  0  0
M  END
$$$$
default_name
  -OEChem-02102213163D

 26 25  0     1  0  0  0  0  0999 V2000
   -3.0232   -3.6924    1.0038 H   0  0  0  0  0  0  0  0  0  0  0  0
   -3.0082   -2.6684    0.6318 C   0  0  0  0  0  0  0  0  0  0  0  0
   -3.6332   -2.0414    1.2658 H   0  0  0  0  0  0  0  0  0  0  0  0
   -3.3762   -2.6444   -0.3912 H   0  0  0  0  0  0  0  0  0  0  0  0
   -1.5882   -2.1554    0.6658 C   0  0  0  0  0  0  0  0  0  0  0  0
   -0.6832   -2.8764    1.0638 O   0  0  0  0  0  0  0  0  0  0  0  0
   -1.3952   -0.9084    0.2428 N   0  0  0  0  0  0  0  0  0  0  0  0
   -2.1972   -0.3644   -0.0422 H   0  0  0  0  0  0  0  0  0  0  0  0
   -0.1122   -0.1994    0.2658 C   0  0  1  0  0  0  0  0  0  0  0  0
    0.5635   -0.7260    0.9446 H   0  0  0  0  0  0  0  0  0  0  0  0
    0.4924   -0.2204   -1.1558 C   0  0  0  0  0  0  0  0  0  0  0  0
   -0.1986    0.2633   -1.8453 H   0  0  0  0  0  0  0  0  0  0  0  0
    1.4261    0.3401   -1.1573 H   0  0  0  0  0  0  0  0  0  0  0  0
    0.7498   -1.6173   -1.6976 C   0  0  0  0  0  0  0  0  0  0  0  0
    1.0200   -2.5667   -0.9828 O   0  0  0  0  0  0  0  0  0  0  0  0
    0.6836   -1.7920   -2.9951 N   0  0  0  0  0  0  0  0  0  0  0  0
    0.8409   -2.7288   -3.3227 H   0  0  0  0  0  0  0  0  0  0  0  0
    0.4445   -1.0314   -3.6029 H   0  0  0  0  0  0  0  0  0  0  0  0
   -0.3126    1.2341    0.8050 C   0  0  0  0  0  0  0  0  0  0  0  0
   -1.2484    1.9199    0.3934 O   0  0  0  0  0  0  0  0  0  0  0  0
    0.5615    1.6875    1.7087 N   0  0  0  0  0  0  0  0  0  0  0  0
    1.3461    1.0849    1.9358 H   0  0  0  0  0  0  0  0  0  0  0  0
    0.5043    3.0121    2.3242 C   0  0  0  0  0  0  0  0  0  0  0  0
   -0.4649    3.1514    2.8080 H   0  0  0  0  0  0  0  0  0  0  0  0
    1.2959    3.1139    3.0678 H   0  0  0  0  0  0  0  0  0  0  0  0
    0.6273    3.7799    1.5584 H   0  0  0  0  0  0  0  0  0  0  0  0
  5  6  2  0  0  0  0
  5  7  1  0  0  0  0
  2  3  1  0  0  0  0
  2  4  1  0  0  0  0
  2  5  1  0  0  0  0
  1  2  1  0  0  0  0
 19 20  2  0  0  0  0
 19 21  1  0  0  0  0
 16 17  1  0  0  0  0
 16 18  1  0  0  0  0
 14 15  2  0  0  0  0
 14 16  1  0  0  0  0
 11 12  1  0  0  0  0
 11 13  1  0  0  0  0
 11 14  1  0  0  0  0
  9 10  1  0  0  0  0
  9 11  1  0  0  0  0
  9 19  1  0  0  0  0
  7  8  1  0  0  0  0
  7  9  1  0  0  0  0
 23 24  1  0  0  0  0
 23 25  1  0  0  0  0
 23 26  1  0  0  0  0
 21 22  1  0  0  0  0
 21 23  1  0  0  0  0
M  END
$$$$
default_name
  -OEChem-02102213163D

 26 25  0     1  0  0  0  0  0999 V2000
   -3.0232   -3.6924    1.0038 H   0  0  0  0  0  0  0  0  0  0  0  0
   -3.0082   -2.6684    0.6318 C   0  0  0  0  0  0  0  0  0  0  0  0
   -3.6332   -2.0414    1.2658 H   0  0  0  0  0  0  0  0  0  0  0  0
   -3.3762   -2.6444   -0.3912 H   0  0  0  0  0  0  0  0  0  0  0  0
   -1.5882   -2.1554    0.6658 C   0  0  0  0  0  0  0  0  0  0  0  0
   -0.6832   -2.8764    1.0638 O   0  0  0  0  0  0  0  0  0  0  0  0
   -1.3952   -0.9084    0.2428 N   0  0  0  0  0  0  0  0  0  0  0  0
   -2.1972   -0.3644   -0.0422 H   0  0  0  0  0  0  0  0  0  0  0  0
   -0.1122   -0.1994    0.2658 C   0  0  1  0  0  0  0  0  0  0  0  0
    0.5635   -0.7260    0.9446 H   0  0  0  0  0  0  0  0  0  0  0  0
    0.4924   -0.2204   -1.1558 C   0  0  0  0  0  0  0  0  0  0  0  0
   -0.1986    0.2633   -1.8453 H   0  0  0  0  0  0  0  0  0  0  0  0
    1.4261    0.3401   -1.1573 H   0  0  0  0  0  0  0  0  0  0  0  0
    0.7498   -1.6173   -1.6976 C   0  0  0  0  0  0  0  0  0  0  0  0
    0.7570   -2.6114   -0.9926 O   0  0  0  0  0  0  0  0  0  0  0  0
    0.9818   -1.7423   -2.9817 N   0  0  0  0  0  0  0  0  0  0  0  0
    1.1311   -2.6787   -3.3140 H   0  0  0  0  0  0  0  0  0  0  0  0
    0.9625   -0.9425   -3.5860 H   0  0  0  0  0  0  0  0  0  0  0  0
   -0.3126    1.2341    0.8050 C   0  0  0  0  0  0  0  0  0  0  0  0
   -1.2484    1.9199    0.3934 O   0  0  0  0  0  0  0  0  0  0  0  0
    0.5615    1.6875    1.7087 N   0  0  0  0  0  0  0  0  0  0  0  0
    1.3461    1.0849    1.9358 H   0  0  0  0  0  0  0  0  0  0  0  0
    0.5043    3.0121    2.3242 C   0  0  0  0  0  0  0  0  0  0  0  0
   -0.4649    3.1514    2.8080 H   0  0  0  0  0  0  0  0  0  0  0  0
    1.2959    3.1139    3.0678 H   0  0  0  0  0  0  0  0  0  0  0  0
    0.6273    3.7799    1.5584 H   0  0  0  0  0  0  0  0  0  0  0  0
  5  6  2  0  0  0  0
  5  7  1  0  0  0  0
  2  3  1  0  0  0  0
  2  4  1  0  0  0  0
  2  5  1  0  0  0  0
  1  2  1  0  0  0  0
 19 20  2  0  0  0  0
 19 21  1  0  0  0  0
 16 17  1  0  0  0  0
 16 18  1  0  0  0  0
 14 15  2  0  0  0  0
 14 16  1  0  0  0  0
 11 12  1  0  0  0  0
 11 13  1  0  0  0  0
 11 14  1  0  0  0  0
  9 10  1  0  0  0  0
  9 11  1  0  0  0  0
  9 19  1  0  0  0  0
  7  8  1  0  0  0  0
  7  9  1  0  0  0  0
 23 24  1  0  0  0  0
 23 25  1  0  0  0  0
 23 26  1  0  0  0  0
 21 22  1  0  0  0  0
 21 23  1  0  0  0  0
M  END
$$$$
default_name
  -OEChem-02102213163D

 26 25  0     1  0  0  0  0  0999 V2000
   -3.0232   -3.6924    1.0038 H   0  0  0  0  0  0  0  0  0  0  0  0
   -3.0082   -2.6684    0.6318 C   0  0  0  0  0  0  0  0  0  0  0  0
   -3.6332   -2.0414    1.2658 H   0  0  0  0  0  0  0  0  0  0  0  0
   -3.3762   -2.6444   -0.3912 H   0  0  0  0  0  0  0  0  0  0  0  0
   -1.5882   -2.1554    0.6658 C   0  0  0  0  0  0  0  0  0  0  0  0
   -0.6832   -2.8764    1.0638 O   0  0  0  0  0  0  0  0  0  0  0  0
   -1.3952   -0.9084    0.2428 N   0  0  0  0  0  0  0  0  0  0  0  0
   -2.1972   -0.3644   -0.0422 H   0  0  0  0  0  0  0  0  0  0  0  0
   -0.1122   -0.1994    0.2658 C   0  0  1  0  0  0  0  0  0  0  0  0
    0.5635   -0.7260    0.9446 H   0  0  0  0  0  0  0  0  0  0  0  0
    0.4924   -0.2204   -1.1558 C   0  0  0  0  0  0  0  0  0  0  0  0
   -0.1986    0.2633   -1.8453 H   0  0  0  0  0  0  0  0  0  0  0  0
    1.4261    0.3401   -1.1573 H   0  0  0  0  0  0  0  0  0  0  0  0
    0.7498   -1.6173   -1.6976 C   0  0  0  0  0  0  0  0  0  0  0  0
    0.5012   -2.6298   -1.0665 O   0  0  0  0  0  0  0  0  0  0  0  0
    1.2713   -1.7223   -2.8957 N   0  0  0  0  0  0  0  0  0  0  0  0
    1.4139   -2.6575   -3.2344 H   0  0  0  0  0  0  0  0  0  0  0  0
    1.4671   -0.9052   -3.4425 H   0  0  0  0  0  0  0  0  0  0  0  0
   -0.3126    1.2341    0.8050 C   0  0  0  0  0  0  0  0  0  0  0  0
   -1.2484    1.9199    0.3934 O   0  0  0  0  0  0  0  0  0  0  0  0
    0.5615    1.6875    1.7087 N   0  0  0  0  0  0  0  0  0  0  0  0
    1.3461    1.0849    1.9358 H   0  0  0  0  0  0  0  0  0  0  0  0
    0.5043    3.0121    2.3242 C   0  0  0  0  0  0  0  0  0  0  0  0
   -0.4649    3.1514    2.8080 H   0  0  0  0  0  0  0  0  0  0  0  0
    1.2959    3.1139    3.0678 H   0  0  0  0  0  0  0  0  0  0  0  0
    0.6273    3.7799    1.5584 H   0  0  0  0  0  0  0  0  0  0  0  0
  5  6  2  0  0  0  0
  5  7  1  0  0  0  0
  2  3  1  0  0  0  0
  2  4  1  0  0  0  0
  2  5  1  0  0  0  0
  1  2  1  0  0  0  0
 19 20  2  0  0  0  0
 19 21  1  0  0  0  0
 16 17  1  0  0  0  0
 16 18  1  0  0  0  0
 14 15  2  0  0  0  0
 14 16  1  0  0  0  0
 11 12  1  0  0  0  0
 11 13  1  0  0  0  0
 11 14  1  0  0  0  0
  9 10  1  0  0  0  0
  9 11  1  0  0  0  0
  9 19  1  0  0  0  0
  7  8  1  0  0  0  0
  7  9  1  0  0  0  0
 23 24  1  0  0  0  0
 23 25  1  0  0  0  0
 23 26  1  0  0  0  0
 21 22  1  0  0  0  0
 21 23  1  0  0  0  0
M  END
$$$$
default_name
  -OEChem-02102213163D

 26 25  0     1  0  0  0  0  0999 V2000
   -3.0232   -3.6924    1.0038 H   0  0  0  0  0  0  0  0  0  0  0  0
   -3.0082   -2.6684    0.6318 C   0  0  0  0  0  0  0  0  0  0  0  0
   -3.6332   -2.0414    1.2658 H   0  0  0  0  0  0  0  0  0  0  0  0
   -3.3762   -2.6444   -0.3912 H   0  0  0  0  0  0  0  0  0  0  0  0
   -1.5882   -2.1554    0.6658 C   0  0  0  0  0  0  0  0  0  0  0  0
   -0.6832   -2.8764    1.0638 O   0  0  0  0  0  0  0  0  0  0  0  0
   -1.3952   -0.9084    0.2428 N   0  0  0  0  0  0  0  0  0  0  0  0
   -2.1972   -0.3644   -0.0422 H   0  0  0  0  0  0  0  0  0  0  0  0
   -0.1122   -0.1994    0.2658 C   0  0  1  0  0  0  0  0  0  0  0  0
    0.5635   -0.7260    0.9446 H   0  0  0  0  0  0  0  0  0  0  0  0
    0.4924   -0.2204   -1.1558 C   0  0  0  0  0  0  0  0  0  0  0  0
   -0.1986    0.2633   -1.8453 H   0  0  0  0  0  0  0  0  0  0  0  0
    1.4261    0.3401   -1.1573 H   0  0  0  0  0  0  0  0  0  0  0  0
    0.7498   -1.6173   -1.6976 C   0  0  0  0  0  0  0  0  0  0  0  0
    0.2701   -2.6208   -1.1996 O   0  0  0  0  0  0  0  0  0  0  0  0
    1.5323   -1.7335   -2.7429 N   0  0  0  0  0  0  0  0  0  0  0  0
    1.6701   -2.6665   -3.0893 H   0  0  0  0  0  0  0  0  0  0  0  0
    1.9239   -0.9220   -3.1824 H   0  0  0  0  0  0  0  0  0  0  0  0
   -0.3126    1.2341    0.8050 C   0  0  0  0  0  0  0  0  0  0  0  0
   -1.2484    1.9199    0.3934 O   0  0  0  0  0  0  0  0  0  0  0  0
    0.5615    1.6875    1.7087 N   0  0  0  0  0  0  0  0  0  0  0  0
    1.3461    1.0849    1.9358 H   0  0  0  0  0  0  0  0  0  0  0  0
    0.5043    3.0121    2.3242 C   0  0  0  0  0  0  0  0  0  0  0  0
   -0.4649    3.1514    2.8080 H   0  0  0  0  0  0  0  0  0  0  0  0
    1.2959    3.1139    3.0678 H   0  0  0  0  0  0  0  0  0  0  0  0
    0.6273    3.7799    1.5584 H   0  0  0  0  0  0  0  0  0  0  0  0
  5  6  2  0  0  0  0
  5  7  1  0  0  0  0
  2  3  1  0  0  0  0
  2  4  1  0  0  0  0
  2  5  1  0  0  0  0
  1  2  1  0  0  0  0
 19 20  2  0  0  0  0
 19 21  1  0  0  0  0
 16 17  1  0  0  0  0
 16 18  1  0  0  0  0
 14 15  2  0  0  0  0
 14 16  1  0  0  0  0
 11 12  1  0  0  0  0
 11 13  1  0  0  0  0
 11 14  1  0  0  0  0
  9 10  1  0  0  0  0
  9 11  1  0  0  0  0
  9 19  1  0  0  0  0
  7  8  1  0  0  0  0
  7  9  1  0  0  0  0
 23 24  1  0  0  0  0
 23 25  1  0  0  0  0
 23 26  1  0  0  0  0
 21 22  1  0  0  0  0
 21 23  1  0  0  0  0
M  END
$$$$
default_name
  -OEChem-02102213163D

 26 25  0     1  0  0  0  0  0999 V2000
   -3.0232   -3.6924    1.0038 H   0  0  0  0  0  0  0  0  0  0  0  0
   -3.0082   -2.6684    0.6318 C   0  0  0  0  0  0  0  0  0  0  0  0
   -3.6332   -2.0414    1.2658 H   0  0  0  0  0  0  0  0  0  0  0  0
   -3.3762   -2.6444   -0.3912 H   0  0  0  0  0  0  0  0  0  0  0  0
   -1.5882   -2.1554    0.6658 C   0  0  0  0  0  0  0  0  0  0  0  0
   -0.6832   -2.8764    1.0638 O   0  0  0  0  0  0  0  0  0  0  0  0
   -1.3952   -0.9084    0.2428 N   0  0  0  0  0  0  0  0  0  0  0  0
   -2.1972   -0.3644   -0.0422 H   0  0  0  0  0  0  0  0  0  0  0  0
   -0.1122   -0.1994    0.2658 C   0  0  1  0  0  0  0  0  0  0  0  0
    0.5635   -0.7260    0.9446 H   0  0  0  0  0  0  0  0  0  0  0  0
    0.4924   -0.2204   -1.1558 C   0  0  0  0  0  0  0  0  0  0  0  0
   -0.1986    0.2633   -1.8453 H   0  0  0  0  0  0  0  0  0  0  0  0
    1.4261    0.3401   -1.1573 H   0  0  0  0  0  0  0  0  0  0  0  0
    0.7498   -1.6173   -1.6976 C   0  0  0  0  0  0  0  0  0  0  0  0
    0.0792   -2.5850   -1.3827 O   0  0  0  0  0  0  0  0  0  0  0  0
    1.7470   -1.7750   -2.5337 N   0  0  0  0  0  0  0  0  0  0  0  0
    1.8823   -2.7053   -2.8886 H   0  0  0  0  0  0  0  0  0  0  0  0
    2.3016   -0.9917   -2.8232 H   0  0  0  0  0  0  0  0  0  0  0  0
   -0.3126    1.2341    0.8050 C   0  0  0  0  0  0  0  0  0  0  0  0
   -1.2484    1.9199    0.3934 O   0  0  0  0  0  0  0  0  0  0  0  0
    0.5615    1.6875    1.7087 N   0  0  0  0  0  0  0  0  0  0  0  0
    1.3461    1.0849    1.9358 H   0  0  0  0  0  0  0  0  0  0  0  0
    0.5043    3.0121    2.3242 C   0  0  0  0  0  0  0  0  0  0  0  0
   -0.4649    3.1514    2.8080 H   0  0  0  0  0  0  0  0  0  0  0  0
    1.2959    3.1139    3.0678 H   0  0  0  0  0  0  0  0  0  0  0  0
    0.6273    3.7799    1.5584 H   0  0  0  0  0  0  0  0  0  0  0  0
  5  6  2  0  0  0  0
  5  7  1  0  0  0  0
  2  3  1  0  0  0  0
  2  4  1  0  0  0  0
  2  5  1  0  0  0  0
  1  2  1  0  0  0  0
 19 20  2  0  0  0  0
 19 21  1  0  0  0  0
 16 17  1  0  0  0  0
 16 18  1  0  0  0  0
 14 15  2  0  0  0  0
 14 16  1  0  0  0  0
 11 12  1  0  0  0  0
 11 13  1  0  0  0  0
 11 14  1  0  0  0  0
  9 10  1  0  0  0  0
  9 11  1  0  0  0  0
  9 19  1  0  0  0  0
  7  8  1  0  0  0  0
  7  9  1  0  0  0  0
 23 24  1  0  0  0  0
 23 25  1  0  0  0  0
 23 26  1  0  0  0  0
 21 22  1  0  0  0  0
 21 23  1  0  0  0  0
M  END
$$$$
default_name
  -OEChem-02102213163D

 26 25  0     1  0  0  0  0  0999 V2000
   -3.0232   -3.6924    1.0038 H   0  0  0  0  0  0  0  0  0  0  0  0
   -3.0082   -2.6684    0.6318 C   0  0  0  0  0  0  0  0  0  0  0  0
   -3.6332   -2.0414    1.2658 H   0  0  0  0  0  0  0  0  0  0  0  0
   -3.3762   -2.6444   -0.3912 H   0  0  0  0  0  0  0  0  0  0  0  0
   -1.5882   -2.1554    0.6658 C   0  0  0  0  0  0  0  0  0  0  0  0
   -0.6832   -2.8764    1.0638 O   0  0  0  0  0  0  0  0  0  0  0  0
   -1.3952   -0.9084    0.2428 N   0  0  0  0  0  0  0  0  0  0  0  0
   -2.1972   -0.3644   -0.0422 H   0  0  0  0  0  0  0  0  0  0  0  0
   -0.1122   -0.1994    0.2658 C   0  0  1  0  0  0  0  0  0  0  0  0
    0.5635   -0.7260    0.9446 H   0  0  0  0  0  0  0  0  0  0  0  0
    0.4924   -0.2204   -1.1558 C   0  0  0  0  0  0  0  0  0  0  0  0
   -0.1986    0.2633   -1.8453 H   0  0  0  0  0  0  0  0  0  0  0  0
    1.4261    0.3401   -1.1573 H   0  0  0  0  0  0  0  0  0  0  0  0
    0.7498   -1.6173   -1.6976 C   0  0  0  0  0  0  0  0  0  0  0  0
   -0.0582   -2.5247   -1.6033 O   0  0  0  0  0  0  0  0  0  0  0  0
    1.9009   -1.8442   -2.2824 N   0  0  0  0  0  0  0  0  0  0  0  0
    2.0359   -2.7711   -2.6460 H   0  0  0  0  0  0  0  0  0  0  0  0
    2.5747   -1.1096   -2.3894 H   0  0  0  0  0  0  0  0  0  0  0  0
   -0.3126    1.2341    0.8050 C   0  0  0  0  0  0  0  0  0  0  0  0
   -1.2484    1.9199    0.3934 O   0  0  0  0  0  0  0  0  0  0  0  0
    0.5615    1.6875    1.7087 N   0  0  0  0  0  0  0  0  0  0  0  0
    1.3461    1.0849    1.9358 H   0  0  0  0  0  0  0  0  0  0  0  0
    0.5043    3.0121    2.3242 C   0  0  0  0  0  0  0  0  0  0  0  0
   -0.4649    3.1514    2.8080 H   0  0  0  0  0  0  0  0  0  0  0  0
    1.2959    3.1139    3.0678 H   0  0  0  0  0  0  0  0  0  0  0  0
    0.6273    3.7799    1.5584 H   0  0  0  0  0  0  0  0  0  0  0  0
  5  6  2  0  0  0  0
  5  7  1  0  0  0  0
  2  3  1  0  0  0  0
  2  4  1  0  0  0  0
  2  5  1  0  0  0  0
  1  2  1  0  0  0  0
 19 20  2  0  0  0  0
 19 21  1  0  0  0  0
 16 17  1  0  0  0  0
 16 18  1  0  0  0  0
 14 15  2  0  0  0  0
 14 16  1  0  0  0  0
 11 12  1  0  0  0  0
 11 13  1  0  0  0  0
 11 14  1  0  0  0  0
  9 10  1  0  0  0  0
  9 11  1  0  0  0  0
  9 19  1  0  0  0  0
  7  8  1  0  0  0  0
  7  9  1  0  0  0  0
 23 24  1  0  0  0  0
 23 25  1  0  0  0  0
 23 26  1  0  0  0  0
 21 22  1  0  0  0  0
 21 23  1  0  0  0  0
M  END
$$$$
default_name
  -OEChem-02102213163D

 26 25  0     1  0  0  0  0  0999 V2000
   -3.0232   -3.6924    1.0038 H   0  0  0  0  0  0  0  0  0  0  0  0
   -3.0082   -2.6684    0.6318 C   0  0  0  0  0  0  0  0  0  0  0  0
   -3.6332   -2.0414    1.2658 H   0  0  0  0  0  0  0  0  0  0  0  0
   -3.3762   -2.6444   -0.3912 H   0  0  0  0  0  0  0  0  0  0  0  0
   -1.5882   -2.1554    0.6658 C   0  0  0  0  0  0  0  0  0  0  0  0
   -0.6832   -2.8764    1.0638 O   0  0  0  0  0  0  0  0  0  0  0  0
   -1.3952   -0.9084    0.2428 N   0  0  0  0  0  0  0  0  0  0  0  0
   -2.1972   -0.3644   -0.0422 H   0  0  0  0  0  0  0  0  0  0  0  0
   -0.1122   -0.1994    0.2658 C   0  0  1  0  0  0  0  0  0  0  0  0
    0.5635   -0.7260    0.9446 H   0  0  0  0  0  0  0  0  0  0  0  0
    0.4924   -0.2204   -1.1558 C   0  0  0  0  0  0  0  0  0  0  0  0
   -0.1986    0.2633   -1.8453 H   0  0  0  0  0  0  0  0  0  0  0  0
    1.4261    0.3401   -1.1573 H   0  0  0  0  0  0  0  0  0  0  0  0
    0.7498   -1.6173   -1.6976 C   0  0  0  0  0  0  0  0  0  0  0  0
   -0.1330   -2.4442   -1.8465 O   0  0  0  0  0  0  0  0  0  0  0  0
    1.9833   -1.9361   -2.0061 N   0  0  0  0  0  0  0  0  0  0  0  0
    2.1206   -2.8594   -2.3780 H   0  0  0  0  0  0  0  0  0  0  0  0
    2.7244   -1.2677   -1.9107 H   0  0  0  0  0  0  0  0  0  0  0  0
   -0.3126    1.2341    0.8050 C   0  0  0  0  0  0  0  0  0  0  0  0
   -1.2484    1.9199    0.3934 O   0  0  0  0  0  0  0  0  0  0  0  0
    0.5615    1.6875    1.7087 N   0  0  0  0  0  0  0  0  0  0  0  0
    1.3461    1.0849    1.9358 H   0  0  0  0  0  0  0  0  0  0  0  0
    0.5043    3.0121    2.3242 C   0  0  0  0  0  0  0  0  0  0  0  0
   -0.4649    3.1514    2.8080 H   0  0  0  0  0  0  0  0  0  0  0  0
    1.2959    3.1139    3.0678 H   0  0  0  0  0  0  0  0  0  0  0  0
    0.6273    3.7799    1.5584 H   0  0  0  0  0  0  0  0  0  0  0  0
  5  6  2  0  0  0  0
  5  7  1  0  0  0  0
  2  3  1  0  0  0  0
  2  4  1  0  0  0  0
  2  5  1  0  0  0  0
  1  2  1  0  0  0  0
 19 20  2  0  0  0  0
 19 21  1  0  0  0  0
 16 17  1  0  0  0  0
 16 18  1  0  0  0  0
 14 15  2  0  0  0  0
 14 16  1  0  0  0  0
 11 12  1  0  0  0  0
 11 13  1  0  0  0  0
 11 14  1  0  0  0  0
  9 10  1  0  0  0  0
  9 11  1  0  0  0  0
  9 19  1  0  0  0  0
  7  8  1  0  0  0  0
  7  9  1  0  0  0  0
 23 24  1  0  0  0  0
 23 25  1  0  0  0  0
 23 26  1  0  0  0  0
 21 22  1  0  0  0  0
 21 23  1  0  0  0  0
M  END
$$$$
default_name
  -OEChem-02102213163D

 26 25  0     1  0  0  0  0  0999 V2000
   -3.0232   -3.6924    1.0038 H   0  0  0  0  0  0  0  0  0  0  0  0
   -3.0082   -2.6684    0.6318 C   0  0  0  0  0  0  0  0  0  0  0  0
   -3.6332   -2.0414    1.2658 H   0  0  0  0  0  0  0  0  0  0  0  0
   -3.3762   -2.6444   -0.3912 H   0  0  0  0  0  0  0  0  0  0  0  0
   -1.5882   -2.1554    0.6658 C   0  0  0  0  0  0  0  0  0  0  0  0
   -0.6832   -2.8764    1.0638 O   0  0  0  0  0  0  0  0  0  0  0  0
   -1.3952   -0.9084    0.2428 N   0  0  0  0  0  0  0  0  0  0  0  0
   -2.1972   -0.3644   -0.0422 H   0  0  0  0  0  0  0  0  0  0  0  0
   -0.1122   -0.1994    0.2658 C   0  0  1  0  0  0  0  0  0  0  0  0
    0.5635   -0.7260    0.9446 H   0  0  0  0  0  0  0  0  0  0  0  0
    0.4924   -0.2204   -1.1558 C   0  0  0  0  0  0  0  0  0  0  0  0
   -0.1986    0.2633   -1.8453 H   0  0  0  0  0  0  0  0  0  0  0  0
    1.4261    0.3401   -1.1573 H   0  0  0  0  0  0  0  0  0  0  0  0
    0.7498   -1.6173   -1.6976 C   0  0  0  0  0  0  0  0  0  0  0  0
   -0.1399   -2.3488   -2.0957 O   0  0  0  0  0  0  0  0  0  0  0  0
    1.9888   -2.0447   -1.7236 N   0  0  0  0  0  0  0  0  0  0  0  0
    2.1304   -2.9643   -2.1029 H   0  0  0  0  0  0  0  0  0  0  0  0
    2.7405   -1.4552   -1.4196 H   0  0  0  0  0  0  0  0  0  0  0  0
   -0.3126    1.2341    0.8050 C   0  0  0  0  0  0  0  0  0  0  0  0
   -1.2484    1.9199    0.3934 O   0  0  0  0  0  0  0  0  0  0  0  0
    0.5615    1.6875    1.7087 N   0  0  0  0  0  0  0  0  0  0  0  0
    1.3461    1.0849    1.9358 H   0  0  0  0  0  0  0  0  0  0  0  0
    0.5043    3.0121    2.3242 C   0  0  0  0  0  0  0  0  0  0  0  0
   -0.4649    3.1514    2.8080 H   0  0  0  0  0  0  0  0  0  0  0  0
    1.2959    3.1139    3.0678 H   0  0  0  0  0  0  0  0  0  0  0  0
    0.6273    3.7799    1.5584 H   0  0  0  0  0  0  0  0  0  0  0  0
  5  6  2  0  0  0  0
  5  7  1  0  0  0  0
  2  3  1  0  0  0  0
  2  4  1  0  0  0  0
  2  5  1  0  0  0  0
  1  2  1  0  0  0  0
 19 20  2  0  0  0  0
 19 21  1  0  0  0  0
 16 17  1  0  0  0  0
 16 18  1  0  0  0  0
 14 15  2  0  0  0  0
 14 16  1  0  0  0  0
 11 12  1  0  0  0  0
 11 13  1  0  0  0  0
 11 14  1  0  0  0  0
  9 10  1  0  0  0  0
  9 11  1  0  0  0  0
  9 19  1  0  0  0  0
  7  8  1  0  0  0  0
  7  9  1  0  0  0  0
 23 24  1  0  0  0  0
 23 25  1  0  0  0  0
 23 26  1  0  0  0  0
 21 22  1  0  0  0  0
 21 23  1  0  0  0  0
M  END
$$$$
default_name
  -OEChem-02102213163D

 26 25  0     1  0  0  0  0  0999 V2000
   -3.0232   -3.6924    1.0038 H   0  0  0  0  0  0  0  0  0  0  0  0
   -3.0082   -2.6684    0.6318 C   0  0  0  0  0  0  0  0  0  0  0  0
   -3.6332   -2.0414    1.2658 H   0  0  0  0  0  0  0  0  0  0  0  0
   -3.3762   -2.6444   -0.3912 H   0  0  0  0  0  0  0  0  0  0  0  0
   -1.5882   -2.1554    0.6658 C   0  0  0  0  0  0  0  0  0  0  0  0
   -0.6832   -2.8764    1.0638 O   0  0  0  0  0  0  0  0  0  0  0  0
   -1.3952   -0.9084    0.2428 N   0  0  0  0  0  0  0  0  0  0  0  0
   -2.1972   -0.3644   -0.0422 H   0  0  0  0  0  0  0  0  0  0  0  0
   -0.1122   -0.1994    0.2658 C   0  0  1  0  0  0  0  0  0  0  0  0
    0.5635   -0.7260    0.9446 H   0  0  0  0  0  0  0  0  0  0  0  0
    0.4924   -0.2204   -1.1558 C   0  0  0  0  0  0  0  0  0  0  0  0
   -0.1986    0.2633   -1.8453 H   0  0  0  0  0  0  0  0  0  0  0  0
    1.4261    0.3401   -1.1573 H   0  0  0  0  0  0  0  0  0  0  0  0
    0.7498   -1.6173   -1.6976 C   0  0  0  0  0  0  0  0  0  0  0  0
   -0.0786   -2.2451   -2.3338 O   0  0  0  0  0  0  0  0  0  0  0  0
    1.9168   -2.1624   -1.4542 N   0  0  0  0  0  0  0  0  0  0  0  0
    2.0648   -3.0786   -1.8394 H   0  0  0  0  0  0  0  0  0  0  0  0
    2.6220   -1.6593   -0.9496 H   0  0  0  0  0  0  0  0  0  0  0  0
   -0.3126    1.2341    0.8050 C   0  0  0  0  0  0  0  0  0  0  0  0
   -1.2484    1.9199    0.3934 O   0  0  0  0  0  0  0  0  0  0  0  0
    0.5615    1.6875    1.7087 N   0  0  0  0  0  0  0  0  0  0  0  0
    1.3461    1.0849    1.9358 H   0  0  0  0  0  0  0  0  0  0  0  0
    0.5043    3.0121    2.3242 C   0  0  0  0  0  0  0  0  0  0  0  0
   -0.4649    3.1514    2.8080 H   0  0  0  0  0  0  0  0  0  0  0  0
    1.2959    3.1139    3.0678 H   0  0  0  0  0  0  0  0  0  0  0  0
    0.6273    3.7799    1.5584 H   0  0  0  0  0  0  0  0  0  0  0  0
  5  6  2  0  0  0  0
  5  7  1  0  0  0  0
  2  3  1  0  0  0  0
  2  4  1  0  0  0  0
  2  5  1  0  0  0  0
  1  2  1  0  0  0  0
 19 20  2  0  0  0  0
 19 21  1  0  0  0  0
 16 17  1  0  0  0  0
 16 18  1  0  0  0  0
 14 15  2  0  0  0  0
 14 16  1  0  0  0  0
 11 12  1  0  0  0  0
 11 13  1  0  0  0  0
 11 14  1  0  0  0  0
  9 10  1  0  0  0  0
  9 11  1  0  0  0  0
  9 19  1  0  0  0  0
  7  8  1  0  0  0  0
  7  9  1  0  0  0  0
 23 24  1  0  0  0  0
 23 25  1  0  0  0  0
 23 26  1  0  0  0  0
 21 22  1  0  0  0  0
 21 23  1  0  0  0  0
M  END
$$$$
default_name
  -OEChem-02102213163D

 26 25  0     1  0  0  0  0  0999 V2000
   -3.0232   -3.6924    1.0038 H   0  0  0  0  0  0  0  0  0  0  0  0
   -3.0082   -2.6684    0.6318 C   0  0  0  0  0  0  0  0  0  0  0  0
   -3.6332   -2.0414    1.2658 H   0  0  0  0  0  0  0  0  0  0  0  0
   -3.3762   -2.6444   -0.3912 H   0  0  0  0  0  0  0  0  0  0  0  0
   -1.5882   -2.1554    0.6658 C   0  0  0  0  0  0  0  0  0  0  0  0
   -0.6832   -2.8764    1.0638 O   0  0  0  0  0  0  0  0  0  0  0  0
   -1.3952   -0.9084    0.2428 N   0  0  0  0  0  0  0  0  0  0  0  0
   -2.1972   -0.3644   -0.0422 H   0  0  0  0  0  0  0  0  0  0  0  0
   -0.1122   -0.1994    0.2658 C   0  0  1  0  0  0  0  0  0  0  0  0
    0.5635   -0.7260    0.9446 H   0  0  0  0  0  0  0  0  0  0  0  0
    0.4924   -0.2204   -1.1558 C   0  0  0  0  0  0  0  0  0  0  0  0
   -0.1986    0.2633   -1.8453 H   0  0  0  0  0  0  0  0  0  0  0  0
    1.4261    0.3401   -1.1573 H   0  0  0  0  0  0  0  0  0  0  0  0
    0.7498   -1.6173   -1.6976 C   0  0  0  0  0  0  0  0  0  0  0  0
    0.0469   -2.1402   -2.5447 O   0  0  0  0  0  0  0  0  0  0  0  0
    1.7724   -2.2813   -1.2163 N   0  0  0  0  0  0  0  0  0  0  0  0
    1.9283   -3.1945   -1.6054 H   0  0  0  0  0  0  0  0  0  0  0  0
    2.3770   -1.8661   -0.5328 H   0  0  0  0  0  0  0  0  0  0  0  0
   -0.3126    1.2341    0.8050 C   0  0  0  0  0  0  0  0  0  0  0  0
   -1.2484    1.9199    0.3934 O   0  0  0  0  0  0  0  0  0  0  0  0
    0.5615    1.6875    1.7087 N   0  0  0  0  0  0  0  0  0  0  0  0
    1.3461    1.0849    1.9358 H   0  0  0  0  0  0  0  0  0  0  0  0
    0.5043    3.0121    2.3242 C   0  0  0  0  0  0  0  0  0  0  0  0
   -0.4649    3.1514    2.8080 H   0  0  0  0  0  0  0  0  0  0  0  0
    1.2959    3.1139    3.0678 H   0  0  0  0  0  0  0  0  0  0  0  0
    0.6273    3.7799    1.5584 H   0  0  0  0  0  0  0  0  0  0  0  0
  5  6  2  0  0  0  0
  5  7  1  0  0  0  0
  2  3  1  0  0  0  0
  2  4  1  0  0  0  0
  2  5  1  0  0  0  0
  1  2  1  0  0  0  0
 19 20  2  0  0  0  0
 19 21  1  0  0  0  0
 16 17  1  0  0  0  0
 16 18  1  0  0  0  0
 14 15  2  0  0  0  0
 14 16  1  0  0  0  0
 11 12  1  0  0  0  0
 11 13  1  0  0  0  0
 11 14  1  0  0  0  0
  9 10  1  0  0  0  0
  9 11  1  0  0  0  0
  9 19  1  0  0  0  0
  7  8  1  0  0  0  0
  7  9  1  0  0  0  0
 23 24  1  0  0  0  0
 23 25  1  0  0  0  0
 23 26  1  0  0  0  0
 21 22  1  0  0  0  0
 21 23  1  0  0  0  0
M  END
$$$$
default_name
  -OEChem-02102213163D

 26 25  0     1  0  0  0  0  0999 V2000
   -3.0232   -3.6924    1.0038 H   0  0  0  0  0  0  0  0  0  0  0  0
   -3.0082   -2.6684    0.6318 C   0  0  0  0  0  0  0  0  0  0  0  0
   -3.6332   -2.0414    1.2658 H   0  0  0  0  0  0  0  0  0  0  0  0
   -3.3762   -2.6444   -0.3912 H   0  0  0  0  0  0  0  0  0  0  0  0
   -1.5882   -2.1554    0.6658 C   0  0  0  0  0  0  0  0  0  0  0  0
   -0.6832   -2.8764    1.0638 O   0  0  0  0  0  0  0  0  0  0  0  0
   -1.3952   -0.9084    0.2428 N   0  0  0  0  0  0  0  0  0  0  0  0
   -2.1972   -0.3644   -0.0422 H   0  0  0  0  0  0  0  0  0  0  0  0
   -0.1122   -0.1994    0.2658 C   0  0  1  0  0  0  0  0  0  0  0  0
    0.5635   -0.7260    0.9446 H   0  0  0  0  0  0  0  0  0  0  0  0
    0.4924   -0.2204   -1.1558 C   0  0  0  0  0  0  0  0  0  0  0  0
   -0.1986    0.2633   -1.8453 H   0  0  0  0  0  0  0  0  0  0  0  0
    1.4261    0.3401   -1.1573 H   0  0  0  0  0  0  0  0  0  0  0  0
    0.7498   -1.6173   -1.6976 C   0  0  0  0  0  0  0  0  0  0  0  0
    0.2279   -2.0412   -2.7140 O   0  0  0  0  0  0  0  0  0  0  0  0
    1.5654   -2.3932   -1.0260 N   0  0  0  0  0  0  0  0  0  0  0  0
    1.7300   -3.3041   -1.4171 H   0  0  0  0  0  0  0  0  0  0  0  0
    2.0221   -2.0616   -0.1975 H   0  0  0  0  0  0  0  0  0  0  0  0
   -0.3126    1.2341    0.8050 C   0  0  0  0  0  0  0  0  0  0  0  0
   -1.2484    1.9199    0.3934 O   0  0  0  0  0  0  0  0  0  0  0  0
    0.5615    1.6875    1.7087 N   0  0  0  0  0  0  0  0  0  0  0  0
    1.3461    1.0849    1.9358 H   0  0  0  0  0  0  0  0  0  0  0  0
    0.5043    3.0121    2.3242 C   0  0  0  0  0  0  0  0  0  0  0  0
   -0.4649    3.1514    2.8080 H   0  0  0  0  0  0  0  0  0  0  0  0
    1.2959    3.1139    3.0678 H   0  0  0  0  0  0  0  0  0  0  0  0
    0.6273    3.7799    1.5584 H   0  0  0  0  0  0  0  0  0  0  0  0
  5  6  2  0  0  0  0
  5  7  1  0  0  0  0
  2  3  1  0  0  0  0
  2  4  1  0  0  0  0
  2  5  1  0  0  0  0
  1  2  1  0  0  0  0
 19 20  2  0  0  0  0
 19 21  1  0  0  0  0
 16 17  1  0  0  0  0
 16 18  1  0  0  0  0
 14 15  2  0  0  0  0
 14 16  1  0  0  0  0
 11 12  1  0  0  0  0
 11 13  1  0  0  0  0
 11 14  1  0  0  0  0
  9 10  1  0  0  0  0
  9 11  1  0  0  0  0
  9 19  1  0  0  0  0
  7  8  1  0  0  0  0
  7  9  1  0  0  0  0
 23 24  1  0  0  0  0
 23 25  1  0  0  0  0
 23 26  1  0  0  0  0
 21 22  1  0  0  0  0
 21 23  1  0  0  0  0
M  END
$$$$
default_name
  -OEChem-02102213163D

 26 25  0     1  0  0  0  0  0999 V2000
   -3.0232   -3.6924    1.0038 H   0  0  0  0  0  0  0  0  0  0  0  0
   -3.0082   -2.6684    0.6318 C   0  0  0  0  0  0  0  0  0  0  0  0
   -3.6332   -2.0414    1.2658 H   0  0  0  0  0  0  0  0  0  0  0  0
   -3.3762   -2.6444   -0.3912 H   0  0  0  0  0  0  0  0  0  0  0  0
   -1.5882   -2.1554    0.6658 C   0  0  0  0  0  0  0  0  0  0  0  0
   -0.6832   -2.8764    1.0638 O   0  0  0  0  0  0  0  0  0  0  0  0
   -1.3952   -0.9084    0.2428 N   0  0  0  0  0  0  0  0  0  0  0  0
   -2.1972   -0.3644   -0.0422 H   0  0  0  0  0  0  0  0  0  0  0  0
   -0.1122   -0.1994    0.2658 C   0  0  1  0  0  0  0  0  0  0  0  0
    0.5635   -0.7260    0.9446 H   0  0  0  0  0  0  0  0  0  0  0  0
    0.4924   -0.2204   -1.1558 C   0  0  0  0  0  0  0  0  0  0  0  0
   -0.1986    0.2633   -1.8453 H   0  0  0  0  0  0  0  0  0  0  0  0
    1.4261    0.3401   -1.1573 H   0  0  0  0  0  0  0  0  0  0  0  0
    0.7498   -1.6173   -1.6976 C   0  0  0  0  0  0  0  0  0  0  0  0
    0.4521   -1.9549   -2.8301 O   0  0  0  0  0  0  0  0  0  0  0  0
    1.3098   -2.4906   -0.8963 N   0  0  0  0  0  0  0  0  0  0  0  0
    1.4836   -3.3999   -1.2870 H   0  0  0  0  0  0  0  0  0  0  0  0
    1.5815   -2.2323    0.0334 H   0  0  0  0  0  0  0  0  0  0  0  0
   -0.3126    1.2341    0.8050 C   0  0  0  0  0  0  0  0  0  0  0  0
   -1.2484    1.9199    0.3934 O   0  0  0  0  0  0  0  0  0  0  0  0
    0.5615    1.6875    1.7087 N   0  0  0  0  0  0  0  0  0  0  0  0
    1.3461    1.0849    1.9358 H   0  0  0  0  0  0  0  0  0  0  0  0
    0.5043    3.0121    2.3242 C   0  0  0  0  0  0  0  0  0  0  0  0
   -0.4649    3.1514    2.8080 H   0  0  0  0  0  0  0  0  0  0  0  0
    1.2959    3.1139    3.0678 H   0  0  0  0  0  0  0  0  0  0  0  0
    0.6273    3.7799    1.5584 H   0  0  0  0  0  0  0  0  0  0  0  0
  5  6  2  0  0  0  0
  5  7  1  0  0  0  0
  2  3  1  0  0  0  0
  2  4  1  0  0  0  0
  2  5  1  0  0  0  0
  1  2  1  0  0  0  0
 19 20  2  0  0  0  0
 19 21  1  0  0  0  0
 16 17  1  0  0  0  0
 16 18  1  0  0  0  0
 14 15  2  0  0  0  0
 14 16  1  0  0  0  0
 11 12  1  0  0  0  0
 11 13  1  0  0  0  0
 11 14  1  0  0  0  0
  9 10  1  0  0  0  0
  9 11  1  0  0  0  0
  9 19  1  0  0  0  0
  7  8  1  0  0  0  0
  7  9  1  0  0  0  0
 23 24  1  0  0  0  0
 23 25  1  0  0  0  0
 23 26  1  0  0  0  0
 21 22  1  0  0  0  0
 21 23  1  0  0  0  0
M  END
$$$$
default_name
  -OEChem-02102213163D

 26 25  0     1  0  0  0  0  0999 V2000
   -3.0232   -3.6924    1.0038 H   0  0  0  0  0  0  0  0  0  0  0  0
   -3.0082   -2.6684    0.6318 C   0  0  0  0  0  0  0  0  0  0  0  0
   -3.6332   -2.0414    1.2658 H   0  0  0  0  0  0  0  0  0  0  0  0
   -3.3762   -2.6444   -0.3912 H   0  0  0  0  0  0  0  0  0  0  0  0
   -1.5882   -2.1554    0.6658 C   0  0  0  0  0  0  0  0  0  0  0  0
   -0.6832   -2.8764    1.0638 O   0  0  0  0  0  0  0  0  0  0  0  0
   -1.3952   -0.9084    0.2428 N   0  0  0  0  0  0  0  0  0  0  0  0
   -2.1972   -0.3644   -0.0422 H   0  0  0  0  0  0  0  0  0  0  0  0
   -0.1122   -0.1994    0.2658 C   0  0  1  0  0  0  0  0  0  0  0  0
    0.5635   -0.7260    0.9446 H   0  0  0  0  0  0  0  0  0  0  0  0
    0.4924   -0.2204   -1.1558 C   0  0  0  0  0  0  0  0  0  0  0  0
   -0.1986    0.2633   -1.8453 H   0  0  0  0  0  0  0  0  0  0  0  0
    1.4261    0.3401   -1.1573 H   0  0  0  0  0  0  0  0  0  0  0  0
    0.7498   -1.6173   -1.6976 C   0  0  0  0  0  0  0  0  0  0  0  0
    0.7043   -1.8870   -2.8852 O   0  0  0  0  0  0  0  0  0  0  0  0
    1.0232   -2.5668   -0.8362 N   0  0  0  0  0  0  0  0  0  0  0  0
    1.2059   -3.4754   -1.2242 H   0  0  0  0  0  0  0  0  0  0  0  0
    1.0853   -2.3667    0.1442 H   0  0  0  0  0  0  0  0  0  0  0  0
   -0.3126    1.2341    0.8050 C   0  0  0  0  0  0  0  0  0  0  0  0
   -1.2484    1.9199    0.3934 O   0  0  0  0  0  0  0  0  0  0  0  0
    0.5615    1.6875    1.7087 N   0  0  0  0  0  0  0  0  0  0  0  0
    1.3461    1.0849    1.9358 H   0  0  0  0  0  0  0  0  0  0  0  0
    0.5043    3.0121    2.3242 C   0  0  0  0  0  0  0  0  0  0  0  0
   -0.4649    3.1514    2.8080 H   0  0  0  0  0  0  0  0  0  0  0  0
    1.2959    3.1139    3.0678 H   0  0  0  0  0  0  0  0  0  0  0  0
    0.6273    3.7799    1.5584 H   0  0  0  0  0  0  0  0  0  0  0  0
  5  6  2  0  0  0  0
  5  7  1  0  0  0  0
  2  3  1  0  0  0  0
  2  4  1  0  0  0  0
  2  5  1  0  0  0  0
  1  2  1  0  0  0  0
 19 20  2  0  0  0  0
 19 21  1  0  0  0  0
 16 17  1  0  0  0  0
 16 18  1  0  0  0  0
 14 15  2  0  0  0  0
 14 16  1  0  0  0  0
 11 12  1  0  0  0  0
 11 13  1  0  0  0  0
 11 14  1  0  0  0  0
  9 10  1  0  0  0  0
  9 11  1  0  0  0  0
  9 19  1  0  0  0  0
  7  8  1  0  0  0  0
  7  9  1  0  0  0  0
 23 24  1  0  0  0  0
 23 25  1  0  0  0  0
 23 26  1  0  0  0  0
 21 22  1  0  0  0  0
 21 23  1  0  0  0  0
M  END
$$$$
default_name
  -OEChem-02102213163D

 26 25  0     1  0  0  0  0  0999 V2000
   -3.0232   -3.6924    1.0038 H   0  0  0  0  0  0  0  0  0  0  0  0
   -3.0082   -2.6684    0.6318 C   0  0  0  0  0  0  0  0  0  0  0  0
   -3.6332   -2.0414    1.2658 H   0  0  0  0  0  0  0  0  0  0  0  0
   -3.3762   -2.6444   -0.3912 H   0  0  0  0  0  0  0  0  0  0  0  0
   -1.5882   -2.1554    0.6658 C   0  0  0  0  0  0  0  0  0  0  0  0
   -0.6832   -2.8764    1.0638 O   0  0  0  0  0  0  0  0  0  0  0  0
   -1.3952   -0.9084    0.2428 N   0  0  0  0  0  0  0  0  0  0  0  0
   -2.1972   -0.3644   -0.0422 H   0  0  0  0  0  0  0  0  0  0  0  0
   -0.1122   -0.1994    0.2658 C   0  0  1  0  0  0  0  0  0  0  0  0
    0.5635   -0.7260    0.9446 H   0  0  0  0  0  0  0  0  0  0  0  0
    0.4924   -0.2204   -1.1558 C   0  0  0  0  0  0  0  0  0  0  0  0
   -0.1986    0.2633   -1.8453 H   0  0  0  0  0  0  0  0  0  0  0  0
    1.4261    0.3401   -1.1573 H   0  0  0  0  0  0  0  0  0  0  0  0
    0.7498   -1.6173   -1.6976 C   0  0  0  0  0  0  0  0  0  0  0  0
    0.9672   -1.8424   -2.8754 O   0  0  0  0  0  0  0  0  0  0  0  0
    0.7249   -2.6165   -0.8495 N   0  0  0  0  0  0  0  0  0  0  0  0
    0.9157   -3.5255   -1.2329 H   0  0  0  0  0  0  0  0  0  0  0  0
    0.5672   -2.4556    0.1273 H   0  0  0  0  0  0  0  0  0  0  0  0
   -0.3126    1.2341    0.8050 C   0  0  0  0  0  0  0  0  0  0  0  0
   -1.2484    1.9199    0.3934 O   0  0  0  0  0  0  0  0  0  0  0  0
    0.5615    1.6875    1.7087 N   0  0  0  0  0  0  0  0  0  0  0  0
    1.3461    1.0849    1.9358 H   0  0  0  0  0  0  0  0  0  0  0  0
    0.5043    3.0121    2.3242 C   0  0  0  0  0  0  0  0  0  0  0  0
   -0.4649    3.1514    2.8080 H   0  0  0  0  0  0  0  0  0  0  0  0
    1.2959    3.1139    3.0678 H   0  0  0  0  0  0  0  0  0  0  0  0
    0.6273    3.7799    1.5584 H   0  0  0  0  0  0  0  0  0  0  0  0
  5  6  2  0  0  0  0
  5  7  1  0  0  0  0
  2  3  1  0  0  0  0
  2  4  1  0  0  0  0
  2  5  1  0  0  0  0
  1  2  1  0  0  0  0
 19 20  2  0  0  0  0
 19 21  1  0  0  0  0
 16 17  1  0  0  0  0
 16 18  1  0  0  0  0
 14 15  2  0  0  0  0
 14 16  1  0  0  0  0
 11 12  1  0  0  0  0
 11 13  1  0  0  0  0
 11 14  1  0  0  0  0
  9 10  1  0  0  0  0
  9 11  1  0  0  0  0
  9 19  1  0  0  0  0
  7  8  1  0  0  0  0
  7  9  1  0  0  0  0
 23 24  1  0  0  0  0
 23 25  1  0  0  0  0
 23 26  1  0  0  0  0
 21 22  1  0  0  0  0
 21 23  1  0  0  0  0
M  END
$$$$
default_name
  -OEChem-02102213163D

 26 25  0     1  0  0  0  0  0999 V2000
   -3.0232   -3.6924    1.0038 H   0  0  0  0  0  0  0  0  0  0  0  0
   -3.0082   -2.6684    0.6318 C   0  0  0  0  0  0  0  0  0  0  0  0
   -3.6332   -2.0414    1.2658 H   0  0  0  0  0  0  0  0  0  0  0  0
   -3.3762   -2.6444   -0.3912 H   0  0  0  0  0  0  0  0  0  0  0  0
   -1.5882   -2.1554    0.6658 C   0  0  0  0  0  0  0  0  0  0  0  0
   -0.6832   -2.8764    1.0638 O   0  0  0  0  0  0  0  0  0  0  0  0
   -1.3952   -0.9084    0.2428 N   0  0  0  0  0  0  0  0  0  0  0  0
   -2.1972   -0.3644   -0.0422 H   0  0  0  0  0  0  0  0  0  0  0  0
   -0.1122   -0.1994    0.2658 C   0  0  1  0  0  0  0  0  0  0  0  0
    0.5635   -0.7260    0.9446 H   0  0  0  0  0  0  0  0  0  0  0  0
    0.4924   -0.2204   -1.1558 C   0  0  0  0  0  0  0  0  0  0  0  0
   -0.0526    0.4811   -1.7864 H   0  0  0  0  0  0  0  0  0  0  0  0
    1.5325    0.0986   -1.1085 H   0  0  0  0  0  0  0  0  0  0  0  0
    0.4185   -1.5764   -1.8391 C   0  0  0  0  0  0  0  0  0  0  0  0
    0.8463   -1.7774   -2.9624 O   0  0  0  0  0  0  0  0  0  0  0  0
   -0.1413   -2.5628   -1.1819 N   0  0  0  0  0  0  0  0  0  0  0  0
   -0.1603   -3.4511   -1.6513 H   0  0  0  0  0  0  0  0  0  0  0  0
   -0.4838   -2.4280   -0.2494 H   0  0  0  0  0  0  0  0  0  0  0  0
   -0.3126    1.2341    0.8050 C   0  0  0  0  0  0  0  0  0  0  0  0
   -1.2484    1.9199    0.3934 O   0  0  0  0  0  0  0  0  0  0  0  0
    0.5615    1.6875    1.7087 N   0  0  0  0  0  0  0  0  0  0  0  0
    1.3461    1.0849    1.9358 H   0  0  0  0  0  0  0  0  0  0  0  0
    0.5043    3.0121    2.3242 C   0  0  0  0  0  0  0  0  0  0  0  0
   -0.4649    3.1514    2.8080 H   0  0  0  0  0  0  0  0  0  0  0  0
    1.2959    3.1139    3.0678 H   0  0  0  0  0  0  0  0  0  0  0  0
    0.6273    3.7799    1.5584 H   0  0  0  0  0  0  0  0  0  0  0  0
  5  6  2  0  0  0  0
  5  7  1  0  0  0  0
  2  3  1  0  0  0  0
  2  4  1  0  0  0  0
  2  5  1  0  0  0  0
  1  2  1  0  0  0  0
 19 20  2  0  0  0  0
 19 21  1  0  0  0  0
 16 17  1  0  0  0  0
 16 18  1  0  0  0  0
 14 15  2  0  0  0  0
 14 16  1  0  0  0  0
 11 12  1  0  0  0  0
 11 13  1  0  0  0  0
 11 14  1  0  0  0  0
  9 10  1  0  0  0  0
  9 11  1  0  0  0  0
  9 19  1  0  0  0  0
  7  8  1  0  0  0  0
  7  9  1  0  0  0  0
 23 24  1  0  0  0  0
 23 25  1  0  0  0  0
 23 26  1  0  0  0  0
 21 22  1  0  0  0  0
 21 23  1  0  0  0  0
M  END
$$$$
default_name
  -OEChem-02102213163D

 26 25  0     1  0  0  0  0  0999 V2000
   -3.0232   -3.6924    1.0038 H   0  0  0  0  0  0  0  0  0  0  0  0
   -3.0082   -2.6684    0.6318 C   0  0  0  0  0  0  0  0  0  0  0  0
   -3.6332   -2.0414    1.2658 H   0  0  0  0  0  0  0  0  0  0  0  0
   -3.3762   -2.6444   -0.3912 H   0  0  0  0  0  0  0  0  0  0  0  0
   -1.5882   -2.1554    0.6658 C   0  0  0  0  0  0  0  0  0  0  0  0
   -0.6832   -2.8764    1.0638 O   0  0  0  0  0  0  0  0  0  0  0  0
   -1.3952   -0.9084    0.2428 N   0  0  0  0  0  0  0  0  0  0  0  0
   -2.1972   -0.3644   -0.0422 H   0  0  0  0  0  0  0  0  0  0  0  0
   -0.1122   -0.1994    0.2658 C   0  0  1  0  0  0  0  0  0  0  0  0
    0.5635   -0.7260    0.9446 H   0  0  0  0  0  0  0  0  0  0  0  0
    0.4924   -0.2204   -1.1558 C   0  0  0  0  0  0  0  0  0  0  0  0
   -0.0526    0.4811   -1.7864 H   0  0  0  0  0  0  0  0  0  0  0  0
    1.5325    0.0986   -1.1085 H   0  0  0  0  0  0  0  0  0  0  0  0
    0.4185   -1.5764   -1.8391 C   0  0  0  0  0  0  0  0  0  0  0  0
    1.0666   -1.8546   -2.8330 O   0  0  0  0  0  0  0  0  0  0  0  0
   -0.3897   -2.4744   -1.3305 N   0  0  0  0  0  0  0  0  0  0  0  0
   -0.4047   -3.3666   -1.7925 H   0  0  0  0  0  0  0  0  0  0  0  0
   -0.9193   -2.2767   -0.5026 H   0  0  0  0  0  0  0  0  0  0  0  0
   -0.3126    1.2341    0.8050 C   0  0  0  0  0  0  0  0  0  0  0  0
   -1.2484    1.9199    0.3934 O   0  0  0  0  0  0  0  0  0  0  0  0
    0.5615    1.6875    1.7087 N   0  0  0  0  0  0  0  0  0  0  0  0
    1.3461    1.0849    1.9358 H   0  0  0  0  0  0  0  0  0  0  0  0
    0.5043    3.0121    2.3242 C   0  0  0  0  0  0  0  0  0  0  0  0
   -0.4649    3.1514    2.8080 H   0  0  0  0  0  0  0  0  0  0  0  0
    1.2959    3.1139    3.0678 H   0  0  0  0  0  0  0  0  0  0  0  0
    0.6273    3.7799    1.5584 H   0  0  0  0  0  0  0  0  0  0  0  0
  5  6  2  0  0  0  0
  5  7  1  0  0  0  0
  2  3  1  0  0  0  0
  2  4  1  0  0  0  0
  2  5  1  0  0  0  0
  1  2  1  0  0  0  0
 19 20  2  0  0  0  0
 19 21  1  0  0  0  0
 16 17  1  0  0  0  0
 16 18  1  0  0  0  0
 14 15  2  0  0  0  0
 14 16  1  0  0  0  0
 11 12  1  0  0  0  0
 11 13  1  0  0  0  0
 11 14  1  0  0  0  0
  9 10  1  0  0  0  0
  9 11  1  0  0  0  0
  9 19  1  0  0  0  0
  7  8  1  0  0  0  0
  7  9  1  0  0  0  0
 23 24  1  0  0  0  0
 23 25  1  0  0  0  0
 23 26  1  0  0  0  0
 21 22  1  0  0  0  0
 21 23  1  0  0  0  0
M  END
$$$$
default_name
  -OEChem-02102213163D

 26 25  0     1  0  0  0  0  0999 V2000
   -3.0232   -3.6924    1.0038 H   0  0  0  0  0  0  0  0  0  0  0  0
   -3.0082   -2.6684    0.6318 C   0  0  0  0  0  0  0  0  0  0  0  0
   -3.6332   -2.0414    1.2658 H   0  0  0  0  0  0  0  0  0  0  0  0
   -3.3762   -2.6444   -0.3912 H   0  0  0  0  0  0  0  0  0  0  0  0
   -1.5882   -2.1554    0.6658 C   0  0  0  0  0  0  0  0  0  0  0  0
   -0.6832   -2.8764    1.0638 O   0  0  0  0  0  0  0  0  0  0  0  0
   -1.3952   -0.9084    0.2428 N   0  0  0  0  0  0  0  0  0  0  0  0
   -2.1972   -0.3644   -0.0422 H   0  0  0  0  0  0  0  0  0  0  0  0
   -0.1122   -0.1994    0.2658 C   0  0  1  0  0  0  0  0  0  0  0  0
    0.5635   -0.7260    0.9446 H   0  0  0  0  0  0  0  0  0  0  0  0
    0.4924   -0.2204   -1.1558 C   0  0  0  0  0  0  0  0  0  0  0  0
   -0.0526    0.4811   -1.7864 H   0  0  0  0  0  0  0  0  0  0  0  0
    1.5325    0.0986   -1.1085 H   0  0  0  0  0  0  0  0  0  0  0  0
    0.4185   -1.5764   -1.8391 C   0  0  0  0  0  0  0  0  0  0  0  0
    1.2405   -1.9532   -2.6562 O   0  0  0  0  0  0  0  0  0  0  0  0
   -0.5851   -2.3620   -1.5325 N   0  0  0  0  0  0  0  0  0  0  0  0
   -0.5983   -3.2584   -1.9863 H   0  0  0  0  0  0  0  0  0  0  0  0
   -1.2638   -2.0831   -0.8495 H   0  0  0  0  0  0  0  0  0  0  0  0
   -0.3126    1.2341    0.8050 C   0  0  0  0  0  0  0  0  0  0  0  0
   -1.2484    1.9199    0.3934 O   0  0  0  0  0  0  0  0  0  0  0  0
    0.5615    1.6875    1.7087 N   0  0  0  0  0  0  0  0  0  0  0  0
    1.3461    1.0849    1.9358 H   0  0  0  0  0  0  0  0  0  0  0  0
    0.5043    3.0121    2.3242 C   0  0  0  0  0  0  0  0  0  0  0  0
   -0.4649    3.1514    2.8080 H   0  0  0  0  0  0  0  0  0  0  0  0
    1.2959    3.1139    3.0678 H   0  0  0  0  0  0  0  0  0  0  0  0
    0.6273    3.7799    1.5584 H   0  0  0  0  0  0  0  0  0  0  0  0
  5  6  2  0  0  0  0
  5  7  1  0  0  0  0
  2  3  1  0  0  0  0
  2  4  1  0  0  0  0
  2  5  1  0  0  0  0
  1  2  1  0  0  0  0
 19 20  2  0  0  0  0
 19 21  1  0  0  0  0
 16 17  1  0  0  0  0
 16 18  1  0  0  0  0
 14 15  2  0  0  0  0
 14 16  1  0  0  0  0
 11 12  1  0  0  0  0
 11 13  1  0  0  0  0
 11 14  1  0  0  0  0
  9 10  1  0  0  0  0
  9 11  1  0  0  0  0
  9 19  1  0  0  0  0
  7  8  1  0  0  0  0
  7  9  1  0  0  0  0
 23 24  1  0  0  0  0
 23 25  1  0  0  0  0
 23 26  1  0  0  0  0
 21 22  1  0  0  0  0
 21 23  1  0  0  0  0
M  END
$$$$
default_name
  -OEChem-02102213163D

 26 25  0     1  0  0  0  0  0999 V2000
   -3.0232   -3.6924    1.0038 H   0  0  0  0  0  0  0  0  0  0  0  0
   -3.0082   -2.6684    0.6318 C   0  0  0  0  0  0  0  0  0  0  0  0
   -3.6332   -2.0414    1.2658 H   0  0  0  0  0  0  0  0  0  0  0  0
   -3.3762   -2.6444   -0.3912 H   0  0  0  0  0  0  0  0  0  0  0  0
   -1.5882   -2.1554    0.6658 C   0  0  0  0  0  0  0  0  0  0  0  0
   -0.6832   -2.8764    1.0638 O   0  0  0  0  0  0  0  0  0  0  0  0
   -1.3952   -0.9084    0.2428 N   0  0  0  0  0  0  0  0  0  0  0  0
   -2.1972   -0.3644   -0.0422 H   0  0  0  0  0  0  0  0  0  0  0  0
   -0.1122   -0.1994    0.2658 C   0  0  1  0  0  0  0  0  0  0  0  0
    0.5635   -0.7260    0.9446 H   0  0  0  0  0  0  0  0  0  0  0  0
    0.4924   -0.2204   -1.1558 C   0  0  0  0  0  0  0  0  0  0  0  0
   -0.0526    0.4811   -1.7864 H   0  0  0  0  0  0  0  0  0  0  0  0
    1.5325    0.0986   -1.1085 H   0  0  0  0  0  0  0  0  0  0  0  0
    0.4185   -1.5764   -1.8391 C   0  0  0  0  0  0  0  0  0  0  0  0
    1.3562   -2.0664   -2.4440 O   0  0  0  0  0  0  0  0  0  0  0  0
   -0.7141   -2.2332   -1.7742 N   0  0  0  0  0  0  0  0  0  0  0  0
   -0.7280   -3.1338   -2.2196 H   0  0  0  0  0  0  0  0  0  0  0  0
   -1.4941   -1.8604   -1.2666 H   0  0  0  0  0  0  0  0  0  0  0  0
   -0.3126    1.2341    0.8050 C   0  0  0  0  0  0  0  0  0  0  0  0
   -1.2484    1.9199    0.3934 O   0  0  0  0  0  0  0  0  0  0  0  0
    0.5615    1.6875    1.7087 N   0  0  0  0  0  0  0  0  0  0  0  0
    1.3461    1.0849    1.9358 H   0  0  0  0  0  0  0  0  0  0  0  0
    0.5043    3.0121    2.3242 C   0  0  0  0  0  0  0  0  0  0  0  0
   -0.4649    3.1514    2.8080 H   0  0  0  0  0  0  0  0  0  0  0  0
    1.2959    3.1139    3.0678 H   0  0  0  0  0  0  0  0  0  0  0  0
    0.6273    3.7799    1.5584 H   0  0  0  0  0  0  0  0  0  0  0  0
  5  6  2  0  0  0  0
  5  7  1  0  0  0  0
  2  3  1  0  0  0  0
  2  4  1  0  0  0  0
  2  5  1  0  0  0  0
  1  2  1  0  0  0  0
 19 20  2  0  0  0  0
 19 21  1  0  0  0  0
 16 17  1  0  0  0  0
 16 18  1  0  0  0  0
 14 15  2  0  0  0  0
 14 16  1  0  0  0  0
 11 12  1  0  0  0  0
 11 13  1  0  0  0  0
 11 14  1  0  0  0  0
  9 10  1  0  0  0  0
  9 11  1  0  0  0  0
  9 19  1  0  0  0  0
  7  8  1  0  0  0  0
  7  9  1  0  0  0  0
 23 24  1  0  0  0  0
 23 25  1  0  0  0  0
 23 26  1  0  0  0  0
 21 22  1  0  0  0  0
 21 23  1  0  0  0  0
M  END
$$$$
default_name
  -OEChem-02102213163D

 26 25  0     1  0  0  0  0  0999 V2000
   -3.0232   -3.6924    1.0038 H   0  0  0  0  0  0  0  0  0  0  0  0
   -3.0082   -2.6684    0.6318 C   0  0  0  0  0  0  0  0  0  0  0  0
   -3.6332   -2.0414    1.2658 H   0  0  0  0  0  0  0  0  0  0  0  0
   -3.3762   -2.6444   -0.3912 H   0  0  0  0  0  0  0  0  0  0  0  0
   -1.5882   -2.1554    0.6658 C   0  0  0  0  0  0  0  0  0  0  0  0
   -0.6832   -2.8764    1.0638 O   0  0  0  0  0  0  0  0  0  0  0  0
   -1.3952   -0.9084    0.2428 N   0  0  0  0  0  0  0  0  0  0  0  0
   -2.1972   -0.3644   -0.0422 H   0  0  0  0  0  0  0  0  0  0  0  0
   -0.1122   -0.1994    0.2658 C   0  0  1  0  0  0  0  0  0  0  0  0
    0.5635   -0.7260    0.9446 H   0  0  0  0  0  0  0  0  0  0  0  0
    0.4924   -0.2204   -1.1558 C   0  0  0  0  0  0  0  0  0  0  0  0
   -0.0526    0.4811   -1.7864 H   0  0  0  0  0  0  0  0  0  0  0  0
    1.5325    0.0986   -1.1085 H   0  0  0  0  0  0  0  0  0  0  0  0
    0.4185   -1.5764   -1.8391 C   0  0  0  0  0  0  0  0  0  0  0  0
    1.4058   -2.1866   -2.2109 O   0  0  0  0  0  0  0  0  0  0  0  0
   -0.7679   -2.0968   -2.0389 N   0  0  0  0  0  0  0  0  0  0  0  0
   -0.7850   -3.0012   -2.4765 H   0  0  0  0  0  0  0  0  0  0  0  0
   -1.5943   -1.6237   -1.7254 H   0  0  0  0  0  0  0  0  0  0  0  0
   -0.3126    1.2341    0.8050 C   0  0  0  0  0  0  0  0  0  0  0  0
   -1.2484    1.9199    0.3934 O   0  0  0  0  0  0  0  0  0  0  0  0
    0.5615    1.6875    1.7087 N   0  0  0  0  0  0  0  0  0  0  0  0
    1.3461    1.0849    1.9358 H   0  0  0  0  0  0  0  0  0  0  0  0
    0.5043    3.0121    2.3242 C   0  0  0  0  0  0  0  0  0  0  0  0
   -0.4649    3.1514    2.8080 H   0  0  0  0  0  0  0  0  0  0  0  0
    1.2959    3.1139    3.0678 H   0  0  0  0  0  0  0  0  0  0  0  0
    0.6273    3.7799    1.5584 H   0  0  0  0  0  0  0  0  0  0  0  0
  5  6  2  0  0  0  0
  5  7  1  0  0  0  0
  2  3  1  0  0  0  0
  2  4  1  0  0  0  0
  2  5  1  0  0  0  0
  1  2  1  0  0  0  0
 19 20  2  0  0  0  0
 19 21  1  0  0  0  0
 16 17  1  0  0  0  0
 16 18  1  0  0  0  0
 14 15  2  0  0  0  0
 14 16  1  0  0  0  0
 11 12  1  0  0  0  0
 11 13  1  0  0  0  0
 11 14  1  0  0  0  0
  9 10  1  0  0  0  0
  9 11  1  0  0  0  0
  9 19  1  0  0  0  0
  7  8  1  0  0  0  0
  7  9  1  0  0  0  0
 23 24  1  0  0  0  0
 23 25  1  0  0  0  0
 23 26  1  0  0  0  0
 21 22  1  0  0  0  0
 21 23  1  0  0  0  0
M  END
$$$$
default_name
  -OEChem-02102213163D

 26 25  0     1  0  0  0  0  0999 V2000
   -3.0232   -3.6924    1.0038 H   0  0  0  0  0  0  0  0  0  0  0  0
   -3.0082   -2.6684    0.6318 C   0  0  0  0  0  0  0  0  0  0  0  0
   -3.6332   -2.0414    1.2658 H   0  0  0  0  0  0  0  0  0  0  0  0
   -3.3762   -2.6444   -0.3912 H   0  0  0  0  0  0  0  0  0  0  0  0
   -1.5882   -2.1554    0.6658 C   0  0  0  0  0  0  0  0  0  0  0  0
   -0.6832   -2.8764    1.0638 O   0  0  0  0  0  0  0  0  0  0  0  0
   -1.3952   -0.9084    0.2428 N   0  0  0  0  0  0  0  0  0  0  0  0
   -2.1972   -0.3644   -0.0422 H   0  0  0  0  0  0  0  0  0  0  0  0
   -0.1122   -0.1994    0.2658 C   0  0  1  0  0  0  0  0  0  0  0  0
    0.5635   -0.7260    0.9446 H   0  0  0  0  0  0  0  0  0  0  0  0
    0.4924   -0.2204   -1.1558 C   0  0  0  0  0  0  0  0  0  0  0  0
   -0.0526    0.4811   -1.7864 H   0  0  0  0  0  0  0  0  0  0  0  0
    1.5325    0.0986   -1.1085 H   0  0  0  0  0  0  0  0  0  0  0  0
    0.4185   -1.5764   -1.8391 C   0  0  0  0  0  0  0  0  0  0  0  0
    1.3859   -2.3055   -1.9728 O   0  0  0  0  0  0  0  0  0  0  0  0
   -0.7429   -1.9622   -2.3088 N   0  0  0  0  0  0  0  0  0  0  0  0
   -0.7652   -2.8698   -2.7395 H   0  0  0  0  0  0  0  0  0  0  0  0
   -1.5576   -1.3893   -2.1947 H   0  0  0  0  0  0  0  0  0  0  0  0
   -0.3126    1.2341    0.8050 C   0  0  0  0  0  0  0  0  0  0  0  0
   -1.2484    1.9199    0.3934 O   0  0  0  0  0  0  0  0  0  0  0  0
    0.5615    1.6875    1.7087 N   0  0  0  0  0  0  0  0  0  0  0  0
    1.3461    1.0849    1.9358 H   0  0  0  0  0  0  0  0  0  0  0  0
    0.5043    3.0121    2.3242 C   0  0  0  0  0  0  0  0  0  0  0  0
   -0.4649    3.1514    2.8080 H   0  0  0  0  0  0  0  0  0  0  0  0
    1.2959    3.1139    3.0678 H   0  0  0  0  0  0  0  0  0  0  0  0
    0.6273    3.7799    1.5584 H   0  0  0  0  0  0  0  0  0  0  0  0
  5  6  2  0  0  0  0
  5  7  1  0  0  0  0
  2  3  1  0  0  0  0
  2  4  1  0  0  0  0
  2  5  1  0  0  0  0
  1  2  1  0  0  0  0
 19 20  2  0  0  0  0
 19 21  1  0  0  0  0
 16 17  1  0  0  0  0
 16 18  1  0  0  0  0
 14 15  2  0  0  0  0
 14 16  1  0  0  0  0
 11 12  1  0  0  0  0
 11 13  1  0  0  0  0
 11 14  1  0  0  0  0
  9 10  1  0  0  0  0
  9 11  1  0  0  0  0
  9 19  1  0  0  0  0
  7  8  1  0  0  0  0
  7  9  1  0  0  0  0
 23 24  1  0  0  0  0
 23 25  1  0  0  0  0
 23 26  1  0  0  0  0
 21 22  1  0  0  0  0
 21 23  1  0  0  0  0
M  END
$$$$
default_name
  -OEChem-02102213163D

 26 25  0     1  0  0  0  0  0999 V2000
   -3.0232   -3.6924    1.0038 H   0  0  0  0  0  0  0  0  0  0  0  0
   -3.0082   -2.6684    0.6318 C   0  0  0  0  0  0  0  0  0  0  0  0
   -3.6332   -2.0414    1.2658 H   0  0  0  0  0  0  0  0  0  0  0  0
   -3.3762   -2.6444   -0.3912 H   0  0  0  0  0  0  0  0  0  0  0  0
   -1.5882   -2.1554    0.6658 C   0  0  0  0  0  0  0  0  0  0  0  0
   -0.6832   -2.8764    1.0638 O   0  0  0  0  0  0  0  0  0  0  0  0
   -1.3952   -0.9084    0.2428 N   0  0  0  0  0  0  0  0  0  0  0  0
   -2.1972   -0.3644   -0.0422 H   0  0  0  0  0  0  0  0  0  0  0  0
   -0.1122   -0.1994    0.2658 C   0  0  1  0  0  0  0  0  0  0  0  0
    0.5635   -0.7260    0.9446 H   0  0  0  0  0  0  0  0  0  0  0  0
    0.4924   -0.2204   -1.1558 C   0  0  0  0  0  0  0  0  0  0  0  0
   -0.0526    0.4811   -1.7864 H   0  0  0  0  0  0  0  0  0  0  0  0
    1.5325    0.0986   -1.1085 H   0  0  0  0  0  0  0  0  0  0  0  0
    0.4185   -1.5764   -1.8391 C   0  0  0  0  0  0  0  0  0  0  0  0
    1.2979   -2.4150   -1.7459 O   0  0  0  0  0  0  0  0  0  0  0  0
   -0.6407   -1.8385   -2.5655 N   0  0  0  0  0  0  0  0  0  0  0  0
   -0.6702   -2.7485   -2.9905 H   0  0  0  0  0  0  0  0  0  0  0  0
   -1.3865   -1.1729   -2.6425 H   0  0  0  0  0  0  0  0  0  0  0  0
   -0.3126    1.2341    0.8050 C   0  0  0  0  0  0  0  0  0  0  0  0
   -1.2484    1.9199    0.3934 O   0  0  0  0  0  0  0  0  0  0  0  0
    0.5615    1.6875    1.7087 N   0  0  0  0  0  0  0  0  0  0  0  0
    1.3461    1.0849    1.9358 H   0  0  0  0  0  0  0  0  0  0  0  0
    0.5043    3.0121    2.3242 C   0  0  0  0  0  0  0  0  0  0  0  0
   -0.4649    3.1514    2.8080 H   0  0  0  0  0  0  0  0  0  0  0  0
    1.2959    3.1139    3.0678 H   0  0  0  0  0  0  0  0  0  0  0  0
    0.6273    3.7799    1.5584 H   0  0  0  0  0  0  0  0  0  0  0  0
  5  6  2  0  0  0  0
  5  7  1  0  0  0  0
  2  3  1  0  0  0  0
  2  4  1  0  0  0  0
  2  5  1  0  0  0  0
  1  2  1  0  0  0  0
 19 20  2  0  0  0  0
 19 21  1  0  0  0  0
 16 17  1  0  0  0  0
 16 18  1  0  0  0  0
 14 15  2  0  0  0  0
 14 16  1  0  0  0  0
 11 12  1  0  0  0  0
 11 13  1  0  0  0  0
 11 14  1  0  0  0  0
  9 10  1  0  0  0  0
  9 11  1  0  0  0  0
  9 19  1  0  0  0  0
  7  8  1  0  0  0  0
  7  9  1  0  0  0  0
 23 24  1  0  0  0  0
 23 25  1  0  0  0  0
 23 26  1  0  0  0  0
 21 22  1  0  0  0  0
 21 23  1  0  0  0  0
M  END
$$$$
default_name
  -OEChem-02102213163D

 26 25  0     1  0  0  0  0  0999 V2000
   -3.0232   -3.6924    1.0038 H   0  0  0  0  0  0  0  0  0  0  0  0
   -3.0082   -2.6684    0.6318 C   0  0  0  0  0  0  0  0  0  0  0  0
   -3.6332   -2.0414    1.2658 H   0  0  0  0  0  0  0  0  0  0  0  0
   -3.3762   -2.6444   -0.3912 H   0  0  0  0  0  0  0  0  0  0  0  0
   -1.5882   -2.1554    0.6658 C   0  0  0  0  0  0  0  0  0  0  0  0
   -0.6832   -2.8764    1.0638 O   0  0  0  0  0  0  0  0  0  0  0  0
   -1.3952   -0.9084    0.2428 N   0  0  0  0  0  0  0  0  0  0  0  0
   -2.1972   -0.3644   -0.0422 H   0  0  0  0  0  0  0  0  0  0  0  0
   -0.1122   -0.1994    0.2658 C   0  0  1  0  0  0  0  0  0  0  0  0
    0.5635   -0.7260    0.9446 H   0  0  0  0  0  0  0  0  0  0  0  0
    0.4924   -0.2204   -1.1558 C   0  0  0  0  0  0  0  0  0  0  0  0
   -0.0526    0.4811   -1.7864 H   0  0  0  0  0  0  0  0  0  0  0  0
    1.5325    0.0986   -1.1085 H   0  0  0  0  0  0  0  0  0  0  0  0
    0.4185   -1.5764   -1.8391 C   0  0  0  0  0  0  0  0  0  0  0  0
    1.1477   -2.5077   -1.5457 O   0  0  0  0  0  0  0  0  0  0  0  0
   -0.4685   -1.7340   -2.7913 N   0  0  0  0  0  0  0  0  0  0  0  0
   -0.5063   -2.6455   -3.2126 H   0  0  0  0  0  0  0  0  0  0  0  0
   -1.0927   -0.9895   -3.0383 H   0  0  0  0  0  0  0  0  0  0  0  0
   -0.3126    1.2341    0.8050 C   0  0  0  0  0  0  0  0  0  0  0  0
   -1.2484    1.9199    0.3934 O   0  0  0  0  0  0  0  0  0  0  0  0
    0.5615    1.6875    1.7087 N   0  0  0  0  0  0  0  0  0  0  0  0
    1.3461    1.0849    1.9358 H   0  0  0  0  0  0  0  0  0  0  0  0
    0.5043    3.0121    2.3242 C   0  0  0  0  0  0  0  0  0  0  0  0
   -0.4649    3.1514    2.8080 H   0  0  0  0  0  0  0  0  0  0  0  0
    1.2959    3.1139    3.0678 H   0  0  0  0  0  0  0  0  0  0  0  0
    0.6273    3.7799    1.5584 H   0  0  0  0  0  0  0  0  0  0  0  0
  5  6  2  0  0  0  0
  5  7  1  0  0  0  0
  2  3  1  0  0  0  0
  2  4  1  0  0  0  0
  2  5  1  0  0  0  0
  1  2  1  0  0  0  0
 19 20  2  0  0  0  0
 19 21  1  0  0  0  0
 16 17  1  0  0  0  0
 16 18  1  0  0  0  0
 14 15  2  0  0  0  0
 14 16  1  0  0  0  0
 11 12  1  0  0  0  0
 11 13  1  0  0  0  0
 11 14  1  0  0  0  0
  9 10  1  0  0  0  0
  9 11  1  0  0  0  0
  9 19  1  0  0  0  0
  7  8  1  0  0  0  0
  7  9  1  0  0  0  0
 23 24  1  0  0  0  0
 23 25  1  0  0  0  0
 23 26  1  0  0  0  0
 21 22  1  0  0  0  0
 21 23  1  0  0  0  0
M  END
$$$$
default_name
  -OEChem-02102213163D

 26 25  0     1  0  0  0  0  0999 V2000
   -3.0232   -3.6924    1.0038 H   0  0  0  0  0  0  0  0  0  0  0  0
   -3.0082   -2.6684    0.6318 C   0  0  0  0  0  0  0  0  0  0  0  0
   -3.6332   -2.0414    1.2658 H   0  0  0  0  0  0  0  0  0  0  0  0
   -3.3762   -2.6444   -0.3912 H   0  0  0  0  0  0  0  0  0  0  0  0
   -1.5882   -2.1554    0.6658 C   0  0  0  0  0  0  0  0  0  0  0  0
   -0.6832   -2.8764    1.0638 O   0  0  0  0  0  0  0  0  0  0  0  0
   -1.3952   -0.9084    0.2428 N   0  0  0  0  0  0  0  0  0  0  0  0
   -2.1972   -0.3644   -0.0422 H   0  0  0  0  0  0  0  0  0  0  0  0
   -0.1122   -0.1994    0.2658 C   0  0  1  0  0  0  0  0  0  0  0  0
    0.5635   -0.7260    0.9446 H   0  0  0  0  0  0  0  0  0  0  0  0
    0.4924   -0.2204   -1.1558 C   0  0  0  0  0  0  0  0  0  0  0  0
   -0.0526    0.4811   -1.7864 H   0  0  0  0  0  0  0  0  0  0  0  0
    1.5325    0.0986   -1.1085 H   0  0  0  0  0  0  0  0  0  0  0  0
    0.4185   -1.5764   -1.8391 C   0  0  0  0  0  0  0  0  0  0  0  0
    0.9457   -2.5773   -1.3858 O   0  0  0  0  0  0  0  0  0  0  0  0
   -0.2378   -1.6561   -2.9710 N   0  0  0  0  0  0  0  0  0  0  0  0
   -0.2847   -2.5679   -3.3906 H   0  0  0  0  0  0  0  0  0  0  0  0
   -0.6963   -0.8515   -3.3551 H   0  0  0  0  0  0  0  0  0  0  0  0
   -0.3126    1.2341    0.8050 C   0  0  0  0  0  0  0  0  0  0  0  0
   -1.2484    1.9199    0.3934 O   0  0  0  0  0  0  0  0  0  0  0  0
    0.5615    1.6875    1.7087 N   0  0  0  0  0  0  0  0  0  0  0  0
    1.3461    1.0849    1.9358 H   0  0  0  0  0  0  0  0  0  0  0  0
    0.5043    3.0121    2.3242 C   0  0  0  0  0  0  0  0  0  0  0  0
   -0.4649    3.1514    2.8080 H   0  0  0  0  0  0  0  0  0  0  0  0
    1.2959    3.1139    3.0678 H   0  0  0  0  0  0  0  0  0  0  0  0
    0.6273    3.7799    1.5584 H   0  0  0  0  0  0  0  0  0  0  0  0
  5  6  2  0  0  0  0
  5  7  1  0  0  0  0
  2  3  1  0  0  0  0
  2  4  1  0  0  0  0
  2  5  1  0  0  0  0
  1  2  1  0  0  0  0
 19 20  2  0  0  0  0
 19 21  1  0  0  0  0
 16 17  1  0  0  0  0
 16 18  1  0  0  0  0
 14 15  2  0  0  0  0
 14 16  1  0  0  0  0
 11 12  1  0  0  0  0
 11 13  1  0  0  0  0
 11 14  1  0  0  0  0
  9 10  1  0  0  0  0
  9 11  1  0  0  0  0
  9 19  1  0  0  0  0
  7  8  1  0  0  0  0
  7  9  1  0  0  0  0
 23 24  1  0  0  0  0
 23 25  1  0  0  0  0
 23 26  1  0  0  0  0
 21 22  1  0  0  0  0
 21 23  1  0  0  0  0
M  END
$$$$
default_name
  -OEChem-02102213163D

 26 25  0     1  0  0  0  0  0999 V2000
   -3.0232   -3.6924    1.0038 H   0  0  0  0  0  0  0  0  0  0  0  0
   -3.0082   -2.6684    0.6318 C   0  0  0  0  0  0  0  0  0  0  0  0
   -3.6332   -2.0414    1.2658 H   0  0  0  0  0  0  0  0  0  0  0  0
   -3.3762   -2.6444   -0.3912 H   0  0  0  0  0  0  0  0  0  0  0  0
   -1.5882   -2.1554    0.6658 C   0  0  0  0  0  0  0  0  0  0  0  0
   -0.6832   -2.8764    1.0638 O   0  0  0  0  0  0  0  0  0  0  0  0
   -1.3952   -0.9084    0.2428 N   0  0  0  0  0  0  0  0  0  0  0  0
   -2.1972   -0.3644   -0.0422 H   0  0  0  0  0  0  0  0  0  0  0  0
   -0.1122   -0.1994    0.2658 C   0  0  1  0  0  0  0  0  0  0  0  0
    0.5635   -0.7260    0.9446 H   0  0  0  0  0  0  0  0  0  0  0  0
    0.4924   -0.2204   -1.1558 C   0  0  0  0  0  0  0  0  0  0  0  0
   -0.0526    0.4811   -1.7864 H   0  0  0  0  0  0  0  0  0  0  0  0
    1.5325    0.0986   -1.1085 H   0  0  0  0  0  0  0  0  0  0  0  0
    0.4185   -1.5764   -1.8391 C   0  0  0  0  0  0  0  0  0  0  0  0
    0.7056   -2.6190   -1.2771 O   0  0  0  0  0  0  0  0  0  0  0  0
    0.0356   -1.6098   -3.0923 N   0  0  0  0  0  0  0  0  0  0  0  0
   -0.0206   -2.5209   -3.5124 H   0  0  0  0  0  0  0  0  0  0  0  0
   -0.2241   -0.7683   -3.5713 H   0  0  0  0  0  0  0  0  0  0  0  0
   -0.3126    1.2341    0.8050 C   0  0  0  0  0  0  0  0  0  0  0  0
   -1.2484    1.9199    0.3934 O   0  0  0  0  0  0  0  0  0  0  0  0
    0.5615    1.6875    1.7087 N   0  0  0  0  0  0  0  0  0  0  0  0
    1.3461    1.0849    1.9358 H   0  0  0  0  0  0  0  0  0  0  0  0
    0.5043    3.0121    2.3242 C   0  0  0  0  0  0  0  0  0  0  0  0
   -0.4649    3.1514    2.8080 H   0  0  0  0  0  0  0  0  0  0  0  0
    1.2959    3.1139    3.0678 H   0  0  0  0  0  0  0  0  0  0  0  0
    0.6273    3.7799    1.5584 H   0  0  0  0  0  0  0  0  0  0  0  0
  5  6  2  0  0  0  0
  5  7  1  0  0  0  0
  2  3  1  0  0  0  0
  2  4  1  0  0  0  0
  2  5  1  0  0  0  0
  1  2  1  0  0  0  0
 19 20  2  0  0  0  0
 19 21  1  0  0  0  0
 16 17  1  0  0  0  0
 16 18  1  0  0  0  0
 14 15  2  0  0  0  0
 14 16  1  0  0  0  0
 11 12  1  0  0  0  0
 11 13  1  0  0  0  0
 11 14  1  0  0  0  0
  9 10  1  0  0  0  0
  9 11  1  0  0  0  0
  9 19  1  0  0  0  0
  7  8  1  0  0  0  0
  7  9  1  0  0  0  0
 23 24  1  0  0  0  0
 23 25  1  0  0  0  0
 23 26  1  0  0  0  0
 21 22  1  0  0  0  0
 21 23  1  0  0  0  0
M  END
$$$$
default_name
  -OEChem-02102213163D

 26 25  0     1  0  0  0  0  0999 V2000
   -3.0232   -3.6924    1.0038 H   0  0  0  0  0  0  0  0  0  0  0  0
   -3.0082   -2.6684    0.6318 C   0  0  0  0  0  0  0  0  0  0  0  0
   -3.6332   -2.0414    1.2658 H   0  0  0  0  0  0  0  0  0  0  0  0
   -3.3762   -2.6444   -0.3912 H   0  0  0  0  0  0  0  0  0  0  0  0
   -1.5882   -2.1554    0.6658 C   0  0  0  0  0  0  0  0  0  0  0  0
   -0.6832   -2.8764    1.0638 O   0  0  0  0  0  0  0  0  0  0  0  0
   -1.3952   -0.9084    0.2428 N   0  0  0  0  0  0  0  0  0  0  0  0
   -2.1972   -0.3644   -0.0422 H   0  0  0  0  0  0  0  0  0  0  0  0
   -0.1122   -0.1994    0.2658 C   0  0  1  0  0  0  0  0  0  0  0  0
    0.5635   -0.7260    0.9446 H   0  0  0  0  0  0  0  0  0  0  0  0
    0.4924   -0.2204   -1.1558 C   0  0  0  0  0  0  0  0  0  0  0  0
   -0.0526    0.4811   -1.7864 H   0  0  0  0  0  0  0  0  0  0  0  0
    1.5325    0.0986   -1.1085 H   0  0  0  0  0  0  0  0  0  0  0  0
    0.4185   -1.5764   -1.8391 C   0  0  0  0  0  0  0  0  0  0  0  0
    0.4437   -2.6299   -1.2270 O   0  0  0  0  0  0  0  0  0  0  0  0
    0.3331   -1.5985   -3.1470 N   0  0  0  0  0  0  0  0  0  0  0  0
    0.2681   -2.5078   -3.5696 H   0  0  0  0  0  0  0  0  0  0  0  0
    0.2915   -0.7456   -3.6722 H   0  0  0  0  0  0  0  0  0  0  0  0
   -0.3126    1.2341    0.8050 C   0  0  0  0  0  0  0  0  0  0  0  0
   -1.2484    1.9199    0.3934 O   0  0  0  0  0  0  0  0  0  0  0  0
    0.5615    1.6875    1.7087 N   0  0  0  0  0  0  0  0  0  0  0  0
    1.3461    1.0849    1.9358 H   0  0  0  0  0  0  0  0  0  0  0  0
    0.5043    3.0121    2.3242 C   0  0  0  0  0  0  0  0  0  0  0  0
   -0.4649    3.1514    2.8080 H   0  0  0  0  0  0  0  0  0  0  0  0
    1.2959    3.1139    3.0678 H   0  0  0  0  0  0  0  0  0  0  0  0
    0.6273    3.7799    1.5584 H   0  0  0  0  0  0  0  0  0  0  0  0
  5  6  2  0  0  0  0
  5  7  1  0  0  0  0
  2  3  1  0  0  0  0
  2  4  1  0  0  0  0
  2  5  1  0  0  0  0
  1  2  1  0  0  0  0
 19 20  2  0  0  0  0
 19 21  1  0  0  0  0
 16 17  1  0  0  0  0
 16 18  1  0  0  0  0
 14 15  2  0  0  0  0
 14 16  1  0  0  0  0
 11 12  1  0  0  0  0
 11 13  1  0  0  0  0
 11 14  1  0  0  0  0
  9 10  1  0  0  0  0
  9 11  1  0  0  0  0
  9 19  1  0  0  0  0
  7  8  1  0  0  0  0
  7  9  1  0  0  0  0
 23 24  1  0  0  0  0
 23 25  1  0  0  0  0
 23 26  1  0  0  0  0
 21 22  1  0  0  0  0
 21 23  1  0  0  0  0
M  END
$$$$
default_name
  -OEChem-02102213163D

 26 25  0     1  0  0  0  0  0999 V2000
   -3.0232   -3.6924    1.0038 H   0  0  0  0  0  0  0  0  0  0  0  0
   -3.0082   -2.6684    0.6318 C   0  0  0  0  0  0  0  0  0  0  0  0
   -3.6332   -2.0414    1.2658 H   0  0  0  0  0  0  0  0  0  0  0  0
   -3.3762   -2.6444   -0.3912 H   0  0  0  0  0  0  0  0  0  0  0  0
   -1.5882   -2.1554    0.6658 C   0  0  0  0  0  0  0  0  0  0  0  0
   -0.6832   -2.8764    1.0638 O   0  0  0  0  0  0  0  0  0  0  0  0
   -1.3952   -0.9084    0.2428 N   0  0  0  0  0  0  0  0  0  0  0  0
   -2.1972   -0.3644   -0.0422 H   0  0  0  0  0  0  0  0  0  0  0  0
   -0.1122   -0.1994    0.2658 C   0  0  1  0  0  0  0  0  0  0  0  0
    0.5635   -0.7260    0.9446 H   0  0  0  0  0  0  0  0  0  0  0  0
    0.4924   -0.2204   -1.1558 C   0  0  0  0  0  0  0  0  0  0  0  0
   -0.0526    0.4811   -1.7864 H   0  0  0  0  0  0  0  0  0  0  0  0
    1.5325    0.0986   -1.1085 H   0  0  0  0  0  0  0  0  0  0  0  0
    0.4185   -1.5764   -1.8391 C   0  0  0  0  0  0  0  0  0  0  0  0
    0.1778   -2.6094   -1.2390 O   0  0  0  0  0  0  0  0  0  0  0  0
    0.6344   -1.6229   -3.1312 N   0  0  0  0  0  0  0  0  0  0  0  0
    0.5617   -2.5295   -3.5584 H   0  0  0  0  0  0  0  0  0  0  0  0
    0.8155   -0.7849   -3.6508 H   0  0  0  0  0  0  0  0  0  0  0  0
   -0.3126    1.2341    0.8050 C   0  0  0  0  0  0  0  0  0  0  0  0
   -1.2484    1.9199    0.3934 O   0  0  0  0  0  0  0  0  0  0  0  0
    0.5615    1.6875    1.7087 N   0  0  0  0  0  0  0  0  0  0  0  0
    1.3461    1.0849    1.9358 H   0  0  0  0  0  0  0  0  0  0  0  0
    0.5043    3.0121    2.3242 C   0  0  0  0  0  0  0  0  0  0  0  0
   -0.4649    3.1514    2.8080 H   0  0  0  0  0  0  0  0  0  0  0  0
    1.2959    3.1139    3.0678 H   0  0  0  0  0  0  0  0  0  0  0  0
    0.6273    3.7799    1.5584 H   0  0  0  0  0  0  0  0  0  0  0  0
  5  6  2  0  0  0  0
  5  7  1  0  0  0  0
  2  3  1  0  0  0  0
  2  4  1  0  0  0  0
  2  5  1  0  0  0  0
  1  2  1  0  0  0  0
 19 20  2  0  0  0  0
 19 21  1  0  0  0  0
 16 17  1  0  0  0  0
 16 18  1  0  0  0  0
 14 15  2  0  0  0  0
 14 16  1  0  0  0  0
 11 12  1  0  0  0  0
 11 13  1  0  0  0  0
 11 14  1  0  0  0  0
  9 10  1  0  0  0  0
  9 11  1  0  0  0  0
  9 19  1  0  0  0  0
  7  8  1  0  0  0  0
  7  9  1  0  0  0  0
 23 24  1  0  0  0  0
 23 25  1  0  0  0  0
 23 26  1  0  0  0  0
 21 22  1  0  0  0  0
 21 23  1  0  0  0  0
M  END
$$$$
default_name
  -OEChem-02102213163D

 26 25  0     1  0  0  0  0  0999 V2000
   -3.0232   -3.6924    1.0038 H   0  0  0  0  0  0  0  0  0  0  0  0
   -3.0082   -2.6684    0.6318 C   0  0  0  0  0  0  0  0  0  0  0  0
   -3.6332   -2.0414    1.2658 H   0  0  0  0  0  0  0  0  0  0  0  0
   -3.3762   -2.6444   -0.3912 H   0  0  0  0  0  0  0  0  0  0  0  0
   -1.5882   -2.1554    0.6658 C   0  0  0  0  0  0  0  0  0  0  0  0
   -0.6832   -2.8764    1.0638 O   0  0  0  0  0  0  0  0  0  0  0  0
   -1.3952   -0.9084    0.2428 N   0  0  0  0  0  0  0  0  0  0  0  0
   -2.1972   -0.3644   -0.0422 H   0  0  0  0  0  0  0  0  0  0  0  0
   -0.1122   -0.1994    0.2658 C   0  0  1  0  0  0  0  0  0  0  0  0
    0.5635   -0.7260    0.9446 H   0  0  0  0  0  0  0  0  0  0  0  0
    0.4924   -0.2204   -1.1558 C   0  0  0  0  0  0  0  0  0  0  0  0
   -0.0526    0.4811   -1.7864 H   0  0  0  0  0  0  0  0  0  0  0  0
    1.5325    0.0986   -1.1085 H   0  0  0  0  0  0  0  0  0  0  0  0
    0.4185   -1.5764   -1.8391 C   0  0  0  0  0  0  0  0  0  0  0  0
   -0.0738   -2.5588   -1.3121 O   0  0  0  0  0  0  0  0  0  0  0  0
    0.9189   -1.6813   -3.0462 N   0  0  0  0  0  0  0  0  0  0  0  0
    0.8402   -2.5844   -3.4795 H   0  0  0  0  0  0  0  0  0  0  0  0
    1.3122   -0.8835   -3.5088 H   0  0  0  0  0  0  0  0  0  0  0  0
   -0.3126    1.2341    0.8050 C   0  0  0  0  0  0  0  0  0  0  0  0
   -1.2484    1.9199    0.3934 O   0  0  0  0  0  0  0  0  0  0  0  0
    0.5615    1.6875    1.7087 N   0  0  0  0  0  0  0  0  0  0  0  0
    1.3461    1.0849    1.9358 H   0  0  0  0  0  0  0  0  0  0  0  0
    0.5043    3.0121    2.3242 C   0  0  0  0  0  0  0  0  0  0  0  0
   -0.4649    3.1514    2.8080 H   0  0  0  0  0  0  0  0  0  0  0  0
    1.2959    3.1139    3.0678 H   0  0  0  0  0  0  0  0  0  0  0  0
    0.6273    3.7799    1.5584 H   0  0  0  0  0  0  0  0  0  0  0  0
  5  6  2  0  0  0  0
  5  7  1  0  0  0  0
  2  3  1  0  0  0  0
  2  4  1  0  0  0  0
  2  5  1  0  0  0  0
  1  2  1  0  0  0  0
 19 20  2  0  0  0  0
 19 21  1  0  0  0  0
 16 17  1  0  0  0  0
 16 18  1  0  0  0  0
 14 15  2  0  0  0  0
 14 16  1  0  0  0  0
 11 12  1  0  0  0  0
 11 13  1  0  0  0  0
 11 14  1  0  0  0  0
  9 10  1  0  0  0  0
  9 11  1  0  0  0  0
  9 19  1  0  0  0  0
  7  8  1  0  0  0  0
  7  9  1  0  0  0  0
 23 24  1  0  0  0  0
 23 25  1  0  0  0  0
 23 26  1  0  0  0  0
 21 22  1  0  0  0  0
 21 23  1  0  0  0  0
M  END
$$$$
default_name
  -OEChem-02102213163D

 26 25  0     1  0  0  0  0  0999 V2000
   -3.0232   -3.6924    1.0038 H   0  0  0  0  0  0  0  0  0  0  0  0
   -3.0082   -2.6684    0.6318 C   0  0  0  0  0  0  0  0  0  0  0  0
   -3.6332   -2.0414    1.2658 H   0  0  0  0  0  0  0  0  0  0  0  0
   -3.3762   -2.6444   -0.3912 H   0  0  0  0  0  0  0  0  0  0  0  0
   -1.5882   -2.1554    0.6658 C   0  0  0  0  0  0  0  0  0  0  0  0
   -0.6832   -2.8764    1.0638 O   0  0  0  0  0  0  0  0  0  0  0  0
   -1.3952   -0.9084    0.2428 N   0  0  0  0  0  0  0  0  0  0  0  0
   -2.1972   -0.3644   -0.0422 H   0  0  0  0  0  0  0  0  0  0  0  0
   -0.1122   -0.1994    0.2658 C   0  0  1  0  0  0  0  0  0  0  0  0
    0.5635   -0.7260    0.9446 H   0  0  0  0  0  0  0  0  0  0  0  0
    0.4924   -0.2204   -1.1558 C   0  0  0  0  0  0  0  0  0  0  0  0
   -0.0526    0.4811   -1.7864 H   0  0  0  0  0  0  0  0  0  0  0  0
    1.5325    0.0986   -1.1085 H   0  0  0  0  0  0  0  0  0  0  0  0
    0.4185   -1.5764   -1.8391 C   0  0  0  0  0  0  0  0  0  0  0  0
   -0.2941   -2.4816   -1.4415 O   0  0  0  0  0  0  0  0  0  0  0  0
    1.1673   -1.7697   -2.8976 N   0  0  0  0  0  0  0  0  0  0  0  0
    1.0846   -2.6689   -3.3383 H   0  0  0  0  0  0  0  0  0  0  0  0
    1.7476   -1.0348   -3.2556 H   0  0  0  0  0  0  0  0  0  0  0  0
   -0.3126    1.2341    0.8050 C   0  0  0  0  0  0  0  0  0  0  0  0
   -1.2484    1.9199    0.3934 O   0  0  0  0  0  0  0  0  0  0  0  0
    0.5615    1.6875    1.7087 N   0  0  0  0  0  0  0  0  0  0  0  0
    1.3461    1.0849    1.9358 H   0  0  0  0  0  0  0  0  0  0  0  0
    0.5043    3.0121    2.3242 C   0  0  0  0  0  0  0  0  0  0  0  0
   -0.4649    3.1514    2.8080 H   0  0  0  0  0  0  0  0  0  0  0  0
    1.2959    3.1139    3.0678 H   0  0  0  0  0  0  0  0  0  0  0  0
    0.6273    3.7799    1.5584 H   0  0  0  0  0  0  0  0  0  0  0  0
  5  6  2  0  0  0  0
  5  7  1  0  0  0  0
  2  3  1  0  0  0  0
  2  4  1  0  0  0  0
  2  5  1  0  0  0  0
  1  2  1  0  0  0  0
 19 20  2  0  0  0  0
 19 21  1  0  0  0  0
 16 17  1  0  0  0  0
 16 18  1  0  0  0  0
 14 15  2  0  0  0  0
 14 16  1  0  0  0  0
 11 12  1  0  0  0  0
 11 13  1  0  0  0  0
 11 14  1  0  0  0  0
  9 10  1  0  0  0  0
  9 11  1  0  0  0  0
  9 19  1  0  0  0  0
  7  8  1  0  0  0  0
  7  9  1  0  0  0  0
 23 24  1  0  0  0  0
 23 25  1  0  0  0  0
 23 26  1  0  0  0  0
 21 22  1  0  0  0  0
 21 23  1  0  0  0  0
M  END
$$$$
default_name
  -OEChem-02102213163D

 26 25  0     1  0  0  0  0  0999 V2000
   -3.0232   -3.6924    1.0038 H   0  0  0  0  0  0  0  0  0  0  0  0
   -3.0082   -2.6684    0.6318 C   0  0  0  0  0  0  0  0  0  0  0  0
   -3.6332   -2.0414    1.2658 H   0  0  0  0  0  0  0  0  0  0  0  0
   -3.3762   -2.6444   -0.3912 H   0  0  0  0  0  0  0  0  0  0  0  0
   -1.5882   -2.1554    0.6658 C   0  0  0  0  0  0  0  0  0  0  0  0
   -0.6832   -2.8764    1.0638 O   0  0  0  0  0  0  0  0  0  0  0  0
   -1.3952   -0.9084    0.2428 N   0  0  0  0  0  0  0  0  0  0  0  0
   -2.1972   -0.3644   -0.0422 H   0  0  0  0  0  0  0  0  0  0  0  0
   -0.1122   -0.1994    0.2658 C   0  0  1  0  0  0  0  0  0  0  0  0
    0.5635   -0.7260    0.9446 H   0  0  0  0  0  0  0  0  0  0  0  0
    0.4924   -0.2204   -1.1558 C   0  0  0  0  0  0  0  0  0  0  0  0
   -0.0526    0.4811   -1.7864 H   0  0  0  0  0  0  0  0  0  0  0  0
    1.5325    0.0986   -1.1085 H   0  0  0  0  0  0  0  0  0  0  0  0
    0.4185   -1.5764   -1.8391 C   0  0  0  0  0  0  0  0  0  0  0  0
   -0.4680   -2.3831   -1.6184 O   0  0  0  0  0  0  0  0  0  0  0  0
    1.3626   -1.8821   -2.6956 N   0  0  0  0  0  0  0  0  0  0  0  0
    1.2782   -2.7771   -3.1445 H   0  0  0  0  0  0  0  0  0  0  0  0
    2.0922   -1.2284   -2.9087 H   0  0  0  0  0  0  0  0  0  0  0  0
   -0.3126    1.2341    0.8050 C   0  0  0  0  0  0  0  0  0  0  0  0
   -1.2484    1.9199    0.3934 O   0  0  0  0  0  0  0  0  0  0  0  0
    0.5615    1.6875    1.7087 N   0  0  0  0  0  0  0  0  0  0  0  0
    1.3461    1.0849    1.9358 H   0  0  0  0  0  0  0  0  0  0  0  0
    0.5043    3.0121    2.3242 C   0  0  0  0  0  0  0  0  0  0  0  0
   -0.4649    3.1514    2.8080 H   0  0  0  0  0  0  0  0  0  0  0  0
    1.2959    3.1139    3.0678 H   0  0  0  0  0  0  0  0  0  0  0  0
    0.6273    3.7799    1.5584 H   0  0  0  0  0  0  0  0  0  0  0  0
  5  6  2  0  0  0  0
  5  7  1  0  0  0  0
  2  3  1  0  0  0  0
  2  4  1  0  0  0  0
  2  5  1  0  0  0  0
  1  2  1  0  0  0  0
 19 20  2  0  0  0  0
 19 21  1  0  0  0  0
 16 17  1  0  0  0  0
 16 18  1  0  0  0  0
 14 15  2  0  0  0  0
 14 16  1  0  0  0  0
 11 12  1  0  0  0  0
 11 13  1  0  0  0  0
 11 14  1  0  0  0  0
  9 10  1  0  0  0  0
  9 11  1  0  0  0  0
  9 19  1  0  0  0  0
  7  8  1  0  0  0  0
  7  9  1  0  0  0  0
 23 24  1  0  0  0  0
 23 25  1  0  0  0  0
 23 26  1  0  0  0  0
 21 22  1  0  0  0  0
 21 23  1  0  0  0  0
M  END
$$$$
default_name
  -OEChem-02102213163D

 26 25  0     1  0  0  0  0  0999 V2000
   -3.0232   -3.6924    1.0038 H   0  0  0  0  0  0  0  0  0  0  0  0
   -3.0082   -2.6684    0.6318 C   0  0  0  0  0  0  0  0  0  0  0  0
   -3.6332   -2.0414    1.2658 H   0  0  0  0  0  0  0  0  0  0  0  0
   -3.3762   -2.6444   -0.3912 H   0  0  0  0  0  0  0  0  0  0  0  0
   -1.5882   -2.1554    0.6658 C   0  0  0  0  0  0  0  0  0  0  0  0
   -0.6832   -2.8764    1.0638 O   0  0  0  0  0  0  0  0  0  0  0  0
   -1.3952   -0.9084    0.2428 N   0  0  0  0  0  0  0  0  0  0  0  0
   -2.1972   -0.3644   -0.0422 H   0  0  0  0  0  0  0  0  0  0  0  0
   -0.1122   -0.1994    0.2658 C   0  0  1  0  0  0  0  0  0  0  0  0
    0.5635   -0.7260    0.9446 H   0  0  0  0  0  0  0  0  0  0  0  0
    0.4924   -0.2204   -1.1558 C   0  0  0  0  0  0  0  0  0  0  0  0
   -0.0526    0.4811   -1.7864 H   0  0  0  0  0  0  0  0  0  0  0  0
    1.5325    0.0986   -1.1085 H   0  0  0  0  0  0  0  0  0  0  0  0
    0.4185   -1.5764   -1.8391 C   0  0  0  0  0  0  0  0  0  0  0  0
   -0.5836   -2.2698   -1.8305 O   0  0  0  0  0  0  0  0  0  0  0  0
    1.4916   -2.0109   -2.4539 N   0  0  0  0  0  0  0  0  0  0  0  0
    1.4079   -2.9018   -2.9111 H   0  0  0  0  0  0  0  0  0  0  0  0
    2.3225   -1.4512   -2.4916 H   0  0  0  0  0  0  0  0  0  0  0  0
   -0.3126    1.2341    0.8050 C   0  0  0  0  0  0  0  0  0  0  0  0
   -1.2484    1.9199    0.3934 O   0  0  0  0  0  0  0  0  0  0  0  0
    0.5615    1.6875    1.7087 N   0  0  0  0  0  0  0  0  0  0  0  0
    1.3461    1.0849    1.9358 H   0  0  0  0  0  0  0  0  0  0  0  0
    0.5043    3.0121    2.3242 C   0  0  0  0  0  0  0  0  0  0  0  0
   -0.4649    3.1514    2.8080 H   0  0  0  0  0  0  0  0  0  0  0  0
    1.2959    3.1139    3.0678 H   0  0  0  0  0  0  0  0  0  0  0  0
    0.6273    3.7799    1.5584 H   0  0  0  0  0  0  0  0  0  0  0  0
  5  6  2  0  0  0  0
  5  7  1  0  0  0  0
  2  3  1  0  0  0  0
  2  4  1  0  0  0  0
  2  5  1  0  0  0  0
  1  2  1  0  0  0  0
 19 20  2  0  0  0  0
 19 21  1  0  0  0  0
 16 17  1  0  0  0  0
 16 18  1  0  0  0  0
 14 15  2  0  0  0  0
 14 16  1  0  0  0  0
 11 12  1  0  0  0  0
 11 13  1  0  0  0  0
 11 14  1  0  0  0  0
  9 10  1  0  0  0  0
  9 11  1  0  0  0  0
  9 19  1  0  0  0  0
  7  8  1  0  0  0  0
  7  9  1  0  0  0  0
 23 24  1  0  0  0  0
 23 25  1  0  0  0  0
 23 26  1  0  0  0  0
 21 22  1  0  0  0  0
 21 23  1  0  0  0  0
M  END
$$$$
default_name
  -OEChem-02102213163D

 26 25  0     1  0  0  0  0  0999 V2000
   -3.0232   -3.6924    1.0038 H   0  0  0  0  0  0  0  0  0  0  0  0
   -3.0082   -2.6684    0.6318 C   0  0  0  0  0  0  0  0  0  0  0  0
   -3.6332   -2.0414    1.2658 H   0  0  0  0  0  0  0  0  0  0  0  0
   -3.3762   -2.6444   -0.3912 H   0  0  0  0  0  0  0  0  0  0  0  0
   -1.5882   -2.1554    0.6658 C   0  0  0  0  0  0  0  0  0  0  0  0
   -0.6832   -2.8764    1.0638 O   0  0  0  0  0  0  0  0  0  0  0  0
   -1.3952   -0.9084    0.2428 N   0  0  0  0  0  0  0  0  0  0  0  0
   -2.1972   -0.3644   -0.0422 H   0  0  0  0  0  0  0  0  0  0  0  0
   -0.1122   -0.1994    0.2658 C   0  0  1  0  0  0  0  0  0  0  0  0
    0.5635   -0.7260    0.9446 H   0  0  0  0  0  0  0  0  0  0  0  0
    0.4924   -0.2204   -1.1558 C   0  0  0  0  0  0  0  0  0  0  0  0
   -0.0526    0.4811   -1.7864 H   0  0  0  0  0  0  0  0  0  0  0  0
    1.5325    0.0986   -1.1085 H   0  0  0  0  0  0  0  0  0  0  0  0
    0.4185   -1.5764   -1.8391 C   0  0  0  0  0  0  0  0  0  0  0  0
   -0.6332   -2.1497   -2.0636 O   0  0  0  0  0  0  0  0  0  0  0  0
    1.5454   -2.1472   -2.1892 N   0  0  0  0  0  0  0  0  0  0  0  0
    1.4649   -3.0343   -2.6543 H   0  0  0  0  0  0  0  0  0  0  0  0
    2.4226   -1.6878   -2.0328 H   0  0  0  0  0  0  0  0  0  0  0  0
   -0.3126    1.2341    0.8050 C   0  0  0  0  0  0  0  0  0  0  0  0
   -1.2484    1.9199    0.3934 O   0  0  0  0  0  0  0  0  0  0  0  0
    0.5615    1.6875    1.7087 N   0  0  0  0  0  0  0  0  0  0  0  0
    1.3461    1.0849    1.9358 H   0  0  0  0  0  0  0  0  0  0  0  0
    0.5043    3.0121    2.3242 C   0  0  0  0  0  0  0  0  0  0  0  0
   -0.4649    3.1514    2.8080 H   0  0  0  0  0  0  0  0  0  0  0  0
    1.2959    3.1139    3.0678 H   0  0  0  0  0  0  0  0  0  0  0  0
    0.6273    3.7799    1.5584 H   0  0  0  0  0  0  0  0  0  0  0  0
  5  6  2  0  0  0  0
  5  7  1  0  0  0  0
  2  3  1  0  0  0  0
  2  4  1  0  0  0  0
  2  5  1  0  0  0  0
  1  2  1  0  0  0  0
 19 20  2  0  0  0  0
 19 21  1  0  0  0  0
 16 17  1  0  0  0  0
 16 18  1  0  0  0  0
 14 15  2  0  0  0  0
 14 16  1  0  0  0  0
 11 12  1  0  0  0  0
 11 13  1  0  0  0  0
 11 14  1  0  0  0  0
  9 10  1  0  0  0  0
  9 11  1  0  0  0  0
  9 19  1  0  0  0  0
  7  8  1  0  0  0  0
  7  9  1  0  0  0  0
 23 24  1  0  0  0  0
 23 25  1  0  0  0  0
 23 26  1  0  0  0  0
 21 22  1  0  0  0  0
 21 23  1  0  0  0  0
M  END
$$$$
default_name
  -OEChem-02102213163D

 26 25  0     1  0  0  0  0  0999 V2000
   -3.0232   -3.6924    1.0038 H   0  0  0  0  0  0  0  0  0  0  0  0
   -3.0082   -2.6684    0.6318 C   0  0  0  0  0  0  0  0  0  0  0  0
   -3.6332   -2.0414    1.2658 H   0  0  0  0  0  0  0  0  0  0  0  0
   -3.3762   -2.6444   -0.3912 H   0  0  0  0  0  0  0  0  0  0  0  0
   -1.5882   -2.1554    0.6658 C   0  0  0  0  0  0  0  0  0  0  0  0
   -0.6832   -2.8764    1.0638 O   0  0  0  0  0  0  0  0  0  0  0  0
   -1.3952   -0.9084    0.2428 N   0  0  0  0  0  0  0  0  0  0  0  0
   -2.1972   -0.3644   -0.0422 H   0  0  0  0  0  0  0  0  0  0  0  0
   -0.1122   -0.1994    0.2658 C   0  0  1  0  0  0  0  0  0  0  0  0
    0.5635   -0.7260    0.9446 H   0  0  0  0  0  0  0  0  0  0  0  0
    0.4924   -0.2204   -1.1558 C   0  0  0  0  0  0  0  0  0  0  0  0
   -0.0526    0.4811   -1.7864 H   0  0  0  0  0  0  0  0  0  0  0  0
    1.5325    0.0986   -1.1085 H   0  0  0  0  0  0  0  0  0  0  0  0
    0.4185   -1.5764   -1.8391 C   0  0  0  0  0  0  0  0  0  0  0  0
   -0.6133   -2.0308   -2.3017 O   0  0  0  0  0  0  0  0  0  0  0  0
    1.5204   -2.2819   -1.9193 N   0  0  0  0  0  0  0  0  0  0  0  0
    1.4451   -3.1657   -2.3913 H   0  0  0  0  0  0  0  0  0  0  0  0
    2.3860   -1.9223   -1.5635 H   0  0  0  0  0  0  0  0  0  0  0  0
   -0.3126    1.2341    0.8050 C   0  0  0  0  0  0  0  0  0  0  0  0
   -1.2484    1.9199    0.3934 O   0  0  0  0  0  0  0  0  0  0  0  0
    0.5615    1.6875    1.7087 N   0  0  0  0  0  0  0  0  0  0  0  0
    1.3461    1.0849    1.9358 H   0  0  0  0  0  0  0  0  0  0  0  0
    0.5043    3.0121    2.3242 C   0  0  0  0  0  0  0  0  0  0  0  0
   -0.4649    3.1514    2.8080 H   0  0  0  0  0  0  0  0  0  0  0  0
    1.2959    3.1139    3.0678 H   0  0  0  0  0  0  0  0  0  0  0  0
    0.6273    3.7799    1.5584 H   0  0  0  0  0  0  0  0  0  0  0  0
  5  6  2  0  0  0  0
  5  7  1  0  0  0  0
  2  3  1  0  0  0  0
  2  4  1  0  0  0  0
  2  5  1  0  0  0  0
  1  2  1  0  0  0  0
 19 20  2  0  0  0  0
 19 21  1  0  0  0  0
 16 17  1  0  0  0  0
 16 18  1  0  0  0  0
 14 15  2  0  0  0  0
 14 16  1  0  0  0  0
 11 12  1  0  0  0  0
 11 13  1  0  0  0  0
 11 14  1  0  0  0  0
  9 10  1  0  0  0  0
  9 11  1  0  0  0  0
  9 19  1  0  0  0  0
  7  8  1  0  0  0  0
  7  9  1  0  0  0  0
 23 24  1  0  0  0  0
 23 25  1  0  0  0  0
 23 26  1  0  0  0  0
 21 22  1  0  0  0  0
 21 23  1  0  0  0  0
M  END
$$$$
default_name
  -OEChem-02102213163D

 26 25  0     1  0  0  0  0  0999 V2000
   -3.0232   -3.6924    1.0038 H   0  0  0  0  0  0  0  0  0  0  0  0
   -3.0082   -2.6684    0.6318 C   0  0  0  0  0  0  0  0  0  0  0  0
   -3.6332   -2.0414    1.2658 H   0  0  0  0  0  0  0  0  0  0  0  0
   -3.3762   -2.6444   -0.3912 H   0  0  0  0  0  0  0  0  0  0  0  0
   -1.5882   -2.1554    0.6658 C   0  0  0  0  0  0  0  0  0  0  0  0
   -0.6832   -2.8764    1.0638 O   0  0  0  0  0  0  0  0  0  0  0  0
   -1.3952   -0.9084    0.2428 N   0  0  0  0  0  0  0  0  0  0  0  0
   -2.1972   -0.3644   -0.0422 H   0  0  0  0  0  0  0  0  0  0  0  0
   -0.1122   -0.1994    0.2658 C   0  0  1  0  0  0  0  0  0  0  0  0
    0.5635   -0.7260    0.9446 H   0  0  0  0  0  0  0  0  0  0  0  0
    0.4924   -0.2204   -1.1558 C   0  0  0  0  0  0  0  0  0  0  0  0
   -0.0526    0.4811   -1.7864 H   0  0  0  0  0  0  0  0  0  0  0  0
    1.5325    0.0986   -1.1085 H   0  0  0  0  0  0  0  0  0  0  0  0
    0.4185   -1.5764   -1.8391 C   0  0  0  0  0  0  0  0  0  0  0  0
   -0.5253   -1.9212   -2.5286 O   0  0  0  0  0  0  0  0  0  0  0  0
    1.4183   -2.4056   -1.6626 N   0  0  0  0  0  0  0  0  0  0  0  0
    1.3501   -3.2870   -2.1403 H   0  0  0  0  0  0  0  0  0  0  0  0
    2.2149   -2.1386   -1.1157 H   0  0  0  0  0  0  0  0  0  0  0  0
   -0.3126    1.2341    0.8050 C   0  0  0  0  0  0  0  0  0  0  0  0
   -1.2484    1.9199    0.3934 O   0  0  0  0  0  0  0  0  0  0  0  0
    0.5615    1.6875    1.7087 N   0  0  0  0  0  0  0  0  0  0  0  0
    1.3461    1.0849    1.9358 H   0  0  0  0  0  0  0  0  0  0  0  0
    0.5043    3.0121    2.3242 C   0  0  0  0  0  0  0  0  0  0  0  0
   -0.4649    3.1514    2.8080 H   0  0  0  0  0  0  0  0  0  0  0  0
    1.2959    3.1139    3.0678 H   0  0  0  0  0  0  0  0  0  0  0  0
    0.6273    3.7799    1.5584 H   0  0  0  0  0  0  0  0  0  0  0  0
  5  6  2  0  0  0  0
  5  7  1  0  0  0  0
  2  3  1  0  0  0  0
  2  4  1  0  0  0  0
  2  5  1  0  0  0  0
  1  2  1  0  0  0  0
 19 20  2  0  0  0  0
 19 21  1  0  0  0  0
 16 17  1  0  0  0  0
 16 18  1  0  0  0  0
 14 15  2  0  0  0  0
 14 16  1  0  0  0  0
 11 12  1  0  0  0  0
 11 13  1  0  0  0  0
 11 14  1  0  0  0  0
  9 10  1  0  0  0  0
  9 11  1  0  0  0  0
  9 19  1  0  0  0  0
  7  8  1  0  0  0  0
  7  9  1  0  0  0  0
 23 24  1  0  0  0  0
 23 25  1  0  0  0  0
 23 26  1  0  0  0  0
 21 22  1  0  0  0  0
 21 23  1  0  0  0  0
M  END
$$$$
default_name
  -OEChem-02102213163D

 26 25  0     1  0  0  0  0  0999 V2000
   -3.0232   -3.6924    1.0038 H   0  0  0  0  0  0  0  0  0  0  0  0
   -3.0082   -2.6684    0.6318 C   0  0  0  0  0  0  0  0  0  0  0  0
   -3.6332   -2.0414    1.2658 H   0  0  0  0  0  0  0  0  0  0  0  0
   -3.3762   -2.6444   -0.3912 H   0  0  0  0  0  0  0  0  0  0  0  0
   -1.5882   -2.1554    0.6658 C   0  0  0  0  0  0  0  0  0  0  0  0
   -0.6832   -2.8764    1.0638 O   0  0  0  0  0  0  0  0  0  0  0  0
   -1.3952   -0.9084    0.2428 N   0  0  0  0  0  0  0  0  0  0  0  0
   -2.1972   -0.3644   -0.0422 H   0  0  0  0  0  0  0  0  0  0  0  0
   -0.1122   -0.1994    0.2658 C   0  0  1  0  0  0  0  0  0  0  0  0
    0.5635   -0.7260    0.9446 H   0  0  0  0  0  0  0  0  0  0  0  0
    0.4924   -0.2204   -1.1558 C   0  0  0  0  0  0  0  0  0  0  0  0
   -0.0526    0.4811   -1.7864 H   0  0  0  0  0  0  0  0  0  0  0  0
    1.5325    0.0986   -1.1085 H   0  0  0  0  0  0  0  0  0  0  0  0
    0.4185   -1.5764   -1.8391 C   0  0  0  0  0  0  0  0  0  0  0  0
   -0.3752   -1.8285   -2.7289 O   0  0  0  0  0  0  0  0  0  0  0  0
    1.2460   -2.5101   -1.4368 N   0  0  0  0  0  0  0  0  0  0  0  0
    1.1862   -3.3900   -1.9182 H   0  0  0  0  0  0  0  0  0  0  0  0
    1.9211   -2.3220   -0.7199 H   0  0  0  0  0  0  0  0  0  0  0  0
   -0.3126    1.2341    0.8050 C   0  0  0  0  0  0  0  0  0  0  0  0
   -1.2484    1.9199    0.3934 O   0  0  0  0  0  0  0  0  0  0  0  0
    0.5615    1.6875    1.7087 N   0  0  0  0  0  0  0  0  0  0  0  0
    1.3461    1.0849    1.9358 H   0  0  0  0  0  0  0  0  0  0  0  0
    0.5043    3.0121    2.3242 C   0  0  0  0  0  0  0  0  0  0  0  0
   -0.4649    3.1514    2.8080 H   0  0  0  0  0  0  0  0  0  0  0  0
    1.2959    3.1139    3.0678 H   0  0  0  0  0  0  0  0  0  0  0  0
    0.6273    3.7799    1.5584 H   0  0  0  0  0  0  0  0  0  0  0  0
  5  6  2  0  0  0  0
  5  7  1  0  0  0  0
  2  3  1  0  0  0  0
  2  4  1  0  0  0  0
  2  5  1  0  0  0  0
  1  2  1  0  0  0  0
 19 20  2  0  0  0  0
 19 21  1  0  0  0  0
 16 17  1  0  0  0  0
 16 18  1  0  0  0  0
 14 15  2  0  0  0  0
 14 16  1  0  0  0  0
 11 12  1  0  0  0  0
 11 13  1  0  0  0  0
 11 14  1  0  0  0  0
  9 10  1  0  0  0  0
  9 11  1  0  0  0  0
  9 19  1  0  0  0  0
  7  8  1  0  0  0  0
  7  9  1  0  0  0  0
 23 24  1  0  0  0  0
 23 25  1  0  0  0  0
 23 26  1  0  0  0  0
 21 22  1  0  0  0  0
 21 23  1  0  0  0  0
M  END
$$$$
default_name
  -OEChem-02102213163D

 26 25  0     1  0  0  0  0  0999 V2000
   -3.0232   -3.6924    1.0038 H   0  0  0  0  0  0  0  0  0  0  0  0
   -3.0082   -2.6684    0.6318 C   0  0  0  0  0  0  0  0  0  0  0  0
   -3.6332   -2.0414    1.2658 H   0  0  0  0  0  0  0  0  0  0  0  0
   -3.3762   -2.6444   -0.3912 H   0  0  0  0  0  0  0  0  0  0  0  0
   -1.5882   -2.1554    0.6658 C   0  0  0  0  0  0  0  0  0  0  0  0
   -0.6832   -2.8764    1.0638 O   0  0  0  0  0  0  0  0  0  0  0  0
   -1.3952   -0.9084    0.2428 N   0  0  0  0  0  0  0  0  0  0  0  0
   -2.1972   -0.3644   -0.0422 H   0  0  0  0  0  0  0  0  0  0  0  0
   -0.1122   -0.1994    0.2658 C   0  0  1  0  0  0  0  0  0  0  0  0
    0.5635   -0.7260    0.9446 H   0  0  0  0  0  0  0  0  0  0  0  0
    0.4924   -0.2204   -1.1558 C   0  0  0  0  0  0  0  0  0  0  0  0
   -0.0526    0.4811   -1.7864 H   0  0  0  0  0  0  0  0  0  0  0  0
    1.5325    0.0986   -1.1085 H   0  0  0  0  0  0  0  0  0  0  0  0
    0.4185   -1.5764   -1.8391 C   0  0  0  0  0  0  0  0  0  0  0  0
   -0.1732   -1.7590   -2.8888 O   0  0  0  0  0  0  0  0  0  0  0  0
    1.0153   -2.5880   -1.2571 N   0  0  0  0  0  0  0  0  0  0  0  0
    0.9646   -3.4676   -1.7402 H   0  0  0  0  0  0  0  0  0  0  0  0
    1.5247   -2.4601   -0.4031 H   0  0  0  0  0  0  0  0  0  0  0  0
   -0.3126    1.2341    0.8050 C   0  0  0  0  0  0  0  0  0  0  0  0
   -1.2484    1.9199    0.3934 O   0  0  0  0  0  0  0  0  0  0  0  0
    0.5615    1.6875    1.7087 N   0  0  0  0  0  0  0  0  0  0  0  0
    1.3461    1.0849    1.9358 H   0  0  0  0  0  0  0  0  0  0  0  0
    0.5043    3.0121    2.3242 C   0  0  0  0  0  0  0  0  0  0  0  0
   -0.4649    3.1514    2.8080 H   0  0  0  0  0  0  0  0  0  0  0  0
    1.2959    3.1139    3.0678 H   0  0  0  0  0  0  0  0  0  0  0  0
    0.6273    3.7799    1.5584 H   0  0  0  0  0  0  0  0  0  0  0  0
  5  6  2  0  0  0  0
  5  7  1  0  0  0  0
  2  3  1  0  0  0  0
  2  4  1  0  0  0  0
  2  5  1  0  0  0  0
  1  2  1  0  0  0  0
 19 20  2  0  0  0  0
 19 21  1  0  0  0  0
 16 17  1  0  0  0  0
 16 18  1  0  0  0  0
 14 15  2  0  0  0  0
 14 16  1  0  0  0  0
 11 12  1  0  0  0  0
 11 13  1  0  0  0  0
 11 14  1  0  0  0  0
  9 10  1  0  0  0  0
  9 11  1  0  0  0  0
  9 19  1  0  0  0  0
  7  8  1  0  0  0  0
  7  9  1  0  0  0  0
 23 24  1  0  0  0  0
 23 25  1  0  0  0  0
 23 26  1  0  0  0  0
 21 22  1  0  0  0  0
 21 23  1  0  0  0  0
M  END
$$$$
default_name
  -OEChem-02102213163D

 26 25  0     1  0  0  0  0  0999 V2000
   -3.0232   -3.6924    1.0038 H   0  0  0  0  0  0  0  0  0  0  0  0
   -3.0082   -2.6684    0.6318 C   0  0  0  0  0  0  0  0  0  0  0  0
   -3.6332   -2.0414    1.2658 H   0  0  0  0  0  0  0  0  0  0  0  0
   -3.3762   -2.6444   -0.3912 H   0  0  0  0  0  0  0  0  0  0  0  0
   -1.5882   -2.1554    0.6658 C   0  0  0  0  0  0  0  0  0  0  0  0
   -0.6832   -2.8764    1.0638 O   0  0  0  0  0  0  0  0  0  0  0  0
   -1.3952   -0.9084    0.2428 N   0  0  0  0  0  0  0  0  0  0  0  0
   -2.1972   -0.3644   -0.0422 H   0  0  0  0  0  0  0  0  0  0  0  0
   -0.1122   -0.1994    0.2658 C   0  0  1  0  0  0  0  0  0  0  0  0
    0.5635   -0.7260    0.9446 H   0  0  0  0  0  0  0  0  0  0  0  0
    0.4924   -0.2204   -1.1558 C   0  0  0  0  0  0  0  0  0  0  0  0
   -0.0526    0.4811   -1.7864 H   0  0  0  0  0  0  0  0  0  0  0  0
    1.5325    0.0986   -1.1085 H   0  0  0  0  0  0  0  0  0  0  0  0
    0.4185   -1.5764   -1.8391 C   0  0  0  0  0  0  0  0  0  0  0  0
    0.0670   -1.7173   -2.9975 O   0  0  0  0  0  0  0  0  0  0  0  0
    0.7419   -2.6343   -1.1358 N   0  0  0  0  0  0  0  0  0  0  0  0
    0.7005   -3.5146   -1.6184 H   0  0  0  0  0  0  0  0  0  0  0  0
    1.0525   -2.5433   -0.1869 H   0  0  0  0  0  0  0  0  0  0  0  0
   -0.3126    1.2341    0.8050 C   0  0  0  0  0  0  0  0  0  0  0  0
   -1.2484    1.9199    0.3934 O   0  0  0  0  0  0  0  0  0  0  0  0
    0.5615    1.6875    1.7087 N   0  0  0  0  0  0  0  0  0  0  0  0
    1.3461    1.0849    1.9358 H   0  0  0  0  0  0  0  0  0  0  0  0
    0.5043    3.0121    2.3242 C   0  0  0  0  0  0  0  0  0  0  0  0
   -0.4649    3.1514    2.8080 H   0  0  0  0  0  0  0  0  0  0  0  0
    1.2959    3.1139    3.0678 H   0  0  0  0  0  0  0  0  0  0  0  0
    0.6273    3.7799    1.5584 H   0  0  0  0  0  0  0  0  0  0  0  0
  5  6  2  0  0  0  0
  5  7  1  0  0  0  0
  2  3  1  0  0  0  0
  2  4  1  0  0  0  0
  2  5  1  0  0  0  0
  1  2  1  0  0  0  0
 19 20  2  0  0  0  0
 19 21  1  0  0  0  0
 16 17  1  0  0  0  0
 16 18  1  0  0  0  0
 14 15  2  0  0  0  0
 14 16  1  0  0  0  0
 11 12  1  0  0  0  0
 11 13  1  0  0  0  0
 11 14  1  0  0  0  0
  9 10  1  0  0  0  0
  9 11  1  0  0  0  0
  9 19  1  0  0  0  0
  7  8  1  0  0  0  0
  7  9  1  0  0  0  0
 23 24  1  0  0  0  0
 23 25  1  0  0  0  0
 23 26  1  0  0  0  0
 21 22  1  0  0  0  0
 21 23  1  0  0  0  0
M  END
$$$$
default_name
  -OEChem-02102213163D

 26 25  0     1  0  0  0  0  0999 V2000
   -3.0232   -3.6924    1.0038 H   0  0  0  0  0  0  0  0  0  0  0  0
   -3.0082   -2.6684    0.6318 C   0  0  0  0  0  0  0  0  0  0  0  0
   -3.6332   -2.0414    1.2658 H   0  0  0  0  0  0  0  0  0  0  0  0
   -3.3762   -2.6444   -0.3912 H   0  0  0  0  0  0  0  0  0  0  0  0
   -1.5882   -2.1554    0.6658 C   0  0  0  0  0  0  0  0  0  0  0  0
   -0.6832   -2.8764    1.0638 O   0  0  0  0  0  0  0  0  0  0  0  0
   -1.3952   -0.9084    0.2428 N   0  0  0  0  0  0  0  0  0  0  0  0
   -2.1972   -0.3644   -0.0422 H   0  0  0  0  0  0  0  0  0  0  0  0
   -0.1122   -0.1994    0.2658 C   0  0  1  0  0  0  0  0  0  0  0  0
    0.5635   -0.7260    0.9446 H   0  0  0  0  0  0  0  0  0  0  0  0
    0.4924   -0.2204   -1.1558 C   0  0  0  0  0  0  0  0  0  0  0  0
   -0.0526    0.4811   -1.7864 H   0  0  0  0  0  0  0  0  0  0  0  0
    1.5325    0.0986   -1.1085 H   0  0  0  0  0  0  0  0  0  0  0  0
    0.4185   -1.5764   -1.8391 C   0  0  0  0  0  0  0  0  0  0  0  0
    0.3289   -1.7063   -3.0475 O   0  0  0  0  0  0  0  0  0  0  0  0
    0.4444   -2.6456   -1.0811 N   0  0  0  0  0  0  0  0  0  0  0  0
    0.4118   -3.5277   -1.5612 H   0  0  0  0  0  0  0  0  0  0  0  0
    0.5369   -2.5660   -0.0861 H   0  0  0  0  0  0  0  0  0  0  0  0
   -0.3126    1.2341    0.8050 C   0  0  0  0  0  0  0  0  0  0  0  0
   -1.2484    1.9199    0.3934 O   0  0  0  0  0  0  0  0  0  0  0  0
    0.5615    1.6875    1.7087 N   0  0  0  0  0  0  0  0  0  0  0  0
    1.3461    1.0849    1.9358 H   0  0  0  0  0  0  0  0  0  0  0  0
    0.5043    3.0121    2.3242 C   0  0  0  0  0  0  0  0  0  0  0  0
   -0.4649    3.1514    2.8080 H   0  0  0  0  0  0  0  0  0  0  0  0
    1.2959    3.1139    3.0678 H   0  0  0  0  0  0  0  0  0  0  0  0
    0.6273    3.7799    1.5584 H   0  0  0  0  0  0  0  0  0  0  0  0
  5  6  2  0  0  0  0
  5  7  1  0  0  0  0
  2  3  1  0  0  0  0
  2  4  1  0  0  0  0
  2  5  1  0  0  0  0
  1  2  1  0  0  0  0
 19 20  2  0  0  0  0
 19 21  1  0  0  0  0
 16 17  1  0  0  0  0
 16 18  1  0  0  0  0
 14 15  2  0  0  0  0
 14 16  1  0  0  0  0
 11 12  1  0  0  0  0
 11 13  1  0  0  0  0
 11 14  1  0  0  0  0
  9 10  1  0  0  0  0
  9 11  1  0  0  0  0
  9 19  1  0  0  0  0
  7  8  1  0  0  0  0
  7  9  1  0  0  0  0
 23 24  1  0  0  0  0
 23 25  1  0  0  0  0
 23 26  1  0  0  0  0
 21 22  1  0  0  0  0
 21 23  1  0  0  0  0
M  END
$$$$
default_name
  -OEChem-02102213163D

 26 25  0     1  0  0  0  0  0999 V2000
   -3.0232   -3.6924    1.0038 H   0  0  0  0  0  0  0  0  0  0  0  0
   -3.0082   -2.6684    0.6318 C   0  0  0  0  0  0  0  0  0  0  0  0
   -3.6332   -2.0414    1.2658 H   0  0  0  0  0  0  0  0  0  0  0  0
   -3.3762   -2.6444   -0.3912 H   0  0  0  0  0  0  0  0  0  0  0  0
   -1.5882   -2.1554    0.6658 C   0  0  0  0  0  0  0  0  0  0  0  0
   -0.6832   -2.8764    1.0638 O   0  0  0  0  0  0  0  0  0  0  0  0
   -1.3952   -0.9084    0.2428 N   0  0  0  0  0  0  0  0  0  0  0  0
   -2.1972   -0.3644   -0.0422 H   0  0  0  0  0  0  0  0  0  0  0  0
   -0.1122   -0.1994    0.2658 C   0  0  1  0  0  0  0  0  0  0  0  0
    0.5635   -0.7260    0.9446 H   0  0  0  0  0  0  0  0  0  0  0  0
    0.4924   -0.2204   -1.1558 C   0  0  0  0  0  0  0  0  0  0  0  0
   -0.0526    0.4811   -1.7864 H   0  0  0  0  0  0  0  0  0  0  0  0
    1.5325    0.0986   -1.1085 H   0  0  0  0  0  0  0  0  0  0  0  0
    0.4185   -1.5764   -1.8391 C   0  0  0  0  0  0  0  0  0  0  0  0
    0.5947   -1.7268   -3.0356 O   0  0  0  0  0  0  0  0  0  0  0  0
    0.1432   -2.6212   -1.0969 N   0  0  0  0  0  0  0  0  0  0  0  0
    0.1182   -3.5060   -1.5724 H   0  0  0  0  0  0  0  0  0  0  0  0
    0.0129   -2.5267   -0.1074 H   0  0  0  0  0  0  0  0  0  0  0  0
   -0.3126    1.2341    0.8050 C   0  0  0  0  0  0  0  0  0  0  0  0
   -1.2484    1.9199    0.3934 O   0  0  0  0  0  0  0  0  0  0  0  0
    0.5615    1.6875    1.7087 N   0  0  0  0  0  0  0  0  0  0  0  0
    1.3461    1.0849    1.9358 H   0  0  0  0  0  0  0  0  0  0  0  0
    0.5043    3.0121    2.3242 C   0  0  0  0  0  0  0  0  0  0  0  0
   -0.4649    3.1514    2.8080 H   0  0  0  0  0  0  0  0  0  0  0  0
    1.2959    3.1139    3.0678 H   0  0  0  0  0  0  0  0  0  0  0  0
    0.6273    3.7799    1.5584 H   0  0  0  0  0  0  0  0  0  0  0  0
  5  6  2  0  0  0  0
  5  7  1  0  0  0  0
  2  3  1  0  0  0  0
  2  4  1  0  0  0  0
  2  5  1  0  0  0  0
  1  2  1  0  0  0  0
 19 20  2  0  0  0  0
 19 21  1  0  0  0  0
 16 17  1  0  0  0  0
 16 18  1  0  0  0  0
 14 15  2  0  0  0  0
 14 16  1  0  0  0  0
 11 12  1  0  0  0  0
 11 13  1  0  0  0  0
 11 14  1  0  0  0  0
  9 10  1  0  0  0  0
  9 11  1  0  0  0  0
  9 19  1  0  0  0  0
  7  8  1  0  0  0  0
  7  9  1  0  0  0  0
 23 24  1  0  0  0  0
 23 25  1  0  0  0  0
 23 26  1  0  0  0  0
 21 22  1  0  0  0  0
 21 23  1  0  0  0  0
M  END
$$$$
default_name
  -OEChem-02102213163D

 26 25  0     1  0  0  0  0  0999 V2000
   -3.0232   -3.6924    1.0038 H   0  0  0  0  0  0  0  0  0  0  0  0
   -3.0082   -2.6684    0.6318 C   0  0  0  0  0  0  0  0  0  0  0  0
   -3.6332   -2.0414    1.2658 H   0  0  0  0  0  0  0  0  0  0  0  0
   -3.3762   -2.6444   -0.3912 H   0  0  0  0  0  0  0  0  0  0  0  0
   -1.5882   -2.1554    0.6658 C   0  0  0  0  0  0  0  0  0  0  0  0
   -0.6832   -2.8764    1.0638 O   0  0  0  0  0  0  0  0  0  0  0  0
   -1.3952   -0.9084    0.2428 N   0  0  0  0  0  0  0  0  0  0  0  0
   -2.1972   -0.3644   -0.0422 H   0  0  0  0  0  0  0  0  0  0  0  0
   -0.1122   -0.1994    0.2658 C   0  0  1  0  0  0  0  0  0  0  0  0
    0.5635   -0.7260    0.9446 H   0  0  0  0  0  0  0  0  0  0  0  0
    0.4924   -0.2204   -1.1558 C   0  0  0  0  0  0  0  0  0  0  0  0
    0.1400    0.6507   -1.7070 H   0  0  0  0  0  0  0  0  0  0  0  0
    1.5777   -0.1649   -1.0854 H   0  0  0  0  0  0  0  0  0  0  0  0
    0.1088   -1.4437   -1.9728 C   0  0  0  0  0  0  0  0  0  0  0  0
    0.4941   -1.6265   -3.1144 O   0  0  0  0  0  0  0  0  0  0  0  0
   -0.6801   -2.3294   -1.4145 N   0  0  0  0  0  0  0  0  0  0  0  0
   -0.9024   -3.1355   -1.9716 H   0  0  0  0  0  0  0  0  0  0  0  0
   -0.9953   -2.2116   -0.4702 H   0  0  0  0  0  0  0  0  0  0  0  0
   -0.3126    1.2341    0.8050 C   0  0  0  0  0  0  0  0  0  0  0  0
   -1.2484    1.9199    0.3934 O   0  0  0  0  0  0  0  0  0  0  0  0
    0.5615    1.6875    1.7087 N   0  0  0  0  0  0  0  0  0  0  0  0
    1.3461    1.0849    1.9358 H   0  0  0  0  0  0  0  0  0  0  0  0
    0.5043    3.0121    2.3242 C   0  0  0  0  0  0  0  0  0  0  0  0
   -0.4649    3.1514    2.8080 H   0  0  0  0  0  0  0  0  0  0  0  0
    1.2959    3.1139    3.0678 H   0  0  0  0  0  0  0  0  0  0  0  0
    0.6273    3.7799    1.5584 H   0  0  0  0  0  0  0  0  0  0  0  0
  5  6  2  0  0  0  0
  5  7  1  0  0  0  0
  2  3  1  0  0  0  0
  2  4  1  0  0  0  0
  2  5  1  0  0  0  0
  1  2  1  0  0  0  0
 19 20  2  0  0  0  0
 19 21  1  0  0  0  0
 16 17  1  0  0  0  0
 16 18  1  0  0  0  0
 14 15  2  0  0  0  0
 14 16  1  0  0  0  0
 11 12  1  0  0  0  0
 11 13  1  0  0  0  0
 11 14  1  0  0  0  0
  9 10  1  0  0  0  0
  9 11  1  0  0  0  0
  9 19  1  0  0  0  0
  7  8  1  0  0  0  0
  7  9  1  0  0  0  0
 23 24  1  0  0  0  0
 23 25  1  0  0  0  0
 23 26  1  0  0  0  0
 21 22  1  0  0  0  0
 21 23  1  0  0  0  0
M  END
$$$$
default_name
  -OEChem-02102213163D

 26 25  0     1  0  0  0  0  0999 V2000
   -3.0232   -3.6924    1.0038 H   0  0  0  0  0  0  0  0  0  0  0  0
   -3.0082   -2.6684    0.6318 C   0  0  0  0  0  0  0  0  0  0  0  0
   -3.6332   -2.0414    1.2658 H   0  0  0  0  0  0  0  0  0  0  0  0
   -3.3762   -2.6444   -0.3912 H   0  0  0  0  0  0  0  0  0  0  0  0
   -1.5882   -2.1554    0.6658 C   0  0  0  0  0  0  0  0  0  0  0  0
   -0.6832   -2.8764    1.0638 O   0  0  0  0  0  0  0  0  0  0  0  0
   -1.3952   -0.9084    0.2428 N   0  0  0  0  0  0  0  0  0  0  0  0
   -2.1972   -0.3644   -0.0422 H   0  0  0  0  0  0  0  0  0  0  0  0
   -0.1122   -0.1994    0.2658 C   0  0  1  0  0  0  0  0  0  0  0  0
    0.5635   -0.7260    0.9446 H   0  0  0  0  0  0  0  0  0  0  0  0
    0.4924   -0.2204   -1.1558 C   0  0  0  0  0  0  0  0  0  0  0  0
    0.1400    0.6507   -1.7070 H   0  0  0  0  0  0  0  0  0  0  0  0
    1.5777   -0.1649   -1.0854 H   0  0  0  0  0  0  0  0  0  0  0  0
    0.1088   -1.4437   -1.9728 C   0  0  0  0  0  0  0  0  0  0  0  0
    0.6876   -1.7667   -2.9955 O   0  0  0  0  0  0  0  0  0  0  0  0
   -0.8979   -2.1698   -1.5512 N   0  0  0  0  0  0  0  0  0  0  0  0
   -1.1174   -2.9814   -2.1013 H   0  0  0  0  0  0  0  0  0  0  0  0
   -1.3782   -1.9361   -0.7028 H   0  0  0  0  0  0  0  0  0  0  0  0
   -0.3126    1.2341    0.8050 C   0  0  0  0  0  0  0  0  0  0  0  0
   -1.2484    1.9199    0.3934 O   0  0  0  0  0  0  0  0  0  0  0  0
    0.5615    1.6875    1.7087 N   0  0  0  0  0  0  0  0  0  0  0  0
    1.3461    1.0849    1.9358 H   0  0  0  0  0  0  0  0  0  0  0  0
    0.5043    3.0121    2.3242 C   0  0  0  0  0  0  0  0  0  0  0  0
   -0.4649    3.1514    2.8080 H   0  0  0  0  0  0  0  0  0  0  0  0
    1.2959    3.1139    3.0678 H   0  0  0  0  0  0  0  0  0  0  0  0
    0.6273    3.7799    1.5584 H   0  0  0  0  0  0  0  0  0  0  0  0
  5  6  2  0  0  0  0
  5  7  1  0  0  0  0
  2  3  1  0  0  0  0
  2  4  1  0  0  0  0
  2  5  1  0  0  0  0
  1  2  1  0  0  0  0
 19 20  2  0  0  0  0
 19 21  1  0  0  0  0
 16 17  1  0  0  0  0
 16 18  1  0  0  0  0
 14 15  2  0  0  0  0
 14 16  1  0  0  0  0
 11 12  1  0  0  0  0
 11 13  1  0  0  0  0
 11 14  1  0  0  0  0
  9 10  1  0  0  0  0
  9 11  1  0  0  0  0
  9 19  1  0  0  0  0
  7  8  1  0  0  0  0
  7  9  1  0  0  0  0
 23 24  1  0  0  0  0
 23 25  1  0  0  0  0
 23 26  1  0  0  0  0
 21 22  1  0  0  0  0
 21 23  1  0  0  0  0
M  END
$$$$
default_name
  -OEChem-02102213163D

 26 25  0     1  0  0  0  0  0999 V2000
   -3.0232   -3.6924    1.0038 H   0  0  0  0  0  0  0  0  0  0  0  0
   -3.0082   -2.6684    0.6318 C   0  0  0  0  0  0  0  0  0  0  0  0
   -3.6332   -2.0414    1.2658 H   0  0  0  0  0  0  0  0  0  0  0  0
   -3.3762   -2.6444   -0.3912 H   0  0  0  0  0  0  0  0  0  0  0  0
   -1.5882   -2.1554    0.6658 C   0  0  0  0  0  0  0  0  0  0  0  0
   -0.6832   -2.8764    1.0638 O   0  0  0  0  0  0  0  0  0  0  0  0
   -1.3952   -0.9084    0.2428 N   0  0  0  0  0  0  0  0  0  0  0  0
   -2.1972   -0.3644   -0.0422 H   0  0  0  0  0  0  0  0  0  0  0  0
   -0.1122   -0.1994    0.2658 C   0  0  1  0  0  0  0  0  0  0  0  0
    0.5635   -0.7260    0.9446 H   0  0  0  0  0  0  0  0  0  0  0  0
    0.4924   -0.2204   -1.1558 C   0  0  0  0  0  0  0  0  0  0  0  0
    0.1400    0.6507   -1.7070 H   0  0  0  0  0  0  0  0  0  0  0  0
    1.5777   -0.1649   -1.0854 H   0  0  0  0  0  0  0  0  0  0  0  0
    0.1088   -1.4437   -1.9728 C   0  0  0  0  0  0  0  0  0  0  0  0
    0.8302   -1.9212   -2.8311 O   0  0  0  0  0  0  0  0  0  0  0  0
   -1.0577   -1.9942   -1.7390 N   0  0  0  0  0  0  0  0  0  0  0  0
   -1.2767   -2.8112   -2.2815 H   0  0  0  0  0  0  0  0  0  0  0  0
   -1.6613   -1.6320   -1.0252 H   0  0  0  0  0  0  0  0  0  0  0  0
   -0.3126    1.2341    0.8050 C   0  0  0  0  0  0  0  0  0  0  0  0
   -1.2484    1.9199    0.3934 O   0  0  0  0  0  0  0  0  0  0  0  0
    0.5615    1.6875    1.7087 N   0  0  0  0  0  0  0  0  0  0  0  0
    1.3461    1.0849    1.9358 H   0  0  0  0  0  0  0  0  0  0  0  0
    0.5043    3.0121    2.3242 C   0  0  0  0  0  0  0  0  0  0  0  0
   -0.4649    3.1514    2.8080 H   0  0  0  0  0  0  0  0  0  0  0  0
    1.2959    3.1139    3.0678 H   0  0  0  0  0  0  0  0  0  0  0  0
    0.6273    3.7799    1.5584 H   0  0  0  0  0  0  0  0  0  0  0  0
  5  6  2  0  0  0  0
  5  7  1  0  0  0  0
  2  3  1  0  0  0  0
  2  4  1  0  0  0  0
  2  5  1  0  0  0  0
  1  2  1  0  0  0  0
 19 20  2  0  0  0  0
 19 21  1  0  0  0  0
 16 17  1  0  0  0  0
 16 18  1  0  0  0  0
 14 15  2  0  0  0  0
 14 16  1  0  0  0  0
 11 12  1  0  0  0  0
 11 13  1  0  0  0  0
 11 14  1  0  0  0  0
  9 10  1  0  0  0  0
  9 11  1  0  0  0  0
  9 19  1  0  0  0  0
  7  8  1  0  0  0  0
  7  9  1  0  0  0  0
 23 24  1  0  0  0  0
 23 25  1  0  0  0  0
 23 26  1  0  0  0  0
 21 22  1  0  0  0  0
 21 23  1  0  0  0  0
M  END
$$$$
default_name
  -OEChem-02102213163D

 26 25  0     1  0  0  0  0  0999 V2000
   -3.0232   -3.6924    1.0038 H   0  0  0  0  0  0  0  0  0  0  0  0
   -3.0082   -2.6684    0.6318 C   0  0  0  0  0  0  0  0  0  0  0  0
   -3.6332   -2.0414    1.2658 H   0  0  0  0  0  0  0  0  0  0  0  0
   -3.3762   -2.6444   -0.3912 H   0  0  0  0  0  0  0  0  0  0  0  0
   -1.5882   -2.1554    0.6658 C   0  0  0  0  0  0  0  0  0  0  0  0
   -0.6832   -2.8764    1.0638 O   0  0  0  0  0  0  0  0  0  0  0  0
   -1.3952   -0.9084    0.2428 N   0  0  0  0  0  0  0  0  0  0  0  0
   -2.1972   -0.3644   -0.0422 H   0  0  0  0  0  0  0  0  0  0  0  0
   -0.1122   -0.1994    0.2658 C   0  0  1  0  0  0  0  0  0  0  0  0
    0.5635   -0.7260    0.9446 H   0  0  0  0  0  0  0  0  0  0  0  0
    0.4924   -0.2204   -1.1558 C   0  0  0  0  0  0  0  0  0  0  0  0
    0.1400    0.6507   -1.7070 H   0  0  0  0  0  0  0  0  0  0  0  0
    1.5777   -0.1649   -1.0854 H   0  0  0  0  0  0  0  0  0  0  0  0
    0.1088   -1.4437   -1.9728 C   0  0  0  0  0  0  0  0  0  0  0  0
    0.9123   -2.0795   -2.6326 O   0  0  0  0  0  0  0  0  0  0  0  0
   -1.1485   -1.8147   -1.9651 N   0  0  0  0  0  0  0  0  0  0  0  0
   -1.3693   -2.6363   -2.4997 H   0  0  0  0  0  0  0  0  0  0  0  0
   -1.8253   -1.3199   -1.4154 H   0  0  0  0  0  0  0  0  0  0  0  0
   -0.3126    1.2341    0.8050 C   0  0  0  0  0  0  0  0  0  0  0  0
   -1.2484    1.9199    0.3934 O   0  0  0  0  0  0  0  0  0  0  0  0
    0.5615    1.6875    1.7087 N   0  0  0  0  0  0  0  0  0  0  0  0
    1.3461    1.0849    1.9358 H   0  0  0  0  0  0  0  0  0  0  0  0
    0.5043    3.0121    2.3242 C   0  0  0  0  0  0  0  0  0  0  0  0
   -0.4649    3.1514    2.8080 H   0  0  0  0  0  0  0  0  0  0  0  0
    1.2959    3.1139    3.0678 H   0  0  0  0  0  0  0  0  0  0  0  0
    0.6273    3.7799    1.5584 H   0  0  0  0  0  0  0  0  0  0  0  0
  5  6  2  0  0  0  0
  5  7  1  0  0  0  0
  2  3  1  0  0  0  0
  2  4  1  0  0  0  0
  2  5  1  0  0  0  0
  1  2  1  0  0  0  0
 19 20  2  0  0  0  0
 19 21  1  0  0  0  0
 16 17  1  0  0  0  0
 16 18  1  0  0  0  0
 14 15  2  0  0  0  0
 14 16  1  0  0  0  0
 11 12  1  0  0  0  0
 11 13  1  0  0  0  0
 11 14  1  0  0  0  0
  9 10  1  0  0  0  0
  9 11  1  0  0  0  0
  9 19  1  0  0  0  0
  7  8  1  0  0  0  0
  7  9  1  0  0  0  0
 23 24  1  0  0  0  0
 23 25  1  0  0  0  0
 23 26  1  0  0  0  0
 21 22  1  0  0  0  0
 21 23  1  0  0  0  0
M  END
$$$$
default_name
  -OEChem-02102213163D

 26 25  0     1  0  0  0  0  0999 V2000
   -3.0232   -3.6924    1.0038 H   0  0  0  0  0  0  0  0  0  0  0  0
   -3.0082   -2.6684    0.6318 C   0  0  0  0  0  0  0  0  0  0  0  0
   -3.6332   -2.0414    1.2658 H   0  0  0  0  0  0  0  0  0  0  0  0
   -3.3762   -2.6444   -0.3912 H   0  0  0  0  0  0  0  0  0  0  0  0
   -1.5882   -2.1554    0.6658 C   0  0  0  0  0  0  0  0  0  0  0  0
   -0.6832   -2.8764    1.0638 O   0  0  0  0  0  0  0  0  0  0  0  0
   -1.3952   -0.9084    0.2428 N   0  0  0  0  0  0  0  0  0  0  0  0
   -2.1972   -0.3644   -0.0422 H   0  0  0  0  0  0  0  0  0  0  0  0
   -0.1122   -0.1994    0.2658 C   0  0  1  0  0  0  0  0  0  0  0  0
    0.5635   -0.7260    0.9446 H   0  0  0  0  0  0  0  0  0  0  0  0
    0.4924   -0.2204   -1.1558 C   0  0  0  0  0  0  0  0  0  0  0  0
    0.1400    0.6507   -1.7070 H   0  0  0  0  0  0  0  0  0  0  0  0
    1.5777   -0.1649   -1.0854 H   0  0  0  0  0  0  0  0  0  0  0  0
    0.1088   -1.4437   -1.9728 C   0  0  0  0  0  0  0  0  0  0  0  0
    0.9282   -2.2309   -2.4134 O   0  0  0  0  0  0  0  0  0  0  0  0
   -1.1641   -1.6435   -2.2142 N   0  0  0  0  0  0  0  0  0  0  0  0
   -1.3890   -2.4688   -2.7413 H   0  0  0  0  0  0  0  0  0  0  0  0
   -1.8590   -1.0212   -1.8469 H   0  0  0  0  0  0  0  0  0  0  0  0
   -0.3126    1.2341    0.8050 C   0  0  0  0  0  0  0  0  0  0  0  0
   -1.2484    1.9199    0.3934 O   0  0  0  0  0  0  0  0  0  0  0  0
    0.5615    1.6875    1.7087 N   0  0  0  0  0  0  0  0  0  0  0  0
    1.3461    1.0849    1.9358 H   0  0  0  0  0  0  0  0  0  0  0  0
    0.5043    3.0121    2.3242 C   0  0  0  0  0  0  0  0  0  0  0  0
   -0.4649    3.1514    2.8080 H   0  0  0  0  0  0  0  0  0  0  0  0
    1.2959    3.1139    3.0678 H   0  0  0  0  0  0  0  0  0  0  0  0
    0.6273    3.7799    1.5584 H   0  0  0  0  0  0  0  0  0  0  0  0
  5  6  2  0  0  0  0
  5  7  1  0  0  0  0
  2  3  1  0  0  0  0
  2  4  1  0  0  0  0
  2  5  1  0  0  0  0
  1  2  1  0  0  0  0
 19 20  2  0  0  0  0
 19 21  1  0  0  0  0
 16 17  1  0  0  0  0
 16 18  1  0  0  0  0
 14 15  2  0  0  0  0
 14 16  1  0  0  0  0
 11 12  1  0  0  0  0
 11 13  1  0  0  0  0
 11 14  1  0  0  0  0
  9 10  1  0  0  0  0
  9 11  1  0  0  0  0
  9 19  1  0  0  0  0
  7  8  1  0  0  0  0
  7  9  1  0  0  0  0
 23 24  1  0  0  0  0
 23 25  1  0  0  0  0
 23 26  1  0  0  0  0
 21 22  1  0  0  0  0
 21 23  1  0  0  0  0
M  END
$$$$
default_name
  -OEChem-02102213163D

 26 25  0     1  0  0  0  0  0999 V2000
   -3.0232   -3.6924    1.0038 H   0  0  0  0  0  0  0  0  0  0  0  0
   -3.0082   -2.6684    0.6318 C   0  0  0  0  0  0  0  0  0  0  0  0
   -3.6332   -2.0414    1.2658 H   0  0  0  0  0  0  0  0  0  0  0  0
   -3.3762   -2.6444   -0.3912 H   0  0  0  0  0  0  0  0  0  0  0  0
   -1.5882   -2.1554    0.6658 C   0  0  0  0  0  0  0  0  0  0  0  0
   -0.6832   -2.8764    1.0638 O   0  0  0  0  0  0  0  0  0  0  0  0
   -1.3952   -0.9084    0.2428 N   0  0  0  0  0  0  0  0  0  0  0  0
   -2.1972   -0.3644   -0.0422 H   0  0  0  0  0  0  0  0  0  0  0  0
   -0.1122   -0.1994    0.2658 C   0  0  1  0  0  0  0  0  0  0  0  0
    0.5635   -0.7260    0.9446 H   0  0  0  0  0  0  0  0  0  0  0  0
    0.4924   -0.2204   -1.1558 C   0  0  0  0  0  0  0  0  0  0  0  0
    0.1400    0.6507   -1.7070 H   0  0  0  0  0  0  0  0  0  0  0  0
    1.5777   -0.1649   -1.0854 H   0  0  0  0  0  0  0  0  0  0  0  0
    0.1088   -1.4437   -1.9728 C   0  0  0  0  0  0  0  0  0  0  0  0
    0.8768   -2.3650   -2.1884 O   0  0  0  0  0  0  0  0  0  0  0  0
   -1.1035   -1.4922   -2.4692 N   0  0  0  0  0  0  0  0  0  0  0  0
   -1.3344   -2.3201   -2.9897 H   0  0  0  0  0  0  0  0  0  0  0  0
   -1.7602   -0.7561   -2.2903 H   0  0  0  0  0  0  0  0  0  0  0  0
   -0.3126    1.2341    0.8050 C   0  0  0  0  0  0  0  0  0  0  0  0
   -1.2484    1.9199    0.3934 O   0  0  0  0  0  0  0  0  0  0  0  0
    0.5615    1.6875    1.7087 N   0  0  0  0  0  0  0  0  0  0  0  0
    1.3461    1.0849    1.9358 H   0  0  0  0  0  0  0  0  0  0  0  0
    0.5043    3.0121    2.3242 C   0  0  0  0  0  0  0  0  0  0  0  0
   -0.4649    3.1514    2.8080 H   0  0  0  0  0  0  0  0  0  0  0  0
    1.2959    3.1139    3.0678 H   0  0  0  0  0  0  0  0  0  0  0  0
    0.6273    3.7799    1.5584 H   0  0  0  0  0  0  0  0  0  0  0  0
  5  6  2  0  0  0  0
  5  7  1  0  0  0  0
  2  3  1  0  0  0  0
  2  4  1  0  0  0  0
  2  5  1  0  0  0  0
  1  2  1  0  0  0  0
 19 20  2  0  0  0  0
 19 21  1  0  0  0  0
 16 17  1  0  0  0  0
 16 18  1  0  0  0  0
 14 15  2  0  0  0  0
 14 16  1  0  0  0  0
 11 12  1  0  0  0  0
 11 13  1  0  0  0  0
 11 14  1  0  0  0  0
  9 10  1  0  0  0  0
  9 11  1  0  0  0  0
  9 19  1  0  0  0  0
  7  8  1  0  0  0  0
  7  9  1  0  0  0  0
 23 24  1  0  0  0  0
 23 25  1  0  0  0  0
 23 26  1  0  0  0  0
 21 22  1  0  0  0  0
 21 23  1  0  0  0  0
M  END
$$$$
default_name
  -OEChem-02102213163D

 26 25  0     1  0  0  0  0  0999 V2000
   -3.0232   -3.6924    1.0038 H   0  0  0  0  0  0  0  0  0  0  0  0
   -3.0082   -2.6684    0.6318 C   0  0  0  0  0  0  0  0  0  0  0  0
   -3.6332   -2.0414    1.2658 H   0  0  0  0  0  0  0  0  0  0  0  0
   -3.3762   -2.6444   -0.3912 H   0  0  0  0  0  0  0  0  0  0  0  0
   -1.5882   -2.1554    0.6658 C   0  0  0  0  0  0  0  0  0  0  0  0
   -0.6832   -2.8764    1.0638 O   0  0  0  0  0  0  0  0  0  0  0  0
   -1.3952   -0.9084    0.2428 N   0  0  0  0  0  0  0  0  0  0  0  0
   -2.1972   -0.3644   -0.0422 H   0  0  0  0  0  0  0  0  0  0  0  0
   -0.1122   -0.1994    0.2658 C   0  0  1  0  0  0  0  0  0  0  0  0
    0.5635   -0.7260    0.9446 H   0  0  0  0  0  0  0  0  0  0  0  0
    0.4924   -0.2204   -1.1558 C   0  0  0  0  0  0  0  0  0  0  0  0
    0.1400    0.6507   -1.7070 H   0  0  0  0  0  0  0  0  0  0  0  0
    1.5777   -0.1649   -1.0854 H   0  0  0  0  0  0  0  0  0  0  0  0
    0.1088   -1.4437   -1.9728 C   0  0  0  0  0  0  0  0  0  0  0  0
    0.7617   -2.4727   -1.9731 O   0  0  0  0  0  0  0  0  0  0  0  0
   -0.9708   -1.3711   -2.7128 N   0  0  0  0  0  0  0  0  0  0  0  0
   -1.2092   -2.2002   -3.2279 H   0  0  0  0  0  0  0  0  0  0  0  0
   -1.5355   -0.5427   -2.7152 H   0  0  0  0  0  0  0  0  0  0  0  0
   -0.3126    1.2341    0.8050 C   0  0  0  0  0  0  0  0  0  0  0  0
   -1.2484    1.9199    0.3934 O   0  0  0  0  0  0  0  0  0  0  0  0
    0.5615    1.6875    1.7087 N   0  0  0  0  0  0  0  0  0  0  0  0
    1.3461    1.0849    1.9358 H   0  0  0  0  0  0  0  0  0  0  0  0
    0.5043    3.0121    2.3242 C   0  0  0  0  0  0  0  0  0  0  0  0
   -0.4649    3.1514    2.8080 H   0  0  0  0  0  0  0  0  0  0  0  0
    1.2959    3.1139    3.0678 H   0  0  0  0  0  0  0  0  0  0  0  0
    0.6273    3.7799    1.5584 H   0  0  0  0  0  0  0  0  0  0  0  0
  5  6  2  0  0  0  0
  5  7  1  0  0  0  0
  2  3  1  0  0  0  0
  2  4  1  0  0  0  0
  2  5  1  0  0  0  0
  1  2  1  0  0  0  0
 19 20  2  0  0  0  0
 19 21  1  0  0  0  0
 16 17  1  0  0  0  0
 16 18  1  0  0  0  0
 14 15  2  0  0  0  0
 14 16  1  0  0  0  0
 11 12  1  0  0  0  0
 11 13  1  0  0  0  0
 11 14  1  0  0  0  0
  9 10  1  0  0  0  0
  9 11  1  0  0  0  0
  9 19  1  0  0  0  0
  7  8  1  0  0  0  0
  7  9  1  0  0  0  0
 23 24  1  0  0  0  0
 23 25  1  0  0  0  0
 23 26  1  0  0  0  0
 21 22  1  0  0  0  0
 21 23  1  0  0  0  0
M  END
$$$$
default_name
  -OEChem-02102213163D

 26 25  0     1  0  0  0  0  0999 V2000
   -3.0232   -3.6924    1.0038 H   0  0  0  0  0  0  0  0  0  0  0  0
   -3.0082   -2.6684    0.6318 C   0  0  0  0  0  0  0  0  0  0  0  0
   -3.6332   -2.0414    1.2658 H   0  0  0  0  0  0  0  0  0  0  0  0
   -3.3762   -2.6444   -0.3912 H   0  0  0  0  0  0  0  0  0  0  0  0
   -1.5882   -2.1554    0.6658 C   0  0  0  0  0  0  0  0  0  0  0  0
   -0.6832   -2.8764    1.0638 O   0  0  0  0  0  0  0  0  0  0  0  0
   -1.3952   -0.9084    0.2428 N   0  0  0  0  0  0  0  0  0  0  0  0
   -2.1972   -0.3644   -0.0422 H   0  0  0  0  0  0  0  0  0  0  0  0
   -0.1122   -0.1994    0.2658 C   0  0  1  0  0  0  0  0  0  0  0  0
    0.5635   -0.7260    0.9446 H   0  0  0  0  0  0  0  0  0  0  0  0
    0.4924   -0.2204   -1.1558 C   0  0  0  0  0  0  0  0  0  0  0  0
    0.1400    0.6507   -1.7070 H   0  0  0  0  0  0  0  0  0  0  0  0
    1.5777   -0.1649   -1.0854 H   0  0  0  0  0  0  0  0  0  0  0  0
    0.1088   -1.4437   -1.9728 C   0  0  0  0  0  0  0  0  0  0  0  0
    0.5907   -2.5467   -1.7820 O   0  0  0  0  0  0  0  0  0  0  0  0
   -0.7751   -1.2885   -2.9283 N   0  0  0  0  0  0  0  0  0  0  0  0
   -1.0221   -2.1174   -3.4398 H   0  0  0  0  0  0  0  0  0  0  0  0
   -1.2003   -0.3957   -3.0928 H   0  0  0  0  0  0  0  0  0  0  0  0
   -0.3126    1.2341    0.8050 C   0  0  0  0  0  0  0  0  0  0  0  0
   -1.2484    1.9199    0.3934 O   0  0  0  0  0  0  0  0  0  0  0  0
    0.5615    1.6875    1.7087 N   0  0  0  0  0  0  0  0  0  0  0  0
    1.3461    1.0849    1.9358 H   0  0  0  0  0  0  0  0  0  0  0  0
    0.5043    3.0121    2.3242 C   0  0  0  0  0  0  0  0  0  0  0  0
   -0.4649    3.1514    2.8080 H   0  0  0  0  0  0  0  0  0  0  0  0
    1.2959    3.1139    3.0678 H   0  0  0  0  0  0  0  0  0  0  0  0
    0.6273    3.7799    1.5584 H   0  0  0  0  0  0  0  0  0  0  0  0
  5  6  2  0  0  0  0
  5  7  1  0  0  0  0
  2  3  1  0  0  0  0
  2  4  1  0  0  0  0
  2  5  1  0  0  0  0
  1  2  1  0  0  0  0
 19 20  2  0  0  0  0
 19 21  1  0  0  0  0
 16 17  1  0  0  0  0
 16 18  1  0  0  0  0
 14 15  2  0  0  0  0
 14 16  1  0  0  0  0
 11 12  1  0  0  0  0
 11 13  1  0  0  0  0
 11 14  1  0  0  0  0
  9 10  1  0  0  0  0
  9 11  1  0  0  0  0
  9 19  1  0  0  0  0
  7  8  1  0  0  0  0
  7  9  1  0  0  0  0
 23 24  1  0  0  0  0
 23 25  1  0  0  0  0
 23 26  1  0  0  0  0
 21 22  1  0  0  0  0
 21 23  1  0  0  0  0
M  END
$$$$
default_name
  -OEChem-02102213163D

 26 25  0     1  0  0  0  0  0999 V2000
   -3.0232   -3.6924    1.0038 H   0  0  0  0  0  0  0  0  0  0  0  0
   -3.0082   -2.6684    0.6318 C   0  0  0  0  0  0  0  0  0  0  0  0
   -3.6332   -2.0414    1.2658 H   0  0  0  0  0  0  0  0  0  0  0  0
   -3.3762   -2.6444   -0.3912 H   0  0  0  0  0  0  0  0  0  0  0  0
   -1.5882   -2.1554    0.6658 C   0  0  0  0  0  0  0  0  0  0  0  0
   -0.6832   -2.8764    1.0638 O   0  0  0  0  0  0  0  0  0  0  0  0
   -1.3952   -0.9084    0.2428 N   0  0  0  0  0  0  0  0  0  0  0  0
   -2.1972   -0.3644   -0.0422 H   0  0  0  0  0  0  0  0  0  0  0  0
   -0.1122   -0.1994    0.2658 C   0  0  1  0  0  0  0  0  0  0  0  0
    0.5635   -0.7260    0.9446 H   0  0  0  0  0  0  0  0  0  0  0  0
    0.4924   -0.2204   -1.1558 C   0  0  0  0  0  0  0  0  0  0  0  0
    0.1400    0.6507   -1.7070 H   0  0  0  0  0  0  0  0  0  0  0  0
    1.5777   -0.1649   -1.0854 H   0  0  0  0  0  0  0  0  0  0  0  0
    0.1088   -1.4437   -1.9728 C   0  0  0  0  0  0  0  0  0  0  0  0
    0.3754   -2.5818   -1.6283 O   0  0  0  0  0  0  0  0  0  0  0  0
   -0.5297   -1.2500   -3.1012 N   0  0  0  0  0  0  0  0  0  0  0  0
   -0.7856   -2.0773   -3.6109 H   0  0  0  0  0  0  0  0  0  0  0  0
   -0.7774   -0.3249   -3.3974 H   0  0  0  0  0  0  0  0  0  0  0  0
   -0.3126    1.2341    0.8050 C   0  0  0  0  0  0  0  0  0  0  0  0
   -1.2484    1.9199    0.3934 O   0  0  0  0  0  0  0  0  0  0  0  0
    0.5615    1.6875    1.7087 N   0  0  0  0  0  0  0  0  0  0  0  0
    1.3461    1.0849    1.9358 H   0  0  0  0  0  0  0  0  0  0  0  0
    0.5043    3.0121    2.3242 C   0  0  0  0  0  0  0  0  0  0  0  0
   -0.4649    3.1514    2.8080 H   0  0  0  0  0  0  0  0  0  0  0  0
    1.2959    3.1139    3.0678 H   0  0  0  0  0  0  0  0  0  0  0  0
    0.6273    3.7799    1.5584 H   0  0  0  0  0  0  0  0  0  0  0  0
  5  6  2  0  0  0  0
  5  7  1  0  0  0  0
  2  3  1  0  0  0  0
  2  4  1  0  0  0  0
  2  5  1  0  0  0  0
  1  2  1  0  0  0  0
 19 20  2  0  0  0  0
 19 21  1  0  0  0  0
 16 17  1  0  0  0  0
 16 18  1  0  0  0  0
 14 15  2  0  0  0  0
 14 16  1  0  0  0  0
 11 12  1  0  0  0  0
 11 13  1  0  0  0  0
 11 14  1  0  0  0  0
  9 10  1  0  0  0  0
  9 11  1  0  0  0  0
  9 19  1  0  0  0  0
  7  8  1  0  0  0  0
  7  9  1  0  0  0  0
 23 24  1  0  0  0  0
 23 25  1  0  0  0  0
 23 26  1  0  0  0  0
 21 22  1  0  0  0  0
 21 23  1  0  0  0  0
M  END
$$$$
default_name
  -OEChem-02102213163D

 26 25  0     1  0  0  0  0  0999 V2000
   -3.0232   -3.6924    1.0038 H   0  0  0  0  0  0  0  0  0  0  0  0
   -3.0082   -2.6684    0.6318 C   0  0  0  0  0  0  0  0  0  0  0  0
   -3.6332   -2.0414    1.2658 H   0  0  0  0  0  0  0  0  0  0  0  0
   -3.3762   -2.6444   -0.3912 H   0  0  0  0  0  0  0  0  0  0  0  0
   -1.5882   -2.1554    0.6658 C   0  0  0  0  0  0  0  0  0  0  0  0
   -0.6832   -2.8764    1.0638 O   0  0  0  0  0  0  0  0  0  0  0  0
   -1.3952   -0.9084    0.2428 N   0  0  0  0  0  0  0  0  0  0  0  0
   -2.1972   -0.3644   -0.0422 H   0  0  0  0  0  0  0  0  0  0  0  0
   -0.1122   -0.1994    0.2658 C   0  0  1  0  0  0  0  0  0  0  0  0
    0.5635   -0.7260    0.9446 H   0  0  0  0  0  0  0  0  0  0  0  0
    0.4924   -0.2204   -1.1558 C   0  0  0  0  0  0  0  0  0  0  0  0
    0.1400    0.6507   -1.7070 H   0  0  0  0  0  0  0  0  0  0  0  0
    1.5777   -0.1649   -1.0854 H   0  0  0  0  0  0  0  0  0  0  0  0
    0.1088   -1.4437   -1.9728 C   0  0  0  0  0  0  0  0  0  0  0  0
    0.1305   -2.5758   -1.5223 O   0  0  0  0  0  0  0  0  0  0  0  0
   -0.2512   -1.2583   -3.2196 N   0  0  0  0  0  0  0  0  0  0  0  0
   -0.5160   -2.0826   -3.7296 H   0  0  0  0  0  0  0  0  0  0  0  0
   -0.2957   -0.3352   -3.6081 H   0  0  0  0  0  0  0  0  0  0  0  0
   -0.3126    1.2341    0.8050 C   0  0  0  0  0  0  0  0  0  0  0  0
   -1.2484    1.9199    0.3934 O   0  0  0  0  0  0  0  0  0  0  0  0
    0.5615    1.6875    1.7087 N   0  0  0  0  0  0  0  0  0  0  0  0
    1.3461    1.0849    1.9358 H   0  0  0  0  0  0  0  0  0  0  0  0
    0.5043    3.0121    2.3242 C   0  0  0  0  0  0  0  0  0  0  0  0
   -0.4649    3.1514    2.8080 H   0  0  0  0  0  0  0  0  0  0  0  0
    1.2959    3.1139    3.0678 H   0  0  0  0  0  0  0  0  0  0  0  0
    0.6273    3.7799    1.5584 H   0  0  0  0  0  0  0  0  0  0  0  0
  5  6  2  0  0  0  0
  5  7  1  0  0  0  0
  2  3  1  0  0  0  0
  2  4  1  0  0  0  0
  2  5  1  0  0  0  0
  1  2  1  0  0  0  0
 19 20  2  0  0  0  0
 19 21  1  0  0  0  0
 16 17  1  0  0  0  0
 16 18  1  0  0  0  0
 14 15  2  0  0  0  0
 14 16  1  0  0  0  0
 11 12  1  0  0  0  0
 11 13  1  0  0  0  0
 11 14  1  0  0  0  0
  9 10  1  0  0  0  0
  9 11  1  0  0  0  0
  9 19  1  0  0  0  0
  7  8  1  0  0  0  0
  7  9  1  0  0  0  0
 23 24  1  0  0  0  0
 23 25  1  0  0  0  0
 23 26  1  0  0  0  0
 21 22  1  0  0  0  0
 21 23  1  0  0  0  0
M  END
$$$$
default_name
  -OEChem-02102213163D

 26 25  0     1  0  0  0  0  0999 V2000
   -3.0232   -3.6924    1.0038 H   0  0  0  0  0  0  0  0  0  0  0  0
   -3.0082   -2.6684    0.6318 C   0  0  0  0  0  0  0  0  0  0  0  0
   -3.6332   -2.0414    1.2658 H   0  0  0  0  0  0  0  0  0  0  0  0
   -3.3762   -2.6444   -0.3912 H   0  0  0  0  0  0  0  0  0  0  0  0
   -1.5882   -2.1554    0.6658 C   0  0  0  0  0  0  0  0  0  0  0  0
   -0.6832   -2.8764    1.0638 O   0  0  0  0  0  0  0  0  0  0  0  0
   -1.3952   -0.9084    0.2428 N   0  0  0  0  0  0  0  0  0  0  0  0
   -2.1972   -0.3644   -0.0422 H   0  0  0  0  0  0  0  0  0  0  0  0
   -0.1122   -0.1994    0.2658 C   0  0  1  0  0  0  0  0  0  0  0  0
    0.5635   -0.7260    0.9446 H   0  0  0  0  0  0  0  0  0  0  0  0
    0.4924   -0.2204   -1.1558 C   0  0  0  0  0  0  0  0  0  0  0  0
    0.1400    0.6507   -1.7070 H   0  0  0  0  0  0  0  0  0  0  0  0
    1.5777   -0.1649   -1.0854 H   0  0  0  0  0  0  0  0  0  0  0  0
    0.1088   -1.4437   -1.9728 C   0  0  0  0  0  0  0  0  0  0  0  0
   -0.1272   -2.5291   -1.4713 O   0  0  0  0  0  0  0  0  0  0  0  0
    0.0412   -1.3128   -3.2754 N   0  0  0  0  0  0  0  0  0  0  0  0
   -0.2316   -2.1330   -3.7877 H   0  0  0  0  0  0  0  0  0  0  0  0
    0.2121   -0.4260   -3.7107 H   0  0  0  0  0  0  0  0  0  0  0  0
   -0.3126    1.2341    0.8050 C   0  0  0  0  0  0  0  0  0  0  0  0
   -1.2484    1.9199    0.3934 O   0  0  0  0  0  0  0  0  0  0  0  0
    0.5615    1.6875    1.7087 N   0  0  0  0  0  0  0  0  0  0  0  0
    1.3461    1.0849    1.9358 H   0  0  0  0  0  0  0  0  0  0  0  0
    0.5043    3.0121    2.3242 C   0  0  0  0  0  0  0  0  0  0  0  0
   -0.4649    3.1514    2.8080 H   0  0  0  0  0  0  0  0  0  0  0  0
    1.2959    3.1139    3.0678 H   0  0  0  0  0  0  0  0  0  0  0  0
    0.6273    3.7799    1.5584 H   0  0  0  0  0  0  0  0  0  0  0  0
  5  6  2  0  0  0  0
  5  7  1  0  0  0  0
  2  3  1  0  0  0  0
  2  4  1  0  0  0  0
  2  5  1  0  0  0  0
  1  2  1  0  0  0  0
 19 20  2  0  0  0  0
 19 21  1  0  0  0  0
 16 17  1  0  0  0  0
 16 18  1  0  0  0  0
 14 15  2  0  0  0  0
 14 16  1  0  0  0  0
 11 12  1  0  0  0  0
 11 13  1  0  0  0  0
 11 14  1  0  0  0  0
  9 10  1  0  0  0  0
  9 11  1  0  0  0  0
  9 19  1  0  0  0  0
  7  8  1  0  0  0  0
  7  9  1  0  0  0  0
 23 24  1  0  0  0  0
 23 25  1  0  0  0  0
 23 26  1  0  0  0  0
 21 22  1  0  0  0  0
 21 23  1  0  0  0  0
M  END
$$$$
default_name
  -OEChem-02102213163D

 26 25  0     1  0  0  0  0  0999 V2000
   -3.0232   -3.6924    1.0038 H   0  0  0  0  0  0  0  0  0  0  0  0
   -3.0082   -2.6684    0.6318 C   0  0  0  0  0  0  0  0  0  0  0  0
   -3.6332   -2.0414    1.2658 H   0  0  0  0  0  0  0  0  0  0  0  0
   -3.3762   -2.6444   -0.3912 H   0  0  0  0  0  0  0  0  0  0  0  0
   -1.5882   -2.1554    0.6658 C   0  0  0  0  0  0  0  0  0  0  0  0
   -0.6832   -2.8764    1.0638 O   0  0  0  0  0  0  0  0  0  0  0  0
   -1.3952   -0.9084    0.2428 N   0  0  0  0  0  0  0  0  0  0  0  0
   -2.1972   -0.3644   -0.0422 H   0  0  0  0  0  0  0  0  0  0  0  0
   -0.1122   -0.1994    0.2658 C   0  0  1  0  0  0  0  0  0  0  0  0
    0.5635   -0.7260    0.9446 H   0  0  0  0  0  0  0  0  0  0  0  0
    0.4924   -0.2204   -1.1558 C   0  0  0  0  0  0  0  0  0  0  0  0
    0.1400    0.6507   -1.7070 H   0  0  0  0  0  0  0  0  0  0  0  0
    1.5777   -0.1649   -1.0854 H   0  0  0  0  0  0  0  0  0  0  0  0
    0.1088   -1.4437   -1.9728 C   0  0  0  0  0  0  0  0  0  0  0  0
   -0.3803   -2.4447   -1.4788 O   0  0  0  0  0  0  0  0  0  0  0  0
    0.3277   -1.4097   -3.2648 N   0  0  0  0  0  0  0  0  0  0  0  0
    0.0482   -2.2250   -3.7813 H   0  0  0  0  0  0  0  0  0  0  0  0
    0.7113   -0.5910   -3.6980 H   0  0  0  0  0  0  0  0  0  0  0  0
   -0.3126    1.2341    0.8050 C   0  0  0  0  0  0  0  0  0  0  0  0
   -1.2484    1.9199    0.3934 O   0  0  0  0  0  0  0  0  0  0  0  0
    0.5615    1.6875    1.7087 N   0  0  0  0  0  0  0  0  0  0  0  0
    1.3461    1.0849    1.9358 H   0  0  0  0  0  0  0  0  0  0  0  0
    0.5043    3.0121    2.3242 C   0  0  0  0  0  0  0  0  0  0  0  0
   -0.4649    3.1514    2.8080 H   0  0  0  0  0  0  0  0  0  0  0  0
    1.2959    3.1139    3.0678 H   0  0  0  0  0  0  0  0  0  0  0  0
    0.6273    3.7799    1.5584 H   0  0  0  0  0  0  0  0  0  0  0  0
  5  6  2  0  0  0  0
  5  7  1  0  0  0  0
  2  3  1  0  0  0  0
  2  4  1  0  0  0  0
  2  5  1  0  0  0  0
  1  2  1  0  0  0  0
 19 20  2  0  0  0  0
 19 21  1  0  0  0  0
 16 17  1  0  0  0  0
 16 18  1  0  0  0  0
 14 15  2  0  0  0  0
 14 16  1  0  0  0  0
 11 12  1  0  0  0  0
 11 13  1  0  0  0  0
 11 14  1  0  0  0  0
  9 10  1  0  0  0  0
  9 11  1  0  0  0  0
  9 19  1  0  0  0  0
  7  8  1  0  0  0  0
  7  9  1  0  0  0  0
 23 24  1  0  0  0  0
 23 25  1  0  0  0  0
 23 26  1  0  0  0  0
 21 22  1  0  0  0  0
 21 23  1  0  0  0  0
M  END
$$$$
default_name
  -OEChem-02102213163D

 26 25  0     1  0  0  0  0  0999 V2000
   -3.0232   -3.6924    1.0038 H   0  0  0  0  0  0  0  0  0  0  0  0
   -3.0082   -2.6684    0.6318 C   0  0  0  0  0  0  0  0  0  0  0  0
   -3.6332   -2.0414    1.2658 H   0  0  0  0  0  0  0  0  0  0  0  0
   -3.3762   -2.6444   -0.3912 H   0  0  0  0  0  0  0  0  0  0  0  0
   -1.5882   -2.1554    0.6658 C   0  0  0  0  0  0  0  0  0  0  0  0
   -0.6832   -2.8764    1.0638 O   0  0  0  0  0  0  0  0  0  0  0  0
   -1.3952   -0.9084    0.2428 N   0  0  0  0  0  0  0  0  0  0  0  0
   -2.1972   -0.3644   -0.0422 H   0  0  0  0  0  0  0  0  0  0  0  0
   -0.1122   -0.1994    0.2658 C   0  0  1  0  0  0  0  0  0  0  0  0
    0.5635   -0.7260    0.9446 H   0  0  0  0  0  0  0  0  0  0  0  0
    0.4924   -0.2204   -1.1558 C   0  0  0  0  0  0  0  0  0  0  0  0
    0.1400    0.6507   -1.7070 H   0  0  0  0  0  0  0  0  0  0  0  0
    1.5777   -0.1649   -1.0854 H   0  0  0  0  0  0  0  0  0  0  0  0
    0.1088   -1.4437   -1.9728 C   0  0  0  0  0  0  0  0  0  0  0  0
   -0.6115   -2.3285   -1.5442 O   0  0  0  0  0  0  0  0  0  0  0  0
    0.5888   -1.5425   -3.1886 N   0  0  0  0  0  0  0  0  0  0  0  0
    0.3043   -2.3524   -3.7108 H   0  0  0  0  0  0  0  0  0  0  0  0
    1.1679   -0.8190   -3.5711 H   0  0  0  0  0  0  0  0  0  0  0  0
   -0.3126    1.2341    0.8050 C   0  0  0  0  0  0  0  0  0  0  0  0
   -1.2484    1.9199    0.3934 O   0  0  0  0  0  0  0  0  0  0  0  0
    0.5615    1.6875    1.7087 N   0  0  0  0  0  0  0  0  0  0  0  0
    1.3461    1.0849    1.9358 H   0  0  0  0  0  0  0  0  0  0  0  0
    0.5043    3.0121    2.3242 C   0  0  0  0  0  0  0  0  0  0  0  0
   -0.4649    3.1514    2.8080 H   0  0  0  0  0  0  0  0  0  0  0  0
    1.2959    3.1139    3.0678 H   0  0  0  0  0  0  0  0  0  0  0  0
    0.6273    3.7799    1.5584 H   0  0  0  0  0  0  0  0  0  0  0  0
  5  6  2  0  0  0  0
  5  7  1  0  0  0  0
  2  3  1  0  0  0  0
  2  4  1  0  0  0  0
  2  5  1  0  0  0  0
  1  2  1  0  0  0  0
 19 20  2  0  0  0  0
 19 21  1  0  0  0  0
 16 17  1  0  0  0  0
 16 18  1  0  0  0  0
 14 15  2  0  0  0  0
 14 16  1  0  0  0  0
 11 12  1  0  0  0  0
 11 13  1  0  0  0  0
 11 14  1  0  0  0  0
  9 10  1  0  0  0  0
  9 11  1  0  0  0  0
  9 19  1  0  0  0  0
  7  8  1  0  0  0  0
  7  9  1  0  0  0  0
 23 24  1  0  0  0  0
 23 25  1  0  0  0  0
 23 26  1  0  0  0  0
 21 22  1  0  0  0  0
 21 23  1  0  0  0  0
M  END
$$$$
default_name
  -OEChem-02102213163D

 26 25  0     1  0  0  0  0  0999 V2000
   -3.0232   -3.6924    1.0038 H   0  0  0  0  0  0  0  0  0  0  0  0
   -3.0082   -2.6684    0.6318 C   0  0  0  0  0  0  0  0  0  0  0  0
   -3.6332   -2.0414    1.2658 H   0  0  0  0  0  0  0  0  0  0  0  0
   -3.3762   -2.6444   -0.3912 H   0  0  0  0  0  0  0  0  0  0  0  0
   -1.5882   -2.1554    0.6658 C   0  0  0  0  0  0  0  0  0  0  0  0
   -0.6832   -2.8764    1.0638 O   0  0  0  0  0  0  0  0  0  0  0  0
   -1.3952   -0.9084    0.2428 N   0  0  0  0  0  0  0  0  0  0  0  0
   -2.1972   -0.3644   -0.0422 H   0  0  0  0  0  0  0  0  0  0  0  0
   -0.1122   -0.1994    0.2658 C   0  0  1  0  0  0  0  0  0  0  0  0
    0.5635   -0.7260    0.9446 H   0  0  0  0  0  0  0  0  0  0  0  0
    0.4924   -0.2204   -1.1558 C   0  0  0  0  0  0  0  0  0  0  0  0
    0.1400    0.6507   -1.7070 H   0  0  0  0  0  0  0  0  0  0  0  0
    1.5777   -0.1649   -1.0854 H   0  0  0  0  0  0  0  0  0  0  0  0
    0.1088   -1.4437   -1.9728 C   0  0  0  0  0  0  0  0  0  0  0  0
   -0.8049   -2.1883   -1.6632 O   0  0  0  0  0  0  0  0  0  0  0  0
    0.8067   -1.7021   -3.0519 N   0  0  0  0  0  0  0  0  0  0  0  0
    0.5193   -2.5065   -3.5811 H   0  0  0  0  0  0  0  0  0  0  0  0
    1.5508   -1.0945   -3.3385 H   0  0  0  0  0  0  0  0  0  0  0  0
   -0.3126    1.2341    0.8050 C   0  0  0  0  0  0  0  0  0  0  0  0
   -1.2484    1.9199    0.3934 O   0  0  0  0  0  0  0  0  0  0  0  0
    0.5615    1.6875    1.7087 N   0  0  0  0  0  0  0  0  0  0  0  0
    1.3461    1.0849    1.9358 H   0  0  0  0  0  0  0  0  0  0  0  0
    0.5043    3.0121    2.3242 C   0  0  0  0  0  0  0  0  0  0  0  0
   -0.4649    3.1514    2.8080 H   0  0  0  0  0  0  0  0  0  0  0  0
    1.2959    3.1139    3.0678 H   0  0  0  0  0  0  0  0  0  0  0  0
    0.6273    3.7799    1.5584 H   0  0  0  0  0  0  0  0  0  0  0  0
  5  6  2  0  0  0  0
  5  7  1  0  0  0  0
  2  3  1  0  0  0  0
  2  4  1  0  0  0  0
  2  5  1  0  0  0  0
  1  2  1  0  0  0  0
 19 20  2  0  0  0  0
 19 21  1  0  0  0  0
 16 17  1  0  0  0  0
 16 18  1  0  0  0  0
 14 15  2  0  0  0  0
 14 16  1  0  0  0  0
 11 12  1  0  0  0  0
 11 13  1  0  0  0  0
 11 14  1  0  0  0  0
  9 10  1  0  0  0  0
  9 11  1  0  0  0  0
  9 19  1  0  0  0  0
  7  8  1  0  0  0  0
  7  9  1  0  0  0  0
 23 24  1  0  0  0  0
 23 25  1  0  0  0  0
 23 26  1  0  0  0  0
 21 22  1  0  0  0  0
 21 23  1  0  0  0  0
M  END
$$$$
default_name
  -OEChem-02102213163D

 26 25  0     1  0  0  0  0  0999 V2000
   -3.0232   -3.6924    1.0038 H   0  0  0  0  0  0  0  0  0  0  0  0
   -3.0082   -2.6684    0.6318 C   0  0  0  0  0  0  0  0  0  0  0  0
   -3.6332   -2.0414    1.2658 H   0  0  0  0  0  0  0  0  0  0  0  0
   -3.3762   -2.6444   -0.3912 H   0  0  0  0  0  0  0  0  0  0  0  0
   -1.5882   -2.1554    0.6658 C   0  0  0  0  0  0  0  0  0  0  0  0
   -0.6832   -2.8764    1.0638 O   0  0  0  0  0  0  0  0  0  0  0  0
   -1.3952   -0.9084    0.2428 N   0  0  0  0  0  0  0  0  0  0  0  0
   -2.1972   -0.3644   -0.0422 H   0  0  0  0  0  0  0  0  0  0  0  0
   -0.1122   -0.1994    0.2658 C   0  0  1  0  0  0  0  0  0  0  0  0
    0.5635   -0.7260    0.9446 H   0  0  0  0  0  0  0  0  0  0  0  0
    0.4924   -0.2204   -1.1558 C   0  0  0  0  0  0  0  0  0  0  0  0
    0.1400    0.6507   -1.7070 H   0  0  0  0  0  0  0  0  0  0  0  0
    1.5777   -0.1649   -1.0854 H   0  0  0  0  0  0  0  0  0  0  0  0
    0.1088   -1.4437   -1.9728 C   0  0  0  0  0  0  0  0  0  0  0  0
   -0.9476   -2.0338   -1.8275 O   0  0  0  0  0  0  0  0  0  0  0  0
    0.9664   -1.8776   -2.8641 N   0  0  0  0  0  0  0  0  0  0  0  0
    0.6786   -2.6767   -3.4010 H   0  0  0  0  0  0  0  0  0  0  0  0
    1.8339   -1.3986   -3.0161 H   0  0  0  0  0  0  0  0  0  0  0  0
   -0.3126    1.2341    0.8050 C   0  0  0  0  0  0  0  0  0  0  0  0
   -1.2484    1.9199    0.3934 O   0  0  0  0  0  0  0  0  0  0  0  0
    0.5615    1.6875    1.7087 N   0  0  0  0  0  0  0  0  0  0  0  0
    1.3461    1.0849    1.9358 H   0  0  0  0  0  0  0  0  0  0  0  0
    0.5043    3.0121    2.3242 C   0  0  0  0  0  0  0  0  0  0  0  0
   -0.4649    3.1514    2.8080 H   0  0  0  0  0  0  0  0  0  0  0  0
    1.2959    3.1139    3.0678 H   0  0  0  0  0  0  0  0  0  0  0  0
    0.6273    3.7799    1.5584 H   0  0  0  0  0  0  0  0  0  0  0  0
  5  6  2  0  0  0  0
  5  7  1  0  0  0  0
  2  3  1  0  0  0  0
  2  4  1  0  0  0  0
  2  5  1  0  0  0  0
  1  2  1  0  0  0  0
 19 20  2  0  0  0  0
 19 21  1  0  0  0  0
 16 17  1  0  0  0  0
 16 18  1  0  0  0  0
 14 15  2  0  0  0  0
 14 16  1  0  0  0  0
 11 12  1  0  0  0  0
 11 13  1  0  0  0  0
 11 14  1  0  0  0  0
  9 10  1  0  0  0  0
  9 11  1  0  0  0  0
  9 19  1  0  0  0  0
  7  8  1  0  0  0  0
  7  9  1  0  0  0  0
 23 24  1  0  0  0  0
 23 25  1  0  0  0  0
 23 26  1  0  0  0  0
 21 22  1  0  0  0  0
 21 23  1  0  0  0  0
M  END
$$$$
default_name
  -OEChem-02102213163D

 26 25  0     1  0  0  0  0  0999 V2000
   -3.0232   -3.6924    1.0038 H   0  0  0  0  0  0  0  0  0  0  0  0
   -3.0082   -2.6684    0.6318 C   0  0  0  0  0  0  0  0  0  0  0  0
   -3.6332   -2.0414    1.2658 H   0  0  0  0  0  0  0  0  0  0  0  0
   -3.3762   -2.6444   -0.3912 H   0  0  0  0  0  0  0  0  0  0  0  0
   -1.5882   -2.1554    0.6658 C   0  0  0  0  0  0  0  0  0  0  0  0
   -0.6832   -2.8764    1.0638 O   0  0  0  0  0  0  0  0  0  0  0  0
   -1.3952   -0.9084    0.2428 N   0  0  0  0  0  0  0  0  0  0  0  0
   -2.1972   -0.3644   -0.0422 H   0  0  0  0  0  0  0  0  0  0  0  0
   -0.1122   -0.1994    0.2658 C   0  0  1  0  0  0  0  0  0  0  0  0
    0.5635   -0.7260    0.9446 H   0  0  0  0  0  0  0  0  0  0  0  0
    0.4924   -0.2204   -1.1558 C   0  0  0  0  0  0  0  0  0  0  0  0
    0.1400    0.6507   -1.7070 H   0  0  0  0  0  0  0  0  0  0  0  0
    1.5777   -0.1649   -1.0854 H   0  0  0  0  0  0  0  0  0  0  0  0
    0.1088   -1.4437   -1.9728 C   0  0  0  0  0  0  0  0  0  0  0  0
   -1.0296   -1.8755   -2.0261 O   0  0  0  0  0  0  0  0  0  0  0  0
    1.0572   -2.0571   -2.6380 N   0  0  0  0  0  0  0  0  0  0  0  0
    0.7712   -2.8516   -3.1827 H   0  0  0  0  0  0  0  0  0  0  0  0
    1.9979   -1.7107   -2.6258 H   0  0  0  0  0  0  0  0  0  0  0  0
   -0.3126    1.2341    0.8050 C   0  0  0  0  0  0  0  0  0  0  0  0
   -1.2484    1.9199    0.3934 O   0  0  0  0  0  0  0  0  0  0  0  0
    0.5615    1.6875    1.7087 N   0  0  0  0  0  0  0  0  0  0  0  0
    1.3461    1.0849    1.9358 H   0  0  0  0  0  0  0  0  0  0  0  0
    0.5043    3.0121    2.3242 C   0  0  0  0  0  0  0  0  0  0  0  0
   -0.4649    3.1514    2.8080 H   0  0  0  0  0  0  0  0  0  0  0  0
    1.2959    3.1139    3.0678 H   0  0  0  0  0  0  0  0  0  0  0  0
    0.6273    3.7799    1.5584 H   0  0  0  0  0  0  0  0  0  0  0  0
  5  6  2  0  0  0  0
  5  7  1  0  0  0  0
  2  3  1  0  0  0  0
  2  4  1  0  0  0  0
  2  5  1  0  0  0  0
  1  2  1  0  0  0  0
 19 20  2  0  0  0  0
 19 21  1  0  0  0  0
 16 17  1  0  0  0  0
 16 18  1  0  0  0  0
 14 15  2  0  0  0  0
 14 16  1  0  0  0  0
 11 12  1  0  0  0  0
 11 13  1  0  0  0  0
 11 14  1  0  0  0  0
  9 10  1  0  0  0  0
  9 11  1  0  0  0  0
  9 19  1  0  0  0  0
  7  8  1  0  0  0  0
  7  9  1  0  0  0  0
 23 24  1  0  0  0  0
 23 25  1  0  0  0  0
 23 26  1  0  0  0  0
 21 22  1  0  0  0  0
 21 23  1  0  0  0  0
M  END
$$$$
default_name
  -OEChem-02102213163D

 26 25  0     1  0  0  0  0  0999 V2000
   -3.0232   -3.6924    1.0038 H   0  0  0  0  0  0  0  0  0  0  0  0
   -3.0082   -2.6684    0.6318 C   0  0  0  0  0  0  0  0  0  0  0  0
   -3.6332   -2.0414    1.2658 H   0  0  0  0  0  0  0  0  0  0  0  0
   -3.3762   -2.6444   -0.3912 H   0  0  0  0  0  0  0  0  0  0  0  0
   -1.5882   -2.1554    0.6658 C   0  0  0  0  0  0  0  0  0  0  0  0
   -0.6832   -2.8764    1.0638 O   0  0  0  0  0  0  0  0  0  0  0  0
   -1.3952   -0.9084    0.2428 N   0  0  0  0  0  0  0  0  0  0  0  0
   -2.1972   -0.3644   -0.0422 H   0  0  0  0  0  0  0  0  0  0  0  0
   -0.1122   -0.1994    0.2658 C   0  0  1  0  0  0  0  0  0  0  0  0
    0.5635   -0.7260    0.9446 H   0  0  0  0  0  0  0  0  0  0  0  0
    0.4924   -0.2204   -1.1558 C   0  0  0  0  0  0  0  0  0  0  0  0
    0.1400    0.6507   -1.7070 H   0  0  0  0  0  0  0  0  0  0  0  0
    1.5777   -0.1649   -1.0854 H   0  0  0  0  0  0  0  0  0  0  0  0
    0.1088   -1.4437   -1.9728 C   0  0  0  0  0  0  0  0  0  0  0  0
   -1.0455   -1.7241   -2.2453 O   0  0  0  0  0  0  0  0  0  0  0  0
    1.0728   -2.2284   -2.3890 N   0  0  0  0  0  0  0  0  0  0  0  0
    0.7909   -3.0191   -2.9411 H   0  0  0  0  0  0  0  0  0  0  0  0
    2.0316   -2.0094   -2.1943 H   0  0  0  0  0  0  0  0  0  0  0  0
   -0.3126    1.2341    0.8050 C   0  0  0  0  0  0  0  0  0  0  0  0
   -1.2484    1.9199    0.3934 O   0  0  0  0  0  0  0  0  0  0  0  0
    0.5615    1.6875    1.7087 N   0  0  0  0  0  0  0  0  0  0  0  0
    1.3461    1.0849    1.9358 H   0  0  0  0  0  0  0  0  0  0  0  0
    0.5043    3.0121    2.3242 C   0  0  0  0  0  0  0  0  0  0  0  0
   -0.4649    3.1514    2.8080 H   0  0  0  0  0  0  0  0  0  0  0  0
    1.2959    3.1139    3.0678 H   0  0  0  0  0  0  0  0  0  0  0  0
    0.6273    3.7799    1.5584 H   0  0  0  0  0  0  0  0  0  0  0  0
  5  6  2  0  0  0  0
  5  7  1  0  0  0  0
  2  3  1  0  0  0  0
  2  4  1  0  0  0  0
  2  5  1  0  0  0  0
  1  2  1  0  0  0  0
 19 20  2  0  0  0  0
 19 21  1  0  0  0  0
 16 17  1  0  0  0  0
 16 18  1  0  0  0  0
 14 15  2  0  0  0  0
 14 16  1  0  0  0  0
 11 12  1  0  0  0  0
 11 13  1  0  0  0  0
 11 14  1  0  0  0  0
  9 10  1  0  0  0  0
  9 11  1  0  0  0  0
  9 19  1  0  0  0  0
  7  8  1  0  0  0  0
  7  9  1  0  0  0  0
 23 24  1  0  0  0  0
 23 25  1  0  0  0  0
 23 26  1  0  0  0  0
 21 22  1  0  0  0  0
 21 23  1  0  0  0  0
M  END
$$$$
default_name
  -OEChem-02102213163D

 26 25  0     1  0  0  0  0  0999 V2000
   -3.0232   -3.6924    1.0038 H   0  0  0  0  0  0  0  0  0  0  0  0
   -3.0082   -2.6684    0.6318 C   0  0  0  0  0  0  0  0  0  0  0  0
   -3.6332   -2.0414    1.2658 H   0  0  0  0  0  0  0  0  0  0  0  0
   -3.3762   -2.6444   -0.3912 H   0  0  0  0  0  0  0  0  0  0  0  0
   -1.5882   -2.1554    0.6658 C   0  0  0  0  0  0  0  0  0  0  0  0
   -0.6832   -2.8764    1.0638 O   0  0  0  0  0  0  0  0  0  0  0  0
   -1.3952   -0.9084    0.2428 N   0  0  0  0  0  0  0  0  0  0  0  0
   -2.1972   -0.3644   -0.0422 H   0  0  0  0  0  0  0  0  0  0  0  0
   -0.1122   -0.1994    0.2658 C   0  0  1  0  0  0  0  0  0  0  0  0
    0.5635   -0.7260    0.9446 H   0  0  0  0  0  0  0  0  0  0  0  0
    0.4924   -0.2204   -1.1558 C   0  0  0  0  0  0  0  0  0  0  0  0
    0.1400    0.6507   -1.7070 H   0  0  0  0  0  0  0  0  0  0  0  0
    1.5777   -0.1649   -1.0854 H   0  0  0  0  0  0  0  0  0  0  0  0
    0.1088   -1.4437   -1.9728 C   0  0  0  0  0  0  0  0  0  0  0  0
   -0.9942   -1.5900   -2.4702 O   0  0  0  0  0  0  0  0  0  0  0  0
    1.0123   -2.3797   -2.1339 N   0  0  0  0  0  0  0  0  0  0  0  0
    0.7363   -3.1678   -2.6928 H   0  0  0  0  0  0  0  0  0  0  0  0
    1.9328   -2.2745   -1.7510 H   0  0  0  0  0  0  0  0  0  0  0  0
   -0.3126    1.2341    0.8050 C   0  0  0  0  0  0  0  0  0  0  0  0
   -1.2484    1.9199    0.3934 O   0  0  0  0  0  0  0  0  0  0  0  0
    0.5615    1.6875    1.7087 N   0  0  0  0  0  0  0  0  0  0  0  0
    1.3461    1.0849    1.9358 H   0  0  0  0  0  0  0  0  0  0  0  0
    0.5043    3.0121    2.3242 C   0  0  0  0  0  0  0  0  0  0  0  0
   -0.4649    3.1514    2.8080 H   0  0  0  0  0  0  0  0  0  0  0  0
    1.2959    3.1139    3.0678 H   0  0  0  0  0  0  0  0  0  0  0  0
    0.6273    3.7799    1.5584 H   0  0  0  0  0  0  0  0  0  0  0  0
  5  6  2  0  0  0  0
  5  7  1  0  0  0  0
  2  3  1  0  0  0  0
  2  4  1  0  0  0  0
  2  5  1  0  0  0  0
  1  2  1  0  0  0  0
 19 20  2  0  0  0  0
 19 21  1  0  0  0  0
 16 17  1  0  0  0  0
 16 18  1  0  0  0  0
 14 15  2  0  0  0  0
 14 16  1  0  0  0  0
 11 12  1  0  0  0  0
 11 13  1  0  0  0  0
 11 14  1  0  0  0  0
  9 10  1  0  0  0  0
  9 11  1  0  0  0  0
  9 19  1  0  0  0  0
  7  8  1  0  0  0  0
  7  9  1  0  0  0  0
 23 24  1  0  0  0  0
 23 25  1  0  0  0  0
 23 26  1  0  0  0  0
 21 22  1  0  0  0  0
 21 23  1  0  0  0  0
M  END
$$$$
default_name
  -OEChem-02102213163D

 26 25  0     1  0  0  0  0  0999 V2000
   -3.0232   -3.6924    1.0038 H   0  0  0  0  0  0  0  0  0  0  0  0
   -3.0082   -2.6684    0.6318 C   0  0  0  0  0  0  0  0  0  0  0  0
   -3.6332   -2.0414    1.2658 H   0  0  0  0  0  0  0  0  0  0  0  0
   -3.3762   -2.6444   -0.3912 H   0  0  0  0  0  0  0  0  0  0  0  0
   -1.5882   -2.1554    0.6658 C   0  0  0  0  0  0  0  0  0  0  0  0
   -0.6832   -2.8764    1.0638 O   0  0  0  0  0  0  0  0  0  0  0  0
   -1.3952   -0.9084    0.2428 N   0  0  0  0  0  0  0  0  0  0  0  0
   -2.1972   -0.3644   -0.0422 H   0  0  0  0  0  0  0  0  0  0  0  0
   -0.1122   -0.1994    0.2658 C   0  0  1  0  0  0  0  0  0  0  0  0
    0.5635   -0.7260    0.9446 H   0  0  0  0  0  0  0  0  0  0  0  0
    0.4924   -0.2204   -1.1558 C   0  0  0  0  0  0  0  0  0  0  0  0
    0.1400    0.6507   -1.7070 H   0  0  0  0  0  0  0  0  0  0  0  0
    1.5777   -0.1649   -1.0854 H   0  0  0  0  0  0  0  0  0  0  0  0
    0.1088   -1.4437   -1.9728 C   0  0  0  0  0  0  0  0  0  0  0  0
   -0.8790   -1.4823   -2.6856 O   0  0  0  0  0  0  0  0  0  0  0  0
    0.8796   -2.5007   -1.8903 N   0  0  0  0  0  0  0  0  0  0  0  0
    0.6111   -3.2877   -2.4545 H   0  0  0  0  0  0  0  0  0  0  0  0
    1.7081   -2.4879   -1.3260 H   0  0  0  0  0  0  0  0  0  0  0  0
   -0.3126    1.2341    0.8050 C   0  0  0  0  0  0  0  0  0  0  0  0
   -1.2484    1.9199    0.3934 O   0  0  0  0  0  0  0  0  0  0  0  0
    0.5615    1.6875    1.7087 N   0  0  0  0  0  0  0  0  0  0  0  0
    1.3461    1.0849    1.9358 H   0  0  0  0  0  0  0  0  0  0  0  0
    0.5043    3.0121    2.3242 C   0  0  0  0  0  0  0  0  0  0  0  0
   -0.4649    3.1514    2.8080 H   0  0  0  0  0  0  0  0  0  0  0  0
    1.2959    3.1139    3.0678 H   0  0  0  0  0  0  0  0  0  0  0  0
    0.6273    3.7799    1.5584 H   0  0  0  0  0  0  0  0  0  0  0  0
  5  6  2  0  0  0  0
  5  7  1  0  0  0  0
  2  3  1  0  0  0  0
  2  4  1  0  0  0  0
  2  5  1  0  0  0  0
  1  2  1  0  0  0  0
 19 20  2  0  0  0  0
 19 21  1  0  0  0  0
 16 17  1  0  0  0  0
 16 18  1  0  0  0  0
 14 15  2  0  0  0  0
 14 16  1  0  0  0  0
 11 12  1  0  0  0  0
 11 13  1  0  0  0  0
 11 14  1  0  0  0  0
  9 10  1  0  0  0  0
  9 11  1  0  0  0  0
  9 19  1  0  0  0  0
  7  8  1  0  0  0  0
  7  9  1  0  0  0  0
 23 24  1  0  0  0  0
 23 25  1  0  0  0  0
 23 26  1  0  0  0  0
 21 22  1  0  0  0  0
 21 23  1  0  0  0  0
M  END
$$$$
default_name
  -OEChem-02102213163D

 26 25  0     1  0  0  0  0  0999 V2000
   -3.0232   -3.6924    1.0038 H   0  0  0  0  0  0  0  0  0  0  0  0
   -3.0082   -2.6684    0.6318 C   0  0  0  0  0  0  0  0  0  0  0  0
   -3.6332   -2.0414    1.2658 H   0  0  0  0  0  0  0  0  0  0  0  0
   -3.3762   -2.6444   -0.3912 H   0  0  0  0  0  0  0  0  0  0  0  0
   -1.5882   -2.1554    0.6658 C   0  0  0  0  0  0  0  0  0  0  0  0
   -0.6832   -2.8764    1.0638 O   0  0  0  0  0  0  0  0  0  0  0  0
   -1.3952   -0.9084    0.2428 N   0  0  0  0  0  0  0  0  0  0  0  0
   -2.1972   -0.3644   -0.0422 H   0  0  0  0  0  0  0  0  0  0  0  0
   -0.1122   -0.1994    0.2658 C   0  0  1  0  0  0  0  0  0  0  0  0
    0.5635   -0.7260    0.9446 H   0  0  0  0  0  0  0  0  0  0  0  0
    0.4924   -0.2204   -1.1558 C   0  0  0  0  0  0  0  0  0  0  0  0
    0.1400    0.6507   -1.7070 H   0  0  0  0  0  0  0  0  0  0  0  0
    1.5777   -0.1649   -1.0854 H   0  0  0  0  0  0  0  0  0  0  0  0
    0.1088   -1.4437   -1.9728 C   0  0  0  0  0  0  0  0  0  0  0  0
   -0.7080   -1.4083   -2.8766 O   0  0  0  0  0  0  0  0  0  0  0  0
    0.6838   -2.5833   -1.6748 N   0  0  0  0  0  0  0  0  0  0  0  0
    0.4239   -3.3705   -2.2426 H   0  0  0  0  0  0  0  0  0  0  0  0
    1.3729   -2.6349   -0.9484 H   0  0  0  0  0  0  0  0  0  0  0  0
   -0.3126    1.2341    0.8050 C   0  0  0  0  0  0  0  0  0  0  0  0
   -1.2484    1.9199    0.3934 O   0  0  0  0  0  0  0  0  0  0  0  0
    0.5615    1.6875    1.7087 N   0  0  0  0  0  0  0  0  0  0  0  0
    1.3461    1.0849    1.9358 H   0  0  0  0  0  0  0  0  0  0  0  0
    0.5043    3.0121    2.3242 C   0  0  0  0  0  0  0  0  0  0  0  0
   -0.4649    3.1514    2.8080 H   0  0  0  0  0  0  0  0  0  0  0  0
    1.2959    3.1139    3.0678 H   0  0  0  0  0  0  0  0  0  0  0  0
    0.6273    3.7799    1.5584 H   0  0  0  0  0  0  0  0  0  0  0  0
  5  6  2  0  0  0  0
  5  7  1  0  0  0  0
  2  3  1  0  0  0  0
  2  4  1  0  0  0  0
  2  5  1  0  0  0  0
  1  2  1  0  0  0  0
 19 20  2  0  0  0  0
 19 21  1  0  0  0  0
 16 17  1  0  0  0  0
 16 18  1  0  0  0  0
 14 15  2  0  0  0  0
 14 16  1  0  0  0  0
 11 12  1  0  0  0  0
 11 13  1  0  0  0  0
 11 14  1  0  0  0  0
  9 10  1  0  0  0  0
  9 11  1  0  0  0  0
  9 19  1  0  0  0  0
  7  8  1  0  0  0  0
  7  9  1  0  0  0  0
 23 24  1  0  0  0  0
 23 25  1  0  0  0  0
 23 26  1  0  0  0  0
 21 22  1  0  0  0  0
 21 23  1  0  0  0  0
M  END
$$$$
default_name
  -OEChem-02102213163D

 26 25  0     1  0  0  0  0  0999 V2000
   -3.0232   -3.6924    1.0038 H   0  0  0  0  0  0  0  0  0  0  0  0
   -3.0082   -2.6684    0.6318 C   0  0  0  0  0  0  0  0  0  0  0  0
   -3.6332   -2.0414    1.2658 H   0  0  0  0  0  0  0  0  0  0  0  0
   -3.3762   -2.6444   -0.3912 H   0  0  0  0  0  0  0  0  0  0  0  0
   -1.5882   -2.1554    0.6658 C   0  0  0  0  0  0  0  0  0  0  0  0
   -0.6832   -2.8764    1.0638 O   0  0  0  0  0  0  0  0  0  0  0  0
   -1.3952   -0.9084    0.2428 N   0  0  0  0  0  0  0  0  0  0  0  0
   -2.1972   -0.3644   -0.0422 H   0  0  0  0  0  0  0  0  0  0  0  0
   -0.1122   -0.1994    0.2658 C   0  0  1  0  0  0  0  0  0  0  0  0
    0.5635   -0.7260    0.9446 H   0  0  0  0  0  0  0  0  0  0  0  0
    0.4924   -0.2204   -1.1558 C   0  0  0  0  0  0  0  0  0  0  0  0
    0.1400    0.6507   -1.7070 H   0  0  0  0  0  0  0  0  0  0  0  0
    1.5777   -0.1649   -1.0854 H   0  0  0  0  0  0  0  0  0  0  0  0
    0.1088   -1.4437   -1.9728 C   0  0  0  0  0  0  0  0  0  0  0  0
   -0.4927   -1.3731   -3.0304 O   0  0  0  0  0  0  0  0  0  0  0  0
    0.4384   -2.6218   -1.5019 N   0  0  0  0  0  0  0  0  0  0  0  0
    0.1875   -3.4106   -2.0715 H   0  0  0  0  0  0  0  0  0  0  0  0
    0.9500   -2.7057   -0.6439 H   0  0  0  0  0  0  0  0  0  0  0  0
   -0.3126    1.2341    0.8050 C   0  0  0  0  0  0  0  0  0  0  0  0
   -1.2484    1.9199    0.3934 O   0  0  0  0  0  0  0  0  0  0  0  0
    0.5615    1.6875    1.7087 N   0  0  0  0  0  0  0  0  0  0  0  0
    1.3461    1.0849    1.9358 H   0  0  0  0  0  0  0  0  0  0  0  0
    0.5043    3.0121    2.3242 C   0  0  0  0  0  0  0  0  0  0  0  0
   -0.4649    3.1514    2.8080 H   0  0  0  0  0  0  0  0  0  0  0  0
    1.2959    3.1139    3.0678 H   0  0  0  0  0  0  0  0  0  0  0  0
    0.6273    3.7799    1.5584 H   0  0  0  0  0  0  0  0  0  0  0  0
  5  6  2  0  0  0  0
  5  7  1  0  0  0  0
  2  3  1  0  0  0  0
  2  4  1  0  0  0  0
  2  5  1  0  0  0  0
  1  2  1  0  0  0  0
 19 20  2  0  0  0  0
 19 21  1  0  0  0  0
 16 17  1  0  0  0  0
 16 18  1  0  0  0  0
 14 15  2  0  0  0  0
 14 16  1  0  0  0  0
 11 12  1  0  0  0  0
 11 13  1  0  0  0  0
 11 14  1  0  0  0  0
  9 10  1  0  0  0  0
  9 11  1  0  0  0  0
  9 19  1  0  0  0  0
  7  8  1  0  0  0  0
  7  9  1  0  0  0  0
 23 24  1  0  0  0  0
 23 25  1  0  0  0  0
 23 26  1  0  0  0  0
 21 22  1  0  0  0  0
 21 23  1  0  0  0  0
M  END
$$$$
default_name
  -OEChem-02102213163D

 26 25  0     1  0  0  0  0  0999 V2000
   -3.0232   -3.6924    1.0038 H   0  0  0  0  0  0  0  0  0  0  0  0
   -3.0082   -2.6684    0.6318 C   0  0  0  0  0  0  0  0  0  0  0  0
   -3.6332   -2.0414    1.2658 H   0  0  0  0  0  0  0  0  0  0  0  0
   -3.3762   -2.6444   -0.3912 H   0  0  0  0  0  0  0  0  0  0  0  0
   -1.5882   -2.1554    0.6658 C   0  0  0  0  0  0  0  0  0  0  0  0
   -0.6832   -2.8764    1.0638 O   0  0  0  0  0  0  0  0  0  0  0  0
   -1.3952   -0.9084    0.2428 N   0  0  0  0  0  0  0  0  0  0  0  0
   -2.1972   -0.3644   -0.0422 H   0  0  0  0  0  0  0  0  0  0  0  0
   -0.1122   -0.1994    0.2658 C   0  0  1  0  0  0  0  0  0  0  0  0
    0.5635   -0.7260    0.9446 H   0  0  0  0  0  0  0  0  0  0  0  0
    0.4924   -0.2204   -1.1558 C   0  0  0  0  0  0  0  0  0  0  0  0
    0.1400    0.6507   -1.7070 H   0  0  0  0  0  0  0  0  0  0  0  0
    1.5777   -0.1649   -1.0854 H   0  0  0  0  0  0  0  0  0  0  0  0
    0.1088   -1.4437   -1.9728 C   0  0  0  0  0  0  0  0  0  0  0  0
   -0.2479   -1.3791   -3.1364 O   0  0  0  0  0  0  0  0  0  0  0  0
    0.1600   -2.6135   -1.3836 N   0  0  0  0  0  0  0  0  0  0  0  0
   -0.0821   -3.4053   -1.9529 H   0  0  0  0  0  0  0  0  0  0  0  0
    0.4683   -2.6953   -0.4331 H   0  0  0  0  0  0  0  0  0  0  0  0
   -0.3126    1.2341    0.8050 C   0  0  0  0  0  0  0  0  0  0  0  0
   -1.2484    1.9199    0.3934 O   0  0  0  0  0  0  0  0  0  0  0  0
    0.5615    1.6875    1.7087 N   0  0  0  0  0  0  0  0  0  0  0  0
    1.3461    1.0849    1.9358 H   0  0  0  0  0  0  0  0  0  0  0  0
    0.5043    3.0121    2.3242 C   0  0  0  0  0  0  0  0  0  0  0  0
   -0.4649    3.1514    2.8080 H   0  0  0  0  0  0  0  0  0  0  0  0
    1.2959    3.1139    3.0678 H   0  0  0  0  0  0  0  0  0  0  0  0
    0.6273    3.7799    1.5584 H   0  0  0  0  0  0  0  0  0  0  0  0
  5  6  2  0  0  0  0
  5  7  1  0  0  0  0
  2  3  1  0  0  0  0
  2  4  1  0  0  0  0
  2  5  1  0  0  0  0
  1  2  1  0  0  0  0
 19 20  2  0  0  0  0
 19 21  1  0  0  0  0
 16 17  1  0  0  0  0
 16 18  1  0  0  0  0
 14 15  2  0  0  0  0
 14 16  1  0  0  0  0
 11 12  1  0  0  0  0
 11 13  1  0  0  0  0
 11 14  1  0  0  0  0
  9 10  1  0  0  0  0
  9 11  1  0  0  0  0
  9 19  1  0  0  0  0
  7  8  1  0  0  0  0
  7  9  1  0  0  0  0
 23 24  1  0  0  0  0
 23 25  1  0  0  0  0
 23 26  1  0  0  0  0
 21 22  1  0  0  0  0
 21 23  1  0  0  0  0
M  END
$$$$
default_name
  -OEChem-02102213163D

 26 25  0     1  0  0  0  0  0999 V2000
   -3.0232   -3.6924    1.0038 H   0  0  0  0  0  0  0  0  0  0  0  0
   -3.0082   -2.6684    0.6318 C   0  0  0  0  0  0  0  0  0  0  0  0
   -3.6332   -2.0414    1.2658 H   0  0  0  0  0  0  0  0  0  0  0  0
   -3.3762   -2.6444   -0.3912 H   0  0  0  0  0  0  0  0  0  0  0  0
   -1.5882   -2.1554    0.6658 C   0  0  0  0  0  0  0  0  0  0  0  0
   -0.6832   -2.8764    1.0638 O   0  0  0  0  0  0  0  0  0  0  0  0
   -1.3952   -0.9084    0.2428 N   0  0  0  0  0  0  0  0  0  0  0  0
   -2.1972   -0.3644   -0.0422 H   0  0  0  0  0  0  0  0  0  0  0  0
   -0.1122   -0.1994    0.2658 C   0  0  1  0  0  0  0  0  0  0  0  0
    0.5635   -0.7260    0.9446 H   0  0  0  0  0  0  0  0  0  0  0  0
    0.4924   -0.2204   -1.1558 C   0  0  0  0  0  0  0  0  0  0  0  0
    0.1400    0.6507   -1.7070 H   0  0  0  0  0  0  0  0  0  0  0  0
    1.5777   -0.1649   -1.0854 H   0  0  0  0  0  0  0  0  0  0  0  0
    0.1088   -1.4437   -1.9728 C   0  0  0  0  0  0  0  0  0  0  0  0
    0.0099   -1.4259   -3.1874 O   0  0  0  0  0  0  0  0  0  0  0  0
   -0.1325   -2.5591   -1.3278 N   0  0  0  0  0  0  0  0  0  0  0  0
   -0.3665   -3.3549   -1.8948 H   0  0  0  0  0  0  0  0  0  0  0  0
   -0.0395   -2.6046   -0.3306 H   0  0  0  0  0  0  0  0  0  0  0  0
   -0.3126    1.2341    0.8050 C   0  0  0  0  0  0  0  0  0  0  0  0
   -1.2484    1.9199    0.3934 O   0  0  0  0  0  0  0  0  0  0  0  0
    0.5615    1.6875    1.7087 N   0  0  0  0  0  0  0  0  0  0  0  0
    1.3461    1.0849    1.9358 H   0  0  0  0  0  0  0  0  0  0  0  0
    0.5043    3.0121    2.3242 C   0  0  0  0  0  0  0  0  0  0  0  0
   -0.4649    3.1514    2.8080 H   0  0  0  0  0  0  0  0  0  0  0  0
    1.2959    3.1139    3.0678 H   0  0  0  0  0  0  0  0  0  0  0  0
    0.6273    3.7799    1.5584 H   0  0  0  0  0  0  0  0  0  0  0  0
  5  6  2  0  0  0  0
  5  7  1  0  0  0  0
  2  3  1  0  0  0  0
  2  4  1  0  0  0  0
  2  5  1  0  0  0  0
  1  2  1  0  0  0  0
 19 20  2  0  0  0  0
 19 21  1  0  0  0  0
 16 17  1  0  0  0  0
 16 18  1  0  0  0  0
 14 15  2  0  0  0  0
 14 16  1  0  0  0  0
 11 12  1  0  0  0  0
 11 13  1  0  0  0  0
 11 14  1  0  0  0  0
  9 10  1  0  0  0  0
  9 11  1  0  0  0  0
  9 19  1  0  0  0  0
  7  8  1  0  0  0  0
  7  9  1  0  0  0  0
 23 24  1  0  0  0  0
 23 25  1  0  0  0  0
 23 26  1  0  0  0  0
 21 22  1  0  0  0  0
 21 23  1  0  0  0  0
M  END
$$$$
default_name
  -OEChem-02102213163D

 26 25  0     1  0  0  0  0  0999 V2000
   -3.0232   -3.6924    1.0038 H   0  0  0  0  0  0  0  0  0  0  0  0
   -3.0082   -2.6684    0.6318 C   0  0  0  0  0  0  0  0  0  0  0  0
   -3.6332   -2.0414    1.2658 H   0  0  0  0  0  0  0  0  0  0  0  0
   -3.3762   -2.6444   -0.3912 H   0  0  0  0  0  0  0  0  0  0  0  0
   -1.5882   -2.1554    0.6658 C   0  0  0  0  0  0  0  0  0  0  0  0
   -0.6832   -2.8764    1.0638 O   0  0  0  0  0  0  0  0  0  0  0  0
   -1.3952   -0.9084    0.2428 N   0  0  0  0  0  0  0  0  0  0  0  0
   -2.1972   -0.3644   -0.0422 H   0  0  0  0  0  0  0  0  0  0  0  0
   -0.1122   -0.1994    0.2658 C   0  0  1  0  0  0  0  0  0  0  0  0
    0.5635   -0.7260    0.9446 H   0  0  0  0  0  0  0  0  0  0  0  0
    0.4924   -0.2204   -1.1558 C   0  0  0  0  0  0  0  0  0  0  0  0
    0.1400    0.6507   -1.7070 H   0  0  0  0  0  0  0  0  0  0  0  0
    1.5777   -0.1649   -1.0854 H   0  0  0  0  0  0  0  0  0  0  0  0
    0.1088   -1.4437   -1.9728 C   0  0  0  0  0  0  0  0  0  0  0  0
    0.2630   -1.5103   -3.1799 O   0  0  0  0  0  0  0  0  0  0  0  0
   -0.4190   -2.4621   -1.3383 N   0  0  0  0  0  0  0  0  0  0  0  0
   -0.6463   -3.2629   -1.9011 H   0  0  0  0  0  0  0  0  0  0  0  0
   -0.5387   -2.4396   -0.3432 H   0  0  0  0  0  0  0  0  0  0  0  0
   -0.3126    1.2341    0.8050 C   0  0  0  0  0  0  0  0  0  0  0  0
   -1.2484    1.9199    0.3934 O   0  0  0  0  0  0  0  0  0  0  0  0
    0.5615    1.6875    1.7087 N   0  0  0  0  0  0  0  0  0  0  0  0
    1.3461    1.0849    1.9358 H   0  0  0  0  0  0  0  0  0  0  0  0
    0.5043    3.0121    2.3242 C   0  0  0  0  0  0  0  0  0  0  0  0
   -0.4649    3.1514    2.8080 H   0  0  0  0  0  0  0  0  0  0  0  0
    1.2959    3.1139    3.0678 H   0  0  0  0  0  0  0  0  0  0  0  0
    0.6273    3.7799    1.5584 H   0  0  0  0  0  0  0  0  0  0  0  0
  5  6  2  0  0  0  0
  5  7  1  0  0  0  0
  2  3  1  0  0  0  0
  2  4  1  0  0  0  0
  2  5  1  0  0  0  0
  1  2  1  0  0  0  0
 19 20  2  0  0  0  0
 19 21  1  0  0  0  0
 16 17  1  0  0  0  0
 16 18  1  0  0  0  0
 14 15  2  0  0  0  0
 14 16  1  0  0  0  0
 11 12  1  0  0  0  0
 11 13  1  0  0  0  0
 11 14  1  0  0  0  0
  9 10  1  0  0  0  0
  9 11  1  0  0  0  0
  9 19  1  0  0  0  0
  7  8  1  0  0  0  0
  7  9  1  0  0  0  0
 23 24  1  0  0  0  0
 23 25  1  0  0  0  0
 23 26  1  0  0  0  0
 21 22  1  0  0  0  0
 21 23  1  0  0  0  0
M  END
$$$$
default_name
  -OEChem-02102213163D

 26 25  0     1  0  0  0  0  0999 V2000
   -3.0232   -3.6924    1.0038 H   0  0  0  0  0  0  0  0  0  0  0  0
   -3.0082   -2.6684    0.6318 C   0  0  0  0  0  0  0  0  0  0  0  0
   -3.6332   -2.0414    1.2658 H   0  0  0  0  0  0  0  0  0  0  0  0
   -3.3762   -2.6444   -0.3912 H   0  0  0  0  0  0  0  0  0  0  0  0
   -1.5882   -2.1554    0.6658 C   0  0  0  0  0  0  0  0  0  0  0  0
   -0.6832   -2.8764    1.0638 O   0  0  0  0  0  0  0  0  0  0  0  0
   -1.3952   -0.9084    0.2428 N   0  0  0  0  0  0  0  0  0  0  0  0
   -2.1972   -0.3644   -0.0422 H   0  0  0  0  0  0  0  0  0  0  0  0
   -0.1122   -0.1994    0.2658 C   0  0  1  0  0  0  0  0  0  0  0  0
    0.5635   -0.7260    0.9446 H   0  0  0  0  0  0  0  0  0  0  0  0
    0.4924   -0.2204   -1.1558 C   0  0  0  0  0  0  0  0  0  0  0  0
    0.3661    0.7606   -1.6125 H   0  0  0  0  0  0  0  0  0  0  0  0
    1.5585   -0.4326   -1.0896 H   0  0  0  0  0  0  0  0  0  0  0  0
   -0.1584   -1.2282   -2.0896 C   0  0  0  0  0  0  0  0  0  0  0  0
    0.1904   -1.3815   -3.2472 O   0  0  0  0  0  0  0  0  0  0  0  0
   -1.1440   -1.9520   -1.6174 N   0  0  0  0  0  0  0  0  0  0  0  0
   -1.5430   -2.6215   -2.2516 H   0  0  0  0  0  0  0  0  0  0  0  0
   -1.4370   -1.8583   -0.6633 H   0  0  0  0  0  0  0  0  0  0  0  0
   -0.3126    1.2341    0.8050 C   0  0  0  0  0  0  0  0  0  0  0  0
   -1.2484    1.9199    0.3934 O   0  0  0  0  0  0  0  0  0  0  0  0
    0.5615    1.6875    1.7087 N   0  0  0  0  0  0  0  0  0  0  0  0
    1.3461    1.0849    1.9358 H   0  0  0  0  0  0  0  0  0  0  0  0
    0.5043    3.0121    2.3242 C   0  0  0  0  0  0  0  0  0  0  0  0
   -0.4649    3.1514    2.8080 H   0  0  0  0  0  0  0  0  0  0  0  0
    1.2959    3.1139    3.0678 H   0  0  0  0  0  0  0  0  0  0  0  0
    0.6273    3.7799    1.5584 H   0  0  0  0  0  0  0  0  0  0  0  0
  5  6  2  0  0  0  0
  5  7  1  0  0  0  0
  2  3  1  0  0  0  0
  2  4  1  0  0  0  0
  2  5  1  0  0  0  0
  1  2  1  0  0  0  0
 19 20  2  0  0  0  0
 19 21  1  0  0  0  0
 16 17  1  0  0  0  0
 16 18  1  0  0  0  0
 14 15  2  0  0  0  0
 14 16  1  0  0  0  0
 11 12  1  0  0  0  0
 11 13  1  0  0  0  0
 11 14  1  0  0  0  0
  9 10  1  0  0  0  0
  9 11  1  0  0  0  0
  9 19  1  0  0  0  0
  7  8  1  0  0  0  0
  7  9  1  0  0  0  0
 23 24  1  0  0  0  0
 23 25  1  0  0  0  0
 23 26  1  0  0  0  0
 21 22  1  0  0  0  0
 21 23  1  0  0  0  0
M  END
$$$$
default_name
  -OEChem-02102213163D

 26 25  0     1  0  0  0  0  0999 V2000
   -3.0232   -3.6924    1.0038 H   0  0  0  0  0  0  0  0  0  0  0  0
   -3.0082   -2.6684    0.6318 C   0  0  0  0  0  0  0  0  0  0  0  0
   -3.6332   -2.0414    1.2658 H   0  0  0  0  0  0  0  0  0  0  0  0
   -3.3762   -2.6444   -0.3912 H   0  0  0  0  0  0  0  0  0  0  0  0
   -1.5882   -2.1554    0.6658 C   0  0  0  0  0  0  0  0  0  0  0  0
   -0.6832   -2.8764    1.0638 O   0  0  0  0  0  0  0  0  0  0  0  0
   -1.3952   -0.9084    0.2428 N   0  0  0  0  0  0  0  0  0  0  0  0
   -2.1972   -0.3644   -0.0422 H   0  0  0  0  0  0  0  0  0  0  0  0
   -0.1122   -0.1994    0.2658 C   0  0  1  0  0  0  0  0  0  0  0  0
    0.5635   -0.7260    0.9446 H   0  0  0  0  0  0  0  0  0  0  0  0
    0.4924   -0.2204   -1.1558 C   0  0  0  0  0  0  0  0  0  0  0  0
    0.3661    0.7606   -1.6125 H   0  0  0  0  0  0  0  0  0  0  0  0
    1.5585   -0.4326   -1.0896 H   0  0  0  0  0  0  0  0  0  0  0  0
   -0.1584   -1.2282   -2.0896 C   0  0  0  0  0  0  0  0  0  0  0  0
    0.3431   -1.5749   -3.1448 O   0  0  0  0  0  0  0  0  0  0  0  0
   -1.3154   -1.7321   -1.7352 N   0  0  0  0  0  0  0  0  0  0  0  0
   -1.7131   -2.4083   -2.3631 H   0  0  0  0  0  0  0  0  0  0  0  0
   -1.7396   -1.4775   -0.8633 H   0  0  0  0  0  0  0  0  0  0  0  0
   -0.3126    1.2341    0.8050 C   0  0  0  0  0  0  0  0  0  0  0  0
   -1.2484    1.9199    0.3934 O   0  0  0  0  0  0  0  0  0  0  0  0
    0.5615    1.6875    1.7087 N   0  0  0  0  0  0  0  0  0  0  0  0
    1.3461    1.0849    1.9358 H   0  0  0  0  0  0  0  0  0  0  0  0
    0.5043    3.0121    2.3242 C   0  0  0  0  0  0  0  0  0  0  0  0
   -0.4649    3.1514    2.8080 H   0  0  0  0  0  0  0  0  0  0  0  0
    1.2959    3.1139    3.0678 H   0  0  0  0  0  0  0  0  0  0  0  0
    0.6273    3.7799    1.5584 H   0  0  0  0  0  0  0  0  0  0  0  0
  5  6  2  0  0  0  0
  5  7  1  0  0  0  0
  2  3  1  0  0  0  0
  2  4  1  0  0  0  0
  2  5  1  0  0  0  0
  1  2  1  0  0  0  0
 19 20  2  0  0  0  0
 19 21  1  0  0  0  0
 16 17  1  0  0  0  0
 16 18  1  0  0  0  0
 14 15  2  0  0  0  0
 14 16  1  0  0  0  0
 11 12  1  0  0  0  0
 11 13  1  0  0  0  0
 11 14  1  0  0  0  0
  9 10  1  0  0  0  0
  9 11  1  0  0  0  0
  9 19  1  0  0  0  0
  7  8  1  0  0  0  0
  7  9  1  0  0  0  0
 23 24  1  0  0  0  0
 23 25  1  0  0  0  0
 23 26  1  0  0  0  0
 21 22  1  0  0  0  0
 21 23  1  0  0  0  0
M  END
$$$$
default_name
  -OEChem-02102213163D

 26 25  0     1  0  0  0  0  0999 V2000
   -3.0232   -3.6924    1.0038 H   0  0  0  0  0  0  0  0  0  0  0  0
   -3.0082   -2.6684    0.6318 C   0  0  0  0  0  0  0  0  0  0  0  0
   -3.6332   -2.0414    1.2658 H   0  0  0  0  0  0  0  0  0  0  0  0
   -3.3762   -2.6444   -0.3912 H   0  0  0  0  0  0  0  0  0  0  0  0
   -1.5882   -2.1554    0.6658 C   0  0  0  0  0  0  0  0  0  0  0  0
   -0.6832   -2.8764    1.0638 O   0  0  0  0  0  0  0  0  0  0  0  0
   -1.3952   -0.9084    0.2428 N   0  0  0  0  0  0  0  0  0  0  0  0
   -2.1972   -0.3644   -0.0422 H   0  0  0  0  0  0  0  0  0  0  0  0
   -0.1122   -0.1994    0.2658 C   0  0  1  0  0  0  0  0  0  0  0  0
    0.5635   -0.7260    0.9446 H   0  0  0  0  0  0  0  0  0  0  0  0
    0.4924   -0.2204   -1.1558 C   0  0  0  0  0  0  0  0  0  0  0  0
    0.3661    0.7606   -1.6125 H   0  0  0  0  0  0  0  0  0  0  0  0
    1.5585   -0.4326   -1.0896 H   0  0  0  0  0  0  0  0  0  0  0  0
   -0.1584   -1.2282   -2.0896 C   0  0  0  0  0  0  0  0  0  0  0  0
    0.4422   -1.7748   -2.9983 O   0  0  0  0  0  0  0  0  0  0  0  0
   -1.4258   -1.5055   -1.9028 N   0  0  0  0  0  0  0  0  0  0  0  0
   -1.8244   -2.1877   -2.5236 H   0  0  0  0  0  0  0  0  0  0  0  0
   -1.9371   -1.0838   -1.1506 H   0  0  0  0  0  0  0  0  0  0  0  0
   -0.3126    1.2341    0.8050 C   0  0  0  0  0  0  0  0  0  0  0  0
   -1.2484    1.9199    0.3934 O   0  0  0  0  0  0  0  0  0  0  0  0
    0.5615    1.6875    1.7087 N   0  0  0  0  0  0  0  0  0  0  0  0
    1.3461    1.0849    1.9358 H   0  0  0  0  0  0  0  0  0  0  0  0
    0.5043    3.0121    2.3242 C   0  0  0  0  0  0  0  0  0  0  0  0
   -0.4649    3.1514    2.8080 H   0  0  0  0  0  0  0  0  0  0  0  0
    1.2959    3.1139    3.0678 H   0  0  0  0  0  0  0  0  0  0  0  0
    0.6273    3.7799    1.5584 H   0  0  0  0  0  0  0  0  0  0  0  0
  5  6  2  0  0  0  0
  5  7  1  0  0  0  0
  2  3  1  0  0  0  0
  2  4  1  0  0  0  0
  2  5  1  0  0  0  0
  1  2  1  0  0  0  0
 19 20  2  0  0  0  0
 19 21  1  0  0  0  0
 16 17  1  0  0  0  0
 16 18  1  0  0  0  0
 14 15  2  0  0  0  0
 14 16  1  0  0  0  0
 11 12  1  0  0  0  0
 11 13  1  0  0  0  0
 11 14  1  0  0  0  0
  9 10  1  0  0  0  0
  9 11  1  0  0  0  0
  9 19  1  0  0  0  0
  7  8  1  0  0  0  0
  7  9  1  0  0  0  0
 23 24  1  0  0  0  0
 23 25  1  0  0  0  0
 23 26  1  0  0  0  0
 21 22  1  0  0  0  0
 21 23  1  0  0  0  0
M  END
$$$$
default_name
  -OEChem-02102213163D

 26 25  0     1  0  0  0  0  0999 V2000
   -3.0232   -3.6924    1.0038 H   0  0  0  0  0  0  0  0  0  0  0  0
   -3.0082   -2.6684    0.6318 C   0  0  0  0  0  0  0  0  0  0  0  0
   -3.6332   -2.0414    1.2658 H   0  0  0  0  0  0  0  0  0  0  0  0
   -3.3762   -2.6444   -0.3912 H   0  0  0  0  0  0  0  0  0  0  0  0
   -1.5882   -2.1554    0.6658 C   0  0  0  0  0  0  0  0  0  0  0  0
   -0.6832   -2.8764    1.0638 O   0  0  0  0  0  0  0  0  0  0  0  0
   -1.3952   -0.9084    0.2428 N   0  0  0  0  0  0  0  0  0  0  0  0
   -2.1972   -0.3644   -0.0422 H   0  0  0  0  0  0  0  0  0  0  0  0
   -0.1122   -0.1994    0.2658 C   0  0  1  0  0  0  0  0  0  0  0  0
    0.5635   -0.7260    0.9446 H   0  0  0  0  0  0  0  0  0  0  0  0
    0.4924   -0.2204   -1.1558 C   0  0  0  0  0  0  0  0  0  0  0  0
    0.3661    0.7606   -1.6125 H   0  0  0  0  0  0  0  0  0  0  0  0
    1.5585   -0.4326   -1.0896 H   0  0  0  0  0  0  0  0  0  0  0  0
   -0.1584   -1.2282   -2.0896 C   0  0  0  0  0  0  0  0  0  0  0  0
    0.4811   -1.9673   -2.8176 O   0  0  0  0  0  0  0  0  0  0  0  0
   -1.4677   -1.2877   -2.1087 N   0  0  0  0  0  0  0  0  0  0  0  0
   -1.8693   -1.9748   -2.7222 H   0  0  0  0  0  0  0  0  0  0  0  0
   -2.0159   -0.7039   -1.5056 H   0  0  0  0  0  0  0  0  0  0  0  0
   -0.3126    1.2341    0.8050 C   0  0  0  0  0  0  0  0  0  0  0  0
   -1.2484    1.9199    0.3934 O   0  0  0  0  0  0  0  0  0  0  0  0
    0.5615    1.6875    1.7087 N   0  0  0  0  0  0  0  0  0  0  0  0
    1.3461    1.0849    1.9358 H   0  0  0  0  0  0  0  0  0  0  0  0
    0.5043    3.0121    2.3242 C   0  0  0  0  0  0  0  0  0  0  0  0
   -0.4649    3.1514    2.8080 H   0  0  0  0  0  0  0  0  0  0  0  0
    1.2959    3.1139    3.0678 H   0  0  0  0  0  0  0  0  0  0  0  0
    0.6273    3.7799    1.5584 H   0  0  0  0  0  0  0  0  0  0  0  0
  5  6  2  0  0  0  0
  5  7  1  0  0  0  0
  2  3  1  0  0  0  0
  2  4  1  0  0  0  0
  2  5  1  0  0  0  0
  1  2  1  0  0  0  0
 19 20  2  0  0  0  0
 19 21  1  0  0  0  0
 16 17  1  0  0  0  0
 16 18  1  0  0  0  0
 14 15  2  0  0  0  0
 14 16  1  0  0  0  0
 11 12  1  0  0  0  0
 11 13  1  0  0  0  0
 11 14  1  0  0  0  0
  9 10  1  0  0  0  0
  9 11  1  0  0  0  0
  9 19  1  0  0  0  0
  7  8  1  0  0  0  0
  7  9  1  0  0  0  0
 23 24  1  0  0  0  0
 23 25  1  0  0  0  0
 23 26  1  0  0  0  0
 21 22  1  0  0  0  0
 21 23  1  0  0  0  0
M  END
$$$$
default_name
  -OEChem-02102213163D

 26 25  0     1  0  0  0  0  0999 V2000
   -3.0232   -3.6924    1.0038 H   0  0  0  0  0  0  0  0  0  0  0  0
   -3.0082   -2.6684    0.6318 C   0  0  0  0  0  0  0  0  0  0  0  0
   -3.6332   -2.0414    1.2658 H   0  0  0  0  0  0  0  0  0  0  0  0
   -3.3762   -2.6444   -0.3912 H   0  0  0  0  0  0  0  0  0  0  0  0
   -1.5882   -2.1554    0.6658 C   0  0  0  0  0  0  0  0  0  0  0  0
   -0.6832   -2.8764    1.0638 O   0  0  0  0  0  0  0  0  0  0  0  0
   -1.3952   -0.9084    0.2428 N   0  0  0  0  0  0  0  0  0  0  0  0
   -2.1972   -0.3644   -0.0422 H   0  0  0  0  0  0  0  0  0  0  0  0
   -0.1122   -0.1994    0.2658 C   0  0  1  0  0  0  0  0  0  0  0  0
    0.5635   -0.7260    0.9446 H   0  0  0  0  0  0  0  0  0  0  0  0
    0.4924   -0.2204   -1.1558 C   0  0  0  0  0  0  0  0  0  0  0  0
    0.3661    0.7606   -1.6125 H   0  0  0  0  0  0  0  0  0  0  0  0
    1.5585   -0.4326   -1.0896 H   0  0  0  0  0  0  0  0  0  0  0  0
   -0.1584   -1.2282   -2.0896 C   0  0  0  0  0  0  0  0  0  0  0  0
    0.4570   -2.1394   -2.6151 O   0  0  0  0  0  0  0  0  0  0  0  0
   -1.4382   -1.0935   -2.3389 N   0  0  0  0  0  0  0  0  0  0  0  0
   -1.8447   -1.7839   -2.9453 H   0  0  0  0  0  0  0  0  0  0  0  0
   -1.9708   -0.3638   -1.9042 H   0  0  0  0  0  0  0  0  0  0  0  0
   -0.3126    1.2341    0.8050 C   0  0  0  0  0  0  0  0  0  0  0  0
   -1.2484    1.9199    0.3934 O   0  0  0  0  0  0  0  0  0  0  0  0
    0.5615    1.6875    1.7087 N   0  0  0  0  0  0  0  0  0  0  0  0
    1.3461    1.0849    1.9358 H   0  0  0  0  0  0  0  0  0  0  0  0
    0.5043    3.0121    2.3242 C   0  0  0  0  0  0  0  0  0  0  0  0
   -0.4649    3.1514    2.8080 H   0  0  0  0  0  0  0  0  0  0  0  0
    1.2959    3.1139    3.0678 H   0  0  0  0  0  0  0  0  0  0  0  0
    0.6273    3.7799    1.5584 H   0  0  0  0  0  0  0  0  0  0  0  0
  5  6  2  0  0  0  0
  5  7  1  0  0  0  0
  2  3  1  0  0  0  0
  2  4  1  0  0  0  0
  2  5  1  0  0  0  0
  1  2  1  0  0  0  0
 19 20  2  0  0  0  0
 19 21  1  0  0  0  0
 16 17  1  0  0  0  0
 16 18  1  0  0  0  0
 14 15  2  0  0  0  0
 14 16  1  0  0  0  0
 11 12  1  0  0  0  0
 11 13  1  0  0  0  0
 11 14  1  0  0  0  0
  9 10  1  0  0  0  0
  9 11  1  0  0  0  0
  9 19  1  0  0  0  0
  7  8  1  0  0  0  0
  7  9  1  0  0  0  0
 23 24  1  0  0  0  0
 23 25  1  0  0  0  0
 23 26  1  0  0  0  0
 21 22  1  0  0  0  0
 21 23  1  0  0  0  0
M  END
$$$$
default_name
  -OEChem-02102213163D

 26 25  0     1  0  0  0  0  0999 V2000
   -3.0232   -3.6924    1.0038 H   0  0  0  0  0  0  0  0  0  0  0  0
   -3.0082   -2.6684    0.6318 C   0  0  0  0  0  0  0  0  0  0  0  0
   -3.6332   -2.0414    1.2658 H   0  0  0  0  0  0  0  0  0  0  0  0
   -3.3762   -2.6444   -0.3912 H   0  0  0  0  0  0  0  0  0  0  0  0
   -1.5882   -2.1554    0.6658 C   0  0  0  0  0  0  0  0  0  0  0  0
   -0.6832   -2.8764    1.0638 O   0  0  0  0  0  0  0  0  0  0  0  0
   -1.3952   -0.9084    0.2428 N   0  0  0  0  0  0  0  0  0  0  0  0
   -2.1972   -0.3644   -0.0422 H   0  0  0  0  0  0  0  0  0  0  0  0
   -0.1122   -0.1994    0.2658 C   0  0  1  0  0  0  0  0  0  0  0  0
    0.5635   -0.7260    0.9446 H   0  0  0  0  0  0  0  0  0  0  0  0
    0.4924   -0.2204   -1.1558 C   0  0  0  0  0  0  0  0  0  0  0  0
    0.3661    0.7606   -1.6125 H   0  0  0  0  0  0  0  0  0  0  0  0
    1.5585   -0.4326   -1.0896 H   0  0  0  0  0  0  0  0  0  0  0  0
   -0.1584   -1.2282   -2.0896 C   0  0  0  0  0  0  0  0  0  0  0  0
    0.3717   -2.2794   -2.4045 O   0  0  0  0  0  0  0  0  0  0  0  0
   -1.3394   -0.9360   -2.5777 N   0  0  0  0  0  0  0  0  0  0  0  0
   -1.7524   -1.6282   -3.1777 H   0  0  0  0  0  0  0  0  0  0  0  0
   -1.8047   -0.0865   -2.3191 H   0  0  0  0  0  0  0  0  0  0  0  0
   -0.3126    1.2341    0.8050 C   0  0  0  0  0  0  0  0  0  0  0  0
   -1.2484    1.9199    0.3934 O   0  0  0  0  0  0  0  0  0  0  0  0
    0.5615    1.6875    1.7087 N   0  0  0  0  0  0  0  0  0  0  0  0
    1.3461    1.0849    1.9358 H   0  0  0  0  0  0  0  0  0  0  0  0
    0.5043    3.0121    2.3242 C   0  0  0  0  0  0  0  0  0  0  0  0
   -0.4649    3.1514    2.8080 H   0  0  0  0  0  0  0  0  0  0  0  0
    1.2959    3.1139    3.0678 H   0  0  0  0  0  0  0  0  0  0  0  0
    0.6273    3.7799    1.5584 H   0  0  0  0  0  0  0  0  0  0  0  0
  5  6  2  0  0  0  0
  5  7  1  0  0  0  0
  2  3  1  0  0  0  0
  2  4  1  0  0  0  0
  2  5  1  0  0  0  0
  1  2  1  0  0  0  0
 19 20  2  0  0  0  0
 19 21  1  0  0  0  0
 16 17  1  0  0  0  0
 16 18  1  0  0  0  0
 14 15  2  0  0  0  0
 14 16  1  0  0  0  0
 11 12  1  0  0  0  0
 11 13  1  0  0  0  0
 11 14  1  0  0  0  0
  9 10  1  0  0  0  0
  9 11  1  0  0  0  0
  9 19  1  0  0  0  0
  7  8  1  0  0  0  0
  7  9  1  0  0  0  0
 23 24  1  0  0  0  0
 23 25  1  0  0  0  0
 23 26  1  0  0  0  0
 21 22  1  0  0  0  0
 21 23  1  0  0  0  0
M  END
$$$$
default_name
  -OEChem-02102213163D

 26 25  0     1  0  0  0  0  0999 V2000
   -3.0232   -3.6924    1.0038 H   0  0  0  0  0  0  0  0  0  0  0  0
   -3.0082   -2.6684    0.6318 C   0  0  0  0  0  0  0  0  0  0  0  0
   -3.6332   -2.0414    1.2658 H   0  0  0  0  0  0  0  0  0  0  0  0
   -3.3762   -2.6444   -0.3912 H   0  0  0  0  0  0  0  0  0  0  0  0
   -1.5882   -2.1554    0.6658 C   0  0  0  0  0  0  0  0  0  0  0  0
   -0.6832   -2.8764    1.0638 O   0  0  0  0  0  0  0  0  0  0  0  0
   -1.3952   -0.9084    0.2428 N   0  0  0  0  0  0  0  0  0  0  0  0
   -2.1972   -0.3644   -0.0422 H   0  0  0  0  0  0  0  0  0  0  0  0
   -0.1122   -0.1994    0.2658 C   0  0  1  0  0  0  0  0  0  0  0  0
    0.5635   -0.7260    0.9446 H   0  0  0  0  0  0  0  0  0  0  0  0
    0.4924   -0.2204   -1.1558 C   0  0  0  0  0  0  0  0  0  0  0  0
    0.3661    0.7606   -1.6125 H   0  0  0  0  0  0  0  0  0  0  0  0
    1.5585   -0.4326   -1.0896 H   0  0  0  0  0  0  0  0  0  0  0  0
   -0.1584   -1.2282   -2.0896 C   0  0  0  0  0  0  0  0  0  0  0  0
    0.2309   -2.3777   -2.2003 O   0  0  0  0  0  0  0  0  0  0  0  0
   -1.1778   -0.8261   -2.8089 N   0  0  0  0  0  0  0  0  0  0  0  0
   -1.5985   -1.5182   -3.4036 H   0  0  0  0  0  0  0  0  0  0  0  0
   -1.5290    0.1089   -2.7221 H   0  0  0  0  0  0  0  0  0  0  0  0
   -0.3126    1.2341    0.8050 C   0  0  0  0  0  0  0  0  0  0  0  0
   -1.2484    1.9199    0.3934 O   0  0  0  0  0  0  0  0  0  0  0  0
    0.5615    1.6875    1.7087 N   0  0  0  0  0  0  0  0  0  0  0  0
    1.3461    1.0849    1.9358 H   0  0  0  0  0  0  0  0  0  0  0  0
    0.5043    3.0121    2.3242 C   0  0  0  0  0  0  0  0  0  0  0  0
   -0.4649    3.1514    2.8080 H   0  0  0  0  0  0  0  0  0  0  0  0
    1.2959    3.1139    3.0678 H   0  0  0  0  0  0  0  0  0  0  0  0
    0.6273    3.7799    1.5584 H   0  0  0  0  0  0  0  0  0  0  0  0
  5  6  2  0  0  0  0
  5  7  1  0  0  0  0
  2  3  1  0  0  0  0
  2  4  1  0  0  0  0
  2  5  1  0  0  0  0
  1  2  1  0  0  0  0
 19 20  2  0  0  0  0
 19 21  1  0  0  0  0
 16 17  1  0  0  0  0
 16 18  1  0  0  0  0
 14 15  2  0  0  0  0
 14 16  1  0  0  0  0
 11 12  1  0  0  0  0
 11 13  1  0  0  0  0
 11 14  1  0  0  0  0
  9 10  1  0  0  0  0
  9 11  1  0  0  0  0
  9 19  1  0  0  0  0
  7  8  1  0  0  0  0
  7  9  1  0  0  0  0
 23 24  1  0  0  0  0
 23 25  1  0  0  0  0
 23 26  1  0  0  0  0
 21 22  1  0  0  0  0
 21 23  1  0  0  0  0
M  END
$$$$
default_name
  -OEChem-02102213163D

 26 25  0     1  0  0  0  0  0999 V2000
   -3.0232   -3.6924    1.0038 H   0  0  0  0  0  0  0  0  0  0  0  0
   -3.0082   -2.6684    0.6318 C   0  0  0  0  0  0  0  0  0  0  0  0
   -3.6332   -2.0414    1.2658 H   0  0  0  0  0  0  0  0  0  0  0  0
   -3.3762   -2.6444   -0.3912 H   0  0  0  0  0  0  0  0  0  0  0  0
   -1.5882   -2.1554    0.6658 C   0  0  0  0  0  0  0  0  0  0  0  0
   -0.6832   -2.8764    1.0638 O   0  0  0  0  0  0  0  0  0  0  0  0
   -1.3952   -0.9084    0.2428 N   0  0  0  0  0  0  0  0  0  0  0  0
   -2.1972   -0.3644   -0.0422 H   0  0  0  0  0  0  0  0  0  0  0  0
   -0.1122   -0.1994    0.2658 C   0  0  1  0  0  0  0  0  0  0  0  0
    0.5635   -0.7260    0.9446 H   0  0  0  0  0  0  0  0  0  0  0  0
    0.4924   -0.2204   -1.1558 C   0  0  0  0  0  0  0  0  0  0  0  0
    0.3661    0.7606   -1.6125 H   0  0  0  0  0  0  0  0  0  0  0  0
    1.5585   -0.4326   -1.0896 H   0  0  0  0  0  0  0  0  0  0  0  0
   -0.1584   -1.2282   -2.0896 C   0  0  0  0  0  0  0  0  0  0  0  0
    0.0442   -2.4277   -2.0162 O   0  0  0  0  0  0  0  0  0  0  0  0
   -0.9647   -0.7713   -3.0166 N   0  0  0  0  0  0  0  0  0  0  0  0
   -1.3937   -1.4615   -3.6076 H   0  0  0  0  0  0  0  0  0  0  0  0
   -1.1626    0.2091   -3.0857 H   0  0  0  0  0  0  0  0  0  0  0  0
   -0.3126    1.2341    0.8050 C   0  0  0  0  0  0  0  0  0  0  0  0
   -1.2484    1.9199    0.3934 O   0  0  0  0  0  0  0  0  0  0  0  0
    0.5615    1.6875    1.7087 N   0  0  0  0  0  0  0  0  0  0  0  0
    1.3461    1.0849    1.9358 H   0  0  0  0  0  0  0  0  0  0  0  0
    0.5043    3.0121    2.3242 C   0  0  0  0  0  0  0  0  0  0  0  0
   -0.4649    3.1514    2.8080 H   0  0  0  0  0  0  0  0  0  0  0  0
    1.2959    3.1139    3.0678 H   0  0  0  0  0  0  0  0  0  0  0  0
    0.6273    3.7799    1.5584 H   0  0  0  0  0  0  0  0  0  0  0  0
  5  6  2  0  0  0  0
  5  7  1  0  0  0  0
  2  3  1  0  0  0  0
  2  4  1  0  0  0  0
  2  5  1  0  0  0  0
  1  2  1  0  0  0  0
 19 20  2  0  0  0  0
 19 21  1  0  0  0  0
 16 17  1  0  0  0  0
 16 18  1  0  0  0  0
 14 15  2  0  0  0  0
 14 16  1  0  0  0  0
 11 12  1  0  0  0  0
 11 13  1  0  0  0  0
 11 14  1  0  0  0  0
  9 10  1  0  0  0  0
  9 11  1  0  0  0  0
  9 19  1  0  0  0  0
  7  8  1  0  0  0  0
  7  9  1  0  0  0  0
 23 24  1  0  0  0  0
 23 25  1  0  0  0  0
 23 26  1  0  0  0  0
 21 22  1  0  0  0  0
 21 23  1  0  0  0  0
M  END
$$$$
default_name
  -OEChem-02102213163D

 26 25  0     1  0  0  0  0  0999 V2000
   -3.0232   -3.6924    1.0038 H   0  0  0  0  0  0  0  0  0  0  0  0
   -3.0082   -2.6684    0.6318 C   0  0  0  0  0  0  0  0  0  0  0  0
   -3.6332   -2.0414    1.2658 H   0  0  0  0  0  0  0  0  0  0  0  0
   -3.3762   -2.6444   -0.3912 H   0  0  0  0  0  0  0  0  0  0  0  0
   -1.5882   -2.1554    0.6658 C   0  0  0  0  0  0  0  0  0  0  0  0
   -0.6832   -2.8764    1.0638 O   0  0  0  0  0  0  0  0  0  0  0  0
   -1.3952   -0.9084    0.2428 N   0  0  0  0  0  0  0  0  0  0  0  0
   -2.1972   -0.3644   -0.0422 H   0  0  0  0  0  0  0  0  0  0  0  0
   -0.1122   -0.1994    0.2658 C   0  0  1  0  0  0  0  0  0  0  0  0
    0.5635   -0.7260    0.9446 H   0  0  0  0  0  0  0  0  0  0  0  0
    0.4924   -0.2204   -1.1558 C   0  0  0  0  0  0  0  0  0  0  0  0
    0.3661    0.7606   -1.6125 H   0  0  0  0  0  0  0  0  0  0  0  0
    1.5585   -0.4326   -1.0896 H   0  0  0  0  0  0  0  0  0  0  0  0
   -0.1584   -1.2282   -2.0896 C   0  0  0  0  0  0  0  0  0  0  0  0
   -0.1757   -2.4259   -1.8650 O   0  0  0  0  0  0  0  0  0  0  0  0
   -0.7145   -0.7752   -3.1868 N   0  0  0  0  0  0  0  0  0  0  0  0
   -1.1518   -1.4618   -3.7758 H   0  0  0  0  0  0  0  0  0  0  0  0
   -0.7302    0.2074   -3.3852 H   0  0  0  0  0  0  0  0  0  0  0  0
   -0.3126    1.2341    0.8050 C   0  0  0  0  0  0  0  0  0  0  0  0
   -1.2484    1.9199    0.3934 O   0  0  0  0  0  0  0  0  0  0  0  0
    0.5615    1.6875    1.7087 N   0  0  0  0  0  0  0  0  0  0  0  0
    1.3461    1.0849    1.9358 H   0  0  0  0  0  0  0  0  0  0  0  0
    0.5043    3.0121    2.3242 C   0  0  0  0  0  0  0  0  0  0  0  0
   -0.4649    3.1514    2.8080 H   0  0  0  0  0  0  0  0  0  0  0  0
    1.2959    3.1139    3.0678 H   0  0  0  0  0  0  0  0  0  0  0  0
    0.6273    3.7799    1.5584 H   0  0  0  0  0  0  0  0  0  0  0  0
  5  6  2  0  0  0  0
  5  7  1  0  0  0  0
  2  3  1  0  0  0  0
  2  4  1  0  0  0  0
  2  5  1  0  0  0  0
  1  2  1  0  0  0  0
 19 20  2  0  0  0  0
 19 21  1  0  0  0  0
 16 17  1  0  0  0  0
 16 18  1  0  0  0  0
 14 15  2  0  0  0  0
 14 16  1  0  0  0  0
 11 12  1  0  0  0  0
 11 13  1  0  0  0  0
 11 14  1  0  0  0  0
  9 10  1  0  0  0  0
  9 11  1  0  0  0  0
  9 19  1  0  0  0  0
  7  8  1  0  0  0  0
  7  9  1  0  0  0  0
 23 24  1  0  0  0  0
 23 25  1  0  0  0  0
 23 26  1  0  0  0  0
 21 22  1  0  0  0  0
 21 23  1  0  0  0  0
M  END
$$$$
default_name
  -OEChem-02102213163D

 26 25  0     1  0  0  0  0  0999 V2000
   -3.0232   -3.6924    1.0038 H   0  0  0  0  0  0  0  0  0  0  0  0
   -3.0082   -2.6684    0.6318 C   0  0  0  0  0  0  0  0  0  0  0  0
   -3.6332   -2.0414    1.2658 H   0  0  0  0  0  0  0  0  0  0  0  0
   -3.3762   -2.6444   -0.3912 H   0  0  0  0  0  0  0  0  0  0  0  0
   -1.5882   -2.1554    0.6658 C   0  0  0  0  0  0  0  0  0  0  0  0
   -0.6832   -2.8764    1.0638 O   0  0  0  0  0  0  0  0  0  0  0  0
   -1.3952   -0.9084    0.2428 N   0  0  0  0  0  0  0  0  0  0  0  0
   -2.1972   -0.3644   -0.0422 H   0  0  0  0  0  0  0  0  0  0  0  0
   -0.1122   -0.1994    0.2658 C   0  0  1  0  0  0  0  0  0  0  0  0
    0.5635   -0.7260    0.9446 H   0  0  0  0  0  0  0  0  0  0  0  0
    0.4924   -0.2204   -1.1558 C   0  0  0  0  0  0  0  0  0  0  0  0
    0.3661    0.7606   -1.6125 H   0  0  0  0  0  0  0  0  0  0  0  0
    1.5585   -0.4326   -1.0896 H   0  0  0  0  0  0  0  0  0  0  0  0
   -0.1584   -1.2282   -2.0896 C   0  0  0  0  0  0  0  0  0  0  0  0
   -0.4137   -2.3724   -1.7568 O   0  0  0  0  0  0  0  0  0  0  0  0
   -0.4442   -0.8376   -3.3078 N   0  0  0  0  0  0  0  0  0  0  0  0
   -0.8894   -1.5192   -3.8967 H   0  0  0  0  0  0  0  0  0  0  0  0
   -0.2615    0.1038   -3.6001 H   0  0  0  0  0  0  0  0  0  0  0  0
   -0.3126    1.2341    0.8050 C   0  0  0  0  0  0  0  0  0  0  0  0
   -1.2484    1.9199    0.3934 O   0  0  0  0  0  0  0  0  0  0  0  0
    0.5615    1.6875    1.7087 N   0  0  0  0  0  0  0  0  0  0  0  0
    1.3461    1.0849    1.9358 H   0  0  0  0  0  0  0  0  0  0  0  0
    0.5043    3.0121    2.3242 C   0  0  0  0  0  0  0  0  0  0  0  0
   -0.4649    3.1514    2.8080 H   0  0  0  0  0  0  0  0  0  0  0  0
    1.2959    3.1139    3.0678 H   0  0  0  0  0  0  0  0  0  0  0  0
    0.6273    3.7799    1.5584 H   0  0  0  0  0  0  0  0  0  0  0  0
  5  6  2  0  0  0  0
  5  7  1  0  0  0  0
  2  3  1  0  0  0  0
  2  4  1  0  0  0  0
  2  5  1  0  0  0  0
  1  2  1  0  0  0  0
 19 20  2  0  0  0  0
 19 21  1  0  0  0  0
 16 17  1  0  0  0  0
 16 18  1  0  0  0  0
 14 15  2  0  0  0  0
 14 16  1  0  0  0  0
 11 12  1  0  0  0  0
 11 13  1  0  0  0  0
 11 14  1  0  0  0  0
  9 10  1  0  0  0  0
  9 11  1  0  0  0  0
  9 19  1  0  0  0  0
  7  8  1  0  0  0  0
  7  9  1  0  0  0  0
 23 24  1  0  0  0  0
 23 25  1  0  0  0  0
 23 26  1  0  0  0  0
 21 22  1  0  0  0  0
 21 23  1  0  0  0  0
M  END
$$$$
default_name
  -OEChem-02102213163D

 26 25  0     1  0  0  0  0  0999 V2000
   -3.0232   -3.6924    1.0038 H   0  0  0  0  0  0  0  0  0  0  0  0
   -3.0082   -2.6684    0.6318 C   0  0  0  0  0  0  0  0  0  0  0  0
   -3.6332   -2.0414    1.2658 H   0  0  0  0  0  0  0  0  0  0  0  0
   -3.3762   -2.6444   -0.3912 H   0  0  0  0  0  0  0  0  0  0  0  0
   -1.5882   -2.1554    0.6658 C   0  0  0  0  0  0  0  0  0  0  0  0
   -0.6832   -2.8764    1.0638 O   0  0  0  0  0  0  0  0  0  0  0  0
   -1.3952   -0.9084    0.2428 N   0  0  0  0  0  0  0  0  0  0  0  0
   -2.1972   -0.3644   -0.0422 H   0  0  0  0  0  0  0  0  0  0  0  0
   -0.1122   -0.1994    0.2658 C   0  0  1  0  0  0  0  0  0  0  0  0
    0.5635   -0.7260    0.9446 H   0  0  0  0  0  0  0  0  0  0  0  0
    0.4924   -0.2204   -1.1558 C   0  0  0  0  0  0  0  0  0  0  0  0
    0.3661    0.7606   -1.6125 H   0  0  0  0  0  0  0  0  0  0  0  0
    1.5585   -0.4326   -1.0896 H   0  0  0  0  0  0  0  0  0  0  0  0
   -0.1584   -1.2282   -2.0896 C   0  0  0  0  0  0  0  0  0  0  0  0
   -0.6537   -2.2709   -1.6990 O   0  0  0  0  0  0  0  0  0  0  0  0
   -0.1722   -0.9542   -3.3714 N   0  0  0  0  0  0  0  0  0  0  0  0
   -0.6243   -1.6298   -3.9621 H   0  0  0  0  0  0  0  0  0  0  0  0
    0.2116   -0.0945   -3.7158 H   0  0  0  0  0  0  0  0  0  0  0  0
   -0.3126    1.2341    0.8050 C   0  0  0  0  0  0  0  0  0  0  0  0
   -1.2484    1.9199    0.3934 O   0  0  0  0  0  0  0  0  0  0  0  0
    0.5615    1.6875    1.7087 N   0  0  0  0  0  0  0  0  0  0  0  0
    1.3461    1.0849    1.9358 H   0  0  0  0  0  0  0  0  0  0  0  0
    0.5043    3.0121    2.3242 C   0  0  0  0  0  0  0  0  0  0  0  0
   -0.4649    3.1514    2.8080 H   0  0  0  0  0  0  0  0  0  0  0  0
    1.2959    3.1139    3.0678 H   0  0  0  0  0  0  0  0  0  0  0  0
    0.6273    3.7799    1.5584 H   0  0  0  0  0  0  0  0  0  0  0  0
  5  6  2  0  0  0  0
  5  7  1  0  0  0  0
  2  3  1  0  0  0  0
  2  4  1  0  0  0  0
  2  5  1  0  0  0  0
  1  2  1  0  0  0  0
 19 20  2  0  0  0  0
 19 21  1  0  0  0  0
 16 17  1  0  0  0  0
 16 18  1  0  0  0  0
 14 15  2  0  0  0  0
 14 16  1  0  0  0  0
 11 12  1  0  0  0  0
 11 13  1  0  0  0  0
 11 14  1  0  0  0  0
  9 10  1  0  0  0  0
  9 11  1  0  0  0  0
  9 19  1  0  0  0  0
  7  8  1  0  0  0  0
  7  9  1  0  0  0  0
 23 24  1  0  0  0  0
 23 25  1  0  0  0  0
 23 26  1  0  0  0  0
 21 22  1  0  0  0  0
 21 23  1  0  0  0  0
M  END
$$$$
default_name
  -OEChem-02102213163D

 26 25  0     1  0  0  0  0  0999 V2000
   -3.0232   -3.6924    1.0038 H   0  0  0  0  0  0  0  0  0  0  0  0
   -3.0082   -2.6684    0.6318 C   0  0  0  0  0  0  0  0  0  0  0  0
   -3.6332   -2.0414    1.2658 H   0  0  0  0  0  0  0  0  0  0  0  0
   -3.3762   -2.6444   -0.3912 H   0  0  0  0  0  0  0  0  0  0  0  0
   -1.5882   -2.1554    0.6658 C   0  0  0  0  0  0  0  0  0  0  0  0
   -0.6832   -2.8764    1.0638 O   0  0  0  0  0  0  0  0  0  0  0  0
   -1.3952   -0.9084    0.2428 N   0  0  0  0  0  0  0  0  0  0  0  0
   -2.1972   -0.3644   -0.0422 H   0  0  0  0  0  0  0  0  0  0  0  0
   -0.1122   -0.1994    0.2658 C   0  0  1  0  0  0  0  0  0  0  0  0
    0.5635   -0.7260    0.9446 H   0  0  0  0  0  0  0  0  0  0  0  0
    0.4924   -0.2204   -1.1558 C   0  0  0  0  0  0  0  0  0  0  0  0
    0.3661    0.7606   -1.6125 H   0  0  0  0  0  0  0  0  0  0  0  0
    1.5585   -0.4326   -1.0896 H   0  0  0  0  0  0  0  0  0  0  0  0
   -0.1584   -1.2282   -2.0896 C   0  0  0  0  0  0  0  0  0  0  0  0
   -0.8793   -2.1283   -1.6957 O   0  0  0  0  0  0  0  0  0  0  0  0
    0.0828   -1.1172   -3.3733 N   0  0  0  0  0  0  0  0  0  0  0  0
   -0.3746   -1.7860   -3.9676 H   0  0  0  0  0  0  0  0  0  0  0  0
    0.6569   -0.3741   -3.7244 H   0  0  0  0  0  0  0  0  0  0  0  0
   -0.3126    1.2341    0.8050 C   0  0  0  0  0  0  0  0  0  0  0  0
   -1.2484    1.9199    0.3934 O   0  0  0  0  0  0  0  0  0  0  0  0
    0.5615    1.6875    1.7087 N   0  0  0  0  0  0  0  0  0  0  0  0
    1.3461    1.0849    1.9358 H   0  0  0  0  0  0  0  0  0  0  0  0
    0.5043    3.0121    2.3242 C   0  0  0  0  0  0  0  0  0  0  0  0
   -0.4649    3.1514    2.8080 H   0  0  0  0  0  0  0  0  0  0  0  0
    1.2959    3.1139    3.0678 H   0  0  0  0  0  0  0  0  0  0  0  0
    0.6273    3.7799    1.5584 H   0  0  0  0  0  0  0  0  0  0  0  0
  5  6  2  0  0  0  0
  5  7  1  0  0  0  0
  2  3  1  0  0  0  0
  2  4  1  0  0  0  0
  2  5  1  0  0  0  0
  1  2  1  0  0  0  0
 19 20  2  0  0  0  0
 19 21  1  0  0  0  0
 16 17  1  0  0  0  0
 16 18  1  0  0  0  0
 14 15  2  0  0  0  0
 14 16  1  0  0  0  0
 11 12  1  0  0  0  0
 11 13  1  0  0  0  0
 11 14  1  0  0  0  0
  9 10  1  0  0  0  0
  9 11  1  0  0  0  0
  9 19  1  0  0  0  0
  7  8  1  0  0  0  0
  7  9  1  0  0  0  0
 23 24  1  0  0  0  0
 23 25  1  0  0  0  0
 23 26  1  0  0  0  0
 21 22  1  0  0  0  0
 21 23  1  0  0  0  0
M  END
$$$$
default_name
  -OEChem-02102213163D

 26 25  0     1  0  0  0  0  0999 V2000
   -3.0232   -3.6924    1.0038 H   0  0  0  0  0  0  0  0  0  0  0  0
   -3.0082   -2.6684    0.6318 C   0  0  0  0  0  0  0  0  0  0  0  0
   -3.6332   -2.0414    1.2658 H   0  0  0  0  0  0  0  0  0  0  0  0
   -3.3762   -2.6444   -0.3912 H   0  0  0  0  0  0  0  0  0  0  0  0
   -1.5882   -2.1554    0.6658 C   0  0  0  0  0  0  0  0  0  0  0  0
   -0.6832   -2.8764    1.0638 O   0  0  0  0  0  0  0  0  0  0  0  0
   -1.3952   -0.9084    0.2428 N   0  0  0  0  0  0  0  0  0  0  0  0
   -2.1972   -0.3644   -0.0422 H   0  0  0  0  0  0  0  0  0  0  0  0
   -0.1122   -0.1994    0.2658 C   0  0  1  0  0  0  0  0  0  0  0  0
    0.5635   -0.7260    0.9446 H   0  0  0  0  0  0  0  0  0  0  0  0
    0.4924   -0.2204   -1.1558 C   0  0  0  0  0  0  0  0  0  0  0  0
    0.3661    0.7606   -1.6125 H   0  0  0  0  0  0  0  0  0  0  0  0
    1.5585   -0.4326   -1.0896 H   0  0  0  0  0  0  0  0  0  0  0  0
   -0.1584   -1.2282   -2.0896 C   0  0  0  0  0  0  0  0  0  0  0  0
   -1.0751   -1.9544   -1.7469 O   0  0  0  0  0  0  0  0  0  0  0  0
    0.3035   -1.3154   -3.3133 N   0  0  0  0  0  0  0  0  0  0  0  0
   -0.1573   -1.9772   -3.9127 H   0  0  0  0  0  0  0  0  0  0  0  0
    1.0441   -0.7160   -3.6253 H   0  0  0  0  0  0  0  0  0  0  0  0
   -0.3126    1.2341    0.8050 C   0  0  0  0  0  0  0  0  0  0  0  0
   -1.2484    1.9199    0.3934 O   0  0  0  0  0  0  0  0  0  0  0  0
    0.5615    1.6875    1.7087 N   0  0  0  0  0  0  0  0  0  0  0  0
    1.3461    1.0849    1.9358 H   0  0  0  0  0  0  0  0  0  0  0  0
    0.5043    3.0121    2.3242 C   0  0  0  0  0  0  0  0  0  0  0  0
   -0.4649    3.1514    2.8080 H   0  0  0  0  0  0  0  0  0  0  0  0
    1.2959    3.1139    3.0678 H   0  0  0  0  0  0  0  0  0  0  0  0
    0.6273    3.7799    1.5584 H   0  0  0  0  0  0  0  0  0  0  0  0
  5  6  2  0  0  0  0
  5  7  1  0  0  0  0
  2  3  1  0  0  0  0
  2  4  1  0  0  0  0
  2  5  1  0  0  0  0
  1  2  1  0  0  0  0
 19 20  2  0  0  0  0
 19 21  1  0  0  0  0
 16 17  1  0  0  0  0
 16 18  1  0  0  0  0
 14 15  2  0  0  0  0
 14 16  1  0  0  0  0
 11 12  1  0  0  0  0
 11 13  1  0  0  0  0
 11 14  1  0  0  0  0
  9 10  1  0  0  0  0
  9 11  1  0  0  0  0
  9 19  1  0  0  0  0
  7  8  1  0  0  0  0
  7  9  1  0  0  0  0
 23 24  1  0  0  0  0
 23 25  1  0  0  0  0
 23 26  1  0  0  0  0
 21 22  1  0  0  0  0
 21 23  1  0  0  0  0
M  END
$$$$
default_name
  -OEChem-02102213163D

 26 25  0     1  0  0  0  0  0999 V2000
   -3.0232   -3.6924    1.0038 H   0  0  0  0  0  0  0  0  0  0  0  0
   -3.0082   -2.6684    0.6318 C   0  0  0  0  0  0  0  0  0  0  0  0
   -3.6332   -2.0414    1.2658 H   0  0  0  0  0  0  0  0  0  0  0  0
   -3.3762   -2.6444   -0.3912 H   0  0  0  0  0  0  0  0  0  0  0  0
   -1.5882   -2.1554    0.6658 C   0  0  0  0  0  0  0  0  0  0  0  0
   -0.6832   -2.8764    1.0638 O   0  0  0  0  0  0  0  0  0  0  0  0
   -1.3952   -0.9084    0.2428 N   0  0  0  0  0  0  0  0  0  0  0  0
   -2.1972   -0.3644   -0.0422 H   0  0  0  0  0  0  0  0  0  0  0  0
   -0.1122   -0.1994    0.2658 C   0  0  1  0  0  0  0  0  0  0  0  0
    0.5635   -0.7260    0.9446 H   0  0  0  0  0  0  0  0  0  0  0  0
    0.4924   -0.2204   -1.1558 C   0  0  0  0  0  0  0  0  0  0  0  0
    0.3661    0.7606   -1.6125 H   0  0  0  0  0  0  0  0  0  0  0  0
    1.5585   -0.4326   -1.0896 H   0  0  0  0  0  0  0  0  0  0  0  0
   -0.1584   -1.2282   -2.0896 C   0  0  0  0  0  0  0  0  0  0  0  0
   -1.2278   -1.7609   -1.8493 O   0  0  0  0  0  0  0  0  0  0  0  0
    0.4749   -1.5352   -3.1955 N   0  0  0  0  0  0  0  0  0  0  0  0
    0.0128   -2.1904   -3.8012 H   0  0  0  0  0  0  0  0  0  0  0  0
    1.3467   -1.0968   -3.4252 H   0  0  0  0  0  0  0  0  0  0  0  0
   -0.3126    1.2341    0.8050 C   0  0  0  0  0  0  0  0  0  0  0  0
   -1.2484    1.9199    0.3934 O   0  0  0  0  0  0  0  0  0  0  0  0
    0.5615    1.6875    1.7087 N   0  0  0  0  0  0  0  0  0  0  0  0
    1.3461    1.0849    1.9358 H   0  0  0  0  0  0  0  0  0  0  0  0
    0.5043    3.0121    2.3242 C   0  0  0  0  0  0  0  0  0  0  0  0
   -0.4649    3.1514    2.8080 H   0  0  0  0  0  0  0  0  0  0  0  0
    1.2959    3.1139    3.0678 H   0  0  0  0  0  0  0  0  0  0  0  0
    0.6273    3.7799    1.5584 H   0  0  0  0  0  0  0  0  0  0  0  0
  5  6  2  0  0  0  0
  5  7  1  0  0  0  0
  2  3  1  0  0  0  0
  2  4  1  0  0  0  0
  2  5  1  0  0  0  0
  1  2  1  0  0  0  0
 19 20  2  0  0  0  0
 19 21  1  0  0  0  0
 16 17  1  0  0  0  0
 16 18  1  0  0  0  0
 14 15  2  0  0  0  0
 14 16  1  0  0  0  0
 11 12  1  0  0  0  0
 11 13  1  0  0  0  0
 11 14  1  0  0  0  0
  9 10  1  0  0  0  0
  9 11  1  0  0  0  0
  9 19  1  0  0  0  0
  7  8  1  0  0  0  0
  7  9  1  0  0  0  0
 23 24  1  0  0  0  0
 23 25  1  0  0  0  0
 23 26  1  0  0  0  0
 21 22  1  0  0  0  0
 21 23  1  0  0  0  0
M  END
$$$$
default_name
  -OEChem-02102213163D

 26 25  0     1  0  0  0  0  0999 V2000
   -3.0232   -3.6924    1.0038 H   0  0  0  0  0  0  0  0  0  0  0  0
   -3.0082   -2.6684    0.6318 C   0  0  0  0  0  0  0  0  0  0  0  0
   -3.6332   -2.0414    1.2658 H   0  0  0  0  0  0  0  0  0  0  0  0
   -3.3762   -2.6444   -0.3912 H   0  0  0  0  0  0  0  0  0  0  0  0
   -1.5882   -2.1554    0.6658 C   0  0  0  0  0  0  0  0  0  0  0  0
   -0.6832   -2.8764    1.0638 O   0  0  0  0  0  0  0  0  0  0  0  0
   -1.3952   -0.9084    0.2428 N   0  0  0  0  0  0  0  0  0  0  0  0
   -2.1972   -0.3644   -0.0422 H   0  0  0  0  0  0  0  0  0  0  0  0
   -0.1122   -0.1994    0.2658 C   0  0  1  0  0  0  0  0  0  0  0  0
    0.5635   -0.7260    0.9446 H   0  0  0  0  0  0  0  0  0  0  0  0
    0.4924   -0.2204   -1.1558 C   0  0  0  0  0  0  0  0  0  0  0  0
    0.3661    0.7606   -1.6125 H   0  0  0  0  0  0  0  0  0  0  0  0
    1.5585   -0.4326   -1.0896 H   0  0  0  0  0  0  0  0  0  0  0  0
   -0.1584   -1.2282   -2.0896 C   0  0  0  0  0  0  0  0  0  0  0  0
   -1.3270   -1.5611   -1.9959 O   0  0  0  0  0  0  0  0  0  0  0  0
    0.5854   -1.7618   -3.0279 N   0  0  0  0  0  0  0  0  0  0  0  0
    0.1241   -2.4110   -3.6407 H   0  0  0  0  0  0  0  0  0  0  0  0
    1.5442   -1.4905   -3.1379 H   0  0  0  0  0  0  0  0  0  0  0  0
   -0.3126    1.2341    0.8050 C   0  0  0  0  0  0  0  0  0  0  0  0
   -1.2484    1.9199    0.3934 O   0  0  0  0  0  0  0  0  0  0  0  0
    0.5615    1.6875    1.7087 N   0  0  0  0  0  0  0  0  0  0  0  0
    1.3461    1.0849    1.9358 H   0  0  0  0  0  0  0  0  0  0  0  0
    0.5043    3.0121    2.3242 C   0  0  0  0  0  0  0  0  0  0  0  0
   -0.4649    3.1514    2.8080 H   0  0  0  0  0  0  0  0  0  0  0  0
    1.2959    3.1139    3.0678 H   0  0  0  0  0  0  0  0  0  0  0  0
    0.6273    3.7799    1.5584 H   0  0  0  0  0  0  0  0  0  0  0  0
  5  6  2  0  0  0  0
  5  7  1  0  0  0  0
  2  3  1  0  0  0  0
  2  4  1  0  0  0  0
  2  5  1  0  0  0  0
  1  2  1  0  0  0  0
 19 20  2  0  0  0  0
 19 21  1  0  0  0  0
 16 17  1  0  0  0  0
 16 18  1  0  0  0  0
 14 15  2  0  0  0  0
 14 16  1  0  0  0  0
 11 12  1  0  0  0  0
 11 13  1  0  0  0  0
 11 14  1  0  0  0  0
  9 10  1  0  0  0  0
  9 11  1  0  0  0  0
  9 19  1  0  0  0  0
  7  8  1  0  0  0  0
  7  9  1  0  0  0  0
 23 24  1  0  0  0  0
 23 25  1  0  0  0  0
 23 26  1  0  0  0  0
 21 22  1  0  0  0  0
 21 23  1  0  0  0  0
M  END
$$$$
default_name
  -OEChem-02102213163D

 26 25  0     1  0  0  0  0  0999 V2000
   -3.0232   -3.6924    1.0038 H   0  0  0  0  0  0  0  0  0  0  0  0
   -3.0082   -2.6684    0.6318 C   0  0  0  0  0  0  0  0  0  0  0  0
   -3.6332   -2.0414    1.2658 H   0  0  0  0  0  0  0  0  0  0  0  0
   -3.3762   -2.6444   -0.3912 H   0  0  0  0  0  0  0  0  0  0  0  0
   -1.5882   -2.1554    0.6658 C   0  0  0  0  0  0  0  0  0  0  0  0
   -0.6832   -2.8764    1.0638 O   0  0  0  0  0  0  0  0  0  0  0  0
   -1.3952   -0.9084    0.2428 N   0  0  0  0  0  0  0  0  0  0  0  0
   -2.1972   -0.3644   -0.0422 H   0  0  0  0  0  0  0  0  0  0  0  0
   -0.1122   -0.1994    0.2658 C   0  0  1  0  0  0  0  0  0  0  0  0
    0.5635   -0.7260    0.9446 H   0  0  0  0  0  0  0  0  0  0  0  0
    0.4924   -0.2204   -1.1558 C   0  0  0  0  0  0  0  0  0  0  0  0
    0.3661    0.7606   -1.6125 H   0  0  0  0  0  0  0  0  0  0  0  0
    1.5585   -0.4326   -1.0896 H   0  0  0  0  0  0  0  0  0  0  0  0
   -0.1584   -1.2282   -2.0896 C   0  0  0  0  0  0  0  0  0  0  0  0
   -1.3658   -1.3686   -2.1765 O   0  0  0  0  0  0  0  0  0  0  0  0
    0.6272   -1.9796   -2.8220 N   0  0  0  0  0  0  0  0  0  0  0  0
    0.1690   -2.6239   -3.4422 H   0  0  0  0  0  0  0  0  0  0  0  0
    1.6230   -1.8704   -2.7829 H   0  0  0  0  0  0  0  0  0  0  0  0
   -0.3126    1.2341    0.8050 C   0  0  0  0  0  0  0  0  0  0  0  0
   -1.2484    1.9199    0.3934 O   0  0  0  0  0  0  0  0  0  0  0  0
    0.5615    1.6875    1.7087 N   0  0  0  0  0  0  0  0  0  0  0  0
    1.3461    1.0849    1.9358 H   0  0  0  0  0  0  0  0  0  0  0  0
    0.5043    3.0121    2.3242 C   0  0  0  0  0  0  0  0  0  0  0  0
   -0.4649    3.1514    2.8080 H   0  0  0  0  0  0  0  0  0  0  0  0
    1.2959    3.1139    3.0678 H   0  0  0  0  0  0  0  0  0  0  0  0
    0.6273    3.7799    1.5584 H   0  0  0  0  0  0  0  0  0  0  0  0
  5  6  2  0  0  0  0
  5  7  1  0  0  0  0
  2  3  1  0  0  0  0
  2  4  1  0  0  0  0
  2  5  1  0  0  0  0
  1  2  1  0  0  0  0
 19 20  2  0  0  0  0
 19 21  1  0  0  0  0
 16 17  1  0  0  0  0
 16 18  1  0  0  0  0
 14 15  2  0  0  0  0
 14 16  1  0  0  0  0
 11 12  1  0  0  0  0
 11 13  1  0  0  0  0
 11 14  1  0  0  0  0
  9 10  1  0  0  0  0
  9 11  1  0  0  0  0
  9 19  1  0  0  0  0
  7  8  1  0  0  0  0
  7  9  1  0  0  0  0
 23 24  1  0  0  0  0
 23 25  1  0  0  0  0
 23 26  1  0  0  0  0
 21 22  1  0  0  0  0
 21 23  1  0  0  0  0
M  END
$$$$
default_name
  -OEChem-02102213163D

 26 25  0     1  0  0  0  0  0999 V2000
   -3.0232   -3.6924    1.0038 H   0  0  0  0  0  0  0  0  0  0  0  0
   -3.0082   -2.6684    0.6318 C   0  0  0  0  0  0  0  0  0  0  0  0
   -3.6332   -2.0414    1.2658 H   0  0  0  0  0  0  0  0  0  0  0  0
   -3.3762   -2.6444   -0.3912 H   0  0  0  0  0  0  0  0  0  0  0  0
   -1.5882   -2.1554    0.6658 C   0  0  0  0  0  0  0  0  0  0  0  0
   -0.6832   -2.8764    1.0638 O   0  0  0  0  0  0  0  0  0  0  0  0
   -1.3952   -0.9084    0.2428 N   0  0  0  0  0  0  0  0  0  0  0  0
   -2.1972   -0.3644   -0.0422 H   0  0  0  0  0  0  0  0  0  0  0  0
   -0.1122   -0.1994    0.2658 C   0  0  1  0  0  0  0  0  0  0  0  0
    0.5635   -0.7260    0.9446 H   0  0  0  0  0  0  0  0  0  0  0  0
    0.4924   -0.2204   -1.1558 C   0  0  0  0  0  0  0  0  0  0  0  0
    0.3661    0.7606   -1.6125 H   0  0  0  0  0  0  0  0  0  0  0  0
    1.5585   -0.4326   -1.0896 H   0  0  0  0  0  0  0  0  0  0  0  0
   -0.1584   -1.2282   -2.0896 C   0  0  0  0  0  0  0  0  0  0  0  0
   -1.3418   -1.1965   -2.3791 O   0  0  0  0  0  0  0  0  0  0  0  0
    0.5977   -2.1739   -2.5918 N   0  0  0  0  0  0  0  0  0  0  0  0
    0.1444   -2.8148   -3.2191 H   0  0  0  0  0  0  0  0  0  0  0  0
    1.5779   -2.2106   -2.3843 H   0  0  0  0  0  0  0  0  0  0  0  0
   -0.3126    1.2341    0.8050 C   0  0  0  0  0  0  0  0  0  0  0  0
   -1.2484    1.9199    0.3934 O   0  0  0  0  0  0  0  0  0  0  0  0
    0.5615    1.6875    1.7087 N   0  0  0  0  0  0  0  0  0  0  0  0
    1.3461    1.0849    1.9358 H   0  0  0  0  0  0  0  0  0  0  0  0
    0.5043    3.0121    2.3242 C   0  0  0  0  0  0  0  0  0  0  0  0
   -0.4649    3.1514    2.8080 H   0  0  0  0  0  0  0  0  0  0  0  0
    1.2959    3.1139    3.0678 H   0  0  0  0  0  0  0  0  0  0  0  0
    0.6273    3.7799    1.5584 H   0  0  0  0  0  0  0  0  0  0  0  0
  5  6  2  0  0  0  0
  5  7  1  0  0  0  0
  2  3  1  0  0  0  0
  2  4  1  0  0  0  0
  2  5  1  0  0  0  0
  1  2  1  0  0  0  0
 19 20  2  0  0  0  0
 19 21  1  0  0  0  0
 16 17  1  0  0  0  0
 16 18  1  0  0  0  0
 14 15  2  0  0  0  0
 14 16  1  0  0  0  0
 11 12  1  0  0  0  0
 11 13  1  0  0  0  0
 11 14  1  0  0  0  0
  9 10  1  0  0  0  0
  9 11  1  0  0  0  0
  9 19  1  0  0  0  0
  7  8  1  0  0  0  0
  7  9  1  0  0  0  0
 23 24  1  0  0  0  0
 23 25  1  0  0  0  0
 23 26  1  0  0  0  0
 21 22  1  0  0  0  0
 21 23  1  0  0  0  0
M  END
$$$$
default_name
  -OEChem-02102213163D

 26 25  0     1  0  0  0  0  0999 V2000
   -3.0232   -3.6924    1.0038 H   0  0  0  0  0  0  0  0  0  0  0  0
   -3.0082   -2.6684    0.6318 C   0  0  0  0  0  0  0  0  0  0  0  0
   -3.6332   -2.0414    1.2658 H   0  0  0  0  0  0  0  0  0  0  0  0
   -3.3762   -2.6444   -0.3912 H   0  0  0  0  0  0  0  0  0  0  0  0
   -1.5882   -2.1554    0.6658 C   0  0  0  0  0  0  0  0  0  0  0  0
   -0.6832   -2.8764    1.0638 O   0  0  0  0  0  0  0  0  0  0  0  0
   -1.3952   -0.9084    0.2428 N   0  0  0  0  0  0  0  0  0  0  0  0
   -2.1972   -0.3644   -0.0422 H   0  0  0  0  0  0  0  0  0  0  0  0
   -0.1122   -0.1994    0.2658 C   0  0  1  0  0  0  0  0  0  0  0  0
    0.5635   -0.7260    0.9446 H   0  0  0  0  0  0  0  0  0  0  0  0
    0.4924   -0.2204   -1.1558 C   0  0  0  0  0  0  0  0  0  0  0  0
    0.3661    0.7606   -1.6125 H   0  0  0  0  0  0  0  0  0  0  0  0
    1.5585   -0.4326   -1.0896 H   0  0  0  0  0  0  0  0  0  0  0  0
   -0.1584   -1.2282   -2.0896 C   0  0  0  0  0  0  0  0  0  0  0  0
   -1.2564   -1.0565   -2.5896 O   0  0  0  0  0  0  0  0  0  0  0  0
    0.4989   -2.3313   -2.3530 N   0  0  0  0  0  0  0  0  0  0  0  0
    0.0521   -2.9705   -2.9867 H   0  0  0  0  0  0  0  0  0  0  0  0
    1.4118   -2.4878   -1.9694 H   0  0  0  0  0  0  0  0  0  0  0  0
   -0.3126    1.2341    0.8050 C   0  0  0  0  0  0  0  0  0  0  0  0
   -1.2484    1.9199    0.3934 O   0  0  0  0  0  0  0  0  0  0  0  0
    0.5615    1.6875    1.7087 N   0  0  0  0  0  0  0  0  0  0  0  0
    1.3461    1.0849    1.9358 H   0  0  0  0  0  0  0  0  0  0  0  0
    0.5043    3.0121    2.3242 C   0  0  0  0  0  0  0  0  0  0  0  0
   -0.4649    3.1514    2.8080 H   0  0  0  0  0  0  0  0  0  0  0  0
    1.2959    3.1139    3.0678 H   0  0  0  0  0  0  0  0  0  0  0  0
    0.6273    3.7799    1.5584 H   0  0  0  0  0  0  0  0  0  0  0  0
  5  6  2  0  0  0  0
  5  7  1  0  0  0  0
  2  3  1  0  0  0  0
  2  4  1  0  0  0  0
  2  5  1  0  0  0  0
  1  2  1  0  0  0  0
 19 20  2  0  0  0  0
 19 21  1  0  0  0  0
 16 17  1  0  0  0  0
 16 18  1  0  0  0  0
 14 15  2  0  0  0  0
 14 16  1  0  0  0  0
 11 12  1  0  0  0  0
 11 13  1  0  0  0  0
 11 14  1  0  0  0  0
  9 10  1  0  0  0  0
  9 11  1  0  0  0  0
  9 19  1  0  0  0  0
  7  8  1  0  0  0  0
  7  9  1  0  0  0  0
 23 24  1  0  0  0  0
 23 25  1  0  0  0  0
 23 26  1  0  0  0  0
 21 22  1  0  0  0  0
 21 23  1  0  0  0  0
M  END
$$$$
default_name
  -OEChem-02102213163D

 26 25  0     1  0  0  0  0  0999 V2000
   -3.0232   -3.6924    1.0038 H   0  0  0  0  0  0  0  0  0  0  0  0
   -3.0082   -2.6684    0.6318 C   0  0  0  0  0  0  0  0  0  0  0  0
   -3.6332   -2.0414    1.2658 H   0  0  0  0  0  0  0  0  0  0  0  0
   -3.3762   -2.6444   -0.3912 H   0  0  0  0  0  0  0  0  0  0  0  0
   -1.5882   -2.1554    0.6658 C   0  0  0  0  0  0  0  0  0  0  0  0
   -0.6832   -2.8764    1.0638 O   0  0  0  0  0  0  0  0  0  0  0  0
   -1.3952   -0.9084    0.2428 N   0  0  0  0  0  0  0  0  0  0  0  0
   -2.1972   -0.3644   -0.0422 H   0  0  0  0  0  0  0  0  0  0  0  0
   -0.1122   -0.1994    0.2658 C   0  0  1  0  0  0  0  0  0  0  0  0
    0.5635   -0.7260    0.9446 H   0  0  0  0  0  0  0  0  0  0  0  0
    0.4924   -0.2204   -1.1558 C   0  0  0  0  0  0  0  0  0  0  0  0
    0.3661    0.7606   -1.6125 H   0  0  0  0  0  0  0  0  0  0  0  0
    1.5585   -0.4326   -1.0896 H   0  0  0  0  0  0  0  0  0  0  0  0
   -0.1584   -1.2282   -2.0896 C   0  0  0  0  0  0  0  0  0  0  0  0
   -1.1156   -0.9581   -2.7939 O   0  0  0  0  0  0  0  0  0  0  0  0
    0.3374   -2.4412   -2.1218 N   0  0  0  0  0  0  0  0  0  0  0  0
   -0.1017   -3.0805   -2.7608 H   0  0  0  0  0  0  0  0  0  0  0  0
    1.1361   -2.6832   -1.5664 H   0  0  0  0  0  0  0  0  0  0  0  0
   -0.3126    1.2341    0.8050 C   0  0  0  0  0  0  0  0  0  0  0  0
   -1.2484    1.9199    0.3934 O   0  0  0  0  0  0  0  0  0  0  0  0
    0.5615    1.6875    1.7087 N   0  0  0  0  0  0  0  0  0  0  0  0
    1.3461    1.0849    1.9358 H   0  0  0  0  0  0  0  0  0  0  0  0
    0.5043    3.0121    2.3242 C   0  0  0  0  0  0  0  0  0  0  0  0
   -0.4649    3.1514    2.8080 H   0  0  0  0  0  0  0  0  0  0  0  0
    1.2959    3.1139    3.0678 H   0  0  0  0  0  0  0  0  0  0  0  0
    0.6273    3.7799    1.5584 H   0  0  0  0  0  0  0  0  0  0  0  0
  5  6  2  0  0  0  0
  5  7  1  0  0  0  0
  2  3  1  0  0  0  0
  2  4  1  0  0  0  0
  2  5  1  0  0  0  0
  1  2  1  0  0  0  0
 19 20  2  0  0  0  0
 19 21  1  0  0  0  0
 16 17  1  0  0  0  0
 16 18  1  0  0  0  0
 14 15  2  0  0  0  0
 14 16  1  0  0  0  0
 11 12  1  0  0  0  0
 11 13  1  0  0  0  0
 11 14  1  0  0  0  0
  9 10  1  0  0  0  0
  9 11  1  0  0  0  0
  9 19  1  0  0  0  0
  7  8  1  0  0  0  0
  7  9  1  0  0  0  0
 23 24  1  0  0  0  0
 23 25  1  0  0  0  0
 23 26  1  0  0  0  0
 21 22  1  0  0  0  0
 21 23  1  0  0  0  0
M  END
$$$$
default_name
  -OEChem-02102213163D

 26 25  0     1  0  0  0  0  0999 V2000
   -3.0232   -3.6924    1.0038 H   0  0  0  0  0  0  0  0  0  0  0  0
   -3.0082   -2.6684    0.6318 C   0  0  0  0  0  0  0  0  0  0  0  0
   -3.6332   -2.0414    1.2658 H   0  0  0  0  0  0  0  0  0  0  0  0
   -3.3762   -2.6444   -0.3912 H   0  0  0  0  0  0  0  0  0  0  0  0
   -1.5882   -2.1554    0.6658 C   0  0  0  0  0  0  0  0  0  0  0  0
   -0.6832   -2.8764    1.0638 O   0  0  0  0  0  0  0  0  0  0  0  0
   -1.3952   -0.9084    0.2428 N   0  0  0  0  0  0  0  0  0  0  0  0
   -2.1972   -0.3644   -0.0422 H   0  0  0  0  0  0  0  0  0  0  0  0
   -0.1122   -0.1994    0.2658 C   0  0  1  0  0  0  0  0  0  0  0  0
    0.5635   -0.7260    0.9446 H   0  0  0  0  0  0  0  0  0  0  0  0
    0.4924   -0.2204   -1.1558 C   0  0  0  0  0  0  0  0  0  0  0  0
    0.3661    0.7606   -1.6125 H   0  0  0  0  0  0  0  0  0  0  0  0
    1.5585   -0.4326   -1.0896 H   0  0  0  0  0  0  0  0  0  0  0  0
   -0.1584   -1.2282   -2.0896 C   0  0  0  0  0  0  0  0  0  0  0  0
   -0.9289   -0.9082   -2.9780 O   0  0  0  0  0  0  0  0  0  0  0  0
    0.1242   -2.4961   -1.9141 N   0  0  0  0  0  0  0  0  0  0  0  0
   -0.3065   -3.1372   -2.5568 H   0  0  0  0  0  0  0  0  0  0  0  0
    0.7696   -2.7834   -1.2028 H   0  0  0  0  0  0  0  0  0  0  0  0
   -0.3126    1.2341    0.8050 C   0  0  0  0  0  0  0  0  0  0  0  0
   -1.2484    1.9199    0.3934 O   0  0  0  0  0  0  0  0  0  0  0  0
    0.5615    1.6875    1.7087 N   0  0  0  0  0  0  0  0  0  0  0  0
    1.3461    1.0849    1.9358 H   0  0  0  0  0  0  0  0  0  0  0  0
    0.5043    3.0121    2.3242 C   0  0  0  0  0  0  0  0  0  0  0  0
   -0.4649    3.1514    2.8080 H   0  0  0  0  0  0  0  0  0  0  0  0
    1.2959    3.1139    3.0678 H   0  0  0  0  0  0  0  0  0  0  0  0
    0.6273    3.7799    1.5584 H   0  0  0  0  0  0  0  0  0  0  0  0
  5  6  2  0  0  0  0
  5  7  1  0  0  0  0
  2  3  1  0  0  0  0
  2  4  1  0  0  0  0
  2  5  1  0  0  0  0
  1  2  1  0  0  0  0
 19 20  2  0  0  0  0
 19 21  1  0  0  0  0
 16 17  1  0  0  0  0
 16 18  1  0  0  0  0
 14 15  2  0  0  0  0
 14 16  1  0  0  0  0
 11 12  1  0  0  0  0
 11 13  1  0  0  0  0
 11 14  1  0  0  0  0
  9 10  1  0  0  0  0
  9 11  1  0  0  0  0
  9 19  1  0  0  0  0
  7  8  1  0  0  0  0
  7  9  1  0  0  0  0
 23 24  1  0  0  0  0
 23 25  1  0  0  0  0
 23 26  1  0  0  0  0
 21 22  1  0  0  0  0
 21 23  1  0  0  0  0
M  END
$$$$
default_name
  -OEChem-02102213163D

 26 25  0     1  0  0  0  0  0999 V2000
   -3.0232   -3.6924    1.0038 H   0  0  0  0  0  0  0  0  0  0  0  0
   -3.0082   -2.6684    0.6318 C   0  0  0  0  0  0  0  0  0  0  0  0
   -3.6332   -2.0414    1.2658 H   0  0  0  0  0  0  0  0  0  0  0  0
   -3.3762   -2.6444   -0.3912 H   0  0  0  0  0  0  0  0  0  0  0  0
   -1.5882   -2.1554    0.6658 C   0  0  0  0  0  0  0  0  0  0  0  0
   -0.6832   -2.8764    1.0638 O   0  0  0  0  0  0  0  0  0  0  0  0
   -1.3952   -0.9084    0.2428 N   0  0  0  0  0  0  0  0  0  0  0  0
   -2.1972   -0.3644   -0.0422 H   0  0  0  0  0  0  0  0  0  0  0  0
   -0.1122   -0.1994    0.2658 C   0  0  1  0  0  0  0  0  0  0  0  0
    0.5635   -0.7260    0.9446 H   0  0  0  0  0  0  0  0  0  0  0  0
    0.4924   -0.2204   -1.1558 C   0  0  0  0  0  0  0  0  0  0  0  0
    0.3661    0.7606   -1.6125 H   0  0  0  0  0  0  0  0  0  0  0  0
    1.5585   -0.4326   -1.0896 H   0  0  0  0  0  0  0  0  0  0  0  0
   -0.1584   -1.2282   -2.0896 C   0  0  0  0  0  0  0  0  0  0  0  0
   -0.7090   -0.9100   -3.1292 O   0  0  0  0  0  0  0  0  0  0  0  0
   -0.1260   -2.4922   -1.7439 N   0  0  0  0  0  0  0  0  0  0  0  0
   -0.5484   -3.1369   -2.3886 H   0  0  0  0  0  0  0  0  0  0  0  0
    0.3373   -2.7817   -0.9033 H   0  0  0  0  0  0  0  0  0  0  0  0
   -0.3126    1.2341    0.8050 C   0  0  0  0  0  0  0  0  0  0  0  0
   -1.2484    1.9199    0.3934 O   0  0  0  0  0  0  0  0  0  0  0  0
    0.5615    1.6875    1.7087 N   0  0  0  0  0  0  0  0  0  0  0  0
    1.3461    1.0849    1.9358 H   0  0  0  0  0  0  0  0  0  0  0  0
    0.5043    3.0121    2.3242 C   0  0  0  0  0  0  0  0  0  0  0  0
   -0.4649    3.1514    2.8080 H   0  0  0  0  0  0  0  0  0  0  0  0
    1.2959    3.1139    3.0678 H   0  0  0  0  0  0  0  0  0  0  0  0
    0.6273    3.7799    1.5584 H   0  0  0  0  0  0  0  0  0  0  0  0
  5  6  2  0  0  0  0
  5  7  1  0  0  0  0
  2  3  1  0  0  0  0
  2  4  1  0  0  0  0
  2  5  1  0  0  0  0
  1  2  1  0  0  0  0
 19 20  2  0  0  0  0
 19 21  1  0  0  0  0
 16 17  1  0  0  0  0
 16 18  1  0  0  0  0
 14 15  2  0  0  0  0
 14 16  1  0  0  0  0
 11 12  1  0  0  0  0
 11 13  1  0  0  0  0
 11 14  1  0  0  0  0
  9 10  1  0  0  0  0
  9 11  1  0  0  0  0
  9 19  1  0  0  0  0
  7  8  1  0  0  0  0
  7  9  1  0  0  0  0
 23 24  1  0  0  0  0
 23 25  1  0  0  0  0
 23 26  1  0  0  0  0
 21 22  1  0  0  0  0
 21 23  1  0  0  0  0
M  END
$$$$
default_name
  -OEChem-02102213163D

 26 25  0     1  0  0  0  0  0999 V2000
   -3.0232   -3.6924    1.0038 H   0  0  0  0  0  0  0  0  0  0  0  0
   -3.0082   -2.6684    0.6318 C   0  0  0  0  0  0  0  0  0  0  0  0
   -3.6332   -2.0414    1.2658 H   0  0  0  0  0  0  0  0  0  0  0  0
   -3.3762   -2.6444   -0.3912 H   0  0  0  0  0  0  0  0  0  0  0  0
   -1.5882   -2.1554    0.6658 C   0  0  0  0  0  0  0  0  0  0  0  0
   -0.6832   -2.8764    1.0638 O   0  0  0  0  0  0  0  0  0  0  0  0
   -1.3952   -0.9084    0.2428 N   0  0  0  0  0  0  0  0  0  0  0  0
   -2.1972   -0.3644   -0.0422 H   0  0  0  0  0  0  0  0  0  0  0  0
   -0.1122   -0.1994    0.2658 C   0  0  1  0  0  0  0  0  0  0  0  0
    0.5635   -0.7260    0.9446 H   0  0  0  0  0  0  0  0  0  0  0  0
    0.4924   -0.2204   -1.1558 C   0  0  0  0  0  0  0  0  0  0  0  0
    0.3661    0.7606   -1.6125 H   0  0  0  0  0  0  0  0  0  0  0  0
    1.5585   -0.4326   -1.0896 H   0  0  0  0  0  0  0  0  0  0  0  0
   -0.1584   -1.2282   -2.0896 C   0  0  0  0  0  0  0  0  0  0  0  0
   -0.4710   -0.9635   -3.2374 O   0  0  0  0  0  0  0  0  0  0  0  0
   -0.3963   -2.4298   -1.6229 N   0  0  0  0  0  0  0  0  0  0  0  0
   -0.8109   -3.0795   -2.2676 H   0  0  0  0  0  0  0  0  0  0  0  0
   -0.1314   -2.6782   -0.6884 H   0  0  0  0  0  0  0  0  0  0  0  0
   -0.3126    1.2341    0.8050 C   0  0  0  0  0  0  0  0  0  0  0  0
   -1.2484    1.9199    0.3934 O   0  0  0  0  0  0  0  0  0  0  0  0
    0.5615    1.6875    1.7087 N   0  0  0  0  0  0  0  0  0  0  0  0
    1.3461    1.0849    1.9358 H   0  0  0  0  0  0  0  0  0  0  0  0
    0.5043    3.0121    2.3242 C   0  0  0  0  0  0  0  0  0  0  0  0
   -0.4649    3.1514    2.8080 H   0  0  0  0  0  0  0  0  0  0  0  0
    1.2959    3.1139    3.0678 H   0  0  0  0  0  0  0  0  0  0  0  0
    0.6273    3.7799    1.5584 H   0  0  0  0  0  0  0  0  0  0  0  0
  5  6  2  0  0  0  0
  5  7  1  0  0  0  0
  2  3  1  0  0  0  0
  2  4  1  0  0  0  0
  2  5  1  0  0  0  0
  1  2  1  0  0  0  0
 19 20  2  0  0  0  0
 19 21  1  0  0  0  0
 16 17  1  0  0  0  0
 16 18  1  0  0  0  0
 14 15  2  0  0  0  0
 14 16  1  0  0  0  0
 11 12  1  0  0  0  0
 11 13  1  0  0  0  0
 11 14  1  0  0  0  0
  9 10  1  0  0  0  0
  9 11  1  0  0  0  0
  9 19  1  0  0  0  0
  7  8  1  0  0  0  0
  7  9  1  0  0  0  0
 23 24  1  0  0  0  0
 23 25  1  0  0  0  0
 23 26  1  0  0  0  0
 21 22  1  0  0  0  0
 21 23  1  0  0  0  0
M  END
$$$$
default_name
  -OEChem-02102213163D

 26 25  0     1  0  0  0  0  0999 V2000
   -3.0232   -3.6924    1.0038 H   0  0  0  0  0  0  0  0  0  0  0  0
   -3.0082   -2.6684    0.6318 C   0  0  0  0  0  0  0  0  0  0  0  0
   -3.6332   -2.0414    1.2658 H   0  0  0  0  0  0  0  0  0  0  0  0
   -3.3762   -2.6444   -0.3912 H   0  0  0  0  0  0  0  0  0  0  0  0
   -1.5882   -2.1554    0.6658 C   0  0  0  0  0  0  0  0  0  0  0  0
   -0.6832   -2.8764    1.0638 O   0  0  0  0  0  0  0  0  0  0  0  0
   -1.3952   -0.9084    0.2428 N   0  0  0  0  0  0  0  0  0  0  0  0
   -2.1972   -0.3644   -0.0422 H   0  0  0  0  0  0  0  0  0  0  0  0
   -0.1122   -0.1994    0.2658 C   0  0  1  0  0  0  0  0  0  0  0  0
    0.5635   -0.7260    0.9446 H   0  0  0  0  0  0  0  0  0  0  0  0
    0.4924   -0.2204   -1.1558 C   0  0  0  0  0  0  0  0  0  0  0  0
    0.3661    0.7606   -1.6125 H   0  0  0  0  0  0  0  0  0  0  0  0
    1.5585   -0.4326   -1.0896 H   0  0  0  0  0  0  0  0  0  0  0  0
   -0.1584   -1.2282   -2.0896 C   0  0  0  0  0  0  0  0  0  0  0  0
   -0.2310   -1.0650   -3.2951 O   0  0  0  0  0  0  0  0  0  0  0  0
   -0.6682   -2.3131   -1.5593 N   0  0  0  0  0  0  0  0  0  0  0  0
   -1.0760   -2.9689   -2.2022 H   0  0  0  0  0  0  0  0  0  0  0  0
   -0.6045   -2.4798   -0.5728 H   0  0  0  0  0  0  0  0  0  0  0  0
   -0.3126    1.2341    0.8050 C   0  0  0  0  0  0  0  0  0  0  0  0
   -1.2484    1.9199    0.3934 O   0  0  0  0  0  0  0  0  0  0  0  0
    0.5615    1.6875    1.7087 N   0  0  0  0  0  0  0  0  0  0  0  0
    1.3461    1.0849    1.9358 H   0  0  0  0  0  0  0  0  0  0  0  0
    0.5043    3.0121    2.3242 C   0  0  0  0  0  0  0  0  0  0  0  0
   -0.4649    3.1514    2.8080 H   0  0  0  0  0  0  0  0  0  0  0  0
    1.2959    3.1139    3.0678 H   0  0  0  0  0  0  0  0  0  0  0  0
    0.6273    3.7799    1.5584 H   0  0  0  0  0  0  0  0  0  0  0  0
  5  6  2  0  0  0  0
  5  7  1  0  0  0  0
  2  3  1  0  0  0  0
  2  4  1  0  0  0  0
  2  5  1  0  0  0  0
  1  2  1  0  0  0  0
 19 20  2  0  0  0  0
 19 21  1  0  0  0  0
 16 17  1  0  0  0  0
 16 18  1  0  0  0  0
 14 15  2  0  0  0  0
 14 16  1  0  0  0  0
 11 12  1  0  0  0  0
 11 13  1  0  0  0  0
 11 14  1  0  0  0  0
  9 10  1  0  0  0  0
  9 11  1  0  0  0  0
  9 19  1  0  0  0  0
  7  8  1  0  0  0  0
  7  9  1  0  0  0  0
 23 24  1  0  0  0  0
 23 25  1  0  0  0  0
 23 26  1  0  0  0  0
 21 22  1  0  0  0  0
 21 23  1  0  0  0  0
M  END
$$$$
default_name
  -OEChem-02102213163D

 26 25  0     1  0  0  0  0  0999 V2000
   -3.0232   -3.6924    1.0038 H   0  0  0  0  0  0  0  0  0  0  0  0
   -3.0082   -2.6684    0.6318 C   0  0  0  0  0  0  0  0  0  0  0  0
   -3.6332   -2.0414    1.2658 H   0  0  0  0  0  0  0  0  0  0  0  0
   -3.3762   -2.6444   -0.3912 H   0  0  0  0  0  0  0  0  0  0  0  0
   -1.5882   -2.1554    0.6658 C   0  0  0  0  0  0  0  0  0  0  0  0
   -0.6832   -2.8764    1.0638 O   0  0  0  0  0  0  0  0  0  0  0  0
   -1.3952   -0.9084    0.2428 N   0  0  0  0  0  0  0  0  0  0  0  0
   -2.1972   -0.3644   -0.0422 H   0  0  0  0  0  0  0  0  0  0  0  0
   -0.1122   -0.1994    0.2658 C   0  0  1  0  0  0  0  0  0  0  0  0
    0.5635   -0.7260    0.9446 H   0  0  0  0  0  0  0  0  0  0  0  0
    0.4924   -0.2204   -1.1558 C   0  0  0  0  0  0  0  0  0  0  0  0
    0.3661    0.7606   -1.6125 H   0  0  0  0  0  0  0  0  0  0  0  0
    1.5585   -0.4326   -1.0896 H   0  0  0  0  0  0  0  0  0  0  0  0
   -0.1584   -1.2282   -2.0896 C   0  0  0  0  0  0  0  0  0  0  0  0
   -0.0054   -1.2075   -3.2985 O   0  0  0  0  0  0  0  0  0  0  0  0
   -0.9233   -2.1501   -1.5574 N   0  0  0  0  0  0  0  0  0  0  0  0
   -1.3257   -2.8127   -2.1968 H   0  0  0  0  0  0  0  0  0  0  0  0
   -1.0498   -2.2002   -0.5642 H   0  0  0  0  0  0  0  0  0  0  0  0
   -0.3126    1.2341    0.8050 C   0  0  0  0  0  0  0  0  0  0  0  0
   -1.2484    1.9199    0.3934 O   0  0  0  0  0  0  0  0  0  0  0  0
    0.5615    1.6875    1.7087 N   0  0  0  0  0  0  0  0  0  0  0  0
    1.3461    1.0849    1.9358 H   0  0  0  0  0  0  0  0  0  0  0  0
    0.5043    3.0121    2.3242 C   0  0  0  0  0  0  0  0  0  0  0  0
   -0.4649    3.1514    2.8080 H   0  0  0  0  0  0  0  0  0  0  0  0
    1.2959    3.1139    3.0678 H   0  0  0  0  0  0  0  0  0  0  0  0
    0.6273    3.7799    1.5584 H   0  0  0  0  0  0  0  0  0  0  0  0
  5  6  2  0  0  0  0
  5  7  1  0  0  0  0
  2  3  1  0  0  0  0
  2  4  1  0  0  0  0
  2  5  1  0  0  0  0
  1  2  1  0  0  0  0
 19 20  2  0  0  0  0
 19 21  1  0  0  0  0
 16 17  1  0  0  0  0
 16 18  1  0  0  0  0
 14 15  2  0  0  0  0
 14 16  1  0  0  0  0
 11 12  1  0  0  0  0
 11 13  1  0  0  0  0
 11 14  1  0  0  0  0
  9 10  1  0  0  0  0
  9 11  1  0  0  0  0
  9 19  1  0  0  0  0
  7  8  1  0  0  0  0
  7  9  1  0  0  0  0
 23 24  1  0  0  0  0
 23 25  1  0  0  0  0
 23 26  1  0  0  0  0
 21 22  1  0  0  0  0
 21 23  1  0  0  0  0
M  END
$$$$
default_name
  -OEChem-02102213163D

 26 25  0     1  0  0  0  0  0999 V2000
   -3.0232   -3.6924    1.0038 H   0  0  0  0  0  0  0  0  0  0  0  0
   -3.0082   -2.6684    0.6318 C   0  0  0  0  0  0  0  0  0  0  0  0
   -3.6332   -2.0414    1.2658 H   0  0  0  0  0  0  0  0  0  0  0  0
   -3.3762   -2.6444   -0.3912 H   0  0  0  0  0  0  0  0  0  0  0  0
   -1.5882   -2.1554    0.6658 C   0  0  0  0  0  0  0  0  0  0  0  0
   -0.6832   -2.8764    1.0638 O   0  0  0  0  0  0  0  0  0  0  0  0
   -1.3952   -0.9084    0.2428 N   0  0  0  0  0  0  0  0  0  0  0  0
   -2.1972   -0.3644   -0.0422 H   0  0  0  0  0  0  0  0  0  0  0  0
   -0.1122   -0.1994    0.2658 C   0  0  1  0  0  0  0  0  0  0  0  0
    0.5635   -0.7260    0.9446 H   0  0  0  0  0  0  0  0  0  0  0  0
    0.4924   -0.2204   -1.1558 C   0  0  0  0  0  0  0  0  0  0  0  0
    0.6105    0.8033   -1.5092 H   0  0  0  0  0  0  0  0  0  0  0  0
    1.4762   -0.6861   -1.1208 H   0  0  0  0  0  0  0  0  0  0  0  0
   -0.3647   -0.9446   -2.1815 C   0  0  0  0  0  0  0  0  0  0  0  0
   -0.0442   -1.0590   -3.3518 O   0  0  0  0  0  0  0  0  0  0  0  0
   -1.5016   -1.4564   -1.7768 N   0  0  0  0  0  0  0  0  0  0  0  0
   -2.0383   -1.9440   -2.4723 H   0  0  0  0  0  0  0  0  0  0  0  0
   -1.7789   -1.3923   -0.8156 H   0  0  0  0  0  0  0  0  0  0  0  0
   -0.3126    1.2341    0.8050 C   0  0  0  0  0  0  0  0  0  0  0  0
   -1.2484    1.9199    0.3934 O   0  0  0  0  0  0  0  0  0  0  0  0
    0.5615    1.6875    1.7087 N   0  0  0  0  0  0  0  0  0  0  0  0
    1.3461    1.0849    1.9358 H   0  0  0  0  0  0  0  0  0  0  0  0
    0.5043    3.0121    2.3242 C   0  0  0  0  0  0  0  0  0  0  0  0
   -0.4649    3.1514    2.8080 H   0  0  0  0  0  0  0  0  0  0  0  0
    1.2959    3.1139    3.0678 H   0  0  0  0  0  0  0  0  0  0  0  0
    0.6273    3.7799    1.5584 H   0  0  0  0  0  0  0  0  0  0  0  0
  5  6  2  0  0  0  0
  5  7  1  0  0  0  0
  2  3  1  0  0  0  0
  2  4  1  0  0  0  0
  2  5  1  0  0  0  0
  1  2  1  0  0  0  0
 19 20  2  0  0  0  0
 19 21  1  0  0  0  0
 16 17  1  0  0  0  0
 16 18  1  0  0  0  0
 14 15  2  0  0  0  0
 14 16  1  0  0  0  0
 11 12  1  0  0  0  0
 11 13  1  0  0  0  0
 11 14  1  0  0  0  0
  9 10  1  0  0  0  0
  9 11  1  0  0  0  0
  9 19  1  0  0  0  0
  7  8  1  0  0  0  0
  7  9  1  0  0  0  0
 23 24  1  0  0  0  0
 23 25  1  0  0  0  0
 23 26  1  0  0  0  0
 21 22  1  0  0  0  0
 21 23  1  0  0  0  0
M  END
$$$$
default_name
  -OEChem-02102213163D

 26 25  0     1  0  0  0  0  0999 V2000
   -3.0232   -3.6924    1.0038 H   0  0  0  0  0  0  0  0  0  0  0  0
   -3.0082   -2.6684    0.6318 C   0  0  0  0  0  0  0  0  0  0  0  0
   -3.6332   -2.0414    1.2658 H   0  0  0  0  0  0  0  0  0  0  0  0
   -3.3762   -2.6444   -0.3912 H   0  0  0  0  0  0  0  0  0  0  0  0
   -1.5882   -2.1554    0.6658 C   0  0  0  0  0  0  0  0  0  0  0  0
   -0.6832   -2.8764    1.0638 O   0  0  0  0  0  0  0  0  0  0  0  0
   -1.3952   -0.9084    0.2428 N   0  0  0  0  0  0  0  0  0  0  0  0
   -2.1972   -0.3644   -0.0422 H   0  0  0  0  0  0  0  0  0  0  0  0
   -0.1122   -0.1994    0.2658 C   0  0  1  0  0  0  0  0  0  0  0  0
    0.5635   -0.7260    0.9446 H   0  0  0  0  0  0  0  0  0  0  0  0
    0.4924   -0.2204   -1.1558 C   0  0  0  0  0  0  0  0  0  0  0  0
    0.6105    0.8033   -1.5092 H   0  0  0  0  0  0  0  0  0  0  0  0
    1.4762   -0.6861   -1.1208 H   0  0  0  0  0  0  0  0  0  0  0  0
   -0.3647   -0.9446   -2.1815 C   0  0  0  0  0  0  0  0  0  0  0  0
    0.0565   -1.2926   -3.2709 O   0  0  0  0  0  0  0  0  0  0  0  0
   -1.6138   -1.1913   -1.8701 N   0  0  0  0  0  0  0  0  0  0  0  0
   -2.1510   -1.6864   -2.5601 H   0  0  0  0  0  0  0  0  0  0  0  0
   -1.9790   -0.9322   -0.9732 H   0  0  0  0  0  0  0  0  0  0  0  0
   -0.3126    1.2341    0.8050 C   0  0  0  0  0  0  0  0  0  0  0  0
   -1.2484    1.9199    0.3934 O   0  0  0  0  0  0  0  0  0  0  0  0
    0.5615    1.6875    1.7087 N   0  0  0  0  0  0  0  0  0  0  0  0
    1.3461    1.0849    1.9358 H   0  0  0  0  0  0  0  0  0  0  0  0
    0.5043    3.0121    2.3242 C   0  0  0  0  0  0  0  0  0  0  0  0
   -0.4649    3.1514    2.8080 H   0  0  0  0  0  0  0  0  0  0  0  0
    1.2959    3.1139    3.0678 H   0  0  0  0  0  0  0  0  0  0  0  0
    0.6273    3.7799    1.5584 H   0  0  0  0  0  0  0  0  0  0  0  0
  5  6  2  0  0  0  0
  5  7  1  0  0  0  0
  2  3  1  0  0  0  0
  2  4  1  0  0  0  0
  2  5  1  0  0  0  0
  1  2  1  0  0  0  0
 19 20  2  0  0  0  0
 19 21  1  0  0  0  0
 16 17  1  0  0  0  0
 16 18  1  0  0  0  0
 14 15  2  0  0  0  0
 14 16  1  0  0  0  0
 11 12  1  0  0  0  0
 11 13  1  0  0  0  0
 11 14  1  0  0  0  0
  9 10  1  0  0  0  0
  9 11  1  0  0  0  0
  9 19  1  0  0  0  0
  7  8  1  0  0  0  0
  7  9  1  0  0  0  0
 23 24  1  0  0  0  0
 23 25  1  0  0  0  0
 23 26  1  0  0  0  0
 21 22  1  0  0  0  0
 21 23  1  0  0  0  0
M  END
$$$$
default_name
  -OEChem-02102213163D

 26 25  0     1  0  0  0  0  0999 V2000
   -3.0232   -3.6924    1.0038 H   0  0  0  0  0  0  0  0  0  0  0  0
   -3.0082   -2.6684    0.6318 C   0  0  0  0  0  0  0  0  0  0  0  0
   -3.6332   -2.0414    1.2658 H   0  0  0  0  0  0  0  0  0  0  0  0
   -3.3762   -2.6444   -0.3912 H   0  0  0  0  0  0  0  0  0  0  0  0
   -1.5882   -2.1554    0.6658 C   0  0  0  0  0  0  0  0  0  0  0  0
   -0.6832   -2.8764    1.0638 O   0  0  0  0  0  0  0  0  0  0  0  0
   -1.3952   -0.9084    0.2428 N   0  0  0  0  0  0  0  0  0  0  0  0
   -2.1972   -0.3644   -0.0422 H   0  0  0  0  0  0  0  0  0  0  0  0
   -0.1122   -0.1994    0.2658 C   0  0  1  0  0  0  0  0  0  0  0  0
    0.5635   -0.7260    0.9446 H   0  0  0  0  0  0  0  0  0  0  0  0
    0.4924   -0.2204   -1.1558 C   0  0  0  0  0  0  0  0  0  0  0  0
    0.6105    0.8033   -1.5092 H   0  0  0  0  0  0  0  0  0  0  0  0
    1.4762   -0.6861   -1.1208 H   0  0  0  0  0  0  0  0  0  0  0  0
   -0.3647   -0.9446   -2.1815 C   0  0  0  0  0  0  0  0  0  0  0  0
    0.1029   -1.5240   -3.1463 O   0  0  0  0  0  0  0  0  0  0  0  0
   -1.6645   -0.9292   -2.0128 N   0  0  0  0  0  0  0  0  0  0  0  0
   -2.2041   -1.4306   -2.6963 H   0  0  0  0  0  0  0  0  0  0  0  0
   -2.0725   -0.4759   -1.2172 H   0  0  0  0  0  0  0  0  0  0  0  0
   -0.3126    1.2341    0.8050 C   0  0  0  0  0  0  0  0  0  0  0  0
   -1.2484    1.9199    0.3934 O   0  0  0  0  0  0  0  0  0  0  0  0
    0.5615    1.6875    1.7087 N   0  0  0  0  0  0  0  0  0  0  0  0
    1.3461    1.0849    1.9358 H   0  0  0  0  0  0  0  0  0  0  0  0
    0.5043    3.0121    2.3242 C   0  0  0  0  0  0  0  0  0  0  0  0
   -0.4649    3.1514    2.8080 H   0  0  0  0  0  0  0  0  0  0  0  0
    1.2959    3.1139    3.0678 H   0  0  0  0  0  0  0  0  0  0  0  0
    0.6273    3.7799    1.5584 H   0  0  0  0  0  0  0  0  0  0  0  0
  5  6  2  0  0  0  0
  5  7  1  0  0  0  0
  2  3  1  0  0  0  0
  2  4  1  0  0  0  0
  2  5  1  0  0  0  0
  1  2  1  0  0  0  0
 19 20  2  0  0  0  0
 19 21  1  0  0  0  0
 16 17  1  0  0  0  0
 16 18  1  0  0  0  0
 14 15  2  0  0  0  0
 14 16  1  0  0  0  0
 11 12  1  0  0  0  0
 11 13  1  0  0  0  0
 11 14  1  0  0  0  0
  9 10  1  0  0  0  0
  9 11  1  0  0  0  0
  9 19  1  0  0  0  0
  7  8  1  0  0  0  0
  7  9  1  0  0  0  0
 23 24  1  0  0  0  0
 23 25  1  0  0  0  0
 23 26  1  0  0  0  0
 21 22  1  0  0  0  0
 21 23  1  0  0  0  0
M  END
$$$$
default_name
  -OEChem-02102213163D

 26 25  0     1  0  0  0  0  0999 V2000
   -3.0232   -3.6924    1.0038 H   0  0  0  0  0  0  0  0  0  0  0  0
   -3.0082   -2.6684    0.6318 C   0  0  0  0  0  0  0  0  0  0  0  0
   -3.6332   -2.0414    1.2658 H   0  0  0  0  0  0  0  0  0  0  0  0
   -3.3762   -2.6444   -0.3912 H   0  0  0  0  0  0  0  0  0  0  0  0
   -1.5882   -2.1554    0.6658 C   0  0  0  0  0  0  0  0  0  0  0  0
   -0.6832   -2.8764    1.0638 O   0  0  0  0  0  0  0  0  0  0  0  0
   -1.3952   -0.9084    0.2428 N   0  0  0  0  0  0  0  0  0  0  0  0
   -2.1972   -0.3644   -0.0422 H   0  0  0  0  0  0  0  0  0  0  0  0
   -0.1122   -0.1994    0.2658 C   0  0  1  0  0  0  0  0  0  0  0  0
    0.5635   -0.7260    0.9446 H   0  0  0  0  0  0  0  0  0  0  0  0
    0.4924   -0.2204   -1.1558 C   0  0  0  0  0  0  0  0  0  0  0  0
    0.6105    0.8033   -1.5092 H   0  0  0  0  0  0  0  0  0  0  0  0
    1.4762   -0.6861   -1.1208 H   0  0  0  0  0  0  0  0  0  0  0  0
   -0.3647   -0.9446   -2.1815 C   0  0  0  0  0  0  0  0  0  0  0  0
    0.0920   -1.7375   -2.9865 O   0  0  0  0  0  0  0  0  0  0  0  0
   -1.6501   -0.6881   -2.1951 N   0  0  0  0  0  0  0  0  0  0  0  0
   -2.1939   -1.1942   -2.8718 H   0  0  0  0  0  0  0  0  0  0  0  0
   -2.0531   -0.0543   -1.5311 H   0  0  0  0  0  0  0  0  0  0  0  0
   -0.3126    1.2341    0.8050 C   0  0  0  0  0  0  0  0  0  0  0  0
   -1.2484    1.9199    0.3934 O   0  0  0  0  0  0  0  0  0  0  0  0
    0.5615    1.6875    1.7087 N   0  0  0  0  0  0  0  0  0  0  0  0
    1.3461    1.0849    1.9358 H   0  0  0  0  0  0  0  0  0  0  0  0
    0.5043    3.0121    2.3242 C   0  0  0  0  0  0  0  0  0  0  0  0
   -0.4649    3.1514    2.8080 H   0  0  0  0  0  0  0  0  0  0  0  0
    1.2959    3.1139    3.0678 H   0  0  0  0  0  0  0  0  0  0  0  0
    0.6273    3.7799    1.5584 H   0  0  0  0  0  0  0  0  0  0  0  0
  5  6  2  0  0  0  0
  5  7  1  0  0  0  0
  2  3  1  0  0  0  0
  2  4  1  0  0  0  0
  2  5  1  0  0  0  0
  1  2  1  0  0  0  0
 19 20  2  0  0  0  0
 19 21  1  0  0  0  0
 16 17  1  0  0  0  0
 16 18  1  0  0  0  0
 14 15  2  0  0  0  0
 14 16  1  0  0  0  0
 11 12  1  0  0  0  0
 11 13  1  0  0  0  0
 11 14  1  0  0  0  0
  9 10  1  0  0  0  0
  9 11  1  0  0  0  0
  9 19  1  0  0  0  0
  7  8  1  0  0  0  0
  7  9  1  0  0  0  0
 23 24  1  0  0  0  0
 23 25  1  0  0  0  0
 23 26  1  0  0  0  0
 21 22  1  0  0  0  0
 21 23  1  0  0  0  0
M  END
$$$$
default_name
  -OEChem-02102213163D

 26 25  0     1  0  0  0  0  0999 V2000
   -3.0232   -3.6924    1.0038 H   0  0  0  0  0  0  0  0  0  0  0  0
   -3.0082   -2.6684    0.6318 C   0  0  0  0  0  0  0  0  0  0  0  0
   -3.6332   -2.0414    1.2658 H   0  0  0  0  0  0  0  0  0  0  0  0
   -3.3762   -2.6444   -0.3912 H   0  0  0  0  0  0  0  0  0  0  0  0
   -1.5882   -2.1554    0.6658 C   0  0  0  0  0  0  0  0  0  0  0  0
   -0.6832   -2.8764    1.0638 O   0  0  0  0  0  0  0  0  0  0  0  0
   -1.3952   -0.9084    0.2428 N   0  0  0  0  0  0  0  0  0  0  0  0
   -2.1972   -0.3644   -0.0422 H   0  0  0  0  0  0  0  0  0  0  0  0
   -0.1122   -0.1994    0.2658 C   0  0  1  0  0  0  0  0  0  0  0  0
    0.5635   -0.7260    0.9446 H   0  0  0  0  0  0  0  0  0  0  0  0
    0.4924   -0.2204   -1.1558 C   0  0  0  0  0  0  0  0  0  0  0  0
    0.6105    0.8033   -1.5092 H   0  0  0  0  0  0  0  0  0  0  0  0
    1.4762   -0.6861   -1.1208 H   0  0  0  0  0  0  0  0  0  0  0  0
   -0.3647   -0.9446   -2.1815 C   0  0  0  0  0  0  0  0  0  0  0  0
    0.0244   -1.9184   -2.8024 O   0  0  0  0  0  0  0  0  0  0  0  0
   -1.5716   -0.4842   -2.4046 N   0  0  0  0  0  0  0  0  0  0  0  0
   -2.1211   -0.9932   -3.0745 H   0  0  0  0  0  0  0  0  0  0  0  0
   -1.9220    0.3037   -1.8933 H   0  0  0  0  0  0  0  0  0  0  0  0
   -0.3126    1.2341    0.8050 C   0  0  0  0  0  0  0  0  0  0  0  0
   -1.2484    1.9199    0.3934 O   0  0  0  0  0  0  0  0  0  0  0  0
    0.5615    1.6875    1.7087 N   0  0  0  0  0  0  0  0  0  0  0  0
    1.3461    1.0849    1.9358 H   0  0  0  0  0  0  0  0  0  0  0  0
    0.5043    3.0121    2.3242 C   0  0  0  0  0  0  0  0  0  0  0  0
   -0.4649    3.1514    2.8080 H   0  0  0  0  0  0  0  0  0  0  0  0
    1.2959    3.1139    3.0678 H   0  0  0  0  0  0  0  0  0  0  0  0
    0.6273    3.7799    1.5584 H   0  0  0  0  0  0  0  0  0  0  0  0
  5  6  2  0  0  0  0
  5  7  1  0  0  0  0
  2  3  1  0  0  0  0
  2  4  1  0  0  0  0
  2  5  1  0  0  0  0
  1  2  1  0  0  0  0
 19 20  2  0  0  0  0
 19 21  1  0  0  0  0
 16 17  1  0  0  0  0
 16 18  1  0  0  0  0
 14 15  2  0  0  0  0
 14 16  1  0  0  0  0
 11 12  1  0  0  0  0
 11 13  1  0  0  0  0
 11 14  1  0  0  0  0
  9 10  1  0  0  0  0
  9 11  1  0  0  0  0
  9 19  1  0  0  0  0
  7  8  1  0  0  0  0
  7  9  1  0  0  0  0
 23 24  1  0  0  0  0
 23 25  1  0  0  0  0
 23 26  1  0  0  0  0
 21 22  1  0  0  0  0
 21 23  1  0  0  0  0
M  END
$$$$
default_name
  -OEChem-02102213163D

 26 25  0     1  0  0  0  0  0999 V2000
   -3.0232   -3.6924    1.0038 H   0  0  0  0  0  0  0  0  0  0  0  0
   -3.0082   -2.6684    0.6318 C   0  0  0  0  0  0  0  0  0  0  0  0
   -3.6332   -2.0414    1.2658 H   0  0  0  0  0  0  0  0  0  0  0  0
   -3.3762   -2.6444   -0.3912 H   0  0  0  0  0  0  0  0  0  0  0  0
   -1.5882   -2.1554    0.6658 C   0  0  0  0  0  0  0  0  0  0  0  0
   -0.6832   -2.8764    1.0638 O   0  0  0  0  0  0  0  0  0  0  0  0
   -1.3952   -0.9084    0.2428 N   0  0  0  0  0  0  0  0  0  0  0  0
   -2.1972   -0.3644   -0.0422 H   0  0  0  0  0  0  0  0  0  0  0  0
   -0.1122   -0.1994    0.2658 C   0  0  1  0  0  0  0  0  0  0  0  0
    0.5635   -0.7260    0.9446 H   0  0  0  0  0  0  0  0  0  0  0  0
    0.4924   -0.2204   -1.1558 C   0  0  0  0  0  0  0  0  0  0  0  0
    0.6105    0.8033   -1.5092 H   0  0  0  0  0  0  0  0  0  0  0  0
    1.4762   -0.6861   -1.1208 H   0  0  0  0  0  0  0  0  0  0  0  0
   -0.3647   -0.9446   -2.1815 C   0  0  0  0  0  0  0  0  0  0  0  0
   -0.0951   -2.0545   -2.6064 O   0  0  0  0  0  0  0  0  0  0  0  0
   -1.4343   -0.3316   -2.6270 N   0  0  0  0  0  0  0  0  0  0  0  0
   -1.9907   -0.8413   -3.2907 H   0  0  0  0  0  0  0  0  0  0  0  0
   -1.6882    0.5737   -2.2793 H   0  0  0  0  0  0  0  0  0  0  0  0
   -0.3126    1.2341    0.8050 C   0  0  0  0  0  0  0  0  0  0  0  0
   -1.2484    1.9199    0.3934 O   0  0  0  0  0  0  0  0  0  0  0  0
    0.5615    1.6875    1.7087 N   0  0  0  0  0  0  0  0  0  0  0  0
    1.3461    1.0849    1.9358 H   0  0  0  0  0  0  0  0  0  0  0  0
    0.5043    3.0121    2.3242 C   0  0  0  0  0  0  0  0  0  0  0  0
   -0.4649    3.1514    2.8080 H   0  0  0  0  0  0  0  0  0  0  0  0
    1.2959    3.1139    3.0678 H   0  0  0  0  0  0  0  0  0  0  0  0
    0.6273    3.7799    1.5584 H   0  0  0  0  0  0  0  0  0  0  0  0
  5  6  2  0  0  0  0
  5  7  1  0  0  0  0
  2  3  1  0  0  0  0
  2  4  1  0  0  0  0
  2  5  1  0  0  0  0
  1  2  1  0  0  0  0
 19 20  2  0  0  0  0
 19 21  1  0  0  0  0
 16 17  1  0  0  0  0
 16 18  1  0  0  0  0
 14 15  2  0  0  0  0
 14 16  1  0  0  0  0
 11 12  1  0  0  0  0
 11 13  1  0  0  0  0
 11 14  1  0  0  0  0
  9 10  1  0  0  0  0
  9 11  1  0  0  0  0
  9 19  1  0  0  0  0
  7  8  1  0  0  0  0
  7  9  1  0  0  0  0
 23 24  1  0  0  0  0
 23 25  1  0  0  0  0
 23 26  1  0  0  0  0
 21 22  1  0  0  0  0
 21 23  1  0  0  0  0
M  END
$$$$
default_name
  -OEChem-02102213163D

 26 25  0     1  0  0  0  0  0999 V2000
   -3.0232   -3.6924    1.0038 H   0  0  0  0  0  0  0  0  0  0  0  0
   -3.0082   -2.6684    0.6318 C   0  0  0  0  0  0  0  0  0  0  0  0
   -3.6332   -2.0414    1.2658 H   0  0  0  0  0  0  0  0  0  0  0  0
   -3.3762   -2.6444   -0.3912 H   0  0  0  0  0  0  0  0  0  0  0  0
   -1.5882   -2.1554    0.6658 C   0  0  0  0  0  0  0  0  0  0  0  0
   -0.6832   -2.8764    1.0638 O   0  0  0  0  0  0  0  0  0  0  0  0
   -1.3952   -0.9084    0.2428 N   0  0  0  0  0  0  0  0  0  0  0  0
   -2.1972   -0.3644   -0.0422 H   0  0  0  0  0  0  0  0  0  0  0  0
   -0.1122   -0.1994    0.2658 C   0  0  1  0  0  0  0  0  0  0  0  0
    0.5635   -0.7260    0.9446 H   0  0  0  0  0  0  0  0  0  0  0  0
    0.4924   -0.2204   -1.1558 C   0  0  0  0  0  0  0  0  0  0  0  0
    0.6105    0.8033   -1.5092 H   0  0  0  0  0  0  0  0  0  0  0  0
    1.4762   -0.6861   -1.1208 H   0  0  0  0  0  0  0  0  0  0  0  0
   -0.3647   -0.9446   -2.1815 C   0  0  0  0  0  0  0  0  0  0  0  0
   -0.2585   -2.1365   -2.4119 O   0  0  0  0  0  0  0  0  0  0  0  0
   -1.2477   -0.2407   -2.8472 N   0  0  0  0  0  0  0  0  0  0  0  0
   -1.8115   -0.7490   -3.5055 H   0  0  0  0  0  0  0  0  0  0  0  0
   -1.3676    0.7374   -2.6628 H   0  0  0  0  0  0  0  0  0  0  0  0
   -0.3126    1.2341    0.8050 C   0  0  0  0  0  0  0  0  0  0  0  0
   -1.2484    1.9199    0.3934 O   0  0  0  0  0  0  0  0  0  0  0  0
    0.5615    1.6875    1.7087 N   0  0  0  0  0  0  0  0  0  0  0  0
    1.3461    1.0849    1.9358 H   0  0  0  0  0  0  0  0  0  0  0  0
    0.5043    3.0121    2.3242 C   0  0  0  0  0  0  0  0  0  0  0  0
   -0.4649    3.1514    2.8080 H   0  0  0  0  0  0  0  0  0  0  0  0
    1.2959    3.1139    3.0678 H   0  0  0  0  0  0  0  0  0  0  0  0
    0.6273    3.7799    1.5584 H   0  0  0  0  0  0  0  0  0  0  0  0
  5  6  2  0  0  0  0
  5  7  1  0  0  0  0
  2  3  1  0  0  0  0
  2  4  1  0  0  0  0
  2  5  1  0  0  0  0
  1  2  1  0  0  0  0
 19 20  2  0  0  0  0
 19 21  1  0  0  0  0
 16 17  1  0  0  0  0
 16 18  1  0  0  0  0
 14 15  2  0  0  0  0
 14 16  1  0  0  0  0
 11 12  1  0  0  0  0
 11 13  1  0  0  0  0
 11 14  1  0  0  0  0
  9 10  1  0  0  0  0
  9 11  1  0  0  0  0
  9 19  1  0  0  0  0
  7  8  1  0  0  0  0
  7  9  1  0  0  0  0
 23 24  1  0  0  0  0
 23 25  1  0  0  0  0
 23 26  1  0  0  0  0
 21 22  1  0  0  0  0
 21 23  1  0  0  0  0
M  END
$$$$
default_name
  -OEChem-02102213163D

 26 25  0     1  0  0  0  0  0999 V2000
   -3.0232   -3.6924    1.0038 H   0  0  0  0  0  0  0  0  0  0  0  0
   -3.0082   -2.6684    0.6318 C   0  0  0  0  0  0  0  0  0  0  0  0
   -3.6332   -2.0414    1.2658 H   0  0  0  0  0  0  0  0  0  0  0  0
   -3.3762   -2.6444   -0.3912 H   0  0  0  0  0  0  0  0  0  0  0  0
   -1.5882   -2.1554    0.6658 C   0  0  0  0  0  0  0  0  0  0  0  0
   -0.6832   -2.8764    1.0638 O   0  0  0  0  0  0  0  0  0  0  0  0
   -1.3952   -0.9084    0.2428 N   0  0  0  0  0  0  0  0  0  0  0  0
   -2.1972   -0.3644   -0.0422 H   0  0  0  0  0  0  0  0  0  0  0  0
   -0.1122   -0.1994    0.2658 C   0  0  1  0  0  0  0  0  0  0  0  0
    0.5635   -0.7260    0.9446 H   0  0  0  0  0  0  0  0  0  0  0  0
    0.4924   -0.2204   -1.1558 C   0  0  0  0  0  0  0  0  0  0  0  0
    0.6105    0.8033   -1.5092 H   0  0  0  0  0  0  0  0  0  0  0  0
    1.4762   -0.6861   -1.1208 H   0  0  0  0  0  0  0  0  0  0  0  0
   -0.3647   -0.9446   -2.1815 C   0  0  0  0  0  0  0  0  0  0  0  0
   -0.4546   -2.1589   -2.2323 O   0  0  0  0  0  0  0  0  0  0  0  0
   -1.0244   -0.2175   -3.0502 N   0  0  0  0  0  0  0  0  0  0  0  0
   -1.5959   -0.7224   -3.7045 H   0  0  0  0  0  0  0  0  0  0  0  0
   -0.9821    0.7836   -3.0175 H   0  0  0  0  0  0  0  0  0  0  0  0
   -0.3126    1.2341    0.8050 C   0  0  0  0  0  0  0  0  0  0  0  0
   -1.2484    1.9199    0.3934 O   0  0  0  0  0  0  0  0  0  0  0  0
    0.5615    1.6875    1.7087 N   0  0  0  0  0  0  0  0  0  0  0  0
    1.3461    1.0849    1.9358 H   0  0  0  0  0  0  0  0  0  0  0  0
    0.5043    3.0121    2.3242 C   0  0  0  0  0  0  0  0  0  0  0  0
   -0.4649    3.1514    2.8080 H   0  0  0  0  0  0  0  0  0  0  0  0
    1.2959    3.1139    3.0678 H   0  0  0  0  0  0  0  0  0  0  0  0
    0.6273    3.7799    1.5584 H   0  0  0  0  0  0  0  0  0  0  0  0
  5  6  2  0  0  0  0
  5  7  1  0  0  0  0
  2  3  1  0  0  0  0
  2  4  1  0  0  0  0
  2  5  1  0  0  0  0
  1  2  1  0  0  0  0
 19 20  2  0  0  0  0
 19 21  1  0  0  0  0
 16 17  1  0  0  0  0
 16 18  1  0  0  0  0
 14 15  2  0  0  0  0
 14 16  1  0  0  0  0
 11 12  1  0  0  0  0
 11 13  1  0  0  0  0
 11 14  1  0  0  0  0
  9 10  1  0  0  0  0
  9 11  1  0  0  0  0
  9 19  1  0  0  0  0
  7  8  1  0  0  0  0
  7  9  1  0  0  0  0
 23 24  1  0  0  0  0
 23 25  1  0  0  0  0
 23 26  1  0  0  0  0
 21 22  1  0  0  0  0
 21 23  1  0  0  0  0
M  END
$$$$
default_name
  -OEChem-02102213163D

 26 25  0     1  0  0  0  0  0999 V2000
   -3.0232   -3.6924    1.0038 H   0  0  0  0  0  0  0  0  0  0  0  0
   -3.0082   -2.6684    0.6318 C   0  0  0  0  0  0  0  0  0  0  0  0
   -3.6332   -2.0414    1.2658 H   0  0  0  0  0  0  0  0  0  0  0  0
   -3.3762   -2.6444   -0.3912 H   0  0  0  0  0  0  0  0  0  0  0  0
   -1.5882   -2.1554    0.6658 C   0  0  0  0  0  0  0  0  0  0  0  0
   -0.6832   -2.8764    1.0638 O   0  0  0  0  0  0  0  0  0  0  0  0
   -1.3952   -0.9084    0.2428 N   0  0  0  0  0  0  0  0  0  0  0  0
   -2.1972   -0.3644   -0.0422 H   0  0  0  0  0  0  0  0  0  0  0  0
   -0.1122   -0.1994    0.2658 C   0  0  1  0  0  0  0  0  0  0  0  0
    0.5635   -0.7260    0.9446 H   0  0  0  0  0  0  0  0  0  0  0  0
    0.4924   -0.2204   -1.1558 C   0  0  0  0  0  0  0  0  0  0  0  0
    0.6105    0.8033   -1.5092 H   0  0  0  0  0  0  0  0  0  0  0  0
    1.4762   -0.6861   -1.1208 H   0  0  0  0  0  0  0  0  0  0  0  0
   -0.3647   -0.9446   -2.1815 C   0  0  0  0  0  0  0  0  0  0  0  0
   -0.6701   -2.1200   -2.0797 O   0  0  0  0  0  0  0  0  0  0  0  0
   -0.7796   -0.2638   -3.2221 N   0  0  0  0  0  0  0  0  0  0  0  0
   -1.3584   -0.7634   -3.8740 H   0  0  0  0  0  0  0  0  0  0  0  0
   -0.5579    0.7091   -3.3193 H   0  0  0  0  0  0  0  0  0  0  0  0
   -0.3126    1.2341    0.8050 C   0  0  0  0  0  0  0  0  0  0  0  0
   -1.2484    1.9199    0.3934 O   0  0  0  0  0  0  0  0  0  0  0  0
    0.5615    1.6875    1.7087 N   0  0  0  0  0  0  0  0  0  0  0  0
    1.3461    1.0849    1.9358 H   0  0  0  0  0  0  0  0  0  0  0  0
    0.5043    3.0121    2.3242 C   0  0  0  0  0  0  0  0  0  0  0  0
   -0.4649    3.1514    2.8080 H   0  0  0  0  0  0  0  0  0  0  0  0
    1.2959    3.1139    3.0678 H   0  0  0  0  0  0  0  0  0  0  0  0
    0.6273    3.7799    1.5584 H   0  0  0  0  0  0  0  0  0  0  0  0
  5  6  2  0  0  0  0
  5  7  1  0  0  0  0
  2  3  1  0  0  0  0
  2  4  1  0  0  0  0
  2  5  1  0  0  0  0
  1  2  1  0  0  0  0
 19 20  2  0  0  0  0
 19 21  1  0  0  0  0
 16 17  1  0  0  0  0
 16 18  1  0  0  0  0
 14 15  2  0  0  0  0
 14 16  1  0  0  0  0
 11 12  1  0  0  0  0
 11 13  1  0  0  0  0
 11 14  1  0  0  0  0
  9 10  1  0  0  0  0
  9 11  1  0  0  0  0
  9 19  1  0  0  0  0
  7  8  1  0  0  0  0
  7  9  1  0  0  0  0
 23 24  1  0  0  0  0
 23 25  1  0  0  0  0
 23 26  1  0  0  0  0
 21 22  1  0  0  0  0
 21 23  1  0  0  0  0
M  END
$$$$
default_name
  -OEChem-02102213163D

 26 25  0     1  0  0  0  0  0999 V2000
   -3.0232   -3.6924    1.0038 H   0  0  0  0  0  0  0  0  0  0  0  0
   -3.0082   -2.6684    0.6318 C   0  0  0  0  0  0  0  0  0  0  0  0
   -3.6332   -2.0414    1.2658 H   0  0  0  0  0  0  0  0  0  0  0  0
   -3.3762   -2.6444   -0.3912 H   0  0  0  0  0  0  0  0  0  0  0  0
   -1.5882   -2.1554    0.6658 C   0  0  0  0  0  0  0  0  0  0  0  0
   -0.6832   -2.8764    1.0638 O   0  0  0  0  0  0  0  0  0  0  0  0
   -1.3952   -0.9084    0.2428 N   0  0  0  0  0  0  0  0  0  0  0  0
   -2.1972   -0.3644   -0.0422 H   0  0  0  0  0  0  0  0  0  0  0  0
   -0.1122   -0.1994    0.2658 C   0  0  1  0  0  0  0  0  0  0  0  0
    0.5635   -0.7260    0.9446 H   0  0  0  0  0  0  0  0  0  0  0  0
    0.4924   -0.2204   -1.1558 C   0  0  0  0  0  0  0  0  0  0  0  0
    0.6105    0.8033   -1.5092 H   0  0  0  0  0  0  0  0  0  0  0  0
    1.4762   -0.6861   -1.1208 H   0  0  0  0  0  0  0  0  0  0  0  0
   -0.3647   -0.9446   -2.1815 C   0  0  0  0  0  0  0  0  0  0  0  0
   -0.8902   -2.0225   -1.9646 O   0  0  0  0  0  0  0  0  0  0  0  0
   -0.5300   -0.3763   -3.3512 N   0  0  0  0  0  0  0  0  0  0  0  0
   -1.1153   -0.8692   -4.0024 H   0  0  0  0  0  0  0  0  0  0  0  0
   -0.1240    0.5190   -3.5478 H   0  0  0  0  0  0  0  0  0  0  0  0
   -0.3126    1.2341    0.8050 C   0  0  0  0  0  0  0  0  0  0  0  0
   -1.2484    1.9199    0.3934 O   0  0  0  0  0  0  0  0  0  0  0  0
    0.5615    1.6875    1.7087 N   0  0  0  0  0  0  0  0  0  0  0  0
    1.3461    1.0849    1.9358 H   0  0  0  0  0  0  0  0  0  0  0  0
    0.5043    3.0121    2.3242 C   0  0  0  0  0  0  0  0  0  0  0  0
   -0.4649    3.1514    2.8080 H   0  0  0  0  0  0  0  0  0  0  0  0
    1.2959    3.1139    3.0678 H   0  0  0  0  0  0  0  0  0  0  0  0
    0.6273    3.7799    1.5584 H   0  0  0  0  0  0  0  0  0  0  0  0
  5  6  2  0  0  0  0
  5  7  1  0  0  0  0
  2  3  1  0  0  0  0
  2  4  1  0  0  0  0
  2  5  1  0  0  0  0
  1  2  1  0  0  0  0
 19 20  2  0  0  0  0
 19 21  1  0  0  0  0
 16 17  1  0  0  0  0
 16 18  1  0  0  0  0
 14 15  2  0  0  0  0
 14 16  1  0  0  0  0
 11 12  1  0  0  0  0
 11 13  1  0  0  0  0
 11 14  1  0  0  0  0
  9 10  1  0  0  0  0
  9 11  1  0  0  0  0
  9 19  1  0  0  0  0
  7  8  1  0  0  0  0
  7  9  1  0  0  0  0
 23 24  1  0  0  0  0
 23 25  1  0  0  0  0
 23 26  1  0  0  0  0
 21 22  1  0  0  0  0
 21 23  1  0  0  0  0
M  END
$$$$
default_name
  -OEChem-02102213163D

 26 25  0     1  0  0  0  0  0999 V2000
   -3.0232   -3.6924    1.0038 H   0  0  0  0  0  0  0  0  0  0  0  0
   -3.0082   -2.6684    0.6318 C   0  0  0  0  0  0  0  0  0  0  0  0
   -3.6332   -2.0414    1.2658 H   0  0  0  0  0  0  0  0  0  0  0  0
   -3.3762   -2.6444   -0.3912 H   0  0  0  0  0  0  0  0  0  0  0  0
   -1.5882   -2.1554    0.6658 C   0  0  0  0  0  0  0  0  0  0  0  0
   -0.6832   -2.8764    1.0638 O   0  0  0  0  0  0  0  0  0  0  0  0
   -1.3952   -0.9084    0.2428 N   0  0  0  0  0  0  0  0  0  0  0  0
   -2.1972   -0.3644   -0.0422 H   0  0  0  0  0  0  0  0  0  0  0  0
   -0.1122   -0.1994    0.2658 C   0  0  1  0  0  0  0  0  0  0  0  0
    0.5635   -0.7260    0.9446 H   0  0  0  0  0  0  0  0  0  0  0  0
    0.4924   -0.2204   -1.1558 C   0  0  0  0  0  0  0  0  0  0  0  0
    0.6105    0.8033   -1.5092 H   0  0  0  0  0  0  0  0  0  0  0  0
    1.4762   -0.6861   -1.1208 H   0  0  0  0  0  0  0  0  0  0  0  0
   -0.3647   -0.9446   -2.1815 C   0  0  0  0  0  0  0  0  0  0  0  0
   -1.1000   -1.8731   -1.8947 O   0  0  0  0  0  0  0  0  0  0  0  0
   -0.2927   -0.5474   -3.4287 N   0  0  0  0  0  0  0  0  0  0  0  0
   -0.8831   -1.0326   -4.0811 H   0  0  0  0  0  0  0  0  0  0  0  0
    0.2901    0.2263   -3.6871 H   0  0  0  0  0  0  0  0  0  0  0  0
   -0.3126    1.2341    0.8050 C   0  0  0  0  0  0  0  0  0  0  0  0
   -1.2484    1.9199    0.3934 O   0  0  0  0  0  0  0  0  0  0  0  0
    0.5615    1.6875    1.7087 N   0  0  0  0  0  0  0  0  0  0  0  0
    1.3461    1.0849    1.9358 H   0  0  0  0  0  0  0  0  0  0  0  0
    0.5043    3.0121    2.3242 C   0  0  0  0  0  0  0  0  0  0  0  0
   -0.4649    3.1514    2.8080 H   0  0  0  0  0  0  0  0  0  0  0  0
    1.2959    3.1139    3.0678 H   0  0  0  0  0  0  0  0  0  0  0  0
    0.6273    3.7799    1.5584 H   0  0  0  0  0  0  0  0  0  0  0  0
  5  6  2  0  0  0  0
  5  7  1  0  0  0  0
  2  3  1  0  0  0  0
  2  4  1  0  0  0  0
  2  5  1  0  0  0  0
  1  2  1  0  0  0  0
 19 20  2  0  0  0  0
 19 21  1  0  0  0  0
 16 17  1  0  0  0  0
 16 18  1  0  0  0  0
 14 15  2  0  0  0  0
 14 16  1  0  0  0  0
 11 12  1  0  0  0  0
 11 13  1  0  0  0  0
 11 14  1  0  0  0  0
  9 10  1  0  0  0  0
  9 11  1  0  0  0  0
  9 19  1  0  0  0  0
  7  8  1  0  0  0  0
  7  9  1  0  0  0  0
 23 24  1  0  0  0  0
 23 25  1  0  0  0  0
 23 26  1  0  0  0  0
 21 22  1  0  0  0  0
 21 23  1  0  0  0  0
M  END
$$$$
default_name
  -OEChem-02102213163D

 26 25  0     1  0  0  0  0  0999 V2000
   -3.0232   -3.6924    1.0038 H   0  0  0  0  0  0  0  0  0  0  0  0
   -3.0082   -2.6684    0.6318 C   0  0  0  0  0  0  0  0  0  0  0  0
   -3.6332   -2.0414    1.2658 H   0  0  0  0  0  0  0  0  0  0  0  0
   -3.3762   -2.6444   -0.3912 H   0  0  0  0  0  0  0  0  0  0  0  0
   -1.5882   -2.1554    0.6658 C   0  0  0  0  0  0  0  0  0  0  0  0
   -0.6832   -2.8764    1.0638 O   0  0  0  0  0  0  0  0  0  0  0  0
   -1.3952   -0.9084    0.2428 N   0  0  0  0  0  0  0  0  0  0  0  0
   -2.1972   -0.3644   -0.0422 H   0  0  0  0  0  0  0  0  0  0  0  0
   -0.1122   -0.1994    0.2658 C   0  0  1  0  0  0  0  0  0  0  0  0
    0.5635   -0.7260    0.9446 H   0  0  0  0  0  0  0  0  0  0  0  0
    0.4924   -0.2204   -1.1558 C   0  0  0  0  0  0  0  0  0  0  0  0
    0.6105    0.8033   -1.5092 H   0  0  0  0  0  0  0  0  0  0  0  0
    1.4762   -0.6861   -1.1208 H   0  0  0  0  0  0  0  0  0  0  0  0
   -0.3647   -0.9446   -2.1815 C   0  0  0  0  0  0  0  0  0  0  0  0
   -1.2852   -1.6820   -1.8749 O   0  0  0  0  0  0  0  0  0  0  0  0
   -0.0838   -0.7654   -3.4494 N   0  0  0  0  0  0  0  0  0  0  0  0
   -0.6777   -1.2425   -4.1046 H   0  0  0  0  0  0  0  0  0  0  0  0
    0.6562   -0.1491   -3.7280 H   0  0  0  0  0  0  0  0  0  0  0  0
   -0.3126    1.2341    0.8050 C   0  0  0  0  0  0  0  0  0  0  0  0
   -1.2484    1.9199    0.3934 O   0  0  0  0  0  0  0  0  0  0  0  0
    0.5615    1.6875    1.7087 N   0  0  0  0  0  0  0  0  0  0  0  0
    1.3461    1.0849    1.9358 H   0  0  0  0  0  0  0  0  0  0  0  0
    0.5043    3.0121    2.3242 C   0  0  0  0  0  0  0  0  0  0  0  0
   -0.4649    3.1514    2.8080 H   0  0  0  0  0  0  0  0  0  0  0  0
    1.2959    3.1139    3.0678 H   0  0  0  0  0  0  0  0  0  0  0  0
    0.6273    3.7799    1.5584 H   0  0  0  0  0  0  0  0  0  0  0  0
  5  6  2  0  0  0  0
  5  7  1  0  0  0  0
  2  3  1  0  0  0  0
  2  4  1  0  0  0  0
  2  5  1  0  0  0  0
  1  2  1  0  0  0  0
 19 20  2  0  0  0  0
 19 21  1  0  0  0  0
 16 17  1  0  0  0  0
 16 18  1  0  0  0  0
 14 15  2  0  0  0  0
 14 16  1  0  0  0  0
 11 12  1  0  0  0  0
 11 13  1  0  0  0  0
 11 14  1  0  0  0  0
  9 10  1  0  0  0  0
  9 11  1  0  0  0  0
  9 19  1  0  0  0  0
  7  8  1  0  0  0  0
  7  9  1  0  0  0  0
 23 24  1  0  0  0  0
 23 25  1  0  0  0  0
 23 26  1  0  0  0  0
 21 22  1  0  0  0  0
 21 23  1  0  0  0  0
M  END
$$$$
default_name
  -OEChem-02102213163D

 26 25  0     1  0  0  0  0  0999 V2000
   -3.0232   -3.6924    1.0038 H   0  0  0  0  0  0  0  0  0  0  0  0
   -3.0082   -2.6684    0.6318 C   0  0  0  0  0  0  0  0  0  0  0  0
   -3.6332   -2.0414    1.2658 H   0  0  0  0  0  0  0  0  0  0  0  0
   -3.3762   -2.6444   -0.3912 H   0  0  0  0  0  0  0  0  0  0  0  0
   -1.5882   -2.1554    0.6658 C   0  0  0  0  0  0  0  0  0  0  0  0
   -0.6832   -2.8764    1.0638 O   0  0  0  0  0  0  0  0  0  0  0  0
   -1.3952   -0.9084    0.2428 N   0  0  0  0  0  0  0  0  0  0  0  0
   -2.1972   -0.3644   -0.0422 H   0  0  0  0  0  0  0  0  0  0  0  0
   -0.1122   -0.1994    0.2658 C   0  0  1  0  0  0  0  0  0  0  0  0
    0.5635   -0.7260    0.9446 H   0  0  0  0  0  0  0  0  0  0  0  0
    0.4924   -0.2204   -1.1558 C   0  0  0  0  0  0  0  0  0  0  0  0
    0.6105    0.8033   -1.5092 H   0  0  0  0  0  0  0  0  0  0  0  0
    1.4762   -0.6861   -1.1208 H   0  0  0  0  0  0  0  0  0  0  0  0
   -0.3647   -0.9446   -2.1815 C   0  0  0  0  0  0  0  0  0  0  0  0
   -1.4332   -1.4621   -1.9065 O   0  0  0  0  0  0  0  0  0  0  0  0
    0.0825   -1.0155   -3.4117 N   0  0  0  0  0  0  0  0  0  0  0  0
   -0.5130   -1.4845   -4.0713 H   0  0  0  0  0  0  0  0  0  0  0  0
    0.9492   -0.5815   -3.6676 H   0  0  0  0  0  0  0  0  0  0  0  0
   -0.3126    1.2341    0.8050 C   0  0  0  0  0  0  0  0  0  0  0  0
   -1.2484    1.9199    0.3934 O   0  0  0  0  0  0  0  0  0  0  0  0
    0.5615    1.6875    1.7087 N   0  0  0  0  0  0  0  0  0  0  0  0
    1.3461    1.0849    1.9358 H   0  0  0  0  0  0  0  0  0  0  0  0
    0.5043    3.0121    2.3242 C   0  0  0  0  0  0  0  0  0  0  0  0
   -0.4649    3.1514    2.8080 H   0  0  0  0  0  0  0  0  0  0  0  0
    1.2959    3.1139    3.0678 H   0  0  0  0  0  0  0  0  0  0  0  0
    0.6273    3.7799    1.5584 H   0  0  0  0  0  0  0  0  0  0  0  0
  5  6  2  0  0  0  0
  5  7  1  0  0  0  0
  2  3  1  0  0  0  0
  2  4  1  0  0  0  0
  2  5  1  0  0  0  0
  1  2  1  0  0  0  0
 19 20  2  0  0  0  0
 19 21  1  0  0  0  0
 16 17  1  0  0  0  0
 16 18  1  0  0  0  0
 14 15  2  0  0  0  0
 14 16  1  0  0  0  0
 11 12  1  0  0  0  0
 11 13  1  0  0  0  0
 11 14  1  0  0  0  0
  9 10  1  0  0  0  0
  9 11  1  0  0  0  0
  9 19  1  0  0  0  0
  7  8  1  0  0  0  0
  7  9  1  0  0  0  0
 23 24  1  0  0  0  0
 23 25  1  0  0  0  0
 23 26  1  0  0  0  0
 21 22  1  0  0  0  0
 21 23  1  0  0  0  0
M  END
$$$$
default_name
  -OEChem-02102213163D

 26 25  0     1  0  0  0  0  0999 V2000
   -3.0232   -3.6924    1.0038 H   0  0  0  0  0  0  0  0  0  0  0  0
   -3.0082   -2.6684    0.6318 C   0  0  0  0  0  0  0  0  0  0  0  0
   -3.6332   -2.0414    1.2658 H   0  0  0  0  0  0  0  0  0  0  0  0
   -3.3762   -2.6444   -0.3912 H   0  0  0  0  0  0  0  0  0  0  0  0
   -1.5882   -2.1554    0.6658 C   0  0  0  0  0  0  0  0  0  0  0  0
   -0.6832   -2.8764    1.0638 O   0  0  0  0  0  0  0  0  0  0  0  0
   -1.3952   -0.9084    0.2428 N   0  0  0  0  0  0  0  0  0  0  0  0
   -2.1972   -0.3644   -0.0422 H   0  0  0  0  0  0  0  0  0  0  0  0
   -0.1122   -0.1994    0.2658 C   0  0  1  0  0  0  0  0  0  0  0  0
    0.5635   -0.7260    0.9446 H   0  0  0  0  0  0  0  0  0  0  0  0
    0.4924   -0.2204   -1.1558 C   0  0  0  0  0  0  0  0  0  0  0  0
    0.6105    0.8033   -1.5092 H   0  0  0  0  0  0  0  0  0  0  0  0
    1.4762   -0.6861   -1.1208 H   0  0  0  0  0  0  0  0  0  0  0  0
   -0.3647   -0.9446   -2.1815 C   0  0  0  0  0  0  0  0  0  0  0  0
   -1.5338   -1.2285   -1.9874 O   0  0  0  0  0  0  0  0  0  0  0  0
    0.1948   -1.2806   -3.3184 N   0  0  0  0  0  0  0  0  0  0  0  0
   -0.4003   -1.7422   -3.9836 H   0  0  0  0  0  0  0  0  0  0  0  0
    1.1494   -1.0416   -3.5100 H   0  0  0  0  0  0  0  0  0  0  0  0
   -0.3126    1.2341    0.8050 C   0  0  0  0  0  0  0  0  0  0  0  0
   -1.2484    1.9199    0.3934 O   0  0  0  0  0  0  0  0  0  0  0  0
    0.5615    1.6875    1.7087 N   0  0  0  0  0  0  0  0  0  0  0  0
    1.3461    1.0849    1.9358 H   0  0  0  0  0  0  0  0  0  0  0  0
    0.5043    3.0121    2.3242 C   0  0  0  0  0  0  0  0  0  0  0  0
   -0.4649    3.1514    2.8080 H   0  0  0  0  0  0  0  0  0  0  0  0
    1.2959    3.1139    3.0678 H   0  0  0  0  0  0  0  0  0  0  0  0
    0.6273    3.7799    1.5584 H   0  0  0  0  0  0  0  0  0  0  0  0
  5  6  2  0  0  0  0
  5  7  1  0  0  0  0
  2  3  1  0  0  0  0
  2  4  1  0  0  0  0
  2  5  1  0  0  0  0
  1  2  1  0  0  0  0
 19 20  2  0  0  0  0
 19 21  1  0  0  0  0
 16 17  1  0  0  0  0
 16 18  1  0  0  0  0
 14 15  2  0  0  0  0
 14 16  1  0  0  0  0
 11 12  1  0  0  0  0
 11 13  1  0  0  0  0
 11 14  1  0  0  0  0
  9 10  1  0  0  0  0
  9 11  1  0  0  0  0
  9 19  1  0  0  0  0
  7  8  1  0  0  0  0
  7  9  1  0  0  0  0
 23 24  1  0  0  0  0
 23 25  1  0  0  0  0
 23 26  1  0  0  0  0
 21 22  1  0  0  0  0
 21 23  1  0  0  0  0
M  END
$$$$
default_name
  -OEChem-02102213163D

 26 25  0     1  0  0  0  0  0999 V2000
   -3.0232   -3.6924    1.0038 H   0  0  0  0  0  0  0  0  0  0  0  0
   -3.0082   -2.6684    0.6318 C   0  0  0  0  0  0  0  0  0  0  0  0
   -3.6332   -2.0414    1.2658 H   0  0  0  0  0  0  0  0  0  0  0  0
   -3.3762   -2.6444   -0.3912 H   0  0  0  0  0  0  0  0  0  0  0  0
   -1.5882   -2.1554    0.6658 C   0  0  0  0  0  0  0  0  0  0  0  0
   -0.6832   -2.8764    1.0638 O   0  0  0  0  0  0  0  0  0  0  0  0
   -1.3952   -0.9084    0.2428 N   0  0  0  0  0  0  0  0  0  0  0  0
   -2.1972   -0.3644   -0.0422 H   0  0  0  0  0  0  0  0  0  0  0  0
   -0.1122   -0.1994    0.2658 C   0  0  1  0  0  0  0  0  0  0  0  0
    0.5635   -0.7260    0.9446 H   0  0  0  0  0  0  0  0  0  0  0  0
    0.4924   -0.2204   -1.1558 C   0  0  0  0  0  0  0  0  0  0  0  0
    0.6105    0.8033   -1.5092 H   0  0  0  0  0  0  0  0  0  0  0  0
    1.4762   -0.6861   -1.1208 H   0  0  0  0  0  0  0  0  0  0  0  0
   -0.3647   -0.9446   -2.1815 C   0  0  0  0  0  0  0  0  0  0  0  0
   -1.5802   -0.9971   -2.1119 O   0  0  0  0  0  0  0  0  0  0  0  0
    0.2454   -1.5426   -3.1757 N   0  0  0  0  0  0  0  0  0  0  0  0
   -0.3473   -1.9979   -3.8473 H   0  0  0  0  0  0  0  0  0  0  0  0
    1.2429   -1.4980   -3.2660 H   0  0  0  0  0  0  0  0  0  0  0  0
   -0.3126    1.2341    0.8050 C   0  0  0  0  0  0  0  0  0  0  0  0
   -1.2484    1.9199    0.3934 O   0  0  0  0  0  0  0  0  0  0  0  0
    0.5615    1.6875    1.7087 N   0  0  0  0  0  0  0  0  0  0  0  0
    1.3461    1.0849    1.9358 H   0  0  0  0  0  0  0  0  0  0  0  0
    0.5043    3.0121    2.3242 C   0  0  0  0  0  0  0  0  0  0  0  0
   -0.4649    3.1514    2.8080 H   0  0  0  0  0  0  0  0  0  0  0  0
    1.2959    3.1139    3.0678 H   0  0  0  0  0  0  0  0  0  0  0  0
    0.6273    3.7799    1.5584 H   0  0  0  0  0  0  0  0  0  0  0  0
  5  6  2  0  0  0  0
  5  7  1  0  0  0  0
  2  3  1  0  0  0  0
  2  4  1  0  0  0  0
  2  5  1  0  0  0  0
  1  2  1  0  0  0  0
 19 20  2  0  0  0  0
 19 21  1  0  0  0  0
 16 17  1  0  0  0  0
 16 18  1  0  0  0  0
 14 15  2  0  0  0  0
 14 16  1  0  0  0  0
 11 12  1  0  0  0  0
 11 13  1  0  0  0  0
 11 14  1  0  0  0  0
  9 10  1  0  0  0  0
  9 11  1  0  0  0  0
  9 19  1  0  0  0  0
  7  8  1  0  0  0  0
  7  9  1  0  0  0  0
 23 24  1  0  0  0  0
 23 25  1  0  0  0  0
 23 26  1  0  0  0  0
 21 22  1  0  0  0  0
 21 23  1  0  0  0  0
M  END
$$$$
default_name
  -OEChem-02102213163D

 26 25  0     1  0  0  0  0  0999 V2000
   -3.0232   -3.6924    1.0038 H   0  0  0  0  0  0  0  0  0  0  0  0
   -3.0082   -2.6684    0.6318 C   0  0  0  0  0  0  0  0  0  0  0  0
   -3.6332   -2.0414    1.2658 H   0  0  0  0  0  0  0  0  0  0  0  0
   -3.3762   -2.6444   -0.3912 H   0  0  0  0  0  0  0  0  0  0  0  0
   -1.5882   -2.1554    0.6658 C   0  0  0  0  0  0  0  0  0  0  0  0
   -0.6832   -2.8764    1.0638 O   0  0  0  0  0  0  0  0  0  0  0  0
   -1.3952   -0.9084    0.2428 N   0  0  0  0  0  0  0  0  0  0  0  0
   -2.1972   -0.3644   -0.0422 H   0  0  0  0  0  0  0  0  0  0  0  0
   -0.1122   -0.1994    0.2658 C   0  0  1  0  0  0  0  0  0  0  0  0
    0.5635   -0.7260    0.9446 H   0  0  0  0  0  0  0  0  0  0  0  0
    0.4924   -0.2204   -1.1558 C   0  0  0  0  0  0  0  0  0  0  0  0
    0.6105    0.8033   -1.5092 H   0  0  0  0  0  0  0  0  0  0  0  0
    1.4762   -0.6861   -1.1208 H   0  0  0  0  0  0  0  0  0  0  0  0
   -0.3647   -0.9446   -2.1815 C   0  0  0  0  0  0  0  0  0  0  0  0
   -1.5693   -0.7836   -2.2717 O   0  0  0  0  0  0  0  0  0  0  0  0
    0.2310   -1.7838   -2.9934 N   0  0  0  0  0  0  0  0  0  0  0  0
   -0.3575   -2.2344   -3.6719 H   0  0  0  0  0  0  0  0  0  0  0  0
    1.2234   -1.9196   -2.9521 H   0  0  0  0  0  0  0  0  0  0  0  0
   -0.3126    1.2341    0.8050 C   0  0  0  0  0  0  0  0  0  0  0  0
   -1.2484    1.9199    0.3934 O   0  0  0  0  0  0  0  0  0  0  0  0
    0.5615    1.6875    1.7087 N   0  0  0  0  0  0  0  0  0  0  0  0
    1.3461    1.0849    1.9358 H   0  0  0  0  0  0  0  0  0  0  0  0
    0.5043    3.0121    2.3242 C   0  0  0  0  0  0  0  0  0  0  0  0
   -0.4649    3.1514    2.8080 H   0  0  0  0  0  0  0  0  0  0  0  0
    1.2959    3.1139    3.0678 H   0  0  0  0  0  0  0  0  0  0  0  0
    0.6273    3.7799    1.5584 H   0  0  0  0  0  0  0  0  0  0  0  0
  5  6  2  0  0  0  0
  5  7  1  0  0  0  0
  2  3  1  0  0  0  0
  2  4  1  0  0  0  0
  2  5  1  0  0  0  0
  1  2  1  0  0  0  0
 19 20  2  0  0  0  0
 19 21  1  0  0  0  0
 16 17  1  0  0  0  0
 16 18  1  0  0  0  0
 14 15  2  0  0  0  0
 14 16  1  0  0  0  0
 11 12  1  0  0  0  0
 11 13  1  0  0  0  0
 11 14  1  0  0  0  0
  9 10  1  0  0  0  0
  9 11  1  0  0  0  0
  9 19  1  0  0  0  0
  7  8  1  0  0  0  0
  7  9  1  0  0  0  0
 23 24  1  0  0  0  0
 23 25  1  0  0  0  0
 23 26  1  0  0  0  0
 21 22  1  0  0  0  0
 21 23  1  0  0  0  0
M  END
$$$$
default_name
  -OEChem-02102213163D

 26 25  0     1  0  0  0  0  0999 V2000
   -3.0232   -3.6924    1.0038 H   0  0  0  0  0  0  0  0  0  0  0  0
   -3.0082   -2.6684    0.6318 C   0  0  0  0  0  0  0  0  0  0  0  0
   -3.6332   -2.0414    1.2658 H   0  0  0  0  0  0  0  0  0  0  0  0
   -3.3762   -2.6444   -0.3912 H   0  0  0  0  0  0  0  0  0  0  0  0
   -1.5882   -2.1554    0.6658 C   0  0  0  0  0  0  0  0  0  0  0  0
   -0.6832   -2.8764    1.0638 O   0  0  0  0  0  0  0  0  0  0  0  0
   -1.3952   -0.9084    0.2428 N   0  0  0  0  0  0  0  0  0  0  0  0
   -2.1972   -0.3644   -0.0422 H   0  0  0  0  0  0  0  0  0  0  0  0
   -0.1122   -0.1994    0.2658 C   0  0  1  0  0  0  0  0  0  0  0  0
    0.5635   -0.7260    0.9446 H   0  0  0  0  0  0  0  0  0  0  0  0
    0.4924   -0.2204   -1.1558 C   0  0  0  0  0  0  0  0  0  0  0  0
    0.6105    0.8033   -1.5092 H   0  0  0  0  0  0  0  0  0  0  0  0
    1.4762   -0.6861   -1.1208 H   0  0  0  0  0  0  0  0  0  0  0  0
   -0.3647   -0.9446   -2.1815 C   0  0  0  0  0  0  0  0  0  0  0  0
   -1.5018   -0.6027   -2.4559 O   0  0  0  0  0  0  0  0  0  0  0  0
    0.1525   -1.9876   -2.7839 N   0  0  0  0  0  0  0  0  0  0  0  0
   -0.4303   -2.4354   -3.4691 H   0  0  0  0  0  0  0  0  0  0  0  0
    1.0924   -2.2775   -2.5898 H   0  0  0  0  0  0  0  0  0  0  0  0
   -0.3126    1.2341    0.8050 C   0  0  0  0  0  0  0  0  0  0  0  0
   -1.2484    1.9199    0.3934 O   0  0  0  0  0  0  0  0  0  0  0  0
    0.5615    1.6875    1.7087 N   0  0  0  0  0  0  0  0  0  0  0  0
    1.3461    1.0849    1.9358 H   0  0  0  0  0  0  0  0  0  0  0  0
    0.5043    3.0121    2.3242 C   0  0  0  0  0  0  0  0  0  0  0  0
   -0.4649    3.1514    2.8080 H   0  0  0  0  0  0  0  0  0  0  0  0
    1.2959    3.1139    3.0678 H   0  0  0  0  0  0  0  0  0  0  0  0
    0.6273    3.7799    1.5584 H   0  0  0  0  0  0  0  0  0  0  0  0
  5  6  2  0  0  0  0
  5  7  1  0  0  0  0
  2  3  1  0  0  0  0
  2  4  1  0  0  0  0
  2  5  1  0  0  0  0
  1  2  1  0  0  0  0
 19 20  2  0  0  0  0
 19 21  1  0  0  0  0
 16 17  1  0  0  0  0
 16 18  1  0  0  0  0
 14 15  2  0  0  0  0
 14 16  1  0  0  0  0
 11 12  1  0  0  0  0
 11 13  1  0  0  0  0
 11 14  1  0  0  0  0
  9 10  1  0  0  0  0
  9 11  1  0  0  0  0
  9 19  1  0  0  0  0
  7  8  1  0  0  0  0
  7  9  1  0  0  0  0
 23 24  1  0  0  0  0
 23 25  1  0  0  0  0
 23 26  1  0  0  0  0
 21 22  1  0  0  0  0
 21 23  1  0  0  0  0
M  END
$$$$
default_name
  -OEChem-02102213163D

 26 25  0     1  0  0  0  0  0999 V2000
   -3.0232   -3.6924    1.0038 H   0  0  0  0  0  0  0  0  0  0  0  0
   -3.0082   -2.6684    0.6318 C   0  0  0  0  0  0  0  0  0  0  0  0
   -3.6332   -2.0414    1.2658 H   0  0  0  0  0  0  0  0  0  0  0  0
   -3.3762   -2.6444   -0.3912 H   0  0  0  0  0  0  0  0  0  0  0  0
   -1.5882   -2.1554    0.6658 C   0  0  0  0  0  0  0  0  0  0  0  0
   -0.6832   -2.8764    1.0638 O   0  0  0  0  0  0  0  0  0  0  0  0
   -1.3952   -0.9084    0.2428 N   0  0  0  0  0  0  0  0  0  0  0  0
   -2.1972   -0.3644   -0.0422 H   0  0  0  0  0  0  0  0  0  0  0  0
   -0.1122   -0.1994    0.2658 C   0  0  1  0  0  0  0  0  0  0  0  0
    0.5635   -0.7260    0.9446 H   0  0  0  0  0  0  0  0  0  0  0  0
    0.4924   -0.2204   -1.1558 C   0  0  0  0  0  0  0  0  0  0  0  0
    0.6105    0.8033   -1.5092 H   0  0  0  0  0  0  0  0  0  0  0  0
    1.4762   -0.6861   -1.1208 H   0  0  0  0  0  0  0  0  0  0  0  0
   -0.3647   -0.9446   -2.1815 C   0  0  0  0  0  0  0  0  0  0  0  0
   -1.3823   -0.4666   -2.6519 O   0  0  0  0  0  0  0  0  0  0  0  0
    0.0153   -2.1402   -2.5615 N   0  0  0  0  0  0  0  0  0  0  0  0
   -0.5607   -2.5872   -3.2530 H   0  0  0  0  0  0  0  0  0  0  0  0
    0.8586   -2.5476   -2.2038 H   0  0  0  0  0  0  0  0  0  0  0  0
   -0.3126    1.2341    0.8050 C   0  0  0  0  0  0  0  0  0  0  0  0
   -1.2484    1.9199    0.3934 O   0  0  0  0  0  0  0  0  0  0  0  0
    0.5615    1.6875    1.7087 N   0  0  0  0  0  0  0  0  0  0  0  0
    1.3461    1.0849    1.9358 H   0  0  0  0  0  0  0  0  0  0  0  0
    0.5043    3.0121    2.3242 C   0  0  0  0  0  0  0  0  0  0  0  0
   -0.4649    3.1514    2.8080 H   0  0  0  0  0  0  0  0  0  0  0  0
    1.2959    3.1139    3.0678 H   0  0  0  0  0  0  0  0  0  0  0  0
    0.6273    3.7799    1.5584 H   0  0  0  0  0  0  0  0  0  0  0  0
  5  6  2  0  0  0  0
  5  7  1  0  0  0  0
  2  3  1  0  0  0  0
  2  4  1  0  0  0  0
  2  5  1  0  0  0  0
  1  2  1  0  0  0  0
 19 20  2  0  0  0  0
 19 21  1  0  0  0  0
 16 17  1  0  0  0  0
 16 18  1  0  0  0  0
 14 15  2  0  0  0  0
 14 16  1  0  0  0  0
 11 12  1  0  0  0  0
 11 13  1  0  0  0  0
 11 14  1  0  0  0  0
  9 10  1  0  0  0  0
  9 11  1  0  0  0  0
  9 19  1  0  0  0  0
  7  8  1  0  0  0  0
  7  9  1  0  0  0  0
 23 24  1  0  0  0  0
 23 25  1  0  0  0  0
 23 26  1  0  0  0  0
 21 22  1  0  0  0  0
 21 23  1  0  0  0  0
M  END
$$$$
default_name
  -OEChem-02102213163D

 26 25  0     1  0  0  0  0  0999 V2000
   -3.0232   -3.6924    1.0038 H   0  0  0  0  0  0  0  0  0  0  0  0
   -3.0082   -2.6684    0.6318 C   0  0  0  0  0  0  0  0  0  0  0  0
   -3.6332   -2.0414    1.2658 H   0  0  0  0  0  0  0  0  0  0  0  0
   -3.3762   -2.6444   -0.3912 H   0  0  0  0  0  0  0  0  0  0  0  0
   -1.5882   -2.1554    0.6658 C   0  0  0  0  0  0  0  0  0  0  0  0
   -0.6832   -2.8764    1.0638 O   0  0  0  0  0  0  0  0  0  0  0  0
   -1.3952   -0.9084    0.2428 N   0  0  0  0  0  0  0  0  0  0  0  0
   -2.1972   -0.3644   -0.0422 H   0  0  0  0  0  0  0  0  0  0  0  0
   -0.1122   -0.1994    0.2658 C   0  0  1  0  0  0  0  0  0  0  0  0
    0.5635   -0.7260    0.9446 H   0  0  0  0  0  0  0  0  0  0  0  0
    0.4924   -0.2204   -1.1558 C   0  0  0  0  0  0  0  0  0  0  0  0
    0.6105    0.8033   -1.5092 H   0  0  0  0  0  0  0  0  0  0  0  0
    1.4762   -0.6861   -1.1208 H   0  0  0  0  0  0  0  0  0  0  0  0
   -0.3647   -0.9446   -2.1815 C   0  0  0  0  0  0  0  0  0  0  0  0
   -1.2189   -0.3845   -2.8463 O   0  0  0  0  0  0  0  0  0  0  0  0
   -0.1714   -2.2312   -2.3413 N   0  0  0  0  0  0  0  0  0  0  0  0
   -0.7398   -2.6796   -3.0381 H   0  0  0  0  0  0  0  0  0  0  0  0
    0.5380   -2.7113   -1.8204 H   0  0  0  0  0  0  0  0  0  0  0  0
   -0.3126    1.2341    0.8050 C   0  0  0  0  0  0  0  0  0  0  0  0
   -1.2484    1.9199    0.3934 O   0  0  0  0  0  0  0  0  0  0  0  0
    0.5615    1.6875    1.7087 N   0  0  0  0  0  0  0  0  0  0  0  0
    1.3461    1.0849    1.9358 H   0  0  0  0  0  0  0  0  0  0  0  0
    0.5043    3.0121    2.3242 C   0  0  0  0  0  0  0  0  0  0  0  0
   -0.4649    3.1514    2.8080 H   0  0  0  0  0  0  0  0  0  0  0  0
    1.2959    3.1139    3.0678 H   0  0  0  0  0  0  0  0  0  0  0  0
    0.6273    3.7799    1.5584 H   0  0  0  0  0  0  0  0  0  0  0  0
  5  6  2  0  0  0  0
  5  7  1  0  0  0  0
  2  3  1  0  0  0  0
  2  4  1  0  0  0  0
  2  5  1  0  0  0  0
  1  2  1  0  0  0  0
 19 20  2  0  0  0  0
 19 21  1  0  0  0  0
 16 17  1  0  0  0  0
 16 18  1  0  0  0  0
 14 15  2  0  0  0  0
 14 16  1  0  0  0  0
 11 12  1  0  0  0  0
 11 13  1  0  0  0  0
 11 14  1  0  0  0  0
  9 10  1  0  0  0  0
  9 11  1  0  0  0  0
  9 19  1  0  0  0  0
  7  8  1  0  0  0  0
  7  9  1  0  0  0  0
 23 24  1  0  0  0  0
 23 25  1  0  0  0  0
 23 26  1  0  0  0  0
 21 22  1  0  0  0  0
 21 23  1  0  0  0  0
M  END
$$$$
default_name
  -OEChem-02102213163D

 26 25  0     1  0  0  0  0  0999 V2000
   -3.0232   -3.6924    1.0038 H   0  0  0  0  0  0  0  0  0  0  0  0
   -3.0082   -2.6684    0.6318 C   0  0  0  0  0  0  0  0  0  0  0  0
   -3.6332   -2.0414    1.2658 H   0  0  0  0  0  0  0  0  0  0  0  0
   -3.3762   -2.6444   -0.3912 H   0  0  0  0  0  0  0  0  0  0  0  0
   -1.5882   -2.1554    0.6658 C   0  0  0  0  0  0  0  0  0  0  0  0
   -0.6832   -2.8764    1.0638 O   0  0  0  0  0  0  0  0  0  0  0  0
   -1.3952   -0.9084    0.2428 N   0  0  0  0  0  0  0  0  0  0  0  0
   -2.1972   -0.3644   -0.0422 H   0  0  0  0  0  0  0  0  0  0  0  0
   -0.1122   -0.1994    0.2658 C   0  0  1  0  0  0  0  0  0  0  0  0
    0.5635   -0.7260    0.9446 H   0  0  0  0  0  0  0  0  0  0  0  0
    0.4924   -0.2204   -1.1558 C   0  0  0  0  0  0  0  0  0  0  0  0
    0.6105    0.8033   -1.5092 H   0  0  0  0  0  0  0  0  0  0  0  0
    1.4762   -0.6861   -1.1208 H   0  0  0  0  0  0  0  0  0  0  0  0
   -0.3647   -0.9446   -2.1815 C   0  0  0  0  0  0  0  0  0  0  0  0
   -1.0228   -0.3622   -3.0260 O   0  0  0  0  0  0  0  0  0  0  0  0
   -0.3947   -2.2543   -2.1384 N   0  0  0  0  0  0  0  0  0  0  0  0
   -0.9555   -2.7062   -2.8391 H   0  0  0  0  0  0  0  0  0  0  0  0
    0.1525   -2.7574   -1.4657 H   0  0  0  0  0  0  0  0  0  0  0  0
   -0.3126    1.2341    0.8050 C   0  0  0  0  0  0  0  0  0  0  0  0
   -1.2484    1.9199    0.3934 O   0  0  0  0  0  0  0  0  0  0  0  0
    0.5615    1.6875    1.7087 N   0  0  0  0  0  0  0  0  0  0  0  0
    1.3461    1.0849    1.9358 H   0  0  0  0  0  0  0  0  0  0  0  0
    0.5043    3.0121    2.3242 C   0  0  0  0  0  0  0  0  0  0  0  0
   -0.4649    3.1514    2.8080 H   0  0  0  0  0  0  0  0  0  0  0  0
    1.2959    3.1139    3.0678 H   0  0  0  0  0  0  0  0  0  0  0  0
    0.6273    3.7799    1.5584 H   0  0  0  0  0  0  0  0  0  0  0  0
  5  6  2  0  0  0  0
  5  7  1  0  0  0  0
  2  3  1  0  0  0  0
  2  4  1  0  0  0  0
  2  5  1  0  0  0  0
  1  2  1  0  0  0  0
 19 20  2  0  0  0  0
 19 21  1  0  0  0  0
 16 17  1  0  0  0  0
 16 18  1  0  0  0  0
 14 15  2  0  0  0  0
 14 16  1  0  0  0  0
 11 12  1  0  0  0  0
 11 13  1  0  0  0  0
 11 14  1  0  0  0  0
  9 10  1  0  0  0  0
  9 11  1  0  0  0  0
  9 19  1  0  0  0  0
  7  8  1  0  0  0  0
  7  9  1  0  0  0  0
 23 24  1  0  0  0  0
 23 25  1  0  0  0  0
 23 26  1  0  0  0  0
 21 22  1  0  0  0  0
 21 23  1  0  0  0  0
M  END
$$$$
default_name
  -OEChem-02102213163D

 26 25  0     1  0  0  0  0  0999 V2000
   -3.0232   -3.6924    1.0038 H   0  0  0  0  0  0  0  0  0  0  0  0
   -3.0082   -2.6684    0.6318 C   0  0  0  0  0  0  0  0  0  0  0  0
   -3.6332   -2.0414    1.2658 H   0  0  0  0  0  0  0  0  0  0  0  0
   -3.3762   -2.6444   -0.3912 H   0  0  0  0  0  0  0  0  0  0  0  0
   -1.5882   -2.1554    0.6658 C   0  0  0  0  0  0  0  0  0  0  0  0
   -0.6832   -2.8764    1.0638 O   0  0  0  0  0  0  0  0  0  0  0  0
   -1.3952   -0.9084    0.2428 N   0  0  0  0  0  0  0  0  0  0  0  0
   -2.1972   -0.3644   -0.0422 H   0  0  0  0  0  0  0  0  0  0  0  0
   -0.1122   -0.1994    0.2658 C   0  0  1  0  0  0  0  0  0  0  0  0
    0.5635   -0.7260    0.9446 H   0  0  0  0  0  0  0  0  0  0  0  0
    0.4924   -0.2204   -1.1558 C   0  0  0  0  0  0  0  0  0  0  0  0
    0.6105    0.8033   -1.5092 H   0  0  0  0  0  0  0  0  0  0  0  0
    1.4762   -0.6861   -1.1208 H   0  0  0  0  0  0  0  0  0  0  0  0
   -0.3647   -0.9446   -2.1815 C   0  0  0  0  0  0  0  0  0  0  0  0
   -0.8073   -0.4011   -3.1785 O   0  0  0  0  0  0  0  0  0  0  0  0
   -0.6395   -2.2081   -1.9665 N   0  0  0  0  0  0  0  0  0  0  0  0
   -1.1930   -2.6651   -2.6697 H   0  0  0  0  0  0  0  0  0  0  0  0
   -0.2717   -2.6830   -1.1638 H   0  0  0  0  0  0  0  0  0  0  0  0
   -0.3126    1.2341    0.8050 C   0  0  0  0  0  0  0  0  0  0  0  0
   -1.2484    1.9199    0.3934 O   0  0  0  0  0  0  0  0  0  0  0  0
    0.5615    1.6875    1.7087 N   0  0  0  0  0  0  0  0  0  0  0  0
    1.3461    1.0849    1.9358 H   0  0  0  0  0  0  0  0  0  0  0  0
    0.5043    3.0121    2.3242 C   0  0  0  0  0  0  0  0  0  0  0  0
   -0.4649    3.1514    2.8080 H   0  0  0  0  0  0  0  0  0  0  0  0
    1.2959    3.1139    3.0678 H   0  0  0  0  0  0  0  0  0  0  0  0
    0.6273    3.7799    1.5584 H   0  0  0  0  0  0  0  0  0  0  0  0
  5  6  2  0  0  0  0
  5  7  1  0  0  0  0
  2  3  1  0  0  0  0
  2  4  1  0  0  0  0
  2  5  1  0  0  0  0
  1  2  1  0  0  0  0
 19 20  2  0  0  0  0
 19 21  1  0  0  0  0
 16 17  1  0  0  0  0
 16 18  1  0  0  0  0
 14 15  2  0  0  0  0
 14 16  1  0  0  0  0
 11 12  1  0  0  0  0
 11 13  1  0  0  0  0
 11 14  1  0  0  0  0
  9 10  1  0  0  0  0
  9 11  1  0  0  0  0
  9 19  1  0  0  0  0
  7  8  1  0  0  0  0
  7  9  1  0  0  0  0
 23 24  1  0  0  0  0
 23 25  1  0  0  0  0
 23 26  1  0  0  0  0
 21 22  1  0  0  0  0
 21 23  1  0  0  0  0
M  END
$$$$
default_name
  -OEChem-02102213163D

 26 25  0     1  0  0  0  0  0999 V2000
   -3.0232   -3.6924    1.0038 H   0  0  0  0  0  0  0  0  0  0  0  0
   -3.0082   -2.6684    0.6318 C   0  0  0  0  0  0  0  0  0  0  0  0
   -3.6332   -2.0414    1.2658 H   0  0  0  0  0  0  0  0  0  0  0  0
   -3.3762   -2.6444   -0.3912 H   0  0  0  0  0  0  0  0  0  0  0  0
   -1.5882   -2.1554    0.6658 C   0  0  0  0  0  0  0  0  0  0  0  0
   -0.6832   -2.8764    1.0638 O   0  0  0  0  0  0  0  0  0  0  0  0
   -1.3952   -0.9084    0.2428 N   0  0  0  0  0  0  0  0  0  0  0  0
   -2.1972   -0.3644   -0.0422 H   0  0  0  0  0  0  0  0  0  0  0  0
   -0.1122   -0.1994    0.2658 C   0  0  1  0  0  0  0  0  0  0  0  0
    0.5635   -0.7260    0.9446 H   0  0  0  0  0  0  0  0  0  0  0  0
    0.4924   -0.2204   -1.1558 C   0  0  0  0  0  0  0  0  0  0  0  0
    0.6105    0.8033   -1.5092 H   0  0  0  0  0  0  0  0  0  0  0  0
    1.4762   -0.6861   -1.1208 H   0  0  0  0  0  0  0  0  0  0  0  0
   -0.3647   -0.9446   -2.1815 C   0  0  0  0  0  0  0  0  0  0  0  0
   -0.5871   -0.4986   -3.2937 O   0  0  0  0  0  0  0  0  0  0  0  0
   -0.8891   -2.0956   -1.8374 N   0  0  0  0  0  0  0  0  0  0  0  0
   -1.4361   -2.5593   -2.5412 H   0  0  0  0  0  0  0  0  0  0  0  0
   -0.7056   -2.4929   -0.9354 H   0  0  0  0  0  0  0  0  0  0  0  0
   -0.3126    1.2341    0.8050 C   0  0  0  0  0  0  0  0  0  0  0  0
   -1.2484    1.9199    0.3934 O   0  0  0  0  0  0  0  0  0  0  0  0
    0.5615    1.6875    1.7087 N   0  0  0  0  0  0  0  0  0  0  0  0
    1.3461    1.0849    1.9358 H   0  0  0  0  0  0  0  0  0  0  0  0
    0.5043    3.0121    2.3242 C   0  0  0  0  0  0  0  0  0  0  0  0
   -0.4649    3.1514    2.8080 H   0  0  0  0  0  0  0  0  0  0  0  0
    1.2959    3.1139    3.0678 H   0  0  0  0  0  0  0  0  0  0  0  0
    0.6273    3.7799    1.5584 H   0  0  0  0  0  0  0  0  0  0  0  0
  5  6  2  0  0  0  0
  5  7  1  0  0  0  0
  2  3  1  0  0  0  0
  2  4  1  0  0  0  0
  2  5  1  0  0  0  0
  1  2  1  0  0  0  0
 19 20  2  0  0  0  0
 19 21  1  0  0  0  0
 16 17  1  0  0  0  0
 16 18  1  0  0  0  0
 14 15  2  0  0  0  0
 14 16  1  0  0  0  0
 11 12  1  0  0  0  0
 11 13  1  0  0  0  0
 11 14  1  0  0  0  0
  9 10  1  0  0  0  0
  9 11  1  0  0  0  0
  9 19  1  0  0  0  0
  7  8  1  0  0  0  0
  7  9  1  0  0  0  0
 23 24  1  0  0  0  0
 23 25  1  0  0  0  0
 23 26  1  0  0  0  0
 21 22  1  0  0  0  0
 21 23  1  0  0  0  0
M  END
$$$$
default_name
  -OEChem-02102213163D

 26 25  0     1  0  0  0  0  0999 V2000
   -3.0232   -3.6924    1.0038 H   0  0  0  0  0  0  0  0  0  0  0  0
   -3.0082   -2.6684    0.6318 C   0  0  0  0  0  0  0  0  0  0  0  0
   -3.6332   -2.0414    1.2658 H   0  0  0  0  0  0  0  0  0  0  0  0
   -3.3762   -2.6444   -0.3912 H   0  0  0  0  0  0  0  0  0  0  0  0
   -1.5882   -2.1554    0.6658 C   0  0  0  0  0  0  0  0  0  0  0  0
   -0.6832   -2.8764    1.0638 O   0  0  0  0  0  0  0  0  0  0  0  0
   -1.3952   -0.9084    0.2428 N   0  0  0  0  0  0  0  0  0  0  0  0
   -2.1972   -0.3644   -0.0422 H   0  0  0  0  0  0  0  0  0  0  0  0
   -0.1122   -0.1994    0.2658 C   0  0  1  0  0  0  0  0  0  0  0  0
    0.5635   -0.7260    0.9446 H   0  0  0  0  0  0  0  0  0  0  0  0
    0.4924   -0.2204   -1.1558 C   0  0  0  0  0  0  0  0  0  0  0  0
    0.6105    0.8033   -1.5092 H   0  0  0  0  0  0  0  0  0  0  0  0
    1.4762   -0.6861   -1.1208 H   0  0  0  0  0  0  0  0  0  0  0  0
   -0.3647   -0.9446   -2.1815 C   0  0  0  0  0  0  0  0  0  0  0  0
   -0.3773   -0.6480   -3.3635 O   0  0  0  0  0  0  0  0  0  0  0  0
   -1.1264   -1.9245   -1.7599 N   0  0  0  0  0  0  0  0  0  0  0  0
   -1.6682   -2.3959   -2.4626 H   0  0  0  0  0  0  0  0  0  0  0  0
   -1.1197   -2.2002   -0.7960 H   0  0  0  0  0  0  0  0  0  0  0  0
   -0.3126    1.2341    0.8050 C   0  0  0  0  0  0  0  0  0  0  0  0
   -1.2484    1.9199    0.3934 O   0  0  0  0  0  0  0  0  0  0  0  0
    0.5615    1.6875    1.7087 N   0  0  0  0  0  0  0  0  0  0  0  0
    1.3461    1.0849    1.9358 H   0  0  0  0  0  0  0  0  0  0  0  0
    0.5043    3.0121    2.3242 C   0  0  0  0  0  0  0  0  0  0  0  0
   -0.4649    3.1514    2.8080 H   0  0  0  0  0  0  0  0  0  0  0  0
    1.2959    3.1139    3.0678 H   0  0  0  0  0  0  0  0  0  0  0  0
    0.6273    3.7799    1.5584 H   0  0  0  0  0  0  0  0  0  0  0  0
  5  6  2  0  0  0  0
  5  7  1  0  0  0  0
  2  3  1  0  0  0  0
  2  4  1  0  0  0  0
  2  5  1  0  0  0  0
  1  2  1  0  0  0  0
 19 20  2  0  0  0  0
 19 21  1  0  0  0  0
 16 17  1  0  0  0  0
 16 18  1  0  0  0  0
 14 15  2  0  0  0  0
 14 16  1  0  0  0  0
 11 12  1  0  0  0  0
 11 13  1  0  0  0  0
 11 14  1  0  0  0  0
  9 10  1  0  0  0  0
  9 11  1  0  0  0  0
  9 19  1  0  0  0  0
  7  8  1  0  0  0  0
  7  9  1  0  0  0  0
 23 24  1  0  0  0  0
 23 25  1  0  0  0  0
 23 26  1  0  0  0  0
 21 22  1  0  0  0  0
 21 23  1  0  0  0  0
M  END
$$$$
default_name
  -OEChem-02102213163D

 26 25  0     1  0  0  0  0  0999 V2000
   -3.0232   -3.6924    1.0038 H   0  0  0  0  0  0  0  0  0  0  0  0
   -3.0082   -2.6684    0.6318 C   0  0  0  0  0  0  0  0  0  0  0  0
   -3.6332   -2.0414    1.2658 H   0  0  0  0  0  0  0  0  0  0  0  0
   -3.3762   -2.6444   -0.3912 H   0  0  0  0  0  0  0  0  0  0  0  0
   -1.5882   -2.1554    0.6658 C   0  0  0  0  0  0  0  0  0  0  0  0
   -0.6832   -2.8764    1.0638 O   0  0  0  0  0  0  0  0  0  0  0  0
   -1.3952   -0.9084    0.2428 N   0  0  0  0  0  0  0  0  0  0  0  0
   -2.1972   -0.3644   -0.0422 H   0  0  0  0  0  0  0  0  0  0  0  0
   -0.1122   -0.1994    0.2658 C   0  0  1  0  0  0  0  0  0  0  0  0
    0.5635   -0.7260    0.9446 H   0  0  0  0  0  0  0  0  0  0  0  0
    0.4924   -0.2204   -1.1558 C   0  0  0  0  0  0  0  0  0  0  0  0
    0.6105    0.8033   -1.5092 H   0  0  0  0  0  0  0  0  0  0  0  0
    1.4762   -0.6861   -1.1208 H   0  0  0  0  0  0  0  0  0  0  0  0
   -0.3647   -0.9446   -2.1815 C   0  0  0  0  0  0  0  0  0  0  0  0
   -0.1921   -0.8391   -3.3833 O   0  0  0  0  0  0  0  0  0  0  0  0
   -1.3353   -1.7065   -1.7392 N   0  0  0  0  0  0  0  0  0  0  0  0
   -1.8737   -2.1860   -2.4391 H   0  0  0  0  0  0  0  0  0  0  0  0
   -1.4858   -1.8248   -0.7551 H   0  0  0  0  0  0  0  0  0  0  0  0
   -0.3126    1.2341    0.8050 C   0  0  0  0  0  0  0  0  0  0  0  0
   -1.2484    1.9199    0.3934 O   0  0  0  0  0  0  0  0  0  0  0  0
    0.5615    1.6875    1.7087 N   0  0  0  0  0  0  0  0  0  0  0  0
    1.3461    1.0849    1.9358 H   0  0  0  0  0  0  0  0  0  0  0  0
    0.5043    3.0121    2.3242 C   0  0  0  0  0  0  0  0  0  0  0  0
   -0.4649    3.1514    2.8080 H   0  0  0  0  0  0  0  0  0  0  0  0
    1.2959    3.1139    3.0678 H   0  0  0  0  0  0  0  0  0  0  0  0
    0.6273    3.7799    1.5584 H   0  0  0  0  0  0  0  0  0  0  0  0
  5  6  2  0  0  0  0
  5  7  1  0  0  0  0
  2  3  1  0  0  0  0
  2  4  1  0  0  0  0
  2  5  1  0  0  0  0
  1  2  1  0  0  0  0
 19 20  2  0  0  0  0
 19 21  1  0  0  0  0
 16 17  1  0  0  0  0
 16 18  1  0  0  0  0
 14 15  2  0  0  0  0
 14 16  1  0  0  0  0
 11 12  1  0  0  0  0
 11 13  1  0  0  0  0
 11 14  1  0  0  0  0
  9 10  1  0  0  0  0
  9 11  1  0  0  0  0
  9 19  1  0  0  0  0
  7  8  1  0  0  0  0
  7  9  1  0  0  0  0
 23 24  1  0  0  0  0
 23 25  1  0  0  0  0
 23 26  1  0  0  0  0
 21 22  1  0  0  0  0
 21 23  1  0  0  0  0
M  END
$$$$
default_name
  -OEChem-02102213163D

 26 25  0     1  0  0  0  0  0999 V2000
   -3.0232   -3.6924    1.0038 H   0  0  0  0  0  0  0  0  0  0  0  0
   -3.0082   -2.6684    0.6318 C   0  0  0  0  0  0  0  0  0  0  0  0
   -3.6332   -2.0414    1.2658 H   0  0  0  0  0  0  0  0  0  0  0  0
   -3.3762   -2.6444   -0.3912 H   0  0  0  0  0  0  0  0  0  0  0  0
   -1.5882   -2.1554    0.6658 C   0  0  0  0  0  0  0  0  0  0  0  0
   -0.6832   -2.8764    1.0638 O   0  0  0  0  0  0  0  0  0  0  0  0
   -1.3952   -0.9084    0.2428 N   0  0  0  0  0  0  0  0  0  0  0  0
   -2.1972   -0.3644   -0.0422 H   0  0  0  0  0  0  0  0  0  0  0  0
   -0.1122   -0.1994    0.2658 C   0  0  1  0  0  0  0  0  0  0  0  0
    0.5635   -0.7260    0.9446 H   0  0  0  0  0  0  0  0  0  0  0  0
    0.4924   -0.2204   -1.1558 C   0  0  0  0  0  0  0  0  0  0  0  0
    0.8562    0.7760   -1.4042 H   0  0  0  0  0  0  0  0  0  0  0  0
    1.3364   -0.9082   -1.1770 H   0  0  0  0  0  0  0  0  0  0  0  0
   -0.4960   -0.6122   -2.2423 C   0  0  0  0  0  0  0  0  0  0  0  0
   -0.1936   -0.6811   -3.4209 O   0  0  0  0  0  0  0  0  0  0  0  0
   -1.7283   -0.8764   -1.8819 N   0  0  0  0  0  0  0  0  0  0  0  0
   -2.3547   -1.1494   -2.6186 H   0  0  0  0  0  0  0  0  0  0  0  0
   -1.9976   -0.8454   -0.9167 H   0  0  0  0  0  0  0  0  0  0  0  0
   -0.3126    1.2341    0.8050 C   0  0  0  0  0  0  0  0  0  0  0  0
   -1.2484    1.9199    0.3934 O   0  0  0  0  0  0  0  0  0  0  0  0
    0.5615    1.6875    1.7087 N   0  0  0  0  0  0  0  0  0  0  0  0
    1.3461    1.0849    1.9358 H   0  0  0  0  0  0  0  0  0  0  0  0
    0.5043    3.0121    2.3242 C   0  0  0  0  0  0  0  0  0  0  0  0
   -0.4649    3.1514    2.8080 H   0  0  0  0  0  0  0  0  0  0  0  0
    1.2959    3.1139    3.0678 H   0  0  0  0  0  0  0  0  0  0  0  0
    0.6273    3.7799    1.5584 H   0  0  0  0  0  0  0  0  0  0  0  0
  5  6  2  0  0  0  0
  5  7  1  0  0  0  0
  2  3  1  0  0  0  0
  2  4  1  0  0  0  0
  2  5  1  0  0  0  0
  1  2  1  0  0  0  0
 19 20  2  0  0  0  0
 19 21  1  0  0  0  0
 16 17  1  0  0  0  0
 16 18  1  0  0  0  0
 14 15  2  0  0  0  0
 14 16  1  0  0  0  0
 11 12  1  0  0  0  0
 11 13  1  0  0  0  0
 11 14  1  0  0  0  0
  9 10  1  0  0  0  0
  9 11  1  0  0  0  0
  9 19  1  0  0  0  0
  7  8  1  0  0  0  0
  7  9  1  0  0  0  0
 23 24  1  0  0  0  0
 23 25  1  0  0  0  0
 23 26  1  0  0  0  0
 21 22  1  0  0  0  0
 21 23  1  0  0  0  0
M  END
$$$$
default_name
  -OEChem-02102213163D

 26 25  0     1  0  0  0  0  0999 V2000
   -3.0232   -3.6924    1.0038 H   0  0  0  0  0  0  0  0  0  0  0  0
   -3.0082   -2.6684    0.6318 C   0  0  0  0  0  0  0  0  0  0  0  0
   -3.6332   -2.0414    1.2658 H   0  0  0  0  0  0  0  0  0  0  0  0
   -3.3762   -2.6444   -0.3912 H   0  0  0  0  0  0  0  0  0  0  0  0
   -1.5882   -2.1554    0.6658 C   0  0  0  0  0  0  0  0  0  0  0  0
   -0.6832   -2.8764    1.0638 O   0  0  0  0  0  0  0  0  0  0  0  0
   -1.3952   -0.9084    0.2428 N   0  0  0  0  0  0  0  0  0  0  0  0
   -2.1972   -0.3644   -0.0422 H   0  0  0  0  0  0  0  0  0  0  0  0
   -0.1122   -0.1994    0.2658 C   0  0  1  0  0  0  0  0  0  0  0  0
    0.5635   -0.7260    0.9446 H   0  0  0  0  0  0  0  0  0  0  0  0
    0.4924   -0.2204   -1.1558 C   0  0  0  0  0  0  0  0  0  0  0  0
    0.8562    0.7760   -1.4042 H   0  0  0  0  0  0  0  0  0  0  0  0
    1.3364   -0.9082   -1.1770 H   0  0  0  0  0  0  0  0  0  0  0  0
   -0.4960   -0.6122   -2.2423 C   0  0  0  0  0  0  0  0  0  0  0  0
   -0.1527   -0.9388   -3.3651 O   0  0  0  0  0  0  0  0  0  0  0  0
   -1.7728   -0.5842   -1.9467 N   0  0  0  0  0  0  0  0  0  0  0  0
   -2.4014   -0.8648   -2.6787 H   0  0  0  0  0  0  0  0  0  0  0  0
   -2.0800   -0.3374   -1.0249 H   0  0  0  0  0  0  0  0  0  0  0  0
   -0.3126    1.2341    0.8050 C   0  0  0  0  0  0  0  0  0  0  0  0
   -1.2484    1.9199    0.3934 O   0  0  0  0  0  0  0  0  0  0  0  0
    0.5615    1.6875    1.7087 N   0  0  0  0  0  0  0  0  0  0  0  0
    1.3461    1.0849    1.9358 H   0  0  0  0  0  0  0  0  0  0  0  0
    0.5043    3.0121    2.3242 C   0  0  0  0  0  0  0  0  0  0  0  0
   -0.4649    3.1514    2.8080 H   0  0  0  0  0  0  0  0  0  0  0  0
    1.2959    3.1139    3.0678 H   0  0  0  0  0  0  0  0  0  0  0  0
    0.6273    3.7799    1.5584 H   0  0  0  0  0  0  0  0  0  0  0  0
  5  6  2  0  0  0  0
  5  7  1  0  0  0  0
  2  3  1  0  0  0  0
  2  4  1  0  0  0  0
  2  5  1  0  0  0  0
  1  2  1  0  0  0  0
 19 20  2  0  0  0  0
 19 21  1  0  0  0  0
 16 17  1  0  0  0  0
 16 18  1  0  0  0  0
 14 15  2  0  0  0  0
 14 16  1  0  0  0  0
 11 12  1  0  0  0  0
 11 13  1  0  0  0  0
 11 14  1  0  0  0  0
  9 10  1  0  0  0  0
  9 11  1  0  0  0  0
  9 19  1  0  0  0  0
  7  8  1  0  0  0  0
  7  9  1  0  0  0  0
 23 24  1  0  0  0  0
 23 25  1  0  0  0  0
 23 26  1  0  0  0  0
 21 22  1  0  0  0  0
 21 23  1  0  0  0  0
M  END
$$$$
default_name
  -OEChem-02102213163D

 26 25  0     1  0  0  0  0  0999 V2000
   -3.0232   -3.6924    1.0038 H   0  0  0  0  0  0  0  0  0  0  0  0
   -3.0082   -2.6684    0.6318 C   0  0  0  0  0  0  0  0  0  0  0  0
   -3.6332   -2.0414    1.2658 H   0  0  0  0  0  0  0  0  0  0  0  0
   -3.3762   -2.6444   -0.3912 H   0  0  0  0  0  0  0  0  0  0  0  0
   -1.5882   -2.1554    0.6658 C   0  0  0  0  0  0  0  0  0  0  0  0
   -0.6832   -2.8764    1.0638 O   0  0  0  0  0  0  0  0  0  0  0  0
   -1.3952   -0.9084    0.2428 N   0  0  0  0  0  0  0  0  0  0  0  0
   -2.1972   -0.3644   -0.0422 H   0  0  0  0  0  0  0  0  0  0  0  0
   -0.1122   -0.1994    0.2658 C   0  0  1  0  0  0  0  0  0  0  0  0
    0.5635   -0.7260    0.9446 H   0  0  0  0  0  0  0  0  0  0  0  0
    0.4924   -0.2204   -1.1558 C   0  0  0  0  0  0  0  0  0  0  0  0
    0.8562    0.7760   -1.4042 H   0  0  0  0  0  0  0  0  0  0  0  0
    1.3364   -0.9082   -1.1770 H   0  0  0  0  0  0  0  0  0  0  0  0
   -0.4960   -0.6122   -2.2423 C   0  0  0  0  0  0  0  0  0  0  0  0
   -0.1646   -1.1860   -3.2651 O   0  0  0  0  0  0  0  0  0  0  0  0
   -1.7574   -0.3046   -2.0616 N   0  0  0  0  0  0  0  0  0  0  0  0
   -2.3899   -0.5913   -2.7878 H   0  0  0  0  0  0  0  0  0  0  0  0
   -2.0583    0.1503   -1.2204 H   0  0  0  0  0  0  0  0  0  0  0  0
   -0.3126    1.2341    0.8050 C   0  0  0  0  0  0  0  0  0  0  0  0
   -1.2484    1.9199    0.3934 O   0  0  0  0  0  0  0  0  0  0  0  0
    0.5615    1.6875    1.7087 N   0  0  0  0  0  0  0  0  0  0  0  0
    1.3461    1.0849    1.9358 H   0  0  0  0  0  0  0  0  0  0  0  0
    0.5043    3.0121    2.3242 C   0  0  0  0  0  0  0  0  0  0  0  0
   -0.4649    3.1514    2.8080 H   0  0  0  0  0  0  0  0  0  0  0  0
    1.2959    3.1139    3.0678 H   0  0  0  0  0  0  0  0  0  0  0  0
    0.6273    3.7799    1.5584 H   0  0  0  0  0  0  0  0  0  0  0  0
  5  6  2  0  0  0  0
  5  7  1  0  0  0  0
  2  3  1  0  0  0  0
  2  4  1  0  0  0  0
  2  5  1  0  0  0  0
  1  2  1  0  0  0  0
 19 20  2  0  0  0  0
 19 21  1  0  0  0  0
 16 17  1  0  0  0  0
 16 18  1  0  0  0  0
 14 15  2  0  0  0  0
 14 16  1  0  0  0  0
 11 12  1  0  0  0  0
 11 13  1  0  0  0  0
 11 14  1  0  0  0  0
  9 10  1  0  0  0  0
  9 11  1  0  0  0  0
  9 19  1  0  0  0  0
  7  8  1  0  0  0  0
  7  9  1  0  0  0  0
 23 24  1  0  0  0  0
 23 25  1  0  0  0  0
 23 26  1  0  0  0  0
 21 22  1  0  0  0  0
 21 23  1  0  0  0  0
M  END
$$$$
default_name
  -OEChem-02102213163D

 26 25  0     1  0  0  0  0  0999 V2000
   -3.0232   -3.6924    1.0038 H   0  0  0  0  0  0  0  0  0  0  0  0
   -3.0082   -2.6684    0.6318 C   0  0  0  0  0  0  0  0  0  0  0  0
   -3.6332   -2.0414    1.2658 H   0  0  0  0  0  0  0  0  0  0  0  0
   -3.3762   -2.6444   -0.3912 H   0  0  0  0  0  0  0  0  0  0  0  0
   -1.5882   -2.1554    0.6658 C   0  0  0  0  0  0  0  0  0  0  0  0
   -0.6832   -2.8764    1.0638 O   0  0  0  0  0  0  0  0  0  0  0  0
   -1.3952   -0.9084    0.2428 N   0  0  0  0  0  0  0  0  0  0  0  0
   -2.1972   -0.3644   -0.0422 H   0  0  0  0  0  0  0  0  0  0  0  0
   -0.1122   -0.1994    0.2658 C   0  0  1  0  0  0  0  0  0  0  0  0
    0.5635   -0.7260    0.9446 H   0  0  0  0  0  0  0  0  0  0  0  0
    0.4924   -0.2204   -1.1558 C   0  0  0  0  0  0  0  0  0  0  0  0
    0.8562    0.7760   -1.4042 H   0  0  0  0  0  0  0  0  0  0  0  0
    1.3364   -0.9082   -1.1770 H   0  0  0  0  0  0  0  0  0  0  0  0
   -0.4960   -0.6122   -2.2423 C   0  0  0  0  0  0  0  0  0  0  0  0
   -0.2286   -1.4057   -3.1278 O   0  0  0  0  0  0  0  0  0  0  0  0
   -1.6831   -0.0567   -2.2185 N   0  0  0  0  0  0  0  0  0  0  0  0
   -2.3210   -0.3477   -2.9384 H   0  0  0  0  0  0  0  0  0  0  0  0
   -1.9342    0.5846   -1.4899 H   0  0  0  0  0  0  0  0  0  0  0  0
   -0.3126    1.2341    0.8050 C   0  0  0  0  0  0  0  0  0  0  0  0
   -1.2484    1.9199    0.3934 O   0  0  0  0  0  0  0  0  0  0  0  0
    0.5615    1.6875    1.7087 N   0  0  0  0  0  0  0  0  0  0  0  0
    1.3461    1.0849    1.9358 H   0  0  0  0  0  0  0  0  0  0  0  0
    0.5043    3.0121    2.3242 C   0  0  0  0  0  0  0  0  0  0  0  0
   -0.4649    3.1514    2.8080 H   0  0  0  0  0  0  0  0  0  0  0  0
    1.2959    3.1139    3.0678 H   0  0  0  0  0  0  0  0  0  0  0  0
    0.6273    3.7799    1.5584 H   0  0  0  0  0  0  0  0  0  0  0  0
  5  6  2  0  0  0  0
  5  7  1  0  0  0  0
  2  3  1  0  0  0  0
  2  4  1  0  0  0  0
  2  5  1  0  0  0  0
  1  2  1  0  0  0  0
 19 20  2  0  0  0  0
 19 21  1  0  0  0  0
 16 17  1  0  0  0  0
 16 18  1  0  0  0  0
 14 15  2  0  0  0  0
 14 16  1  0  0  0  0
 11 12  1  0  0  0  0
 11 13  1  0  0  0  0
 11 14  1  0  0  0  0
  9 10  1  0  0  0  0
  9 11  1  0  0  0  0
  9 19  1  0  0  0  0
  7  8  1  0  0  0  0
  7  9  1  0  0  0  0
 23 24  1  0  0  0  0
 23 25  1  0  0  0  0
 23 26  1  0  0  0  0
 21 22  1  0  0  0  0
 21 23  1  0  0  0  0
M  END
$$$$
default_name
  -OEChem-02102213163D

 26 25  0     1  0  0  0  0  0999 V2000
   -3.0232   -3.6924    1.0038 H   0  0  0  0  0  0  0  0  0  0  0  0
   -3.0082   -2.6684    0.6318 C   0  0  0  0  0  0  0  0  0  0  0  0
   -3.6332   -2.0414    1.2658 H   0  0  0  0  0  0  0  0  0  0  0  0
   -3.3762   -2.6444   -0.3912 H   0  0  0  0  0  0  0  0  0  0  0  0
   -1.5882   -2.1554    0.6658 C   0  0  0  0  0  0  0  0  0  0  0  0
   -0.6832   -2.8764    1.0638 O   0  0  0  0  0  0  0  0  0  0  0  0
   -1.3952   -0.9084    0.2428 N   0  0  0  0  0  0  0  0  0  0  0  0
   -2.1972   -0.3644   -0.0422 H   0  0  0  0  0  0  0  0  0  0  0  0
   -0.1122   -0.1994    0.2658 C   0  0  1  0  0  0  0  0  0  0  0  0
    0.5635   -0.7260    0.9446 H   0  0  0  0  0  0  0  0  0  0  0  0
    0.4924   -0.2204   -1.1558 C   0  0  0  0  0  0  0  0  0  0  0  0
    0.8562    0.7760   -1.4042 H   0  0  0  0  0  0  0  0  0  0  0  0
    1.3364   -0.9082   -1.1770 H   0  0  0  0  0  0  0  0  0  0  0  0
   -0.4960   -0.6122   -2.2423 C   0  0  0  0  0  0  0  0  0  0  0  0
   -0.3401   -1.5830   -2.9624 O   0  0  0  0  0  0  0  0  0  0  0  0
   -1.5551    0.1426   -2.4069 N   0  0  0  0  0  0  0  0  0  0  0  0
   -2.1993   -0.1504   -3.1202 H   0  0  0  0  0  0  0  0  0  0  0  0
   -1.7160    0.9356   -1.8151 H   0  0  0  0  0  0  0  0  0  0  0  0
   -0.3126    1.2341    0.8050 C   0  0  0  0  0  0  0  0  0  0  0  0
   -1.2484    1.9199    0.3934 O   0  0  0  0  0  0  0  0  0  0  0  0
    0.5615    1.6875    1.7087 N   0  0  0  0  0  0  0  0  0  0  0  0
    1.3461    1.0849    1.9358 H   0  0  0  0  0  0  0  0  0  0  0  0
    0.5043    3.0121    2.3242 C   0  0  0  0  0  0  0  0  0  0  0  0
   -0.4649    3.1514    2.8080 H   0  0  0  0  0  0  0  0  0  0  0  0
    1.2959    3.1139    3.0678 H   0  0  0  0  0  0  0  0  0  0  0  0
    0.6273    3.7799    1.5584 H   0  0  0  0  0  0  0  0  0  0  0  0
  5  6  2  0  0  0  0
  5  7  1  0  0  0  0
  2  3  1  0  0  0  0
  2  4  1  0  0  0  0
  2  5  1  0  0  0  0
  1  2  1  0  0  0  0
 19 20  2  0  0  0  0
 19 21  1  0  0  0  0
 16 17  1  0  0  0  0
 16 18  1  0  0  0  0
 14 15  2  0  0  0  0
 14 16  1  0  0  0  0
 11 12  1  0  0  0  0
 11 13  1  0  0  0  0
 11 14  1  0  0  0  0
  9 10  1  0  0  0  0
  9 11  1  0  0  0  0
  9 19  1  0  0  0  0
  7  8  1  0  0  0  0
  7  9  1  0  0  0  0
 23 24  1  0  0  0  0
 23 25  1  0  0  0  0
 23 26  1  0  0  0  0
 21 22  1  0  0  0  0
 21 23  1  0  0  0  0
M  END
$$$$
default_name
  -OEChem-02102213163D

 26 25  0     1  0  0  0  0  0999 V2000
   -3.0232   -3.6924    1.0038 H   0  0  0  0  0  0  0  0  0  0  0  0
   -3.0082   -2.6684    0.6318 C   0  0  0  0  0  0  0  0  0  0  0  0
   -3.6332   -2.0414    1.2658 H   0  0  0  0  0  0  0  0  0  0  0  0
   -3.3762   -2.6444   -0.3912 H   0  0  0  0  0  0  0  0  0  0  0  0
   -1.5882   -2.1554    0.6658 C   0  0  0  0  0  0  0  0  0  0  0  0
   -0.6832   -2.8764    1.0638 O   0  0  0  0  0  0  0  0  0  0  0  0
   -1.3952   -0.9084    0.2428 N   0  0  0  0  0  0  0  0  0  0  0  0
   -2.1972   -0.3644   -0.0422 H   0  0  0  0  0  0  0  0  0  0  0  0
   -0.1122   -0.1994    0.2658 C   0  0  1  0  0  0  0  0  0  0  0  0
    0.5635   -0.7260    0.9446 H   0  0  0  0  0  0  0  0  0  0  0  0
    0.4924   -0.2204   -1.1558 C   0  0  0  0  0  0  0  0  0  0  0  0
    0.8562    0.7760   -1.4042 H   0  0  0  0  0  0  0  0  0  0  0  0
    1.3364   -0.9082   -1.1770 H   0  0  0  0  0  0  0  0  0  0  0  0
   -0.4960   -0.6122   -2.2423 C   0  0  0  0  0  0  0  0  0  0  0  0
   -0.4917   -1.7057   -2.7802 O   0  0  0  0  0  0  0  0  0  0  0  0
   -1.3820    0.2797   -2.6138 N   0  0  0  0  0  0  0  0  0  0  0  0
   -2.0331   -0.0130   -3.3209 H   0  0  0  0  0  0  0  0  0  0  0  0
   -1.4186    1.1797   -2.1736 H   0  0  0  0  0  0  0  0  0  0  0  0
   -0.3126    1.2341    0.8050 C   0  0  0  0  0  0  0  0  0  0  0  0
   -1.2484    1.9199    0.3934 O   0  0  0  0  0  0  0  0  0  0  0  0
    0.5615    1.6875    1.7087 N   0  0  0  0  0  0  0  0  0  0  0  0
    1.3461    1.0849    1.9358 H   0  0  0  0  0  0  0  0  0  0  0  0
    0.5043    3.0121    2.3242 C   0  0  0  0  0  0  0  0  0  0  0  0
   -0.4649    3.1514    2.8080 H   0  0  0  0  0  0  0  0  0  0  0  0
    1.2959    3.1139    3.0678 H   0  0  0  0  0  0  0  0  0  0  0  0
    0.6273    3.7799    1.5584 H   0  0  0  0  0  0  0  0  0  0  0  0
  5  6  2  0  0  0  0
  5  7  1  0  0  0  0
  2  3  1  0  0  0  0
  2  4  1  0  0  0  0
  2  5  1  0  0  0  0
  1  2  1  0  0  0  0
 19 20  2  0  0  0  0
 19 21  1  0  0  0  0
 16 17  1  0  0  0  0
 16 18  1  0  0  0  0
 14 15  2  0  0  0  0
 14 16  1  0  0  0  0
 11 12  1  0  0  0  0
 11 13  1  0  0  0  0
 11 14  1  0  0  0  0
  9 10  1  0  0  0  0
  9 11  1  0  0  0  0
  9 19  1  0  0  0  0
  7  8  1  0  0  0  0
  7  9  1  0  0  0  0
 23 24  1  0  0  0  0
 23 25  1  0  0  0  0
 23 26  1  0  0  0  0
 21 22  1  0  0  0  0
 21 23  1  0  0  0  0
M  END
$$$$
default_name
  -OEChem-02102213163D

 26 25  0     1  0  0  0  0  0999 V2000
   -3.0232   -3.6924    1.0038 H   0  0  0  0  0  0  0  0  0  0  0  0
   -3.0082   -2.6684    0.6318 C   0  0  0  0  0  0  0  0  0  0  0  0
   -3.6332   -2.0414    1.2658 H   0  0  0  0  0  0  0  0  0  0  0  0
   -3.3762   -2.6444   -0.3912 H   0  0  0  0  0  0  0  0  0  0  0  0
   -1.5882   -2.1554    0.6658 C   0  0  0  0  0  0  0  0  0  0  0  0
   -0.6832   -2.8764    1.0638 O   0  0  0  0  0  0  0  0  0  0  0  0
   -1.3952   -0.9084    0.2428 N   0  0  0  0  0  0  0  0  0  0  0  0
   -2.1972   -0.3644   -0.0422 H   0  0  0  0  0  0  0  0  0  0  0  0
   -0.1122   -0.1994    0.2658 C   0  0  1  0  0  0  0  0  0  0  0  0
    0.5635   -0.7260    0.9446 H   0  0  0  0  0  0  0  0  0  0  0  0
    0.4924   -0.2204   -1.1558 C   0  0  0  0  0  0  0  0  0  0  0  0
    0.8562    0.7760   -1.4042 H   0  0  0  0  0  0  0  0  0  0  0  0
    1.3364   -0.9082   -1.1770 H   0  0  0  0  0  0  0  0  0  0  0  0
   -0.4960   -0.6122   -2.2423 C   0  0  0  0  0  0  0  0  0  0  0  0
   -0.6729   -1.7656   -2.5937 O   0  0  0  0  0  0  0  0  0  0  0  0
   -1.1756    0.3453   -2.8252 N   0  0  0  0  0  0  0  0  0  0  0  0
   -1.8337    0.0552   -3.5269 H   0  0  0  0  0  0  0  0  0  0  0  0
   -1.0622    1.3001   -2.5412 H   0  0  0  0  0  0  0  0  0  0  0  0
   -0.3126    1.2341    0.8050 C   0  0  0  0  0  0  0  0  0  0  0  0
   -1.2484    1.9199    0.3934 O   0  0  0  0  0  0  0  0  0  0  0  0
    0.5615    1.6875    1.7087 N   0  0  0  0  0  0  0  0  0  0  0  0
    1.3461    1.0849    1.9358 H   0  0  0  0  0  0  0  0  0  0  0  0
    0.5043    3.0121    2.3242 C   0  0  0  0  0  0  0  0  0  0  0  0
   -0.4649    3.1514    2.8080 H   0  0  0  0  0  0  0  0  0  0  0  0
    1.2959    3.1139    3.0678 H   0  0  0  0  0  0  0  0  0  0  0  0
    0.6273    3.7799    1.5584 H   0  0  0  0  0  0  0  0  0  0  0  0
  5  6  2  0  0  0  0
  5  7  1  0  0  0  0
  2  3  1  0  0  0  0
  2  4  1  0  0  0  0
  2  5  1  0  0  0  0
  1  2  1  0  0  0  0
 19 20  2  0  0  0  0
 19 21  1  0  0  0  0
 16 17  1  0  0  0  0
 16 18  1  0  0  0  0
 14 15  2  0  0  0  0
 14 16  1  0  0  0  0
 11 12  1  0  0  0  0
 11 13  1  0  0  0  0
 11 14  1  0  0  0  0
  9 10  1  0  0  0  0
  9 11  1  0  0  0  0
  9 19  1  0  0  0  0
  7  8  1  0  0  0  0
  7  9  1  0  0  0  0
 23 24  1  0  0  0  0
 23 25  1  0  0  0  0
 23 26  1  0  0  0  0
 21 22  1  0  0  0  0
 21 23  1  0  0  0  0
M  END
$$$$
default_name
  -OEChem-02102213163D

 26 25  0     1  0  0  0  0  0999 V2000
   -3.0232   -3.6924    1.0038 H   0  0  0  0  0  0  0  0  0  0  0  0
   -3.0082   -2.6684    0.6318 C   0  0  0  0  0  0  0  0  0  0  0  0
   -3.6332   -2.0414    1.2658 H   0  0  0  0  0  0  0  0  0  0  0  0
   -3.3762   -2.6444   -0.3912 H   0  0  0  0  0  0  0  0  0  0  0  0
   -1.5882   -2.1554    0.6658 C   0  0  0  0  0  0  0  0  0  0  0  0
   -0.6832   -2.8764    1.0638 O   0  0  0  0  0  0  0  0  0  0  0  0
   -1.3952   -0.9084    0.2428 N   0  0  0  0  0  0  0  0  0  0  0  0
   -2.1972   -0.3644   -0.0422 H   0  0  0  0  0  0  0  0  0  0  0  0
   -0.1122   -0.1994    0.2658 C   0  0  1  0  0  0  0  0  0  0  0  0
    0.5635   -0.7260    0.9446 H   0  0  0  0  0  0  0  0  0  0  0  0
    0.4924   -0.2204   -1.1558 C   0  0  0  0  0  0  0  0  0  0  0  0
    0.8562    0.7760   -1.4042 H   0  0  0  0  0  0  0  0  0  0  0  0
    1.3364   -0.9082   -1.1770 H   0  0  0  0  0  0  0  0  0  0  0  0
   -0.4960   -0.6122   -2.2423 C   0  0  0  0  0  0  0  0  0  0  0  0
   -0.8716   -1.7585   -2.4156 O   0  0  0  0  0  0  0  0  0  0  0  0
   -0.9500    0.3349   -3.0267 N   0  0  0  0  0  0  0  0  0  0  0  0
   -1.6148    0.0495   -3.7240 H   0  0  0  0  0  0  0  0  0  0  0  0
   -0.6712    1.2886   -2.8928 H   0  0  0  0  0  0  0  0  0  0  0  0
   -0.3126    1.2341    0.8050 C   0  0  0  0  0  0  0  0  0  0  0  0
   -1.2484    1.9199    0.3934 O   0  0  0  0  0  0  0  0  0  0  0  0
    0.5615    1.6875    1.7087 N   0  0  0  0  0  0  0  0  0  0  0  0
    1.3461    1.0849    1.9358 H   0  0  0  0  0  0  0  0  0  0  0  0
    0.5043    3.0121    2.3242 C   0  0  0  0  0  0  0  0  0  0  0  0
   -0.4649    3.1514    2.8080 H   0  0  0  0  0  0  0  0  0  0  0  0
    1.2959    3.1139    3.0678 H   0  0  0  0  0  0  0  0  0  0  0  0
    0.6273    3.7799    1.5584 H   0  0  0  0  0  0  0  0  0  0  0  0
  5  6  2  0  0  0  0
  5  7  1  0  0  0  0
  2  3  1  0  0  0  0
  2  4  1  0  0  0  0
  2  5  1  0  0  0  0
  1  2  1  0  0  0  0
 19 20  2  0  0  0  0
 19 21  1  0  0  0  0
 16 17  1  0  0  0  0
 16 18  1  0  0  0  0
 14 15  2  0  0  0  0
 14 16  1  0  0  0  0
 11 12  1  0  0  0  0
 11 13  1  0  0  0  0
 11 14  1  0  0  0  0
  9 10  1  0  0  0  0
  9 11  1  0  0  0  0
  9 19  1  0  0  0  0
  7  8  1  0  0  0  0
  7  9  1  0  0  0  0
 23 24  1  0  0  0  0
 23 25  1  0  0  0  0
 23 26  1  0  0  0  0
 21 22  1  0  0  0  0
 21 23  1  0  0  0  0
M  END
$$$$
default_name
  -OEChem-02102213163D

 26 25  0     1  0  0  0  0  0999 V2000
   -3.0232   -3.6924    1.0038 H   0  0  0  0  0  0  0  0  0  0  0  0
   -3.0082   -2.6684    0.6318 C   0  0  0  0  0  0  0  0  0  0  0  0
   -3.6332   -2.0414    1.2658 H   0  0  0  0  0  0  0  0  0  0  0  0
   -3.3762   -2.6444   -0.3912 H   0  0  0  0  0  0  0  0  0  0  0  0
   -1.5882   -2.1554    0.6658 C   0  0  0  0  0  0  0  0  0  0  0  0
   -0.6832   -2.8764    1.0638 O   0  0  0  0  0  0  0  0  0  0  0  0
   -1.3952   -0.9084    0.2428 N   0  0  0  0  0  0  0  0  0  0  0  0
   -2.1972   -0.3644   -0.0422 H   0  0  0  0  0  0  0  0  0  0  0  0
   -0.1122   -0.1994    0.2658 C   0  0  1  0  0  0  0  0  0  0  0  0
    0.5635   -0.7260    0.9446 H   0  0  0  0  0  0  0  0  0  0  0  0
    0.4924   -0.2204   -1.1558 C   0  0  0  0  0  0  0  0  0  0  0  0
    0.8562    0.7760   -1.4042 H   0  0  0  0  0  0  0  0  0  0  0  0
    1.3364   -0.9082   -1.1770 H   0  0  0  0  0  0  0  0  0  0  0  0
   -0.4960   -0.6122   -2.2423 C   0  0  0  0  0  0  0  0  0  0  0  0
   -1.0740   -1.6850   -2.2579 O   0  0  0  0  0  0  0  0  0  0  0  0
   -0.7206    0.2493   -3.2046 N   0  0  0  0  0  0  0  0  0  0  0  0
   -1.3913   -0.0296   -3.8988 H   0  0  0  0  0  0  0  0  0  0  0  0
   -0.2723    1.1460   -3.2043 H   0  0  0  0  0  0  0  0  0  0  0  0
   -0.3126    1.2341    0.8050 C   0  0  0  0  0  0  0  0  0  0  0  0
   -1.2484    1.9199    0.3934 O   0  0  0  0  0  0  0  0  0  0  0  0
    0.5615    1.6875    1.7087 N   0  0  0  0  0  0  0  0  0  0  0  0
    1.3461    1.0849    1.9358 H   0  0  0  0  0  0  0  0  0  0  0  0
    0.5043    3.0121    2.3242 C   0  0  0  0  0  0  0  0  0  0  0  0
   -0.4649    3.1514    2.8080 H   0  0  0  0  0  0  0  0  0  0  0  0
    1.2959    3.1139    3.0678 H   0  0  0  0  0  0  0  0  0  0  0  0
    0.6273    3.7799    1.5584 H   0  0  0  0  0  0  0  0  0  0  0  0
  5  6  2  0  0  0  0
  5  7  1  0  0  0  0
  2  3  1  0  0  0  0
  2  4  1  0  0  0  0
  2  5  1  0  0  0  0
  1  2  1  0  0  0  0
 19 20  2  0  0  0  0
 19 21  1  0  0  0  0
 16 17  1  0  0  0  0
 16 18  1  0  0  0  0
 14 15  2  0  0  0  0
 14 16  1  0  0  0  0
 11 12  1  0  0  0  0
 11 13  1  0  0  0  0
 11 14  1  0  0  0  0
  9 10  1  0  0  0  0
  9 11  1  0  0  0  0
  9 19  1  0  0  0  0
  7  8  1  0  0  0  0
  7  9  1  0  0  0  0
 23 24  1  0  0  0  0
 23 25  1  0  0  0  0
 23 26  1  0  0  0  0
 21 22  1  0  0  0  0
 21 23  1  0  0  0  0
M  END
$$$$
default_name
  -OEChem-02102213163D

 26 25  0     1  0  0  0  0  0999 V2000
   -3.0232   -3.6924    1.0038 H   0  0  0  0  0  0  0  0  0  0  0  0
   -3.0082   -2.6684    0.6318 C   0  0  0  0  0  0  0  0  0  0  0  0
   -3.6332   -2.0414    1.2658 H   0  0  0  0  0  0  0  0  0  0  0  0
   -3.3762   -2.6444   -0.3912 H   0  0  0  0  0  0  0  0  0  0  0  0
   -1.5882   -2.1554    0.6658 C   0  0  0  0  0  0  0  0  0  0  0  0
   -0.6832   -2.8764    1.0638 O   0  0  0  0  0  0  0  0  0  0  0  0
   -1.3952   -0.9084    0.2428 N   0  0  0  0  0  0  0  0  0  0  0  0
   -2.1972   -0.3644   -0.0422 H   0  0  0  0  0  0  0  0  0  0  0  0
   -0.1122   -0.1994    0.2658 C   0  0  1  0  0  0  0  0  0  0  0  0
    0.5635   -0.7260    0.9446 H   0  0  0  0  0  0  0  0  0  0  0  0
    0.4924   -0.2204   -1.1558 C   0  0  0  0  0  0  0  0  0  0  0  0
    0.8562    0.7760   -1.4042 H   0  0  0  0  0  0  0  0  0  0  0  0
    1.3364   -0.9082   -1.1770 H   0  0  0  0  0  0  0  0  0  0  0  0
   -0.4960   -0.6122   -2.2423 C   0  0  0  0  0  0  0  0  0  0  0  0
   -1.2664   -1.5500   -2.1316 O   0  0  0  0  0  0  0  0  0  0  0  0
   -0.5029    0.0941   -3.3466 N   0  0  0  0  0  0  0  0  0  0  0  0
   -1.1784   -0.1768   -4.0395 H   0  0  0  0  0  0  0  0  0  0  0  0
    0.1075    0.8820   -3.4547 H   0  0  0  0  0  0  0  0  0  0  0  0
   -0.3126    1.2341    0.8050 C   0  0  0  0  0  0  0  0  0  0  0  0
   -1.2484    1.9199    0.3934 O   0  0  0  0  0  0  0  0  0  0  0  0
    0.5615    1.6875    1.7087 N   0  0  0  0  0  0  0  0  0  0  0  0
    1.3461    1.0849    1.9358 H   0  0  0  0  0  0  0  0  0  0  0  0
    0.5043    3.0121    2.3242 C   0  0  0  0  0  0  0  0  0  0  0  0
   -0.4649    3.1514    2.8080 H   0  0  0  0  0  0  0  0  0  0  0  0
    1.2959    3.1139    3.0678 H   0  0  0  0  0  0  0  0  0  0  0  0
    0.6273    3.7799    1.5584 H   0  0  0  0  0  0  0  0  0  0  0  0
  5  6  2  0  0  0  0
  5  7  1  0  0  0  0
  2  3  1  0  0  0  0
  2  4  1  0  0  0  0
  2  5  1  0  0  0  0
  1  2  1  0  0  0  0
 19 20  2  0  0  0  0
 19 21  1  0  0  0  0
 16 17  1  0  0  0  0
 16 18  1  0  0  0  0
 14 15  2  0  0  0  0
 14 16  1  0  0  0  0
 11 12  1  0  0  0  0
 11 13  1  0  0  0  0
 11 14  1  0  0  0  0
  9 10  1  0  0  0  0
  9 11  1  0  0  0  0
  9 19  1  0  0  0  0
  7  8  1  0  0  0  0
  7  9  1  0  0  0  0
 23 24  1  0  0  0  0
 23 25  1  0  0  0  0
 23 26  1  0  0  0  0
 21 22  1  0  0  0  0
 21 23  1  0  0  0  0
M  END
$$$$
default_name
  -OEChem-02102213163D

 26 25  0     1  0  0  0  0  0999 V2000
   -3.0232   -3.6924    1.0038 H   0  0  0  0  0  0  0  0  0  0  0  0
   -3.0082   -2.6684    0.6318 C   0  0  0  0  0  0  0  0  0  0  0  0
   -3.6332   -2.0414    1.2658 H   0  0  0  0  0  0  0  0  0  0  0  0
   -3.3762   -2.6444   -0.3912 H   0  0  0  0  0  0  0  0  0  0  0  0
   -1.5882   -2.1554    0.6658 C   0  0  0  0  0  0  0  0  0  0  0  0
   -0.6832   -2.8764    1.0638 O   0  0  0  0  0  0  0  0  0  0  0  0
   -1.3952   -0.9084    0.2428 N   0  0  0  0  0  0  0  0  0  0  0  0
   -2.1972   -0.3644   -0.0422 H   0  0  0  0  0  0  0  0  0  0  0  0
   -0.1122   -0.1994    0.2658 C   0  0  1  0  0  0  0  0  0  0  0  0
    0.5635   -0.7260    0.9446 H   0  0  0  0  0  0  0  0  0  0  0  0
    0.4924   -0.2204   -1.1558 C   0  0  0  0  0  0  0  0  0  0  0  0
    0.8562    0.7760   -1.4042 H   0  0  0  0  0  0  0  0  0  0  0  0
    1.3364   -0.9082   -1.1770 H   0  0  0  0  0  0  0  0  0  0  0  0
   -0.4960   -0.6122   -2.2423 C   0  0  0  0  0  0  0  0  0  0  0  0
   -1.4357   -1.3627   -2.0450 O   0  0  0  0  0  0  0  0  0  0  0  0
   -0.3120   -0.1199   -3.4432 N   0  0  0  0  0  0  0  0  0  0  0  0
   -0.9905   -0.3821   -4.1364 H   0  0  0  0  0  0  0  0  0  0  0  0
    0.4422    0.5146   -3.6267 H   0  0  0  0  0  0  0  0  0  0  0  0
   -0.3126    1.2341    0.8050 C   0  0  0  0  0  0  0  0  0  0  0  0
   -1.2484    1.9199    0.3934 O   0  0  0  0  0  0  0  0  0  0  0  0
    0.5615    1.6875    1.7087 N   0  0  0  0  0  0  0  0  0  0  0  0
    1.3461    1.0849    1.9358 H   0  0  0  0  0  0  0  0  0  0  0  0
    0.5043    3.0121    2.3242 C   0  0  0  0  0  0  0  0  0  0  0  0
   -0.4649    3.1514    2.8080 H   0  0  0  0  0  0  0  0  0  0  0  0
    1.2959    3.1139    3.0678 H   0  0  0  0  0  0  0  0  0  0  0  0
    0.6273    3.7799    1.5584 H   0  0  0  0  0  0  0  0  0  0  0  0
  5  6  2  0  0  0  0
  5  7  1  0  0  0  0
  2  3  1  0  0  0  0
  2  4  1  0  0  0  0
  2  5  1  0  0  0  0
  1  2  1  0  0  0  0
 19 20  2  0  0  0  0
 19 21  1  0  0  0  0
 16 17  1  0  0  0  0
 16 18  1  0  0  0  0
 14 15  2  0  0  0  0
 14 16  1  0  0  0  0
 11 12  1  0  0  0  0
 11 13  1  0  0  0  0
 11 14  1  0  0  0  0
  9 10  1  0  0  0  0
  9 11  1  0  0  0  0
  9 19  1  0  0  0  0
  7  8  1  0  0  0  0
  7  9  1  0  0  0  0
 23 24  1  0  0  0  0
 23 25  1  0  0  0  0
 23 26  1  0  0  0  0
 21 22  1  0  0  0  0
 21 23  1  0  0  0  0
M  END
$$$$
default_name
  -OEChem-02102213163D

 26 25  0     1  0  0  0  0  0999 V2000
   -3.0232   -3.6924    1.0038 H   0  0  0  0  0  0  0  0  0  0  0  0
   -3.0082   -2.6684    0.6318 C   0  0  0  0  0  0  0  0  0  0  0  0
   -3.6332   -2.0414    1.2658 H   0  0  0  0  0  0  0  0  0  0  0  0
   -3.3762   -2.6444   -0.3912 H   0  0  0  0  0  0  0  0  0  0  0  0
   -1.5882   -2.1554    0.6658 C   0  0  0  0  0  0  0  0  0  0  0  0
   -0.6832   -2.8764    1.0638 O   0  0  0  0  0  0  0  0  0  0  0  0
   -1.3952   -0.9084    0.2428 N   0  0  0  0  0  0  0  0  0  0  0  0
   -2.1972   -0.3644   -0.0422 H   0  0  0  0  0  0  0  0  0  0  0  0
   -0.1122   -0.1994    0.2658 C   0  0  1  0  0  0  0  0  0  0  0  0
    0.5635   -0.7260    0.9446 H   0  0  0  0  0  0  0  0  0  0  0  0
    0.4924   -0.2204   -1.1558 C   0  0  0  0  0  0  0  0  0  0  0  0
    0.8562    0.7760   -1.4042 H   0  0  0  0  0  0  0  0  0  0  0  0
    1.3364   -0.9082   -1.1770 H   0  0  0  0  0  0  0  0  0  0  0  0
   -0.4960   -0.6122   -2.2423 C   0  0  0  0  0  0  0  0  0  0  0  0
   -1.5704   -1.1360   -2.0043 O   0  0  0  0  0  0  0  0  0  0  0  0
   -0.1606   -0.3782   -3.4878 N   0  0  0  0  0  0  0  0  0  0  0  0
   -0.8406   -0.6314   -4.1829 H   0  0  0  0  0  0  0  0  0  0  0  0
    0.7090    0.0689   -3.7088 H   0  0  0  0  0  0  0  0  0  0  0  0
   -0.3126    1.2341    0.8050 C   0  0  0  0  0  0  0  0  0  0  0  0
   -1.2484    1.9199    0.3934 O   0  0  0  0  0  0  0  0  0  0  0  0
    0.5615    1.6875    1.7087 N   0  0  0  0  0  0  0  0  0  0  0  0
    1.3461    1.0849    1.9358 H   0  0  0  0  0  0  0  0  0  0  0  0
    0.5043    3.0121    2.3242 C   0  0  0  0  0  0  0  0  0  0  0  0
   -0.4649    3.1514    2.8080 H   0  0  0  0  0  0  0  0  0  0  0  0
    1.2959    3.1139    3.0678 H   0  0  0  0  0  0  0  0  0  0  0  0
    0.6273    3.7799    1.5584 H   0  0  0  0  0  0  0  0  0  0  0  0
  5  6  2  0  0  0  0
  5  7  1  0  0  0  0
  2  3  1  0  0  0  0
  2  4  1  0  0  0  0
  2  5  1  0  0  0  0
  1  2  1  0  0  0  0
 19 20  2  0  0  0  0
 19 21  1  0  0  0  0
 16 17  1  0  0  0  0
 16 18  1  0  0  0  0
 14 15  2  0  0  0  0
 14 16  1  0  0  0  0
 11 12  1  0  0  0  0
 11 13  1  0  0  0  0
 11 14  1  0  0  0  0
  9 10  1  0  0  0  0
  9 11  1  0  0  0  0
  9 19  1  0  0  0  0
  7  8  1  0  0  0  0
  7  9  1  0  0  0  0
 23 24  1  0  0  0  0
 23 25  1  0  0  0  0
 23 26  1  0  0  0  0
 21 22  1  0  0  0  0
 21 23  1  0  0  0  0
M  END
$$$$
default_name
  -OEChem-02102213163D

 26 25  0     1  0  0  0  0  0999 V2000
   -3.0232   -3.6924    1.0038 H   0  0  0  0  0  0  0  0  0  0  0  0
   -3.0082   -2.6684    0.6318 C   0  0  0  0  0  0  0  0  0  0  0  0
   -3.6332   -2.0414    1.2658 H   0  0  0  0  0  0  0  0  0  0  0  0
   -3.3762   -2.6444   -0.3912 H   0  0  0  0  0  0  0  0  0  0  0  0
   -1.5882   -2.1554    0.6658 C   0  0  0  0  0  0  0  0  0  0  0  0
   -0.6832   -2.8764    1.0638 O   0  0  0  0  0  0  0  0  0  0  0  0
   -1.3952   -0.9084    0.2428 N   0  0  0  0  0  0  0  0  0  0  0  0
   -2.1972   -0.3644   -0.0422 H   0  0  0  0  0  0  0  0  0  0  0  0
   -0.1122   -0.1994    0.2658 C   0  0  1  0  0  0  0  0  0  0  0  0
    0.5635   -0.7260    0.9446 H   0  0  0  0  0  0  0  0  0  0  0  0
    0.4924   -0.2204   -1.1558 C   0  0  0  0  0  0  0  0  0  0  0  0
    0.8562    0.7760   -1.4042 H   0  0  0  0  0  0  0  0  0  0  0  0
    1.3364   -0.9082   -1.1770 H   0  0  0  0  0  0  0  0  0  0  0  0
   -0.4960   -0.6122   -2.2423 C   0  0  0  0  0  0  0  0  0  0  0  0
   -1.6612   -0.8851   -2.0120 O   0  0  0  0  0  0  0  0  0  0  0  0
   -0.0593   -0.6631   -3.4772 N   0  0  0  0  0  0  0  0  0  0  0  0
   -0.7388   -0.9077   -4.1758 H   0  0  0  0  0  0  0  0  0  0  0  0
    0.8898   -0.4248   -3.6952 H   0  0  0  0  0  0  0  0  0  0  0  0
   -0.3126    1.2341    0.8050 C   0  0  0  0  0  0  0  0  0  0  0  0
   -1.2484    1.9199    0.3934 O   0  0  0  0  0  0  0  0  0  0  0  0
    0.5615    1.6875    1.7087 N   0  0  0  0  0  0  0  0  0  0  0  0
    1.3461    1.0849    1.9358 H   0  0  0  0  0  0  0  0  0  0  0  0
    0.5043    3.0121    2.3242 C   0  0  0  0  0  0  0  0  0  0  0  0
   -0.4649    3.1514    2.8080 H   0  0  0  0  0  0  0  0  0  0  0  0
    1.2959    3.1139    3.0678 H   0  0  0  0  0  0  0  0  0  0  0  0
    0.6273    3.7799    1.5584 H   0  0  0  0  0  0  0  0  0  0  0  0
  5  6  2  0  0  0  0
  5  7  1  0  0  0  0
  2  3  1  0  0  0  0
  2  4  1  0  0  0  0
  2  5  1  0  0  0  0
  1  2  1  0  0  0  0
 19 20  2  0  0  0  0
 19 21  1  0  0  0  0
 16 17  1  0  0  0  0
 16 18  1  0  0  0  0
 14 15  2  0  0  0  0
 14 16  1  0  0  0  0
 11 12  1  0  0  0  0
 11 13  1  0  0  0  0
 11 14  1  0  0  0  0
  9 10  1  0  0  0  0
  9 11  1  0  0  0  0
  9 19  1  0  0  0  0
  7  8  1  0  0  0  0
  7  9  1  0  0  0  0
 23 24  1  0  0  0  0
 23 25  1  0  0  0  0
 23 26  1  0  0  0  0
 21 22  1  0  0  0  0
 21 23  1  0  0  0  0
M  END
$$$$
default_name
  -OEChem-02102213163D

 26 25  0     1  0  0  0  0  0999 V2000
   -3.0232   -3.6924    1.0038 H   0  0  0  0  0  0  0  0  0  0  0  0
   -3.0082   -2.6684    0.6318 C   0  0  0  0  0  0  0  0  0  0  0  0
   -3.6332   -2.0414    1.2658 H   0  0  0  0  0  0  0  0  0  0  0  0
   -3.3762   -2.6444   -0.3912 H   0  0  0  0  0  0  0  0  0  0  0  0
   -1.5882   -2.1554    0.6658 C   0  0  0  0  0  0  0  0  0  0  0  0
   -0.6832   -2.8764    1.0638 O   0  0  0  0  0  0  0  0  0  0  0  0
   -1.3952   -0.9084    0.2428 N   0  0  0  0  0  0  0  0  0  0  0  0
   -2.1972   -0.3644   -0.0422 H   0  0  0  0  0  0  0  0  0  0  0  0
   -0.1122   -0.1994    0.2658 C   0  0  1  0  0  0  0  0  0  0  0  0
    0.5635   -0.7260    0.9446 H   0  0  0  0  0  0  0  0  0  0  0  0
    0.4924   -0.2204   -1.1558 C   0  0  0  0  0  0  0  0  0  0  0  0
    0.8562    0.7760   -1.4042 H   0  0  0  0  0  0  0  0  0  0  0  0
    1.3364   -0.9082   -1.1770 H   0  0  0  0  0  0  0  0  0  0  0  0
   -0.4960   -0.6122   -2.2423 C   0  0  0  0  0  0  0  0  0  0  0  0
   -1.7021   -0.6274   -2.0678 O   0  0  0  0  0  0  0  0  0  0  0  0
   -0.0148   -0.9554   -3.4123 N   0  0  0  0  0  0  0  0  0  0  0  0
   -0.6920   -1.1923   -4.1158 H   0  0  0  0  0  0  0  0  0  0  0  0
    0.9722   -0.9328   -3.5870 H   0  0  0  0  0  0  0  0  0  0  0  0
   -0.3126    1.2341    0.8050 C   0  0  0  0  0  0  0  0  0  0  0  0
   -1.2484    1.9199    0.3934 O   0  0  0  0  0  0  0  0  0  0  0  0
    0.5615    1.6875    1.7087 N   0  0  0  0  0  0  0  0  0  0  0  0
    1.3461    1.0849    1.9358 H   0  0  0  0  0  0  0  0  0  0  0  0
    0.5043    3.0121    2.3242 C   0  0  0  0  0  0  0  0  0  0  0  0
   -0.4649    3.1514    2.8080 H   0  0  0  0  0  0  0  0  0  0  0  0
    1.2959    3.1139    3.0678 H   0  0  0  0  0  0  0  0  0  0  0  0
    0.6273    3.7799    1.5584 H   0  0  0  0  0  0  0  0  0  0  0  0
  5  6  2  0  0  0  0
  5  7  1  0  0  0  0
  2  3  1  0  0  0  0
  2  4  1  0  0  0  0
  2  5  1  0  0  0  0
  1  2  1  0  0  0  0
 19 20  2  0  0  0  0
 19 21  1  0  0  0  0
 16 17  1  0  0  0  0
 16 18  1  0  0  0  0
 14 15  2  0  0  0  0
 14 16  1  0  0  0  0
 11 12  1  0  0  0  0
 11 13  1  0  0  0  0
 11 14  1  0  0  0  0
  9 10  1  0  0  0  0
  9 11  1  0  0  0  0
  9 19  1  0  0  0  0
  7  8  1  0  0  0  0
  7  9  1  0  0  0  0
 23 24  1  0  0  0  0
 23 25  1  0  0  0  0
 23 26  1  0  0  0  0
 21 22  1  0  0  0  0
 21 23  1  0  0  0  0
M  END
$$$$
default_name
  -OEChem-02102213163D

 26 25  0     1  0  0  0  0  0999 V2000
   -3.0232   -3.6924    1.0038 H   0  0  0  0  0  0  0  0  0  0  0  0
   -3.0082   -2.6684    0.6318 C   0  0  0  0  0  0  0  0  0  0  0  0
   -3.6332   -2.0414    1.2658 H   0  0  0  0  0  0  0  0  0  0  0  0
   -3.3762   -2.6444   -0.3912 H   0  0  0  0  0  0  0  0  0  0  0  0
   -1.5882   -2.1554    0.6658 C   0  0  0  0  0  0  0  0  0  0  0  0
   -0.6832   -2.8764    1.0638 O   0  0  0  0  0  0  0  0  0  0  0  0
   -1.3952   -0.9084    0.2428 N   0  0  0  0  0  0  0  0  0  0  0  0
   -2.1972   -0.3644   -0.0422 H   0  0  0  0  0  0  0  0  0  0  0  0
   -0.1122   -0.1994    0.2658 C   0  0  1  0  0  0  0  0  0  0  0  0
    0.5635   -0.7260    0.9446 H   0  0  0  0  0  0  0  0  0  0  0  0
    0.4924   -0.2204   -1.1558 C   0  0  0  0  0  0  0  0  0  0  0  0
    0.8562    0.7760   -1.4042 H   0  0  0  0  0  0  0  0  0  0  0  0
    1.3364   -0.9082   -1.1770 H   0  0  0  0  0  0  0  0  0  0  0  0
   -0.4960   -0.6122   -2.2423 C   0  0  0  0  0  0  0  0  0  0  0  0
   -1.6901   -0.3802   -2.1678 O   0  0  0  0  0  0  0  0  0  0  0  0
   -0.0302   -1.2350   -3.2975 N   0  0  0  0  0  0  0  0  0  0  0  0
   -0.7035   -1.4658   -4.0067 H   0  0  0  0  0  0  0  0  0  0  0  0
    0.9505   -1.4205   -3.3914 H   0  0  0  0  0  0  0  0  0  0  0  0
   -0.3126    1.2341    0.8050 C   0  0  0  0  0  0  0  0  0  0  0  0
   -1.2484    1.9199    0.3934 O   0  0  0  0  0  0  0  0  0  0  0  0
    0.5615    1.6875    1.7087 N   0  0  0  0  0  0  0  0  0  0  0  0
    1.3461    1.0849    1.9358 H   0  0  0  0  0  0  0  0  0  0  0  0
    0.5043    3.0121    2.3242 C   0  0  0  0  0  0  0  0  0  0  0  0
   -0.4649    3.1514    2.8080 H   0  0  0  0  0  0  0  0  0  0  0  0
    1.2959    3.1139    3.0678 H   0  0  0  0  0  0  0  0  0  0  0  0
    0.6273    3.7799    1.5584 H   0  0  0  0  0  0  0  0  0  0  0  0
  5  6  2  0  0  0  0
  5  7  1  0  0  0  0
  2  3  1  0  0  0  0
  2  4  1  0  0  0  0
  2  5  1  0  0  0  0
  1  2  1  0  0  0  0
 19 20  2  0  0  0  0
 19 21  1  0  0  0  0
 16 17  1  0  0  0  0
 16 18  1  0  0  0  0
 14 15  2  0  0  0  0
 14 16  1  0  0  0  0
 11 12  1  0  0  0  0
 11 13  1  0  0  0  0
 11 14  1  0  0  0  0
  9 10  1  0  0  0  0
  9 11  1  0  0  0  0
  9 19  1  0  0  0  0
  7  8  1  0  0  0  0
  7  9  1  0  0  0  0
 23 24  1  0  0  0  0
 23 25  1  0  0  0  0
 23 26  1  0  0  0  0
 21 22  1  0  0  0  0
 21 23  1  0  0  0  0
M  END
$$$$
default_name
  -OEChem-02102213163D

 26 25  0     1  0  0  0  0  0999 V2000
   -3.0232   -3.6924    1.0038 H   0  0  0  0  0  0  0  0  0  0  0  0
   -3.0082   -2.6684    0.6318 C   0  0  0  0  0  0  0  0  0  0  0  0
   -3.6332   -2.0414    1.2658 H   0  0  0  0  0  0  0  0  0  0  0  0
   -3.3762   -2.6444   -0.3912 H   0  0  0  0  0  0  0  0  0  0  0  0
   -1.5882   -2.1554    0.6658 C   0  0  0  0  0  0  0  0  0  0  0  0
   -0.6832   -2.8764    1.0638 O   0  0  0  0  0  0  0  0  0  0  0  0
   -1.3952   -0.9084    0.2428 N   0  0  0  0  0  0  0  0  0  0  0  0
   -2.1972   -0.3644   -0.0422 H   0  0  0  0  0  0  0  0  0  0  0  0
   -0.1122   -0.1994    0.2658 C   0  0  1  0  0  0  0  0  0  0  0  0
    0.5635   -0.7260    0.9446 H   0  0  0  0  0  0  0  0  0  0  0  0
    0.4924   -0.2204   -1.1558 C   0  0  0  0  0  0  0  0  0  0  0  0
    0.8562    0.7760   -1.4042 H   0  0  0  0  0  0  0  0  0  0  0  0
    1.3364   -0.9082   -1.1770 H   0  0  0  0  0  0  0  0  0  0  0  0
   -0.4960   -0.6122   -2.2423 C   0  0  0  0  0  0  0  0  0  0  0  0
   -1.6262   -0.1605   -2.3052 O   0  0  0  0  0  0  0  0  0  0  0  0
   -0.1044   -1.4829   -3.1406 N   0  0  0  0  0  0  0  0  0  0  0  0
   -0.7725   -1.7094   -3.8561 H   0  0  0  0  0  0  0  0  0  0  0  0
    0.8264   -1.8547   -3.1219 H   0  0  0  0  0  0  0  0  0  0  0  0
   -0.3126    1.2341    0.8050 C   0  0  0  0  0  0  0  0  0  0  0  0
   -1.2484    1.9199    0.3934 O   0  0  0  0  0  0  0  0  0  0  0  0
    0.5615    1.6875    1.7087 N   0  0  0  0  0  0  0  0  0  0  0  0
    1.3461    1.0849    1.9358 H   0  0  0  0  0  0  0  0  0  0  0  0
    0.5043    3.0121    2.3242 C   0  0  0  0  0  0  0  0  0  0  0  0
   -0.4649    3.1514    2.8080 H   0  0  0  0  0  0  0  0  0  0  0  0
    1.2959    3.1139    3.0678 H   0  0  0  0  0  0  0  0  0  0  0  0
    0.6273    3.7799    1.5584 H   0  0  0  0  0  0  0  0  0  0  0  0
  5  6  2  0  0  0  0
  5  7  1  0  0  0  0
  2  3  1  0  0  0  0
  2  4  1  0  0  0  0
  2  5  1  0  0  0  0
  1  2  1  0  0  0  0
 19 20  2  0  0  0  0
 19 21  1  0  0  0  0
 16 17  1  0  0  0  0
 16 18  1  0  0  0  0
 14 15  2  0  0  0  0
 14 16  1  0  0  0  0
 11 12  1  0  0  0  0
 11 13  1  0  0  0  0
 11 14  1  0  0  0  0
  9 10  1  0  0  0  0
  9 11  1  0  0  0  0
  9 19  1  0  0  0  0
  7  8  1  0  0  0  0
  7  9  1  0  0  0  0
 23 24  1  0  0  0  0
 23 25  1  0  0  0  0
 23 26  1  0  0  0  0
 21 22  1  0  0  0  0
 21 23  1  0  0  0  0
M  END
$$$$
default_name
  -OEChem-02102213163D

 26 25  0     1  0  0  0  0  0999 V2000
   -3.0232   -3.6924    1.0038 H   0  0  0  0  0  0  0  0  0  0  0  0
   -3.0082   -2.6684    0.6318 C   0  0  0  0  0  0  0  0  0  0  0  0
   -3.6332   -2.0414    1.2658 H   0  0  0  0  0  0  0  0  0  0  0  0
   -3.3762   -2.6444   -0.3912 H   0  0  0  0  0  0  0  0  0  0  0  0
   -1.5882   -2.1554    0.6658 C   0  0  0  0  0  0  0  0  0  0  0  0
   -0.6832   -2.8764    1.0638 O   0  0  0  0  0  0  0  0  0  0  0  0
   -1.3952   -0.9084    0.2428 N   0  0  0  0  0  0  0  0  0  0  0  0
   -2.1972   -0.3644   -0.0422 H   0  0  0  0  0  0  0  0  0  0  0  0
   -0.1122   -0.1994    0.2658 C   0  0  1  0  0  0  0  0  0  0  0  0
    0.5635   -0.7260    0.9446 H   0  0  0  0  0  0  0  0  0  0  0  0
    0.4924   -0.2204   -1.1558 C   0  0  0  0  0  0  0  0  0  0  0  0
    0.8562    0.7760   -1.4042 H   0  0  0  0  0  0  0  0  0  0  0  0
    1.3364   -0.9082   -1.1770 H   0  0  0  0  0  0  0  0  0  0  0  0
   -0.4960   -0.6122   -2.2423 C   0  0  0  0  0  0  0  0  0  0  0  0
   -1.5147    0.0168   -2.4706 O   0  0  0  0  0  0  0  0  0  0  0  0
   -0.2325   -1.6822   -2.9522 N   0  0  0  0  0  0  0  0  0  0  0  0
   -0.8942   -1.9067   -3.6743 H   0  0  0  0  0  0  0  0  0  0  0  0
    0.6082   -2.2058   -2.7968 H   0  0  0  0  0  0  0  0  0  0  0  0
   -0.3126    1.2341    0.8050 C   0  0  0  0  0  0  0  0  0  0  0  0
   -1.2484    1.9199    0.3934 O   0  0  0  0  0  0  0  0  0  0  0  0
    0.5615    1.6875    1.7087 N   0  0  0  0  0  0  0  0  0  0  0  0
    1.3461    1.0849    1.9358 H   0  0  0  0  0  0  0  0  0  0  0  0
    0.5043    3.0121    2.3242 C   0  0  0  0  0  0  0  0  0  0  0  0
   -0.4649    3.1514    2.8080 H   0  0  0  0  0  0  0  0  0  0  0  0
    1.2959    3.1139    3.0678 H   0  0  0  0  0  0  0  0  0  0  0  0
    0.6273    3.7799    1.5584 H   0  0  0  0  0  0  0  0  0  0  0  0
  5  6  2  0  0  0  0
  5  7  1  0  0  0  0
  2  3  1  0  0  0  0
  2  4  1  0  0  0  0
  2  5  1  0  0  0  0
  1  2  1  0  0  0  0
 19 20  2  0  0  0  0
 19 21  1  0  0  0  0
 16 17  1  0  0  0  0
 16 18  1  0  0  0  0
 14 15  2  0  0  0  0
 14 16  1  0  0  0  0
 11 12  1  0  0  0  0
 11 13  1  0  0  0  0
 11 14  1  0  0  0  0
  9 10  1  0  0  0  0
  9 11  1  0  0  0  0
  9 19  1  0  0  0  0
  7  8  1  0  0  0  0
  7  9  1  0  0  0  0
 23 24  1  0  0  0  0
 23 25  1  0  0  0  0
 23 26  1  0  0  0  0
 21 22  1  0  0  0  0
 21 23  1  0  0  0  0
M  END
$$$$
default_name
  -OEChem-02102213163D

 26 25  0     1  0  0  0  0  0999 V2000
   -3.0232   -3.6924    1.0038 H   0  0  0  0  0  0  0  0  0  0  0  0
   -3.0082   -2.6684    0.6318 C   0  0  0  0  0  0  0  0  0  0  0  0
   -3.6332   -2.0414    1.2658 H   0  0  0  0  0  0  0  0  0  0  0  0
   -3.3762   -2.6444   -0.3912 H   0  0  0  0  0  0  0  0  0  0  0  0
   -1.5882   -2.1554    0.6658 C   0  0  0  0  0  0  0  0  0  0  0  0
   -0.6832   -2.8764    1.0638 O   0  0  0  0  0  0  0  0  0  0  0  0
   -1.3952   -0.9084    0.2428 N   0  0  0  0  0  0  0  0  0  0  0  0
   -2.1972   -0.3644   -0.0422 H   0  0  0  0  0  0  0  0  0  0  0  0
   -0.1122   -0.1994    0.2658 C   0  0  1  0  0  0  0  0  0  0  0  0
    0.5635   -0.7260    0.9446 H   0  0  0  0  0  0  0  0  0  0  0  0
    0.4924   -0.2204   -1.1558 C   0  0  0  0  0  0  0  0  0  0  0  0
    0.8562    0.7760   -1.4042 H   0  0  0  0  0  0  0  0  0  0  0  0
    1.3364   -0.9082   -1.1770 H   0  0  0  0  0  0  0  0  0  0  0  0
   -0.4960   -0.6122   -2.2423 C   0  0  0  0  0  0  0  0  0  0  0  0
   -1.3631    0.1395   -2.6527 O   0  0  0  0  0  0  0  0  0  0  0  0
   -0.4056   -1.8193   -2.7453 N   0  0  0  0  0  0  0  0  0  0  0  0
   -1.0604   -2.0441   -3.4735 H   0  0  0  0  0  0  0  0  0  0  0  0
    0.3107   -2.4499   -2.4383 H   0  0  0  0  0  0  0  0  0  0  0  0
   -0.3126    1.2341    0.8050 C   0  0  0  0  0  0  0  0  0  0  0  0
   -1.2484    1.9199    0.3934 O   0  0  0  0  0  0  0  0  0  0  0  0
    0.5615    1.6875    1.7087 N   0  0  0  0  0  0  0  0  0  0  0  0
    1.3461    1.0849    1.9358 H   0  0  0  0  0  0  0  0  0  0  0  0
    0.5043    3.0121    2.3242 C   0  0  0  0  0  0  0  0  0  0  0  0
   -0.4649    3.1514    2.8080 H   0  0  0  0  0  0  0  0  0  0  0  0
    1.2959    3.1139    3.0678 H   0  0  0  0  0  0  0  0  0  0  0  0
    0.6273    3.7799    1.5584 H   0  0  0  0  0  0  0  0  0  0  0  0
  5  6  2  0  0  0  0
  5  7  1  0  0  0  0
  2  3  1  0  0  0  0
  2  4  1  0  0  0  0
  2  5  1  0  0  0  0
  1  2  1  0  0  0  0
 19 20  2  0  0  0  0
 19 21  1  0  0  0  0
 16 17  1  0  0  0  0
 16 18  1  0  0  0  0
 14 15  2  0  0  0  0
 14 16  1  0  0  0  0
 11 12  1  0  0  0  0
 11 13  1  0  0  0  0
 11 14  1  0  0  0  0
  9 10  1  0  0  0  0
  9 11  1  0  0  0  0
  9 19  1  0  0  0  0
  7  8  1  0  0  0  0
  7  9  1  0  0  0  0
 23 24  1  0  0  0  0
 23 25  1  0  0  0  0
 23 26  1  0  0  0  0
 21 22  1  0  0  0  0
 21 23  1  0  0  0  0
M  END
$$$$
default_name
  -OEChem-02102213163D

 26 25  0     1  0  0  0  0  0999 V2000
   -3.0232   -3.6924    1.0038 H   0  0  0  0  0  0  0  0  0  0  0  0
   -3.0082   -2.6684    0.6318 C   0  0  0  0  0  0  0  0  0  0  0  0
   -3.6332   -2.0414    1.2658 H   0  0  0  0  0  0  0  0  0  0  0  0
   -3.3762   -2.6444   -0.3912 H   0  0  0  0  0  0  0  0  0  0  0  0
   -1.5882   -2.1554    0.6658 C   0  0  0  0  0  0  0  0  0  0  0  0
   -0.6832   -2.8764    1.0638 O   0  0  0  0  0  0  0  0  0  0  0  0
   -1.3952   -0.9084    0.2428 N   0  0  0  0  0  0  0  0  0  0  0  0
   -2.1972   -0.3644   -0.0422 H   0  0  0  0  0  0  0  0  0  0  0  0
   -0.1122   -0.1994    0.2658 C   0  0  1  0  0  0  0  0  0  0  0  0
    0.5635   -0.7260    0.9446 H   0  0  0  0  0  0  0  0  0  0  0  0
    0.4924   -0.2204   -1.1558 C   0  0  0  0  0  0  0  0  0  0  0  0
    0.8562    0.7760   -1.4042 H   0  0  0  0  0  0  0  0  0  0  0  0
    1.3364   -0.9082   -1.1770 H   0  0  0  0  0  0  0  0  0  0  0  0
   -0.4960   -0.6122   -2.2423 C   0  0  0  0  0  0  0  0  0  0  0  0
   -1.1818    0.1994   -2.8392 O   0  0  0  0  0  0  0  0  0  0  0  0
   -0.6120   -1.8849   -2.5338 N   0  0  0  0  0  0  0  0  0  0  0  0
   -1.2598   -2.1123   -3.2676 H   0  0  0  0  0  0  0  0  0  0  0  0
   -0.0456   -2.5702   -2.0707 H   0  0  0  0  0  0  0  0  0  0  0  0
   -0.3126    1.2341    0.8050 C   0  0  0  0  0  0  0  0  0  0  0  0
   -1.2484    1.9199    0.3934 O   0  0  0  0  0  0  0  0  0  0  0  0
    0.5615    1.6875    1.7087 N   0  0  0  0  0  0  0  0  0  0  0  0
    1.3461    1.0849    1.9358 H   0  0  0  0  0  0  0  0  0  0  0  0
    0.5043    3.0121    2.3242 C   0  0  0  0  0  0  0  0  0  0  0  0
   -0.4649    3.1514    2.8080 H   0  0  0  0  0  0  0  0  0  0  0  0
    1.2959    3.1139    3.0678 H   0  0  0  0  0  0  0  0  0  0  0  0
    0.6273    3.7799    1.5584 H   0  0  0  0  0  0  0  0  0  0  0  0
  5  6  2  0  0  0  0
  5  7  1  0  0  0  0
  2  3  1  0  0  0  0
  2  4  1  0  0  0  0
  2  5  1  0  0  0  0
  1  2  1  0  0  0  0
 19 20  2  0  0  0  0
 19 21  1  0  0  0  0
 16 17  1  0  0  0  0
 16 18  1  0  0  0  0
 14 15  2  0  0  0  0
 14 16  1  0  0  0  0
 11 12  1  0  0  0  0
 11 13  1  0  0  0  0
 11 14  1  0  0  0  0
  9 10  1  0  0  0  0
  9 11  1  0  0  0  0
  9 19  1  0  0  0  0
  7  8  1  0  0  0  0
  7  9  1  0  0  0  0
 23 24  1  0  0  0  0
 23 25  1  0  0  0  0
 23 26  1  0  0  0  0
 21 22  1  0  0  0  0
 21 23  1  0  0  0  0
M  END
$$$$
default_name
  -OEChem-02102213163D

 26 25  0     1  0  0  0  0  0999 V2000
   -3.0232   -3.6924    1.0038 H   0  0  0  0  0  0  0  0  0  0  0  0
   -3.0082   -2.6684    0.6318 C   0  0  0  0  0  0  0  0  0  0  0  0
   -3.6332   -2.0414    1.2658 H   0  0  0  0  0  0  0  0  0  0  0  0
   -3.3762   -2.6444   -0.3912 H   0  0  0  0  0  0  0  0  0  0  0  0
   -1.5882   -2.1554    0.6658 C   0  0  0  0  0  0  0  0  0  0  0  0
   -0.6832   -2.8764    1.0638 O   0  0  0  0  0  0  0  0  0  0  0  0
   -1.3952   -0.9084    0.2428 N   0  0  0  0  0  0  0  0  0  0  0  0
   -2.1972   -0.3644   -0.0422 H   0  0  0  0  0  0  0  0  0  0  0  0
   -0.1122   -0.1994    0.2658 C   0  0  1  0  0  0  0  0  0  0  0  0
    0.5635   -0.7260    0.9446 H   0  0  0  0  0  0  0  0  0  0  0  0
    0.4924   -0.2204   -1.1558 C   0  0  0  0  0  0  0  0  0  0  0  0
    0.8562    0.7760   -1.4042 H   0  0  0  0  0  0  0  0  0  0  0  0
    1.3364   -0.9082   -1.1770 H   0  0  0  0  0  0  0  0  0  0  0  0
   -0.4960   -0.6122   -2.2423 C   0  0  0  0  0  0  0  0  0  0  0  0
   -0.9832    0.1923   -3.0174 O   0  0  0  0  0  0  0  0  0  0  0  0
   -0.8376   -1.8745   -2.3323 N   0  0  0  0  0  0  0  0  0  0  0  0
   -1.4786   -2.1066   -3.0705 H   0  0  0  0  0  0  0  0  0  0  0  0
   -0.4366   -2.5587   -1.7191 H   0  0  0  0  0  0  0  0  0  0  0  0
   -0.3126    1.2341    0.8050 C   0  0  0  0  0  0  0  0  0  0  0  0
   -1.2484    1.9199    0.3934 O   0  0  0  0  0  0  0  0  0  0  0  0
    0.5615    1.6875    1.7087 N   0  0  0  0  0  0  0  0  0  0  0  0
    1.3461    1.0849    1.9358 H   0  0  0  0  0  0  0  0  0  0  0  0
    0.5043    3.0121    2.3242 C   0  0  0  0  0  0  0  0  0  0  0  0
   -0.4649    3.1514    2.8080 H   0  0  0  0  0  0  0  0  0  0  0  0
    1.2959    3.1139    3.0678 H   0  0  0  0  0  0  0  0  0  0  0  0
    0.6273    3.7799    1.5584 H   0  0  0  0  0  0  0  0  0  0  0  0
  5  6  2  0  0  0  0
  5  7  1  0  0  0  0
  2  3  1  0  0  0  0
  2  4  1  0  0  0  0
  2  5  1  0  0  0  0
  1  2  1  0  0  0  0
 19 20  2  0  0  0  0
 19 21  1  0  0  0  0
 16 17  1  0  0  0  0
 16 18  1  0  0  0  0
 14 15  2  0  0  0  0
 14 16  1  0  0  0  0
 11 12  1  0  0  0  0
 11 13  1  0  0  0  0
 11 14  1  0  0  0  0
  9 10  1  0  0  0  0
  9 11  1  0  0  0  0
  9 19  1  0  0  0  0
  7  8  1  0  0  0  0
  7  9  1  0  0  0  0
 23 24  1  0  0  0  0
 23 25  1  0  0  0  0
 23 26  1  0  0  0  0
 21 22  1  0  0  0  0
 21 23  1  0  0  0  0
M  END
$$$$
default_name
  -OEChem-02102213163D

 26 25  0     1  0  0  0  0  0999 V2000
   -3.0232   -3.6924    1.0038 H   0  0  0  0  0  0  0  0  0  0  0  0
   -3.0082   -2.6684    0.6318 C   0  0  0  0  0  0  0  0  0  0  0  0
   -3.6332   -2.0414    1.2658 H   0  0  0  0  0  0  0  0  0  0  0  0
   -3.3762   -2.6444   -0.3912 H   0  0  0  0  0  0  0  0  0  0  0  0
   -1.5882   -2.1554    0.6658 C   0  0  0  0  0  0  0  0  0  0  0  0
   -0.6832   -2.8764    1.0638 O   0  0  0  0  0  0  0  0  0  0  0  0
   -1.3952   -0.9084    0.2428 N   0  0  0  0  0  0  0  0  0  0  0  0
   -2.1972   -0.3644   -0.0422 H   0  0  0  0  0  0  0  0  0  0  0  0
   -0.1122   -0.1994    0.2658 C   0  0  1  0  0  0  0  0  0  0  0  0
    0.5635   -0.7260    0.9446 H   0  0  0  0  0  0  0  0  0  0  0  0
    0.4924   -0.2204   -1.1558 C   0  0  0  0  0  0  0  0  0  0  0  0
    0.8562    0.7760   -1.4042 H   0  0  0  0  0  0  0  0  0  0  0  0
    1.3364   -0.9082   -1.1770 H   0  0  0  0  0  0  0  0  0  0  0  0
   -0.4960   -0.6122   -2.2423 C   0  0  0  0  0  0  0  0  0  0  0  0
   -0.7808    0.1188   -3.1750 O   0  0  0  0  0  0  0  0  0  0  0  0
   -1.0670   -1.7888   -2.1545 N   0  0  0  0  0  0  0  0  0  0  0  0
   -1.7022   -2.0275   -2.8957 H   0  0  0  0  0  0  0  0  0  0  0  0
   -0.8355   -2.4161   -1.4076 H   0  0  0  0  0  0  0  0  0  0  0  0
   -0.3126    1.2341    0.8050 C   0  0  0  0  0  0  0  0  0  0  0  0
   -1.2484    1.9199    0.3934 O   0  0  0  0  0  0  0  0  0  0  0  0
    0.5615    1.6875    1.7087 N   0  0  0  0  0  0  0  0  0  0  0  0
    1.3461    1.0849    1.9358 H   0  0  0  0  0  0  0  0  0  0  0  0
    0.5043    3.0121    2.3242 C   0  0  0  0  0  0  0  0  0  0  0  0
   -0.4649    3.1514    2.8080 H   0  0  0  0  0  0  0  0  0  0  0  0
    1.2959    3.1139    3.0678 H   0  0  0  0  0  0  0  0  0  0  0  0
    0.6273    3.7799    1.5584 H   0  0  0  0  0  0  0  0  0  0  0  0
  5  6  2  0  0  0  0
  5  7  1  0  0  0  0
  2  3  1  0  0  0  0
  2  4  1  0  0  0  0
  2  5  1  0  0  0  0
  1  2  1  0  0  0  0
 19 20  2  0  0  0  0
 19 21  1  0  0  0  0
 16 17  1  0  0  0  0
 16 18  1  0  0  0  0
 14 15  2  0  0  0  0
 14 16  1  0  0  0  0
 11 12  1  0  0  0  0
 11 13  1  0  0  0  0
 11 14  1  0  0  0  0
  9 10  1  0  0  0  0
  9 11  1  0  0  0  0
  9 19  1  0  0  0  0
  7  8  1  0  0  0  0
  7  9  1  0  0  0  0
 23 24  1  0  0  0  0
 23 25  1  0  0  0  0
 23 26  1  0  0  0  0
 21 22  1  0  0  0  0
 21 23  1  0  0  0  0
M  END
$$$$
default_name
  -OEChem-02102213163D

 26 25  0     1  0  0  0  0  0999 V2000
   -3.0232   -3.6924    1.0038 H   0  0  0  0  0  0  0  0  0  0  0  0
   -3.0082   -2.6684    0.6318 C   0  0  0  0  0  0  0  0  0  0  0  0
   -3.6332   -2.0414    1.2658 H   0  0  0  0  0  0  0  0  0  0  0  0
   -3.3762   -2.6444   -0.3912 H   0  0  0  0  0  0  0  0  0  0  0  0
   -1.5882   -2.1554    0.6658 C   0  0  0  0  0  0  0  0  0  0  0  0
   -0.6832   -2.8764    1.0638 O   0  0  0  0  0  0  0  0  0  0  0  0
   -1.3952   -0.9084    0.2428 N   0  0  0  0  0  0  0  0  0  0  0  0
   -2.1972   -0.3644   -0.0422 H   0  0  0  0  0  0  0  0  0  0  0  0
   -0.1122   -0.1994    0.2658 C   0  0  1  0  0  0  0  0  0  0  0  0
    0.5635   -0.7260    0.9446 H   0  0  0  0  0  0  0  0  0  0  0  0
    0.4924   -0.2204   -1.1558 C   0  0  0  0  0  0  0  0  0  0  0  0
    0.8562    0.7760   -1.4042 H   0  0  0  0  0  0  0  0  0  0  0  0
    1.3364   -0.9082   -1.1770 H   0  0  0  0  0  0  0  0  0  0  0  0
   -0.4960   -0.6122   -2.2423 C   0  0  0  0  0  0  0  0  0  0  0  0
   -0.5884   -0.0162   -3.3014 O   0  0  0  0  0  0  0  0  0  0  0  0
   -1.2847   -1.6337   -2.0125 N   0  0  0  0  0  0  0  0  0  0  0  0
   -1.9151   -1.8803   -2.7550 H   0  0  0  0  0  0  0  0  0  0  0  0
   -1.2153   -2.1522   -1.1572 H   0  0  0  0  0  0  0  0  0  0  0  0
   -0.3126    1.2341    0.8050 C   0  0  0  0  0  0  0  0  0  0  0  0
   -1.2484    1.9199    0.3934 O   0  0  0  0  0  0  0  0  0  0  0  0
    0.5615    1.6875    1.7087 N   0  0  0  0  0  0  0  0  0  0  0  0
    1.3461    1.0849    1.9358 H   0  0  0  0  0  0  0  0  0  0  0  0
    0.5043    3.0121    2.3242 C   0  0  0  0  0  0  0  0  0  0  0  0
   -0.4649    3.1514    2.8080 H   0  0  0  0  0  0  0  0  0  0  0  0
    1.2959    3.1139    3.0678 H   0  0  0  0  0  0  0  0  0  0  0  0
    0.6273    3.7799    1.5584 H   0  0  0  0  0  0  0  0  0  0  0  0
  5  6  2  0  0  0  0
  5  7  1  0  0  0  0
  2  3  1  0  0  0  0
  2  4  1  0  0  0  0
  2  5  1  0  0  0  0
  1  2  1  0  0  0  0
 19 20  2  0  0  0  0
 19 21  1  0  0  0  0
 16 17  1  0  0  0  0
 16 18  1  0  0  0  0
 14 15  2  0  0  0  0
 14 16  1  0  0  0  0
 11 12  1  0  0  0  0
 11 13  1  0  0  0  0
 11 14  1  0  0  0  0
  9 10  1  0  0  0  0
  9 11  1  0  0  0  0
  9 19  1  0  0  0  0
  7  8  1  0  0  0  0
  7  9  1  0  0  0  0
 23 24  1  0  0  0  0
 23 25  1  0  0  0  0
 23 26  1  0  0  0  0
 21 22  1  0  0  0  0
 21 23  1  0  0  0  0
M  END
$$$$
default_name
  -OEChem-02102213163D

 26 25  0     1  0  0  0  0  0999 V2000
   -3.0232   -3.6924    1.0038 H   0  0  0  0  0  0  0  0  0  0  0  0
   -3.0082   -2.6684    0.6318 C   0  0  0  0  0  0  0  0  0  0  0  0
   -3.6332   -2.0414    1.2658 H   0  0  0  0  0  0  0  0  0  0  0  0
   -3.3762   -2.6444   -0.3912 H   0  0  0  0  0  0  0  0  0  0  0  0
   -1.5882   -2.1554    0.6658 C   0  0  0  0  0  0  0  0  0  0  0  0
   -0.6832   -2.8764    1.0638 O   0  0  0  0  0  0  0  0  0  0  0  0
   -1.3952   -0.9084    0.2428 N   0  0  0  0  0  0  0  0  0  0  0  0
   -2.1972   -0.3644   -0.0422 H   0  0  0  0  0  0  0  0  0  0  0  0
   -0.1122   -0.1994    0.2658 C   0  0  1  0  0  0  0  0  0  0  0  0
    0.5635   -0.7260    0.9446 H   0  0  0  0  0  0  0  0  0  0  0  0
    0.4924   -0.2204   -1.1558 C   0  0  0  0  0  0  0  0  0  0  0  0
    0.8562    0.7760   -1.4042 H   0  0  0  0  0  0  0  0  0  0  0  0
    1.3364   -0.9082   -1.1770 H   0  0  0  0  0  0  0  0  0  0  0  0
   -0.4960   -0.6122   -2.2423 C   0  0  0  0  0  0  0  0  0  0  0  0
   -0.4191   -0.2035   -3.3879 O   0  0  0  0  0  0  0  0  0  0  0  0
   -1.4756   -1.4197   -1.9159 N   0  0  0  0  0  0  0  0  0  0  0  0
   -2.1030   -1.6750   -2.6581 H   0  0  0  0  0  0  0  0  0  0  0  0
   -1.5500   -1.7848   -0.9852 H   0  0  0  0  0  0  0  0  0  0  0  0
   -0.3126    1.2341    0.8050 C   0  0  0  0  0  0  0  0  0  0  0  0
   -1.2484    1.9199    0.3934 O   0  0  0  0  0  0  0  0  0  0  0  0
    0.5615    1.6875    1.7087 N   0  0  0  0  0  0  0  0  0  0  0  0
    1.3461    1.0849    1.9358 H   0  0  0  0  0  0  0  0  0  0  0  0
    0.5043    3.0121    2.3242 C   0  0  0  0  0  0  0  0  0  0  0  0
   -0.4649    3.1514    2.8080 H   0  0  0  0  0  0  0  0  0  0  0  0
    1.2959    3.1139    3.0678 H   0  0  0  0  0  0  0  0  0  0  0  0
    0.6273    3.7799    1.5584 H   0  0  0  0  0  0  0  0  0  0  0  0
  5  6  2  0  0  0  0
  5  7  1  0  0  0  0
  2  3  1  0  0  0  0
  2  4  1  0  0  0  0
  2  5  1  0  0  0  0
  1  2  1  0  0  0  0
 19 20  2  0  0  0  0
 19 21  1  0  0  0  0
 16 17  1  0  0  0  0
 16 18  1  0  0  0  0
 14 15  2  0  0  0  0
 14 16  1  0  0  0  0
 11 12  1  0  0  0  0
 11 13  1  0  0  0  0
 11 14  1  0  0  0  0
  9 10  1  0  0  0  0
  9 11  1  0  0  0  0
  9 19  1  0  0  0  0
  7  8  1  0  0  0  0
  7  9  1  0  0  0  0
 23 24  1  0  0  0  0
 23 25  1  0  0  0  0
 23 26  1  0  0  0  0
 21 22  1  0  0  0  0
 21 23  1  0  0  0  0
M  END
$$$$
default_name
  -OEChem-02102213163D

 26 25  0     1  0  0  0  0  0999 V2000
   -3.0232   -3.6924    1.0038 H   0  0  0  0  0  0  0  0  0  0  0  0
   -3.0082   -2.6684    0.6318 C   0  0  0  0  0  0  0  0  0  0  0  0
   -3.6332   -2.0414    1.2658 H   0  0  0  0  0  0  0  0  0  0  0  0
   -3.3762   -2.6444   -0.3912 H   0  0  0  0  0  0  0  0  0  0  0  0
   -1.5882   -2.1554    0.6658 C   0  0  0  0  0  0  0  0  0  0  0  0
   -0.6832   -2.8764    1.0638 O   0  0  0  0  0  0  0  0  0  0  0  0
   -1.3952   -0.9084    0.2428 N   0  0  0  0  0  0  0  0  0  0  0  0
   -2.1972   -0.3644   -0.0422 H   0  0  0  0  0  0  0  0  0  0  0  0
   -0.1122   -0.1994    0.2658 C   0  0  1  0  0  0  0  0  0  0  0  0
    0.5635   -0.7260    0.9446 H   0  0  0  0  0  0  0  0  0  0  0  0
    0.4924   -0.2204   -1.1558 C   0  0  0  0  0  0  0  0  0  0  0  0
    0.8562    0.7760   -1.4042 H   0  0  0  0  0  0  0  0  0  0  0  0
    1.3364   -0.9082   -1.1770 H   0  0  0  0  0  0  0  0  0  0  0  0
   -0.4960   -0.6122   -2.2423 C   0  0  0  0  0  0  0  0  0  0  0  0
   -0.2844   -0.4302   -3.4287 O   0  0  0  0  0  0  0  0  0  0  0  0
   -1.6270   -1.1614   -1.8713 N   0  0  0  0  0  0  0  0  0  0  0  0
   -2.2529   -1.4257   -2.6116 H   0  0  0  0  0  0  0  0  0  0  0  0
   -1.8168   -1.3391   -0.9031 H   0  0  0  0  0  0  0  0  0  0  0  0
   -0.3126    1.2341    0.8050 C   0  0  0  0  0  0  0  0  0  0  0  0
   -1.2484    1.9199    0.3934 O   0  0  0  0  0  0  0  0  0  0  0  0
    0.5615    1.6875    1.7087 N   0  0  0  0  0  0  0  0  0  0  0  0
    1.3461    1.0849    1.9358 H   0  0  0  0  0  0  0  0  0  0  0  0
    0.5043    3.0121    2.3242 C   0  0  0  0  0  0  0  0  0  0  0  0
   -0.4649    3.1514    2.8080 H   0  0  0  0  0  0  0  0  0  0  0  0
    1.2959    3.1139    3.0678 H   0  0  0  0  0  0  0  0  0  0  0  0
    0.6273    3.7799    1.5584 H   0  0  0  0  0  0  0  0  0  0  0  0
  5  6  2  0  0  0  0
  5  7  1  0  0  0  0
  2  3  1  0  0  0  0
  2  4  1  0  0  0  0
  2  5  1  0  0  0  0
  1  2  1  0  0  0  0
 19 20  2  0  0  0  0
 19 21  1  0  0  0  0
 16 17  1  0  0  0  0
 16 18  1  0  0  0  0
 14 15  2  0  0  0  0
 14 16  1  0  0  0  0
 11 12  1  0  0  0  0
 11 13  1  0  0  0  0
 11 14  1  0  0  0  0
  9 10  1  0  0  0  0
  9 11  1  0  0  0  0
  9 19  1  0  0  0  0
  7  8  1  0  0  0  0
  7  9  1  0  0  0  0
 23 24  1  0  0  0  0
 23 25  1  0  0  0  0
 23 26  1  0  0  0  0
 21 22  1  0  0  0  0
 21 23  1  0  0  0  0
M  END
$$$$
default_name
  -OEChem-02102213163D

 26 25  0     1  0  0  0  0  0999 V2000
   -3.0232   -3.6924    1.0038 H   0  0  0  0  0  0  0  0  0  0  0  0
   -3.0082   -2.6684    0.6318 C   0  0  0  0  0  0  0  0  0  0  0  0
   -3.6332   -2.0414    1.2658 H   0  0  0  0  0  0  0  0  0  0  0  0
   -3.3762   -2.6444   -0.3912 H   0  0  0  0  0  0  0  0  0  0  0  0
   -1.5882   -2.1554    0.6658 C   0  0  0  0  0  0  0  0  0  0  0  0
   -0.6832   -2.8764    1.0638 O   0  0  0  0  0  0  0  0  0  0  0  0
   -1.3952   -0.9084    0.2428 N   0  0  0  0  0  0  0  0  0  0  0  0
   -2.1972   -0.3644   -0.0422 H   0  0  0  0  0  0  0  0  0  0  0  0
   -0.1122   -0.1994    0.2658 C   0  0  1  0  0  0  0  0  0  0  0  0
    0.5635   -0.7260    0.9446 H   0  0  0  0  0  0  0  0  0  0  0  0
    0.4924   -0.2204   -1.1558 C   0  0  0  0  0  0  0  0  0  0  0  0
    1.0868    0.6804   -1.3048 H   0  0  0  0  0  0  0  0  0  0  0  0
    1.1487   -1.0838   -1.2542 H   0  0  0  0  0  0  0  0  0  0  0  0
   -0.5436   -0.2536   -2.2679 C   0  0  0  0  0  0  0  0  0  0  0  0
   -0.2476   -0.2734   -3.4499 O   0  0  0  0  0  0  0  0  0  0  0  0
   -1.8089   -0.2516   -1.9254 N   0  0  0  0  0  0  0  0  0  0  0  0
   -2.4705   -0.2916   -2.6806 H   0  0  0  0  0  0  0  0  0  0  0  0
   -2.0783   -0.2548   -0.9597 H   0  0  0  0  0  0  0  0  0  0  0  0
   -0.3126    1.2341    0.8050 C   0  0  0  0  0  0  0  0  0  0  0  0
   -1.2484    1.9199    0.3934 O   0  0  0  0  0  0  0  0  0  0  0  0
    0.5615    1.6875    1.7087 N   0  0  0  0  0  0  0  0  0  0  0  0
    1.3461    1.0849    1.9358 H   0  0  0  0  0  0  0  0  0  0  0  0
    0.5043    3.0121    2.3242 C   0  0  0  0  0  0  0  0  0  0  0  0
   -0.4649    3.1514    2.8080 H   0  0  0  0  0  0  0  0  0  0  0  0
    1.2959    3.1139    3.0678 H   0  0  0  0  0  0  0  0  0  0  0  0
    0.6273    3.7799    1.5584 H   0  0  0  0  0  0  0  0  0  0  0  0
  5  6  2  0  0  0  0
  5  7  1  0  0  0  0
  2  3  1  0  0  0  0
  2  4  1  0  0  0  0
  2  5  1  0  0  0  0
  1  2  1  0  0  0  0
 19 20  2  0  0  0  0
 19 21  1  0  0  0  0
 16 17  1  0  0  0  0
 16 18  1  0  0  0  0
 14 15  2  0  0  0  0
 14 16  1  0  0  0  0
 11 12  1  0  0  0  0
 11 13  1  0  0  0  0
 11 14  1  0  0  0  0
  9 10  1  0  0  0  0
  9 11  1  0  0  0  0
  9 19  1  0  0  0  0
  7  8  1  0  0  0  0
  7  9  1  0  0  0  0
 23 24  1  0  0  0  0
 23 25  1  0  0  0  0
 23 26  1  0  0  0  0
 21 22  1  0  0  0  0
 21 23  1  0  0  0  0
M  END
$$$$
default_name
  -OEChem-02102213163D

 26 25  0     1  0  0  0  0  0999 V2000
   -3.0232   -3.6924    1.0038 H   0  0  0  0  0  0  0  0  0  0  0  0
   -3.0082   -2.6684    0.6318 C   0  0  0  0  0  0  0  0  0  0  0  0
   -3.6332   -2.0414    1.2658 H   0  0  0  0  0  0  0  0  0  0  0  0
   -3.3762   -2.6444   -0.3912 H   0  0  0  0  0  0  0  0  0  0  0  0
   -1.5882   -2.1554    0.6658 C   0  0  0  0  0  0  0  0  0  0  0  0
   -0.6832   -2.8764    1.0638 O   0  0  0  0  0  0  0  0  0  0  0  0
   -1.3952   -0.9084    0.2428 N   0  0  0  0  0  0  0  0  0  0  0  0
   -2.1972   -0.3644   -0.0422 H   0  0  0  0  0  0  0  0  0  0  0  0
   -0.1122   -0.1994    0.2658 C   0  0  1  0  0  0  0  0  0  0  0  0
    0.5635   -0.7260    0.9446 H   0  0  0  0  0  0  0  0  0  0  0  0
    0.4924   -0.2204   -1.1558 C   0  0  0  0  0  0  0  0  0  0  0  0
    1.0868    0.6804   -1.3048 H   0  0  0  0  0  0  0  0  0  0  0  0
    1.1487   -1.0838   -1.2542 H   0  0  0  0  0  0  0  0  0  0  0  0
   -0.5436   -0.2536   -2.2679 C   0  0  0  0  0  0  0  0  0  0  0  0
   -0.2702   -0.5378   -3.4210 O   0  0  0  0  0  0  0  0  0  0  0  0
   -1.7815    0.0479   -1.9598 N   0  0  0  0  0  0  0  0  0  0  0  0
   -2.4472    0.0005   -2.7110 H   0  0  0  0  0  0  0  0  0  0  0  0
   -2.0356    0.2665   -1.0150 H   0  0  0  0  0  0  0  0  0  0  0  0
   -0.3126    1.2341    0.8050 C   0  0  0  0  0  0  0  0  0  0  0  0
   -1.2484    1.9199    0.3934 O   0  0  0  0  0  0  0  0  0  0  0  0
    0.5615    1.6875    1.7087 N   0  0  0  0  0  0  0  0  0  0  0  0
    1.3461    1.0849    1.9358 H   0  0  0  0  0  0  0  0  0  0  0  0
    0.5043    3.0121    2.3242 C   0  0  0  0  0  0  0  0  0  0  0  0
   -0.4649    3.1514    2.8080 H   0  0  0  0  0  0  0  0  0  0  0  0
    1.2959    3.1139    3.0678 H   0  0  0  0  0  0  0  0  0  0  0  0
    0.6273    3.7799    1.5584 H   0  0  0  0  0  0  0  0  0  0  0  0
  5  6  2  0  0  0  0
  5  7  1  0  0  0  0
  2  3  1  0  0  0  0
  2  4  1  0  0  0  0
  2  5  1  0  0  0  0
  1  2  1  0  0  0  0
 19 20  2  0  0  0  0
 19 21  1  0  0  0  0
 16 17  1  0  0  0  0
 16 18  1  0  0  0  0
 14 15  2  0  0  0  0
 14 16  1  0  0  0  0
 11 12  1  0  0  0  0
 11 13  1  0  0  0  0
 11 14  1  0  0  0  0
  9 10  1  0  0  0  0
  9 11  1  0  0  0  0
  9 19  1  0  0  0  0
  7  8  1  0  0  0  0
  7  9  1  0  0  0  0
 23 24  1  0  0  0  0
 23 25  1  0  0  0  0
 23 26  1  0  0  0  0
 21 22  1  0  0  0  0
 21 23  1  0  0  0  0
M  END
$$$$
default_name
  -OEChem-02102213163D

 26 25  0     1  0  0  0  0  0999 V2000
   -3.0232   -3.6924    1.0038 H   0  0  0  0  0  0  0  0  0  0  0  0
   -3.0082   -2.6684    0.6318 C   0  0  0  0  0  0  0  0  0  0  0  0
   -3.6332   -2.0414    1.2658 H   0  0  0  0  0  0  0  0  0  0  0  0
   -3.3762   -2.6444   -0.3912 H   0  0  0  0  0  0  0  0  0  0  0  0
   -1.5882   -2.1554    0.6658 C   0  0  0  0  0  0  0  0  0  0  0  0
   -0.6832   -2.8764    1.0638 O   0  0  0  0  0  0  0  0  0  0  0  0
   -1.3952   -0.9084    0.2428 N   0  0  0  0  0  0  0  0  0  0  0  0
   -2.1972   -0.3644   -0.0422 H   0  0  0  0  0  0  0  0  0  0  0  0
   -0.1122   -0.1994    0.2658 C   0  0  1  0  0  0  0  0  0  0  0  0
    0.5635   -0.7260    0.9446 H   0  0  0  0  0  0  0  0  0  0  0  0
    0.4924   -0.2204   -1.1558 C   0  0  0  0  0  0  0  0  0  0  0  0
    1.0868    0.6804   -1.3048 H   0  0  0  0  0  0  0  0  0  0  0  0
    1.1487   -1.0838   -1.2542 H   0  0  0  0  0  0  0  0  0  0  0  0
   -0.5436   -0.2536   -2.2679 C   0  0  0  0  0  0  0  0  0  0  0  0
   -0.3421   -0.7838   -3.3466 O   0  0  0  0  0  0  0  0  0  0  0  0
   -1.6982    0.3258   -2.0457 N   0  0  0  0  0  0  0  0  0  0  0  0
   -2.3693    0.2729   -2.7918 H   0  0  0  0  0  0  0  0  0  0  0  0
   -1.8955    0.7522   -1.1601 H   0  0  0  0  0  0  0  0  0  0  0  0
   -0.3126    1.2341    0.8050 C   0  0  0  0  0  0  0  0  0  0  0  0
   -1.2484    1.9199    0.3934 O   0  0  0  0  0  0  0  0  0  0  0  0
    0.5615    1.6875    1.7087 N   0  0  0  0  0  0  0  0  0  0  0  0
    1.3461    1.0849    1.9358 H   0  0  0  0  0  0  0  0  0  0  0  0
    0.5043    3.0121    2.3242 C   0  0  0  0  0  0  0  0  0  0  0  0
   -0.4649    3.1514    2.8080 H   0  0  0  0  0  0  0  0  0  0  0  0
    1.2959    3.1139    3.0678 H   0  0  0  0  0  0  0  0  0  0  0  0
    0.6273    3.7799    1.5584 H   0  0  0  0  0  0  0  0  0  0  0  0
  5  6  2  0  0  0  0
  5  7  1  0  0  0  0
  2  3  1  0  0  0  0
  2  4  1  0  0  0  0
  2  5  1  0  0  0  0
  1  2  1  0  0  0  0
 19 20  2  0  0  0  0
 19 21  1  0  0  0  0
 16 17  1  0  0  0  0
 16 18  1  0  0  0  0
 14 15  2  0  0  0  0
 14 16  1  0  0  0  0
 11 12  1  0  0  0  0
 11 13  1  0  0  0  0
 11 14  1  0  0  0  0
  9 10  1  0  0  0  0
  9 11  1  0  0  0  0
  9 19  1  0  0  0  0
  7  8  1  0  0  0  0
  7  9  1  0  0  0  0
 23 24  1  0  0  0  0
 23 25  1  0  0  0  0
 23 26  1  0  0  0  0
 21 22  1  0  0  0  0
 21 23  1  0  0  0  0
M  END
$$$$
default_name
  -OEChem-02102213163D

 26 25  0     1  0  0  0  0  0999 V2000
   -3.0232   -3.6924    1.0038 H   0  0  0  0  0  0  0  0  0  0  0  0
   -3.0082   -2.6684    0.6318 C   0  0  0  0  0  0  0  0  0  0  0  0
   -3.6332   -2.0414    1.2658 H   0  0  0  0  0  0  0  0  0  0  0  0
   -3.3762   -2.6444   -0.3912 H   0  0  0  0  0  0  0  0  0  0  0  0
   -1.5882   -2.1554    0.6658 C   0  0  0  0  0  0  0  0  0  0  0  0
   -0.6832   -2.8764    1.0638 O   0  0  0  0  0  0  0  0  0  0  0  0
   -1.3952   -0.9084    0.2428 N   0  0  0  0  0  0  0  0  0  0  0  0
   -2.1972   -0.3644   -0.0422 H   0  0  0  0  0  0  0  0  0  0  0  0
   -0.1122   -0.1994    0.2658 C   0  0  1  0  0  0  0  0  0  0  0  0
    0.5635   -0.7260    0.9446 H   0  0  0  0  0  0  0  0  0  0  0  0
    0.4924   -0.2204   -1.1558 C   0  0  0  0  0  0  0  0  0  0  0  0
    1.0868    0.6804   -1.3048 H   0  0  0  0  0  0  0  0  0  0  0  0
    1.1487   -1.0838   -1.2542 H   0  0  0  0  0  0  0  0  0  0  0  0
   -0.5436   -0.2536   -2.2679 C   0  0  0  0  0  0  0  0  0  0  0  0
   -0.4587   -0.9946   -3.2317 O   0  0  0  0  0  0  0  0  0  0  0  0
   -1.5646    0.5634   -2.1773 N   0  0  0  0  0  0  0  0  0  0  0  0
   -2.2419    0.5070   -2.9174 H   0  0  0  0  0  0  0  0  0  0  0  0
   -1.6673    1.1692   -1.3851 H   0  0  0  0  0  0  0  0  0  0  0  0
   -0.3126    1.2341    0.8050 C   0  0  0  0  0  0  0  0  0  0  0  0
   -1.2484    1.9199    0.3934 O   0  0  0  0  0  0  0  0  0  0  0  0
    0.5615    1.6875    1.7087 N   0  0  0  0  0  0  0  0  0  0  0  0
    1.3461    1.0849    1.9358 H   0  0  0  0  0  0  0  0  0  0  0  0
    0.5043    3.0121    2.3242 C   0  0  0  0  0  0  0  0  0  0  0  0
   -0.4649    3.1514    2.8080 H   0  0  0  0  0  0  0  0  0  0  0  0
    1.2959    3.1139    3.0678 H   0  0  0  0  0  0  0  0  0  0  0  0
    0.6273    3.7799    1.5584 H   0  0  0  0  0  0  0  0  0  0  0  0
  5  6  2  0  0  0  0
  5  7  1  0  0  0  0
  2  3  1  0  0  0  0
  2  4  1  0  0  0  0
  2  5  1  0  0  0  0
  1  2  1  0  0  0  0
 19 20  2  0  0  0  0
 19 21  1  0  0  0  0
 16 17  1  0  0  0  0
 16 18  1  0  0  0  0
 14 15  2  0  0  0  0
 14 16  1  0  0  0  0
 11 12  1  0  0  0  0
 11 13  1  0  0  0  0
 11 14  1  0  0  0  0
  9 10  1  0  0  0  0
  9 11  1  0  0  0  0
  9 19  1  0  0  0  0
  7  8  1  0  0  0  0
  7  9  1  0  0  0  0
 23 24  1  0  0  0  0
 23 25  1  0  0  0  0
 23 26  1  0  0  0  0
 21 22  1  0  0  0  0
 21 23  1  0  0  0  0
M  END
$$$$
default_name
  -OEChem-02102213163D

 26 25  0     1  0  0  0  0  0999 V2000
   -3.0232   -3.6924    1.0038 H   0  0  0  0  0  0  0  0  0  0  0  0
   -3.0082   -2.6684    0.6318 C   0  0  0  0  0  0  0  0  0  0  0  0
   -3.6332   -2.0414    1.2658 H   0  0  0  0  0  0  0  0  0  0  0  0
   -3.3762   -2.6444   -0.3912 H   0  0  0  0  0  0  0  0  0  0  0  0
   -1.5882   -2.1554    0.6658 C   0  0  0  0  0  0  0  0  0  0  0  0
   -0.6832   -2.8764    1.0638 O   0  0  0  0  0  0  0  0  0  0  0  0
   -1.3952   -0.9084    0.2428 N   0  0  0  0  0  0  0  0  0  0  0  0
   -2.1972   -0.3644   -0.0422 H   0  0  0  0  0  0  0  0  0  0  0  0
   -0.1122   -0.1994    0.2658 C   0  0  1  0  0  0  0  0  0  0  0  0
    0.5635   -0.7260    0.9446 H   0  0  0  0  0  0  0  0  0  0  0  0
    0.4924   -0.2204   -1.1558 C   0  0  0  0  0  0  0  0  0  0  0  0
    1.0868    0.6804   -1.3048 H   0  0  0  0  0  0  0  0  0  0  0  0
    1.1487   -1.0838   -1.2542 H   0  0  0  0  0  0  0  0  0  0  0  0
   -0.5436   -0.2536   -2.2679 C   0  0  0  0  0  0  0  0  0  0  0  0
   -0.6118   -1.1559   -3.0842 O   0  0  0  0  0  0  0  0  0  0  0  0
   -1.3899    0.7444   -2.3455 N   0  0  0  0  0  0  0  0  0  0  0  0
   -2.0739    0.6868   -3.0793 H   0  0  0  0  0  0  0  0  0  0  0  0
   -1.3667    1.4891   -1.6747 H   0  0  0  0  0  0  0  0  0  0  0  0
   -0.3126    1.2341    0.8050 C   0  0  0  0  0  0  0  0  0  0  0  0
   -1.2484    1.9199    0.3934 O   0  0  0  0  0  0  0  0  0  0  0  0
    0.5615    1.6875    1.7087 N   0  0  0  0  0  0  0  0  0  0  0  0
    1.3461    1.0849    1.9358 H   0  0  0  0  0  0  0  0  0  0  0  0
    0.5043    3.0121    2.3242 C   0  0  0  0  0  0  0  0  0  0  0  0
   -0.4649    3.1514    2.8080 H   0  0  0  0  0  0  0  0  0  0  0  0
    1.2959    3.1139    3.0678 H   0  0  0  0  0  0  0  0  0  0  0  0
    0.6273    3.7799    1.5584 H   0  0  0  0  0  0  0  0  0  0  0  0
  5  6  2  0  0  0  0
  5  7  1  0  0  0  0
  2  3  1  0  0  0  0
  2  4  1  0  0  0  0
  2  5  1  0  0  0  0
  1  2  1  0  0  0  0
 19 20  2  0  0  0  0
 19 21  1  0  0  0  0
 16 17  1  0  0  0  0
 16 18  1  0  0  0  0
 14 15  2  0  0  0  0
 14 16  1  0  0  0  0
 11 12  1  0  0  0  0
 11 13  1  0  0  0  0
 11 14  1  0  0  0  0
  9 10  1  0  0  0  0
  9 11  1  0  0  0  0
  9 19  1  0  0  0  0
  7  8  1  0  0  0  0
  7  9  1  0  0  0  0
 23 24  1  0  0  0  0
 23 25  1  0  0  0  0
 23 26  1  0  0  0  0
 21 22  1  0  0  0  0
 21 23  1  0  0  0  0
M  END
$$$$
default_name
  -OEChem-02102213163D

 26 25  0     1  0  0  0  0  0999 V2000
   -3.0232   -3.6924    1.0038 H   0  0  0  0  0  0  0  0  0  0  0  0
   -3.0082   -2.6684    0.6318 C   0  0  0  0  0  0  0  0  0  0  0  0
   -3.6332   -2.0414    1.2658 H   0  0  0  0  0  0  0  0  0  0  0  0
   -3.3762   -2.6444   -0.3912 H   0  0  0  0  0  0  0  0  0  0  0  0
   -1.5882   -2.1554    0.6658 C   0  0  0  0  0  0  0  0  0  0  0  0
   -0.6832   -2.8764    1.0638 O   0  0  0  0  0  0  0  0  0  0  0  0
   -1.3952   -0.9084    0.2428 N   0  0  0  0  0  0  0  0  0  0  0  0
   -2.1972   -0.3644   -0.0422 H   0  0  0  0  0  0  0  0  0  0  0  0
   -0.1122   -0.1994    0.2658 C   0  0  1  0  0  0  0  0  0  0  0  0
    0.5635   -0.7260    0.9446 H   0  0  0  0  0  0  0  0  0  0  0  0
    0.4924   -0.2204   -1.1558 C   0  0  0  0  0  0  0  0  0  0  0  0
    1.0868    0.6804   -1.3048 H   0  0  0  0  0  0  0  0  0  0  0  0
    1.1487   -1.0838   -1.2542 H   0  0  0  0  0  0  0  0  0  0  0  0
   -0.5436   -0.2536   -2.2679 C   0  0  0  0  0  0  0  0  0  0  0  0
   -0.7911   -1.2567   -2.9142 O   0  0  0  0  0  0  0  0  0  0  0  0
   -1.1858    0.8565   -2.5389 N   0  0  0  0  0  0  0  0  0  0  0  0
   -1.8766    0.8002   -3.2665 H   0  0  0  0  0  0  0  0  0  0  0  0
   -1.0142    1.6901   -2.0092 H   0  0  0  0  0  0  0  0  0  0  0  0
   -0.3126    1.2341    0.8050 C   0  0  0  0  0  0  0  0  0  0  0  0
   -1.2484    1.9199    0.3934 O   0  0  0  0  0  0  0  0  0  0  0  0
    0.5615    1.6875    1.7087 N   0  0  0  0  0  0  0  0  0  0  0  0
    1.3461    1.0849    1.9358 H   0  0  0  0  0  0  0  0  0  0  0  0
    0.5043    3.0121    2.3242 C   0  0  0  0  0  0  0  0  0  0  0  0
   -0.4649    3.1514    2.8080 H   0  0  0  0  0  0  0  0  0  0  0  0
    1.2959    3.1139    3.0678 H   0  0  0  0  0  0  0  0  0  0  0  0
    0.6273    3.7799    1.5584 H   0  0  0  0  0  0  0  0  0  0  0  0
  5  6  2  0  0  0  0
  5  7  1  0  0  0  0
  2  3  1  0  0  0  0
  2  4  1  0  0  0  0
  2  5  1  0  0  0  0
  1  2  1  0  0  0  0
 19 20  2  0  0  0  0
 19 21  1  0  0  0  0
 16 17  1  0  0  0  0
 16 18  1  0  0  0  0
 14 15  2  0  0  0  0
 14 16  1  0  0  0  0
 11 12  1  0  0  0  0
 11 13  1  0  0  0  0
 11 14  1  0  0  0  0
  9 10  1  0  0  0  0
  9 11  1  0  0  0  0
  9 19  1  0  0  0  0
  7  8  1  0  0  0  0
  7  9  1  0  0  0  0
 23 24  1  0  0  0  0
 23 25  1  0  0  0  0
 23 26  1  0  0  0  0
 21 22  1  0  0  0  0
 21 23  1  0  0  0  0
M  END
$$$$
default_name
  -OEChem-02102213163D

 26 25  0     1  0  0  0  0  0999 V2000
   -3.0232   -3.6924    1.0038 H   0  0  0  0  0  0  0  0  0  0  0  0
   -3.0082   -2.6684    0.6318 C   0  0  0  0  0  0  0  0  0  0  0  0
   -3.6332   -2.0414    1.2658 H   0  0  0  0  0  0  0  0  0  0  0  0
   -3.3762   -2.6444   -0.3912 H   0  0  0  0  0  0  0  0  0  0  0  0
   -1.5882   -2.1554    0.6658 C   0  0  0  0  0  0  0  0  0  0  0  0
   -0.6832   -2.8764    1.0638 O   0  0  0  0  0  0  0  0  0  0  0  0
   -1.3952   -0.9084    0.2428 N   0  0  0  0  0  0  0  0  0  0  0  0
   -2.1972   -0.3644   -0.0422 H   0  0  0  0  0  0  0  0  0  0  0  0
   -0.1122   -0.1994    0.2658 C   0  0  1  0  0  0  0  0  0  0  0  0
    0.5635   -0.7260    0.9446 H   0  0  0  0  0  0  0  0  0  0  0  0
    0.4924   -0.2204   -1.1558 C   0  0  0  0  0  0  0  0  0  0  0  0
    1.0868    0.6804   -1.3048 H   0  0  0  0  0  0  0  0  0  0  0  0
    1.1487   -1.0838   -1.2542 H   0  0  0  0  0  0  0  0  0  0  0  0
   -0.5436   -0.2536   -2.2679 C   0  0  0  0  0  0  0  0  0  0  0  0
   -0.9843   -1.2902   -2.7332 O   0  0  0  0  0  0  0  0  0  0  0  0
   -0.9664    0.8920   -2.7444 N   0  0  0  0  0  0  0  0  0  0  0  0
   -1.6636    0.8393   -3.4661 H   0  0  0  0  0  0  0  0  0  0  0  0
   -0.6337    1.7585   -2.3657 H   0  0  0  0  0  0  0  0  0  0  0  0
   -0.3126    1.2341    0.8050 C   0  0  0  0  0  0  0  0  0  0  0  0
   -1.2484    1.9199    0.3934 O   0  0  0  0  0  0  0  0  0  0  0  0
    0.5615    1.6875    1.7087 N   0  0  0  0  0  0  0  0  0  0  0  0
    1.3461    1.0849    1.9358 H   0  0  0  0  0  0  0  0  0  0  0  0
    0.5043    3.0121    2.3242 C   0  0  0  0  0  0  0  0  0  0  0  0
   -0.4649    3.1514    2.8080 H   0  0  0  0  0  0  0  0  0  0  0  0
    1.2959    3.1139    3.0678 H   0  0  0  0  0  0  0  0  0  0  0  0
    0.6273    3.7799    1.5584 H   0  0  0  0  0  0  0  0  0  0  0  0
  5  6  2  0  0  0  0
  5  7  1  0  0  0  0
  2  3  1  0  0  0  0
  2  4  1  0  0  0  0
  2  5  1  0  0  0  0
  1  2  1  0  0  0  0
 19 20  2  0  0  0  0
 19 21  1  0  0  0  0
 16 17  1  0  0  0  0
 16 18  1  0  0  0  0
 14 15  2  0  0  0  0
 14 16  1  0  0  0  0
 11 12  1  0  0  0  0
 11 13  1  0  0  0  0
 11 14  1  0  0  0  0
  9 10  1  0  0  0  0
  9 11  1  0  0  0  0
  9 19  1  0  0  0  0
  7  8  1  0  0  0  0
  7  9  1  0  0  0  0
 23 24  1  0  0  0  0
 23 25  1  0  0  0  0
 23 26  1  0  0  0  0
 21 22  1  0  0  0  0
 21 23  1  0  0  0  0
M  END
$$$$
default_name
  -OEChem-02102213163D

 26 25  0     1  0  0  0  0  0999 V2000
   -3.0232   -3.6924    1.0038 H   0  0  0  0  0  0  0  0  0  0  0  0
   -3.0082   -2.6684    0.6318 C   0  0  0  0  0  0  0  0  0  0  0  0
   -3.6332   -2.0414    1.2658 H   0  0  0  0  0  0  0  0  0  0  0  0
   -3.3762   -2.6444   -0.3912 H   0  0  0  0  0  0  0  0  0  0  0  0
   -1.5882   -2.1554    0.6658 C   0  0  0  0  0  0  0  0  0  0  0  0
   -0.6832   -2.8764    1.0638 O   0  0  0  0  0  0  0  0  0  0  0  0
   -1.3952   -0.9084    0.2428 N   0  0  0  0  0  0  0  0  0  0  0  0
   -2.1972   -0.3644   -0.0422 H   0  0  0  0  0  0  0  0  0  0  0  0
   -0.1122   -0.1994    0.2658 C   0  0  1  0  0  0  0  0  0  0  0  0
    0.5635   -0.7260    0.9446 H   0  0  0  0  0  0  0  0  0  0  0  0
    0.4924   -0.2204   -1.1558 C   0  0  0  0  0  0  0  0  0  0  0  0
    1.0868    0.6804   -1.3048 H   0  0  0  0  0  0  0  0  0  0  0  0
    1.1487   -1.0838   -1.2542 H   0  0  0  0  0  0  0  0  0  0  0  0
   -0.5436   -0.2536   -2.2679 C   0  0  0  0  0  0  0  0  0  0  0  0
   -1.1783   -1.2540   -2.5535 O   0  0  0  0  0  0  0  0  0  0  0  0
   -0.7466    0.8485   -2.9479 N   0  0  0  0  0  0  0  0  0  0  0  0
   -1.4492    0.8016   -3.6647 H   0  0  0  0  0  0  0  0  0  0  0  0
   -0.2511    1.6897   -2.7200 H   0  0  0  0  0  0  0  0  0  0  0  0
   -0.3126    1.2341    0.8050 C   0  0  0  0  0  0  0  0  0  0  0  0
   -1.2484    1.9199    0.3934 O   0  0  0  0  0  0  0  0  0  0  0  0
    0.5615    1.6875    1.7087 N   0  0  0  0  0  0  0  0  0  0  0  0
    1.3461    1.0849    1.9358 H   0  0  0  0  0  0  0  0  0  0  0  0
    0.5043    3.0121    2.3242 C   0  0  0  0  0  0  0  0  0  0  0  0
   -0.4649    3.1514    2.8080 H   0  0  0  0  0  0  0  0  0  0  0  0
    1.2959    3.1139    3.0678 H   0  0  0  0  0  0  0  0  0  0  0  0
    0.6273    3.7799    1.5584 H   0  0  0  0  0  0  0  0  0  0  0  0
  5  6  2  0  0  0  0
  5  7  1  0  0  0  0
  2  3  1  0  0  0  0
  2  4  1  0  0  0  0
  2  5  1  0  0  0  0
  1  2  1  0  0  0  0
 19 20  2  0  0  0  0
 19 21  1  0  0  0  0
 16 17  1  0  0  0  0
 16 18  1  0  0  0  0
 14 15  2  0  0  0  0
 14 16  1  0  0  0  0
 11 12  1  0  0  0  0
 11 13  1  0  0  0  0
 11 14  1  0  0  0  0
  9 10  1  0  0  0  0
  9 11  1  0  0  0  0
  9 19  1  0  0  0  0
  7  8  1  0  0  0  0
  7  9  1  0  0  0  0
 23 24  1  0  0  0  0
 23 25  1  0  0  0  0
 23 26  1  0  0  0  0
 21 22  1  0  0  0  0
 21 23  1  0  0  0  0
M  END
$$$$
default_name
  -OEChem-02102213163D

 26 25  0     1  0  0  0  0  0999 V2000
   -3.0232   -3.6924    1.0038 H   0  0  0  0  0  0  0  0  0  0  0  0
   -3.0082   -2.6684    0.6318 C   0  0  0  0  0  0  0  0  0  0  0  0
   -3.6332   -2.0414    1.2658 H   0  0  0  0  0  0  0  0  0  0  0  0
   -3.3762   -2.6444   -0.3912 H   0  0  0  0  0  0  0  0  0  0  0  0
   -1.5882   -2.1554    0.6658 C   0  0  0  0  0  0  0  0  0  0  0  0
   -0.6832   -2.8764    1.0638 O   0  0  0  0  0  0  0  0  0  0  0  0
   -1.3952   -0.9084    0.2428 N   0  0  0  0  0  0  0  0  0  0  0  0
   -2.1972   -0.3644   -0.0422 H   0  0  0  0  0  0  0  0  0  0  0  0
   -0.1122   -0.1994    0.2658 C   0  0  1  0  0  0  0  0  0  0  0  0
    0.5635   -0.7260    0.9446 H   0  0  0  0  0  0  0  0  0  0  0  0
    0.4924   -0.2204   -1.1558 C   0  0  0  0  0  0  0  0  0  0  0  0
    1.0868    0.6804   -1.3048 H   0  0  0  0  0  0  0  0  0  0  0  0
    1.1487   -1.0838   -1.2542 H   0  0  0  0  0  0  0  0  0  0  0  0
   -0.5436   -0.2536   -2.2679 C   0  0  0  0  0  0  0  0  0  0  0  0
   -1.3599   -1.1506   -2.3875 O   0  0  0  0  0  0  0  0  0  0  0  0
   -0.5414    0.7290   -3.1355 N   0  0  0  0  0  0  0  0  0  0  0  0
   -1.2482    0.6895   -3.8486 H   0  0  0  0  0  0  0  0  0  0  0  0
    0.1073    1.4883   -3.0479 H   0  0  0  0  0  0  0  0  0  0  0  0
   -0.3126    1.2341    0.8050 C   0  0  0  0  0  0  0  0  0  0  0  0
   -1.2484    1.9199    0.3934 O   0  0  0  0  0  0  0  0  0  0  0  0
    0.5615    1.6875    1.7087 N   0  0  0  0  0  0  0  0  0  0  0  0
    1.3461    1.0849    1.9358 H   0  0  0  0  0  0  0  0  0  0  0  0
    0.5043    3.0121    2.3242 C   0  0  0  0  0  0  0  0  0  0  0  0
   -0.4649    3.1514    2.8080 H   0  0  0  0  0  0  0  0  0  0  0  0
    1.2959    3.1139    3.0678 H   0  0  0  0  0  0  0  0  0  0  0  0
    0.6273    3.7799    1.5584 H   0  0  0  0  0  0  0  0  0  0  0  0
  5  6  2  0  0  0  0
  5  7  1  0  0  0  0
  2  3  1  0  0  0  0
  2  4  1  0  0  0  0
  2  5  1  0  0  0  0
  1  2  1  0  0  0  0
 19 20  2  0  0  0  0
 19 21  1  0  0  0  0
 16 17  1  0  0  0  0
 16 18  1  0  0  0  0
 14 15  2  0  0  0  0
 14 16  1  0  0  0  0
 11 12  1  0  0  0  0
 11 13  1  0  0  0  0
 11 14  1  0  0  0  0
  9 10  1  0  0  0  0
  9 11  1  0  0  0  0
  9 19  1  0  0  0  0
  7  8  1  0  0  0  0
  7  9  1  0  0  0  0
 23 24  1  0  0  0  0
 23 25  1  0  0  0  0
 23 26  1  0  0  0  0
 21 22  1  0  0  0  0
 21 23  1  0  0  0  0
M  END
$$$$
default_name
  -OEChem-02102213163D

 26 25  0     1  0  0  0  0  0999 V2000
   -3.0232   -3.6924    1.0038 H   0  0  0  0  0  0  0  0  0  0  0  0
   -3.0082   -2.6684    0.6318 C   0  0  0  0  0  0  0  0  0  0  0  0
   -3.6332   -2.0414    1.2658 H   0  0  0  0  0  0  0  0  0  0  0  0
   -3.3762   -2.6444   -0.3912 H   0  0  0  0  0  0  0  0  0  0  0  0
   -1.5882   -2.1554    0.6658 C   0  0  0  0  0  0  0  0  0  0  0  0
   -0.6832   -2.8764    1.0638 O   0  0  0  0  0  0  0  0  0  0  0  0
   -1.3952   -0.9084    0.2428 N   0  0  0  0  0  0  0  0  0  0  0  0
   -2.1972   -0.3644   -0.0422 H   0  0  0  0  0  0  0  0  0  0  0  0
   -0.1122   -0.1994    0.2658 C   0  0  1  0  0  0  0  0  0  0  0  0
    0.5635   -0.7260    0.9446 H   0  0  0  0  0  0  0  0  0  0  0  0
    0.4924   -0.2204   -1.1558 C   0  0  0  0  0  0  0  0  0  0  0  0
    1.0868    0.6804   -1.3048 H   0  0  0  0  0  0  0  0  0  0  0  0
    1.1487   -1.0838   -1.2542 H   0  0  0  0  0  0  0  0  0  0  0  0
   -0.5436   -0.2536   -2.2679 C   0  0  0  0  0  0  0  0  0  0  0  0
   -1.5166   -0.9871   -2.2463 O   0  0  0  0  0  0  0  0  0  0  0  0
   -0.3648    0.5416   -3.2945 N   0  0  0  0  0  0  0  0  0  0  0  0
   -1.0742    0.5107   -4.0054 H   0  0  0  0  0  0  0  0  0  0  0  0
    0.4173    1.1680   -3.3271 H   0  0  0  0  0  0  0  0  0  0  0  0
   -0.3126    1.2341    0.8050 C   0  0  0  0  0  0  0  0  0  0  0  0
   -1.2484    1.9199    0.3934 O   0  0  0  0  0  0  0  0  0  0  0  0
    0.5615    1.6875    1.7087 N   0  0  0  0  0  0  0  0  0  0  0  0
    1.3461    1.0849    1.9358 H   0  0  0  0  0  0  0  0  0  0  0  0
    0.5043    3.0121    2.3242 C   0  0  0  0  0  0  0  0  0  0  0  0
   -0.4649    3.1514    2.8080 H   0  0  0  0  0  0  0  0  0  0  0  0
    1.2959    3.1139    3.0678 H   0  0  0  0  0  0  0  0  0  0  0  0
    0.6273    3.7799    1.5584 H   0  0  0  0  0  0  0  0  0  0  0  0
  5  6  2  0  0  0  0
  5  7  1  0  0  0  0
  2  3  1  0  0  0  0
  2  4  1  0  0  0  0
  2  5  1  0  0  0  0
  1  2  1  0  0  0  0
 19 20  2  0  0  0  0
 19 21  1  0  0  0  0
 16 17  1  0  0  0  0
 16 18  1  0  0  0  0
 14 15  2  0  0  0  0
 14 16  1  0  0  0  0
 11 12  1  0  0  0  0
 11 13  1  0  0  0  0
 11 14  1  0  0  0  0
  9 10  1  0  0  0  0
  9 11  1  0  0  0  0
  9 19  1  0  0  0  0
  7  8  1  0  0  0  0
  7  9  1  0  0  0  0
 23 24  1  0  0  0  0
 23 25  1  0  0  0  0
 23 26  1  0  0  0  0
 21 22  1  0  0  0  0
 21 23  1  0  0  0  0
M  END
$$$$
default_name
  -OEChem-02102213163D

 26 25  0     1  0  0  0  0  0999 V2000
   -3.0232   -3.6924    1.0038 H   0  0  0  0  0  0  0  0  0  0  0  0
   -3.0082   -2.6684    0.6318 C   0  0  0  0  0  0  0  0  0  0  0  0
   -3.6332   -2.0414    1.2658 H   0  0  0  0  0  0  0  0  0  0  0  0
   -3.3762   -2.6444   -0.3912 H   0  0  0  0  0  0  0  0  0  0  0  0
   -1.5882   -2.1554    0.6658 C   0  0  0  0  0  0  0  0  0  0  0  0
   -0.6832   -2.8764    1.0638 O   0  0  0  0  0  0  0  0  0  0  0  0
   -1.3952   -0.9084    0.2428 N   0  0  0  0  0  0  0  0  0  0  0  0
   -2.1972   -0.3644   -0.0422 H   0  0  0  0  0  0  0  0  0  0  0  0
   -0.1122   -0.1994    0.2658 C   0  0  1  0  0  0  0  0  0  0  0  0
    0.5635   -0.7260    0.9446 H   0  0  0  0  0  0  0  0  0  0  0  0
    0.4924   -0.2204   -1.1558 C   0  0  0  0  0  0  0  0  0  0  0  0
    1.0868    0.6804   -1.3048 H   0  0  0  0  0  0  0  0  0  0  0  0
    1.1487   -1.0838   -1.2542 H   0  0  0  0  0  0  0  0  0  0  0  0
   -0.5436   -0.2536   -2.2679 C   0  0  0  0  0  0  0  0  0  0  0  0
   -1.6379   -0.7746   -2.1397 O   0  0  0  0  0  0  0  0  0  0  0  0
   -0.2287    0.2991   -3.4140 N   0  0  0  0  0  0  0  0  0  0  0  0
   -0.9391    0.2775   -4.1243 H   0  0  0  0  0  0  0  0  0  0  0  0
    0.6576    0.7508   -3.5386 H   0  0  0  0  0  0  0  0  0  0  0  0
   -0.3126    1.2341    0.8050 C   0  0  0  0  0  0  0  0  0  0  0  0
   -1.2484    1.9199    0.3934 O   0  0  0  0  0  0  0  0  0  0  0  0
    0.5615    1.6875    1.7087 N   0  0  0  0  0  0  0  0  0  0  0  0
    1.3461    1.0849    1.9358 H   0  0  0  0  0  0  0  0  0  0  0  0
    0.5043    3.0121    2.3242 C   0  0  0  0  0  0  0  0  0  0  0  0
   -0.4649    3.1514    2.8080 H   0  0  0  0  0  0  0  0  0  0  0  0
    1.2959    3.1139    3.0678 H   0  0  0  0  0  0  0  0  0  0  0  0
    0.6273    3.7799    1.5584 H   0  0  0  0  0  0  0  0  0  0  0  0
  5  6  2  0  0  0  0
  5  7  1  0  0  0  0
  2  3  1  0  0  0  0
  2  4  1  0  0  0  0
  2  5  1  0  0  0  0
  1  2  1  0  0  0  0
 19 20  2  0  0  0  0
 19 21  1  0  0  0  0
 16 17  1  0  0  0  0
 16 18  1  0  0  0  0
 14 15  2  0  0  0  0
 14 16  1  0  0  0  0
 11 12  1  0  0  0  0
 11 13  1  0  0  0  0
 11 14  1  0  0  0  0
  9 10  1  0  0  0  0
  9 11  1  0  0  0  0
  9 19  1  0  0  0  0
  7  8  1  0  0  0  0
  7  9  1  0  0  0  0
 23 24  1  0  0  0  0
 23 25  1  0  0  0  0
 23 26  1  0  0  0  0
 21 22  1  0  0  0  0
 21 23  1  0  0  0  0
M  END
$$$$
default_name
  -OEChem-02102213163D

 26 25  0     1  0  0  0  0  0999 V2000
   -3.0232   -3.6924    1.0038 H   0  0  0  0  0  0  0  0  0  0  0  0
   -3.0082   -2.6684    0.6318 C   0  0  0  0  0  0  0  0  0  0  0  0
   -3.6332   -2.0414    1.2658 H   0  0  0  0  0  0  0  0  0  0  0  0
   -3.3762   -2.6444   -0.3912 H   0  0  0  0  0  0  0  0  0  0  0  0
   -1.5882   -2.1554    0.6658 C   0  0  0  0  0  0  0  0  0  0  0  0
   -0.6832   -2.8764    1.0638 O   0  0  0  0  0  0  0  0  0  0  0  0
   -1.3952   -0.9084    0.2428 N   0  0  0  0  0  0  0  0  0  0  0  0
   -2.1972   -0.3644   -0.0422 H   0  0  0  0  0  0  0  0  0  0  0  0
   -0.1122   -0.1994    0.2658 C   0  0  1  0  0  0  0  0  0  0  0  0
    0.5635   -0.7260    0.9446 H   0  0  0  0  0  0  0  0  0  0  0  0
    0.4924   -0.2204   -1.1558 C   0  0  0  0  0  0  0  0  0  0  0  0
    1.0868    0.6804   -1.3048 H   0  0  0  0  0  0  0  0  0  0  0  0
    1.1487   -1.0838   -1.2542 H   0  0  0  0  0  0  0  0  0  0  0  0
   -0.5436   -0.2536   -2.2679 C   0  0  0  0  0  0  0  0  0  0  0  0
   -1.7153   -0.5276   -2.0749 O   0  0  0  0  0  0  0  0  0  0  0  0
   -0.1425    0.0181   -3.4859 N   0  0  0  0  0  0  0  0  0  0  0  0
   -0.8521    0.0056   -4.1972 H   0  0  0  0  0  0  0  0  0  0  0  0
    0.8120    0.2649   -3.6679 H   0  0  0  0  0  0  0  0  0  0  0  0
   -0.3126    1.2341    0.8050 C   0  0  0  0  0  0  0  0  0  0  0  0
   -1.2484    1.9199    0.3934 O   0  0  0  0  0  0  0  0  0  0  0  0
    0.5615    1.6875    1.7087 N   0  0  0  0  0  0  0  0  0  0  0  0
    1.3461    1.0849    1.9358 H   0  0  0  0  0  0  0  0  0  0  0  0
    0.5043    3.0121    2.3242 C   0  0  0  0  0  0  0  0  0  0  0  0
   -0.4649    3.1514    2.8080 H   0  0  0  0  0  0  0  0  0  0  0  0
    1.2959    3.1139    3.0678 H   0  0  0  0  0  0  0  0  0  0  0  0
    0.6273    3.7799    1.5584 H   0  0  0  0  0  0  0  0  0  0  0  0
  5  6  2  0  0  0  0
  5  7  1  0  0  0  0
  2  3  1  0  0  0  0
  2  4  1  0  0  0  0
  2  5  1  0  0  0  0
  1  2  1  0  0  0  0
 19 20  2  0  0  0  0
 19 21  1  0  0  0  0
 16 17  1  0  0  0  0
 16 18  1  0  0  0  0
 14 15  2  0  0  0  0
 14 16  1  0  0  0  0
 11 12  1  0  0  0  0
 11 13  1  0  0  0  0
 11 14  1  0  0  0  0
  9 10  1  0  0  0  0
  9 11  1  0  0  0  0
  9 19  1  0  0  0  0
  7  8  1  0  0  0  0
  7  9  1  0  0  0  0
 23 24  1  0  0  0  0
 23 25  1  0  0  0  0
 23 26  1  0  0  0  0
 21 22  1  0  0  0  0
 21 23  1  0  0  0  0
M  END
$$$$
default_name
  -OEChem-02102213163D

 26 25  0     1  0  0  0  0  0999 V2000
   -3.0232   -3.6924    1.0038 H   0  0  0  0  0  0  0  0  0  0  0  0
   -3.0082   -2.6684    0.6318 C   0  0  0  0  0  0  0  0  0  0  0  0
   -3.6332   -2.0414    1.2658 H   0  0  0  0  0  0  0  0  0  0  0  0
   -3.3762   -2.6444   -0.3912 H   0  0  0  0  0  0  0  0  0  0  0  0
   -1.5882   -2.1554    0.6658 C   0  0  0  0  0  0  0  0  0  0  0  0
   -0.6832   -2.8764    1.0638 O   0  0  0  0  0  0  0  0  0  0  0  0
   -1.3952   -0.9084    0.2428 N   0  0  0  0  0  0  0  0  0  0  0  0
   -2.1972   -0.3644   -0.0422 H   0  0  0  0  0  0  0  0  0  0  0  0
   -0.1122   -0.1994    0.2658 C   0  0  1  0  0  0  0  0  0  0  0  0
    0.5635   -0.7260    0.9446 H   0  0  0  0  0  0  0  0  0  0  0  0
    0.4924   -0.2204   -1.1558 C   0  0  0  0  0  0  0  0  0  0  0  0
    1.0868    0.6804   -1.3048 H   0  0  0  0  0  0  0  0  0  0  0  0
    1.1487   -1.0838   -1.2542 H   0  0  0  0  0  0  0  0  0  0  0  0
   -0.5436   -0.2536   -2.2679 C   0  0  0  0  0  0  0  0  0  0  0  0
   -1.7438   -0.2628   -2.0563 O   0  0  0  0  0  0  0  0  0  0  0  0
   -0.1120   -0.2824   -3.5053 N   0  0  0  0  0  0  0  0  0  0  0  0
   -0.8191   -0.2863   -4.2192 H   0  0  0  0  0  0  0  0  0  0  0  0
    0.8698   -0.2564   -3.7062 H   0  0  0  0  0  0  0  0  0  0  0  0
   -0.3126    1.2341    0.8050 C   0  0  0  0  0  0  0  0  0  0  0  0
   -1.2484    1.9199    0.3934 O   0  0  0  0  0  0  0  0  0  0  0  0
    0.5615    1.6875    1.7087 N   0  0  0  0  0  0  0  0  0  0  0  0
    1.3461    1.0849    1.9358 H   0  0  0  0  0  0  0  0  0  0  0  0
    0.5043    3.0121    2.3242 C   0  0  0  0  0  0  0  0  0  0  0  0
   -0.4649    3.1514    2.8080 H   0  0  0  0  0  0  0  0  0  0  0  0
    1.2959    3.1139    3.0678 H   0  0  0  0  0  0  0  0  0  0  0  0
    0.6273    3.7799    1.5584 H   0  0  0  0  0  0  0  0  0  0  0  0
  5  6  2  0  0  0  0
  5  7  1  0  0  0  0
  2  3  1  0  0  0  0
  2  4  1  0  0  0  0
  2  5  1  0  0  0  0
  1  2  1  0  0  0  0
 19 20  2  0  0  0  0
 19 21  1  0  0  0  0
 16 17  1  0  0  0  0
 16 18  1  0  0  0  0
 14 15  2  0  0  0  0
 14 16  1  0  0  0  0
 11 12  1  0  0  0  0
 11 13  1  0  0  0  0
 11 14  1  0  0  0  0
  9 10  1  0  0  0  0
  9 11  1  0  0  0  0
  9 19  1  0  0  0  0
  7  8  1  0  0  0  0
  7  9  1  0  0  0  0
 23 24  1  0  0  0  0
 23 25  1  0  0  0  0
 23 26  1  0  0  0  0
 21 22  1  0  0  0  0
 21 23  1  0  0  0  0
M  END
$$$$
default_name
  -OEChem-02102213163D

 26 25  0     1  0  0  0  0  0999 V2000
   -3.0232   -3.6924    1.0038 H   0  0  0  0  0  0  0  0  0  0  0  0
   -3.0082   -2.6684    0.6318 C   0  0  0  0  0  0  0  0  0  0  0  0
   -3.6332   -2.0414    1.2658 H   0  0  0  0  0  0  0  0  0  0  0  0
   -3.3762   -2.6444   -0.3912 H   0  0  0  0  0  0  0  0  0  0  0  0
   -1.5882   -2.1554    0.6658 C   0  0  0  0  0  0  0  0  0  0  0  0
   -0.6832   -2.8764    1.0638 O   0  0  0  0  0  0  0  0  0  0  0  0
   -1.3952   -0.9084    0.2428 N   0  0  0  0  0  0  0  0  0  0  0  0
   -2.1972   -0.3644   -0.0422 H   0  0  0  0  0  0  0  0  0  0  0  0
   -0.1122   -0.1994    0.2658 C   0  0  1  0  0  0  0  0  0  0  0  0
    0.5635   -0.7260    0.9446 H   0  0  0  0  0  0  0  0  0  0  0  0
    0.4924   -0.2204   -1.1558 C   0  0  0  0  0  0  0  0  0  0  0  0
    1.0868    0.6804   -1.3048 H   0  0  0  0  0  0  0  0  0  0  0  0
    1.1487   -1.0838   -1.2542 H   0  0  0  0  0  0  0  0  0  0  0  0
   -0.5436   -0.2536   -2.2679 C   0  0  0  0  0  0  0  0  0  0  0  0
   -1.7212    0.0015   -2.0853 O   0  0  0  0  0  0  0  0  0  0  0  0
   -0.1394   -0.5819   -3.4709 N   0  0  0  0  0  0  0  0  0  0  0  0
   -0.8424   -0.5784   -4.1888 H   0  0  0  0  0  0  0  0  0  0  0  0
    0.8272   -0.7777   -3.6509 H   0  0  0  0  0  0  0  0  0  0  0  0
   -0.3126    1.2341    0.8050 C   0  0  0  0  0  0  0  0  0  0  0  0
   -1.2484    1.9199    0.3934 O   0  0  0  0  0  0  0  0  0  0  0  0
    0.5615    1.6875    1.7087 N   0  0  0  0  0  0  0  0  0  0  0  0
    1.3461    1.0849    1.9358 H   0  0  0  0  0  0  0  0  0  0  0  0
    0.5043    3.0121    2.3242 C   0  0  0  0  0  0  0  0  0  0  0  0
   -0.4649    3.1514    2.8080 H   0  0  0  0  0  0  0  0  0  0  0  0
    1.2959    3.1139    3.0678 H   0  0  0  0  0  0  0  0  0  0  0  0
    0.6273    3.7799    1.5584 H   0  0  0  0  0  0  0  0  0  0  0  0
  5  6  2  0  0  0  0
  5  7  1  0  0  0  0
  2  3  1  0  0  0  0
  2  4  1  0  0  0  0
  2  5  1  0  0  0  0
  1  2  1  0  0  0  0
 19 20  2  0  0  0  0
 19 21  1  0  0  0  0
 16 17  1  0  0  0  0
 16 18  1  0  0  0  0
 14 15  2  0  0  0  0
 14 16  1  0  0  0  0
 11 12  1  0  0  0  0
 11 13  1  0  0  0  0
 11 14  1  0  0  0  0
  9 10  1  0  0  0  0
  9 11  1  0  0  0  0
  9 19  1  0  0  0  0
  7  8  1  0  0  0  0
  7  9  1  0  0  0  0
 23 24  1  0  0  0  0
 23 25  1  0  0  0  0
 23 26  1  0  0  0  0
 21 22  1  0  0  0  0
 21 23  1  0  0  0  0
M  END
$$$$
default_name
  -OEChem-02102213163D

 26 25  0     1  0  0  0  0  0999 V2000
   -3.0232   -3.6924    1.0038 H   0  0  0  0  0  0  0  0  0  0  0  0
   -3.0082   -2.6684    0.6318 C   0  0  0  0  0  0  0  0  0  0  0  0
   -3.6332   -2.0414    1.2658 H   0  0  0  0  0  0  0  0  0  0  0  0
   -3.3762   -2.6444   -0.3912 H   0  0  0  0  0  0  0  0  0  0  0  0
   -1.5882   -2.1554    0.6658 C   0  0  0  0  0  0  0  0  0  0  0  0
   -0.6832   -2.8764    1.0638 O   0  0  0  0  0  0  0  0  0  0  0  0
   -1.3952   -0.9084    0.2428 N   0  0  0  0  0  0  0  0  0  0  0  0
   -2.1972   -0.3644   -0.0422 H   0  0  0  0  0  0  0  0  0  0  0  0
   -0.1122   -0.1994    0.2658 C   0  0  1  0  0  0  0  0  0  0  0  0
    0.5635   -0.7260    0.9446 H   0  0  0  0  0  0  0  0  0  0  0  0
    0.4924   -0.2204   -1.1558 C   0  0  0  0  0  0  0  0  0  0  0  0
    1.0868    0.6804   -1.3048 H   0  0  0  0  0  0  0  0  0  0  0  0
    1.1487   -1.0838   -1.2542 H   0  0  0  0  0  0  0  0  0  0  0  0
   -0.5436   -0.2536   -2.2679 C   0  0  0  0  0  0  0  0  0  0  0  0
   -1.6492    0.2475   -2.1597 O   0  0  0  0  0  0  0  0  0  0  0  0
   -0.2227   -0.8599   -3.3849 N   0  0  0  0  0  0  0  0  0  0  0  0
   -0.9204   -0.8508   -4.1080 H   0  0  0  0  0  0  0  0  0  0  0  0
    0.6870   -1.2633   -3.5058 H   0  0  0  0  0  0  0  0  0  0  0  0
   -0.3126    1.2341    0.8050 C   0  0  0  0  0  0  0  0  0  0  0  0
   -1.2484    1.9199    0.3934 O   0  0  0  0  0  0  0  0  0  0  0  0
    0.5615    1.6875    1.7087 N   0  0  0  0  0  0  0  0  0  0  0  0
    1.3461    1.0849    1.9358 H   0  0  0  0  0  0  0  0  0  0  0  0
    0.5043    3.0121    2.3242 C   0  0  0  0  0  0  0  0  0  0  0  0
   -0.4649    3.1514    2.8080 H   0  0  0  0  0  0  0  0  0  0  0  0
    1.2959    3.1139    3.0678 H   0  0  0  0  0  0  0  0  0  0  0  0
    0.6273    3.7799    1.5584 H   0  0  0  0  0  0  0  0  0  0  0  0
  5  6  2  0  0  0  0
  5  7  1  0  0  0  0
  2  3  1  0  0  0  0
  2  4  1  0  0  0  0
  2  5  1  0  0  0  0
  1  2  1  0  0  0  0
 19 20  2  0  0  0  0
 19 21  1  0  0  0  0
 16 17  1  0  0  0  0
 16 18  1  0  0  0  0
 14 15  2  0  0  0  0
 14 16  1  0  0  0  0
 11 12  1  0  0  0  0
 11 13  1  0  0  0  0
 11 14  1  0  0  0  0
  9 10  1  0  0  0  0
  9 11  1  0  0  0  0
  9 19  1  0  0  0  0
  7  8  1  0  0  0  0
  7  9  1  0  0  0  0
 23 24  1  0  0  0  0
 23 25  1  0  0  0  0
 23 26  1  0  0  0  0
 21 22  1  0  0  0  0
 21 23  1  0  0  0  0
M  END
$$$$
default_name
  -OEChem-02102213163D

 26 25  0     1  0  0  0  0  0999 V2000
   -3.0232   -3.6924    1.0038 H   0  0  0  0  0  0  0  0  0  0  0  0
   -3.0082   -2.6684    0.6318 C   0  0  0  0  0  0  0  0  0  0  0  0
   -3.6332   -2.0414    1.2658 H   0  0  0  0  0  0  0  0  0  0  0  0
   -3.3762   -2.6444   -0.3912 H   0  0  0  0  0  0  0  0  0  0  0  0
   -1.5882   -2.1554    0.6658 C   0  0  0  0  0  0  0  0  0  0  0  0
   -0.6832   -2.8764    1.0638 O   0  0  0  0  0  0  0  0  0  0  0  0
   -1.3952   -0.9084    0.2428 N   0  0  0  0  0  0  0  0  0  0  0  0
   -2.1972   -0.3644   -0.0422 H   0  0  0  0  0  0  0  0  0  0  0  0
   -0.1122   -0.1994    0.2658 C   0  0  1  0  0  0  0  0  0  0  0  0
    0.5635   -0.7260    0.9446 H   0  0  0  0  0  0  0  0  0  0  0  0
    0.4924   -0.2204   -1.1558 C   0  0  0  0  0  0  0  0  0  0  0  0
    1.0868    0.6804   -1.3048 H   0  0  0  0  0  0  0  0  0  0  0  0
    1.1487   -1.0838   -1.2542 H   0  0  0  0  0  0  0  0  0  0  0  0
   -0.5436   -0.2536   -2.2679 C   0  0  0  0  0  0  0  0  0  0  0  0
   -1.5327    0.4583   -2.2745 O   0  0  0  0  0  0  0  0  0  0  0  0
   -0.3563   -1.0975   -3.2534 N   0  0  0  0  0  0  0  0  0  0  0  0
   -1.0477   -1.0849   -3.9824 H   0  0  0  0  0  0  0  0  0  0  0  0
    0.4589   -1.6803   -3.2808 H   0  0  0  0  0  0  0  0  0  0  0  0
   -0.3126    1.2341    0.8050 C   0  0  0  0  0  0  0  0  0  0  0  0
   -1.2484    1.9199    0.3934 O   0  0  0  0  0  0  0  0  0  0  0  0
    0.5615    1.6875    1.7087 N   0  0  0  0  0  0  0  0  0  0  0  0
    1.3461    1.0849    1.9358 H   0  0  0  0  0  0  0  0  0  0  0  0
    0.5043    3.0121    2.3242 C   0  0  0  0  0  0  0  0  0  0  0  0
   -0.4649    3.1514    2.8080 H   0  0  0  0  0  0  0  0  0  0  0  0
    1.2959    3.1139    3.0678 H   0  0  0  0  0  0  0  0  0  0  0  0
    0.6273    3.7799    1.5584 H   0  0  0  0  0  0  0  0  0  0  0  0
  5  6  2  0  0  0  0
  5  7  1  0  0  0  0
  2  3  1  0  0  0  0
  2  4  1  0  0  0  0
  2  5  1  0  0  0  0
  1  2  1  0  0  0  0
 19 20  2  0  0  0  0
 19 21  1  0  0  0  0
 16 17  1  0  0  0  0
 16 18  1  0  0  0  0
 14 15  2  0  0  0  0
 14 16  1  0  0  0  0
 11 12  1  0  0  0  0
 11 13  1  0  0  0  0
 11 14  1  0  0  0  0
  9 10  1  0  0  0  0
  9 11  1  0  0  0  0
  9 19  1  0  0  0  0
  7  8  1  0  0  0  0
  7  9  1  0  0  0  0
 23 24  1  0  0  0  0
 23 25  1  0  0  0  0
 23 26  1  0  0  0  0
 21 22  1  0  0  0  0
 21 23  1  0  0  0  0
M  END
$$$$
default_name
  -OEChem-02102213163D

 26 25  0     1  0  0  0  0  0999 V2000
   -3.0232   -3.6924    1.0038 H   0  0  0  0  0  0  0  0  0  0  0  0
   -3.0082   -2.6684    0.6318 C   0  0  0  0  0  0  0  0  0  0  0  0
   -3.6332   -2.0414    1.2658 H   0  0  0  0  0  0  0  0  0  0  0  0
   -3.3762   -2.6444   -0.3912 H   0  0  0  0  0  0  0  0  0  0  0  0
   -1.5882   -2.1554    0.6658 C   0  0  0  0  0  0  0  0  0  0  0  0
   -0.6832   -2.8764    1.0638 O   0  0  0  0  0  0  0  0  0  0  0  0
   -1.3952   -0.9084    0.2428 N   0  0  0  0  0  0  0  0  0  0  0  0
   -2.1972   -0.3644   -0.0422 H   0  0  0  0  0  0  0  0  0  0  0  0
   -0.1122   -0.1994    0.2658 C   0  0  1  0  0  0  0  0  0  0  0  0
    0.5635   -0.7260    0.9446 H   0  0  0  0  0  0  0  0  0  0  0  0
    0.4924   -0.2204   -1.1558 C   0  0  0  0  0  0  0  0  0  0  0  0
    1.0868    0.6804   -1.3048 H   0  0  0  0  0  0  0  0  0  0  0  0
    1.1487   -1.0838   -1.2542 H   0  0  0  0  0  0  0  0  0  0  0  0
   -0.5436   -0.2536   -2.2679 C   0  0  0  0  0  0  0  0  0  0  0  0
   -1.3796    0.6196   -2.4220 O   0  0  0  0  0  0  0  0  0  0  0  0
   -0.5311   -1.2784   -3.0852 N   0  0  0  0  0  0  0  0  0  0  0  0
   -1.2157   -1.2647   -3.8205 H   0  0  0  0  0  0  0  0  0  0  0  0
    0.1583   -2.0003   -2.9912 H   0  0  0  0  0  0  0  0  0  0  0  0
   -0.3126    1.2341    0.8050 C   0  0  0  0  0  0  0  0  0  0  0  0
   -1.2484    1.9199    0.3934 O   0  0  0  0  0  0  0  0  0  0  0  0
    0.5615    1.6875    1.7087 N   0  0  0  0  0  0  0  0  0  0  0  0
    1.3461    1.0849    1.9358 H   0  0  0  0  0  0  0  0  0  0  0  0
    0.5043    3.0121    2.3242 C   0  0  0  0  0  0  0  0  0  0  0  0
   -0.4649    3.1514    2.8080 H   0  0  0  0  0  0  0  0  0  0  0  0
    1.2959    3.1139    3.0678 H   0  0  0  0  0  0  0  0  0  0  0  0
    0.6273    3.7799    1.5584 H   0  0  0  0  0  0  0  0  0  0  0  0
  5  6  2  0  0  0  0
  5  7  1  0  0  0  0
  2  3  1  0  0  0  0
  2  4  1  0  0  0  0
  2  5  1  0  0  0  0
  1  2  1  0  0  0  0
 19 20  2  0  0  0  0
 19 21  1  0  0  0  0
 16 17  1  0  0  0  0
 16 18  1  0  0  0  0
 14 15  2  0  0  0  0
 14 16  1  0  0  0  0
 11 12  1  0  0  0  0
 11 13  1  0  0  0  0
 11 14  1  0  0  0  0
  9 10  1  0  0  0  0
  9 11  1  0  0  0  0
  9 19  1  0  0  0  0
  7  8  1  0  0  0  0
  7  9  1  0  0  0  0
 23 24  1  0  0  0  0
 23 25  1  0  0  0  0
 23 26  1  0  0  0  0
 21 22  1  0  0  0  0
 21 23  1  0  0  0  0
M  END
$$$$
default_name
  -OEChem-02102213163D

 26 25  0     1  0  0  0  0  0999 V2000
   -3.0232   -3.6924    1.0038 H   0  0  0  0  0  0  0  0  0  0  0  0
   -3.0082   -2.6684    0.6318 C   0  0  0  0  0  0  0  0  0  0  0  0
   -3.6332   -2.0414    1.2658 H   0  0  0  0  0  0  0  0  0  0  0  0
   -3.3762   -2.6444   -0.3912 H   0  0  0  0  0  0  0  0  0  0  0  0
   -1.5882   -2.1554    0.6658 C   0  0  0  0  0  0  0  0  0  0  0  0
   -0.6832   -2.8764    1.0638 O   0  0  0  0  0  0  0  0  0  0  0  0
   -1.3952   -0.9084    0.2428 N   0  0  0  0  0  0  0  0  0  0  0  0
   -2.1972   -0.3644   -0.0422 H   0  0  0  0  0  0  0  0  0  0  0  0
   -0.1122   -0.1994    0.2658 C   0  0  1  0  0  0  0  0  0  0  0  0
    0.5635   -0.7260    0.9446 H   0  0  0  0  0  0  0  0  0  0  0  0
    0.4924   -0.2204   -1.1558 C   0  0  0  0  0  0  0  0  0  0  0  0
    1.0868    0.6804   -1.3048 H   0  0  0  0  0  0  0  0  0  0  0  0
    1.1487   -1.0838   -1.2542 H   0  0  0  0  0  0  0  0  0  0  0  0
   -0.5436   -0.2536   -2.2679 C   0  0  0  0  0  0  0  0  0  0  0  0
   -1.2003    0.7205   -2.5921 O   0  0  0  0  0  0  0  0  0  0  0  0
   -0.7351   -1.3905   -2.8917 N   0  0  0  0  0  0  0  0  0  0  0  0
   -1.4130   -1.3781   -3.6333 H   0  0  0  0  0  0  0  0  0  0  0  0
   -0.1943   -2.2013   -2.6567 H   0  0  0  0  0  0  0  0  0  0  0  0
   -0.3126    1.2341    0.8050 C   0  0  0  0  0  0  0  0  0  0  0  0
   -1.2484    1.9199    0.3934 O   0  0  0  0  0  0  0  0  0  0  0  0
    0.5615    1.6875    1.7087 N   0  0  0  0  0  0  0  0  0  0  0  0
    1.3461    1.0849    1.9358 H   0  0  0  0  0  0  0  0  0  0  0  0
    0.5043    3.0121    2.3242 C   0  0  0  0  0  0  0  0  0  0  0  0
   -0.4649    3.1514    2.8080 H   0  0  0  0  0  0  0  0  0  0  0  0
    1.2959    3.1139    3.0678 H   0  0  0  0  0  0  0  0  0  0  0  0
    0.6273    3.7799    1.5584 H   0  0  0  0  0  0  0  0  0  0  0  0
  5  6  2  0  0  0  0
  5  7  1  0  0  0  0
  2  3  1  0  0  0  0
  2  4  1  0  0  0  0
  2  5  1  0  0  0  0
  1  2  1  0  0  0  0
 19 20  2  0  0  0  0
 19 21  1  0  0  0  0
 16 17  1  0  0  0  0
 16 18  1  0  0  0  0
 14 15  2  0  0  0  0
 14 16  1  0  0  0  0
 11 12  1  0  0  0  0
 11 13  1  0  0  0  0
 11 14  1  0  0  0  0
  9 10  1  0  0  0  0
  9 11  1  0  0  0  0
  9 19  1  0  0  0  0
  7  8  1  0  0  0  0
  7  9  1  0  0  0  0
 23 24  1  0  0  0  0
 23 25  1  0  0  0  0
 23 26  1  0  0  0  0
 21 22  1  0  0  0  0
 21 23  1  0  0  0  0
M  END
$$$$
default_name
  -OEChem-02102213163D

 26 25  0     1  0  0  0  0  0999 V2000
   -3.0232   -3.6924    1.0038 H   0  0  0  0  0  0  0  0  0  0  0  0
   -3.0082   -2.6684    0.6318 C   0  0  0  0  0  0  0  0  0  0  0  0
   -3.6332   -2.0414    1.2658 H   0  0  0  0  0  0  0  0  0  0  0  0
   -3.3762   -2.6444   -0.3912 H   0  0  0  0  0  0  0  0  0  0  0  0
   -1.5882   -2.1554    0.6658 C   0  0  0  0  0  0  0  0  0  0  0  0
   -0.6832   -2.8764    1.0638 O   0  0  0  0  0  0  0  0  0  0  0  0
   -1.3952   -0.9084    0.2428 N   0  0  0  0  0  0  0  0  0  0  0  0
   -2.1972   -0.3644   -0.0422 H   0  0  0  0  0  0  0  0  0  0  0  0
   -0.1122   -0.1994    0.2658 C   0  0  1  0  0  0  0  0  0  0  0  0
    0.5635   -0.7260    0.9446 H   0  0  0  0  0  0  0  0  0  0  0  0
    0.4924   -0.2204   -1.1558 C   0  0  0  0  0  0  0  0  0  0  0  0
    1.0868    0.6804   -1.3048 H   0  0  0  0  0  0  0  0  0  0  0  0
    1.1487   -1.0838   -1.2542 H   0  0  0  0  0  0  0  0  0  0  0  0
   -0.5436   -0.2536   -2.2679 C   0  0  0  0  0  0  0  0  0  0  0  0
   -1.0070    0.7539   -2.7731 O   0  0  0  0  0  0  0  0  0  0  0  0
   -0.9545   -1.4260   -2.6863 N   0  0  0  0  0  0  0  0  0  0  0  0
   -1.6260   -1.4172   -3.4337 H   0  0  0  0  0  0  0  0  0  0  0  0
   -0.5748   -2.2697   -2.3002 H   0  0  0  0  0  0  0  0  0  0  0  0
   -0.3126    1.2341    0.8050 C   0  0  0  0  0  0  0  0  0  0  0  0
   -1.2484    1.9199    0.3934 O   0  0  0  0  0  0  0  0  0  0  0  0
    0.5615    1.6875    1.7087 N   0  0  0  0  0  0  0  0  0  0  0  0
    1.3461    1.0849    1.9358 H   0  0  0  0  0  0  0  0  0  0  0  0
    0.5043    3.0121    2.3242 C   0  0  0  0  0  0  0  0  0  0  0  0
   -0.4649    3.1514    2.8080 H   0  0  0  0  0  0  0  0  0  0  0  0
    1.2959    3.1139    3.0678 H   0  0  0  0  0  0  0  0  0  0  0  0
    0.6273    3.7799    1.5584 H   0  0  0  0  0  0  0  0  0  0  0  0
  5  6  2  0  0  0  0
  5  7  1  0  0  0  0
  2  3  1  0  0  0  0
  2  4  1  0  0  0  0
  2  5  1  0  0  0  0
  1  2  1  0  0  0  0
 19 20  2  0  0  0  0
 19 21  1  0  0  0  0
 16 17  1  0  0  0  0
 16 18  1  0  0  0  0
 14 15  2  0  0  0  0
 14 16  1  0  0  0  0
 11 12  1  0  0  0  0
 11 13  1  0  0  0  0
 11 14  1  0  0  0  0
  9 10  1  0  0  0  0
  9 11  1  0  0  0  0
  9 19  1  0  0  0  0
  7  8  1  0  0  0  0
  7  9  1  0  0  0  0
 23 24  1  0  0  0  0
 23 25  1  0  0  0  0
 23 26  1  0  0  0  0
 21 22  1  0  0  0  0
 21 23  1  0  0  0  0
M  END
$$$$
default_name
  -OEChem-02102213163D

 26 25  0     1  0  0  0  0  0999 V2000
   -3.0232   -3.6924    1.0038 H   0  0  0  0  0  0  0  0  0  0  0  0
   -3.0082   -2.6684    0.6318 C   0  0  0  0  0  0  0  0  0  0  0  0
   -3.6332   -2.0414    1.2658 H   0  0  0  0  0  0  0  0  0  0  0  0
   -3.3762   -2.6444   -0.3912 H   0  0  0  0  0  0  0  0  0  0  0  0
   -1.5882   -2.1554    0.6658 C   0  0  0  0  0  0  0  0  0  0  0  0
   -0.6832   -2.8764    1.0638 O   0  0  0  0  0  0  0  0  0  0  0  0
   -1.3952   -0.9084    0.2428 N   0  0  0  0  0  0  0  0  0  0  0  0
   -2.1972   -0.3644   -0.0422 H   0  0  0  0  0  0  0  0  0  0  0  0
   -0.1122   -0.1994    0.2658 C   0  0  1  0  0  0  0  0  0  0  0  0
    0.5635   -0.7260    0.9446 H   0  0  0  0  0  0  0  0  0  0  0  0
    0.4924   -0.2204   -1.1558 C   0  0  0  0  0  0  0  0  0  0  0  0
    1.0868    0.6804   -1.3048 H   0  0  0  0  0  0  0  0  0  0  0  0
    1.1487   -1.0838   -1.2542 H   0  0  0  0  0  0  0  0  0  0  0  0
   -0.5436   -0.2536   -2.2679 C   0  0  0  0  0  0  0  0  0  0  0  0
   -0.8130    0.7177   -2.9527 O   0  0  0  0  0  0  0  0  0  0  0  0
   -1.1743   -1.3825   -2.4828 N   0  0  0  0  0  0  0  0  0  0  0  0
   -1.8404   -1.3795   -3.2351 H   0  0  0  0  0  0  0  0  0  0  0  0
   -0.9573   -2.2009   -1.9459 H   0  0  0  0  0  0  0  0  0  0  0  0
   -0.3126    1.2341    0.8050 C   0  0  0  0  0  0  0  0  0  0  0  0
   -1.2484    1.9199    0.3934 O   0  0  0  0  0  0  0  0  0  0  0  0
    0.5615    1.6875    1.7087 N   0  0  0  0  0  0  0  0  0  0  0  0
    1.3461    1.0849    1.9358 H   0  0  0  0  0  0  0  0  0  0  0  0
    0.5043    3.0121    2.3242 C   0  0  0  0  0  0  0  0  0  0  0  0
   -0.4649    3.1514    2.8080 H   0  0  0  0  0  0  0  0  0  0  0  0
    1.2959    3.1139    3.0678 H   0  0  0  0  0  0  0  0  0  0  0  0
    0.6273    3.7799    1.5584 H   0  0  0  0  0  0  0  0  0  0  0  0
  5  6  2  0  0  0  0
  5  7  1  0  0  0  0
  2  3  1  0  0  0  0
  2  4  1  0  0  0  0
  2  5  1  0  0  0  0
  1  2  1  0  0  0  0
 19 20  2  0  0  0  0
 19 21  1  0  0  0  0
 16 17  1  0  0  0  0
 16 18  1  0  0  0  0
 14 15  2  0  0  0  0
 14 16  1  0  0  0  0
 11 12  1  0  0  0  0
 11 13  1  0  0  0  0
 11 14  1  0  0  0  0
  9 10  1  0  0  0  0
  9 11  1  0  0  0  0
  9 19  1  0  0  0  0
  7  8  1  0  0  0  0
  7  9  1  0  0  0  0
 23 24  1  0  0  0  0
 23 25  1  0  0  0  0
 23 26  1  0  0  0  0
 21 22  1  0  0  0  0
 21 23  1  0  0  0  0
M  END
$$$$
default_name
  -OEChem-02102213163D

 26 25  0     1  0  0  0  0  0999 V2000
   -3.0232   -3.6924    1.0038 H   0  0  0  0  0  0  0  0  0  0  0  0
   -3.0082   -2.6684    0.6318 C   0  0  0  0  0  0  0  0  0  0  0  0
   -3.6332   -2.0414    1.2658 H   0  0  0  0  0  0  0  0  0  0  0  0
   -3.3762   -2.6444   -0.3912 H   0  0  0  0  0  0  0  0  0  0  0  0
   -1.5882   -2.1554    0.6658 C   0  0  0  0  0  0  0  0  0  0  0  0
   -0.6832   -2.8764    1.0638 O   0  0  0  0  0  0  0  0  0  0  0  0
   -1.3952   -0.9084    0.2428 N   0  0  0  0  0  0  0  0  0  0  0  0
   -2.1972   -0.3644   -0.0422 H   0  0  0  0  0  0  0  0  0  0  0  0
   -0.1122   -0.1994    0.2658 C   0  0  1  0  0  0  0  0  0  0  0  0
    0.5635   -0.7260    0.9446 H   0  0  0  0  0  0  0  0  0  0  0  0
    0.4924   -0.2204   -1.1558 C   0  0  0  0  0  0  0  0  0  0  0  0
    1.0868    0.6804   -1.3048 H   0  0  0  0  0  0  0  0  0  0  0  0
    1.1487   -1.0838   -1.2542 H   0  0  0  0  0  0  0  0  0  0  0  0
   -0.5436   -0.2536   -2.2679 C   0  0  0  0  0  0  0  0  0  0  0  0
   -0.6315    0.6143   -3.1188 O   0  0  0  0  0  0  0  0  0  0  0  0
   -1.3795   -1.2630   -2.2952 N   0  0  0  0  0  0  0  0  0  0  0  0
   -2.0414   -1.2674   -3.0512 H   0  0  0  0  0  0  0  0  0  0  0  0
   -1.3158   -1.9994   -1.6180 H   0  0  0  0  0  0  0  0  0  0  0  0
   -0.3126    1.2341    0.8050 C   0  0  0  0  0  0  0  0  0  0  0  0
   -1.2484    1.9199    0.3934 O   0  0  0  0  0  0  0  0  0  0  0  0
    0.5615    1.6875    1.7087 N   0  0  0  0  0  0  0  0  0  0  0  0
    1.3461    1.0849    1.9358 H   0  0  0  0  0  0  0  0  0  0  0  0
    0.5043    3.0121    2.3242 C   0  0  0  0  0  0  0  0  0  0  0  0
   -0.4649    3.1514    2.8080 H   0  0  0  0  0  0  0  0  0  0  0  0
    1.2959    3.1139    3.0678 H   0  0  0  0  0  0  0  0  0  0  0  0
    0.6273    3.7799    1.5584 H   0  0  0  0  0  0  0  0  0  0  0  0
  5  6  2  0  0  0  0
  5  7  1  0  0  0  0
  2  3  1  0  0  0  0
  2  4  1  0  0  0  0
  2  5  1  0  0  0  0
  1  2  1  0  0  0  0
 19 20  2  0  0  0  0
 19 21  1  0  0  0  0
 16 17  1  0  0  0  0
 16 18  1  0  0  0  0
 14 15  2  0  0  0  0
 14 16  1  0  0  0  0
 11 12  1  0  0  0  0
 11 13  1  0  0  0  0
 11 14  1  0  0  0  0
  9 10  1  0  0  0  0
  9 11  1  0  0  0  0
  9 19  1  0  0  0  0
  7  8  1  0  0  0  0
  7  9  1  0  0  0  0
 23 24  1  0  0  0  0
 23 25  1  0  0  0  0
 23 26  1  0  0  0  0
 21 22  1  0  0  0  0
 21 23  1  0  0  0  0
M  END
$$$$
default_name
  -OEChem-02102213163D

 26 25  0     1  0  0  0  0  0999 V2000
   -3.0232   -3.6924    1.0038 H   0  0  0  0  0  0  0  0  0  0  0  0
   -3.0082   -2.6684    0.6318 C   0  0  0  0  0  0  0  0  0  0  0  0
   -3.6332   -2.0414    1.2658 H   0  0  0  0  0  0  0  0  0  0  0  0
   -3.3762   -2.6444   -0.3912 H   0  0  0  0  0  0  0  0  0  0  0  0
   -1.5882   -2.1554    0.6658 C   0  0  0  0  0  0  0  0  0  0  0  0
   -0.6832   -2.8764    1.0638 O   0  0  0  0  0  0  0  0  0  0  0  0
   -1.3952   -0.9084    0.2428 N   0  0  0  0  0  0  0  0  0  0  0  0
   -2.1972   -0.3644   -0.0422 H   0  0  0  0  0  0  0  0  0  0  0  0
   -0.1122   -0.1994    0.2658 C   0  0  1  0  0  0  0  0  0  0  0  0
    0.5635   -0.7260    0.9446 H   0  0  0  0  0  0  0  0  0  0  0  0
    0.4924   -0.2204   -1.1558 C   0  0  0  0  0  0  0  0  0  0  0  0
    1.0868    0.6804   -1.3048 H   0  0  0  0  0  0  0  0  0  0  0  0
    1.1487   -1.0838   -1.2542 H   0  0  0  0  0  0  0  0  0  0  0  0
   -0.5436   -0.2536   -2.2679 C   0  0  0  0  0  0  0  0  0  0  0  0
   -0.4747    0.4508   -3.2599 O   0  0  0  0  0  0  0  0  0  0  0  0
   -1.5562   -1.0756   -2.1362 N   0  0  0  0  0  0  0  0  0  0  0  0
   -2.2154   -1.0886   -2.8944 H   0  0  0  0  0  0  0  0  0  0  0  0
   -1.6257   -1.6792   -1.3388 H   0  0  0  0  0  0  0  0  0  0  0  0
   -0.3126    1.2341    0.8050 C   0  0  0  0  0  0  0  0  0  0  0  0
   -1.2484    1.9199    0.3934 O   0  0  0  0  0  0  0  0  0  0  0  0
    0.5615    1.6875    1.7087 N   0  0  0  0  0  0  0  0  0  0  0  0
    1.3461    1.0849    1.9358 H   0  0  0  0  0  0  0  0  0  0  0  0
    0.5043    3.0121    2.3242 C   0  0  0  0  0  0  0  0  0  0  0  0
   -0.4649    3.1514    2.8080 H   0  0  0  0  0  0  0  0  0  0  0  0
    1.2959    3.1139    3.0678 H   0  0  0  0  0  0  0  0  0  0  0  0
    0.6273    3.7799    1.5584 H   0  0  0  0  0  0  0  0  0  0  0  0
  5  6  2  0  0  0  0
  5  7  1  0  0  0  0
  2  3  1  0  0  0  0
  2  4  1  0  0  0  0
  2  5  1  0  0  0  0
  1  2  1  0  0  0  0
 19 20  2  0  0  0  0
 19 21  1  0  0  0  0
 16 17  1  0  0  0  0
 16 18  1  0  0  0  0
 14 15  2  0  0  0  0
 14 16  1  0  0  0  0
 11 12  1  0  0  0  0
 11 13  1  0  0  0  0
 11 14  1  0  0  0  0
  9 10  1  0  0  0  0
  9 11  1  0  0  0  0
  9 19  1  0  0  0  0
  7  8  1  0  0  0  0
  7  9  1  0  0  0  0
 23 24  1  0  0  0  0
 23 25  1  0  0  0  0
 23 26  1  0  0  0  0
 21 22  1  0  0  0  0
 21 23  1  0  0  0  0
M  END
$$$$
default_name
  -OEChem-02102213163D

 26 25  0     1  0  0  0  0  0999 V2000
   -3.0232   -3.6924    1.0038 H   0  0  0  0  0  0  0  0  0  0  0  0
   -3.0082   -2.6684    0.6318 C   0  0  0  0  0  0  0  0  0  0  0  0
   -3.6332   -2.0414    1.2658 H   0  0  0  0  0  0  0  0  0  0  0  0
   -3.3762   -2.6444   -0.3912 H   0  0  0  0  0  0  0  0  0  0  0  0
   -1.5882   -2.1554    0.6658 C   0  0  0  0  0  0  0  0  0  0  0  0
   -0.6832   -2.8764    1.0638 O   0  0  0  0  0  0  0  0  0  0  0  0
   -1.3952   -0.9084    0.2428 N   0  0  0  0  0  0  0  0  0  0  0  0
   -2.1972   -0.3644   -0.0422 H   0  0  0  0  0  0  0  0  0  0  0  0
   -0.1122   -0.1994    0.2658 C   0  0  1  0  0  0  0  0  0  0  0  0
    0.5635   -0.7260    0.9446 H   0  0  0  0  0  0  0  0  0  0  0  0
    0.4924   -0.2204   -1.1558 C   0  0  0  0  0  0  0  0  0  0  0  0
    1.0868    0.6804   -1.3048 H   0  0  0  0  0  0  0  0  0  0  0  0
    1.1487   -1.0838   -1.2542 H   0  0  0  0  0  0  0  0  0  0  0  0
   -0.5436   -0.2536   -2.2679 C   0  0  0  0  0  0  0  0  0  0  0  0
   -0.3535    0.2383   -3.3665 O   0  0  0  0  0  0  0  0  0  0  0  0
   -1.6922   -0.8331   -2.0167 N   0  0  0  0  0  0  0  0  0  0  0  0
   -2.3505   -0.8554   -2.7755 H   0  0  0  0  0  0  0  0  0  0  0  0
   -1.8661   -1.2619   -1.1273 H   0  0  0  0  0  0  0  0  0  0  0  0
   -0.3126    1.2341    0.8050 C   0  0  0  0  0  0  0  0  0  0  0  0
   -1.2484    1.9199    0.3934 O   0  0  0  0  0  0  0  0  0  0  0  0
    0.5615    1.6875    1.7087 N   0  0  0  0  0  0  0  0  0  0  0  0
    1.3461    1.0849    1.9358 H   0  0  0  0  0  0  0  0  0  0  0  0
    0.5043    3.0121    2.3242 C   0  0  0  0  0  0  0  0  0  0  0  0
   -0.4649    3.1514    2.8080 H   0  0  0  0  0  0  0  0  0  0  0  0
    1.2959    3.1139    3.0678 H   0  0  0  0  0  0  0  0  0  0  0  0
    0.6273    3.7799    1.5584 H   0  0  0  0  0  0  0  0  0  0  0  0
  5  6  2  0  0  0  0
  5  7  1  0  0  0  0
  2  3  1  0  0  0  0
  2  4  1  0  0  0  0
  2  5  1  0  0  0  0
  1  2  1  0  0  0  0
 19 20  2  0  0  0  0
 19 21  1  0  0  0  0
 16 17  1  0  0  0  0
 16 18  1  0  0  0  0
 14 15  2  0  0  0  0
 14 16  1  0  0  0  0
 11 12  1  0  0  0  0
 11 13  1  0  0  0  0
 11 14  1  0  0  0  0
  9 10  1  0  0  0  0
  9 11  1  0  0  0  0
  9 19  1  0  0  0  0
  7  8  1  0  0  0  0
  7  9  1  0  0  0  0
 23 24  1  0  0  0  0
 23 25  1  0  0  0  0
 23 26  1  0  0  0  0
 21 22  1  0  0  0  0
 21 23  1  0  0  0  0
M  END
$$$$
default_name
  -OEChem-02102213163D

 26 25  0     1  0  0  0  0  0999 V2000
   -3.0232   -3.6924    1.0038 H   0  0  0  0  0  0  0  0  0  0  0  0
   -3.0082   -2.6684    0.6318 C   0  0  0  0  0  0  0  0  0  0  0  0
   -3.6332   -2.0414    1.2658 H   0  0  0  0  0  0  0  0  0  0  0  0
   -3.3762   -2.6444   -0.3912 H   0  0  0  0  0  0  0  0  0  0  0  0
   -1.5882   -2.1554    0.6658 C   0  0  0  0  0  0  0  0  0  0  0  0
   -0.6832   -2.8764    1.0638 O   0  0  0  0  0  0  0  0  0  0  0  0
   -1.3952   -0.9084    0.2428 N   0  0  0  0  0  0  0  0  0  0  0  0
   -2.1972   -0.3644   -0.0422 H   0  0  0  0  0  0  0  0  0  0  0  0
   -0.1122   -0.1994    0.2658 C   0  0  1  0  0  0  0  0  0  0  0  0
    0.5635   -0.7260    0.9446 H   0  0  0  0  0  0  0  0  0  0  0  0
    0.4924   -0.2204   -1.1558 C   0  0  0  0  0  0  0  0  0  0  0  0
    1.0868    0.6804   -1.3048 H   0  0  0  0  0  0  0  0  0  0  0  0
    1.1487   -1.0838   -1.2542 H   0  0  0  0  0  0  0  0  0  0  0  0
   -0.5436   -0.2536   -2.2679 C   0  0  0  0  0  0  0  0  0  0  0  0
   -0.2760   -0.0087   -3.4313 O   0  0  0  0  0  0  0  0  0  0  0  0
   -1.7784   -0.5521   -1.9448 N   0  0  0  0  0  0  0  0  0  0  0  0
   -2.4375   -0.5835   -2.7026 H   0  0  0  0  0  0  0  0  0  0  0  0
   -2.0204   -0.7761   -0.9980 H   0  0  0  0  0  0  0  0  0  0  0  0
   -0.3126    1.2341    0.8050 C   0  0  0  0  0  0  0  0  0  0  0  0
   -1.2484    1.9199    0.3934 O   0  0  0  0  0  0  0  0  0  0  0  0
    0.5615    1.6875    1.7087 N   0  0  0  0  0  0  0  0  0  0  0  0
    1.3461    1.0849    1.9358 H   0  0  0  0  0  0  0  0  0  0  0  0
    0.5043    3.0121    2.3242 C   0  0  0  0  0  0  0  0  0  0  0  0
   -0.4649    3.1514    2.8080 H   0  0  0  0  0  0  0  0  0  0  0  0
    1.2959    3.1139    3.0678 H   0  0  0  0  0  0  0  0  0  0  0  0
    0.6273    3.7799    1.5584 H   0  0  0  0  0  0  0  0  0  0  0  0
  5  6  2  0  0  0  0
  5  7  1  0  0  0  0
  2  3  1  0  0  0  0
  2  4  1  0  0  0  0
  2  5  1  0  0  0  0
  1  2  1  0  0  0  0
 19 20  2  0  0  0  0
 19 21  1  0  0  0  0
 16 17  1  0  0  0  0
 16 18  1  0  0  0  0
 14 15  2  0  0  0  0
 14 16  1  0  0  0  0
 11 12  1  0  0  0  0
 11 13  1  0  0  0  0
 11 14  1  0  0  0  0
  9 10  1  0  0  0  0
  9 11  1  0  0  0  0
  9 19  1  0  0  0  0
  7  8  1  0  0  0  0
  7  9  1  0  0  0  0
 23 24  1  0  0  0  0
 23 25  1  0  0  0  0
 23 26  1  0  0  0  0
 21 22  1  0  0  0  0
 21 23  1  0  0  0  0
M  END
$$$$
default_name
  -OEChem-02102213163D

 26 25  0     1  0  0  0  0  0999 V2000
   -3.0232   -3.6924    1.0038 H   0  0  0  0  0  0  0  0  0  0  0  0
   -3.0082   -2.6684    0.6318 C   0  0  0  0  0  0  0  0  0  0  0  0
   -3.6332   -2.0414    1.2658 H   0  0  0  0  0  0  0  0  0  0  0  0
   -3.3762   -2.6444   -0.3912 H   0  0  0  0  0  0  0  0  0  0  0  0
   -1.5882   -2.1554    0.6658 C   0  0  0  0  0  0  0  0  0  0  0  0
   -0.6832   -2.8764    1.0638 O   0  0  0  0  0  0  0  0  0  0  0  0
   -1.3952   -0.9084    0.2428 N   0  0  0  0  0  0  0  0  0  0  0  0
   -2.1972   -0.3644   -0.0422 H   0  0  0  0  0  0  0  0  0  0  0  0
   -0.1122   -0.1994    0.2658 C   0  0  1  0  0  0  0  0  0  0  0  0
    0.5635   -0.7260    0.9446 H   0  0  0  0  0  0  0  0  0  0  0  0
    0.4924   -0.2204   -1.1558 C   0  0  0  0  0  0  0  0  0  0  0  0
    1.2863    0.5230   -1.2176 H   0  0  0  0  0  0  0  0  0  0  0  0
    0.9259   -1.2009   -1.3472 H   0  0  0  0  0  0  0  0  0  0  0  0
   -0.5040    0.1066   -2.2564 C   0  0  0  0  0  0  0  0  0  0  0  0
   -0.2026    0.1361   -3.4368 O   0  0  0  0  0  0  0  0  0  0  0  0
   -1.7378    0.3756   -1.9044 N   0  0  0  0  0  0  0  0  0  0  0  0
   -2.3779    0.5707   -2.6539 H   0  0  0  0  0  0  0  0  0  0  0  0
   -2.0154    0.3393   -0.9418 H   0  0  0  0  0  0  0  0  0  0  0  0
   -0.3126    1.2341    0.8050 C   0  0  0  0  0  0  0  0  0  0  0  0
   -1.2484    1.9199    0.3934 O   0  0  0  0  0  0  0  0  0  0  0  0
    0.5615    1.6875    1.7087 N   0  0  0  0  0  0  0  0  0  0  0  0
    1.3461    1.0849    1.9358 H   0  0  0  0  0  0  0  0  0  0  0  0
    0.5043    3.0121    2.3242 C   0  0  0  0  0  0  0  0  0  0  0  0
   -0.4649    3.1514    2.8080 H   0  0  0  0  0  0  0  0  0  0  0  0
    1.2959    3.1139    3.0678 H   0  0  0  0  0  0  0  0  0  0  0  0
    0.6273    3.7799    1.5584 H   0  0  0  0  0  0  0  0  0  0  0  0
  5  6  2  0  0  0  0
  5  7  1  0  0  0  0
  2  3  1  0  0  0  0
  2  4  1  0  0  0  0
  2  5  1  0  0  0  0
  1  2  1  0  0  0  0
 19 20  2  0  0  0  0
 19 21  1  0  0  0  0
 16 17  1  0  0  0  0
 16 18  1  0  0  0  0
 14 15  2  0  0  0  0
 14 16  1  0  0  0  0
 11 12  1  0  0  0  0
 11 13  1  0  0  0  0
 11 14  1  0  0  0  0
  9 10  1  0  0  0  0
  9 11  1  0  0  0  0
  9 19  1  0  0  0  0
  7  8  1  0  0  0  0
  7  9  1  0  0  0  0
 23 24  1  0  0  0  0
 23 25  1  0  0  0  0
 23 26  1  0  0  0  0
 21 22  1  0  0  0  0
 21 23  1  0  0  0  0
M  END
$$$$
default_name
  -OEChem-02102213163D

 26 25  0     1  0  0  0  0  0999 V2000
   -3.0232   -3.6924    1.0038 H   0  0  0  0  0  0  0  0  0  0  0  0
   -3.0082   -2.6684    0.6318 C   0  0  0  0  0  0  0  0  0  0  0  0
   -3.6332   -2.0414    1.2658 H   0  0  0  0  0  0  0  0  0  0  0  0
   -3.3762   -2.6444   -0.3912 H   0  0  0  0  0  0  0  0  0  0  0  0
   -1.5882   -2.1554    0.6658 C   0  0  0  0  0  0  0  0  0  0  0  0
   -0.6832   -2.8764    1.0638 O   0  0  0  0  0  0  0  0  0  0  0  0
   -1.3952   -0.9084    0.2428 N   0  0  0  0  0  0  0  0  0  0  0  0
   -2.1972   -0.3644   -0.0422 H   0  0  0  0  0  0  0  0  0  0  0  0
   -0.1122   -0.1994    0.2658 C   0  0  1  0  0  0  0  0  0  0  0  0
    0.5635   -0.7260    0.9446 H   0  0  0  0  0  0  0  0  0  0  0  0
    0.4924   -0.2204   -1.1558 C   0  0  0  0  0  0  0  0  0  0  0  0
    1.2863    0.5230   -1.2176 H   0  0  0  0  0  0  0  0  0  0  0  0
    0.9259   -1.2009   -1.3472 H   0  0  0  0  0  0  0  0  0  0  0  0
   -0.5040    0.1066   -2.2564 C   0  0  0  0  0  0  0  0  0  0  0  0
   -0.2879   -0.1168   -3.4348 O   0  0  0  0  0  0  0  0  0  0  0  0
   -1.6394    0.6618   -1.9084 N   0  0  0  0  0  0  0  0  0  0  0  0
   -2.2853    0.8504   -2.6547 H   0  0  0  0  0  0  0  0  0  0  0  0
   -1.8491    0.8382   -0.9441 H   0  0  0  0  0  0  0  0  0  0  0  0
   -0.3126    1.2341    0.8050 C   0  0  0  0  0  0  0  0  0  0  0  0
   -1.2484    1.9199    0.3934 O   0  0  0  0  0  0  0  0  0  0  0  0
    0.5615    1.6875    1.7087 N   0  0  0  0  0  0  0  0  0  0  0  0
    1.3461    1.0849    1.9358 H   0  0  0  0  0  0  0  0  0  0  0  0
    0.5043    3.0121    2.3242 C   0  0  0  0  0  0  0  0  0  0  0  0
   -0.4649    3.1514    2.8080 H   0  0  0  0  0  0  0  0  0  0  0  0
    1.2959    3.1139    3.0678 H   0  0  0  0  0  0  0  0  0  0  0  0
    0.6273    3.7799    1.5584 H   0  0  0  0  0  0  0  0  0  0  0  0
  5  6  2  0  0  0  0
  5  7  1  0  0  0  0
  2  3  1  0  0  0  0
  2  4  1  0  0  0  0
  2  5  1  0  0  0  0
  1  2  1  0  0  0  0
 19 20  2  0  0  0  0
 19 21  1  0  0  0  0
 16 17  1  0  0  0  0
 16 18  1  0  0  0  0
 14 15  2  0  0  0  0
 14 16  1  0  0  0  0
 11 12  1  0  0  0  0
 11 13  1  0  0  0  0
 11 14  1  0  0  0  0
  9 10  1  0  0  0  0
  9 11  1  0  0  0  0
  9 19  1  0  0  0  0
  7  8  1  0  0  0  0
  7  9  1  0  0  0  0
 23 24  1  0  0  0  0
 23 25  1  0  0  0  0
 23 26  1  0  0  0  0
 21 22  1  0  0  0  0
 21 23  1  0  0  0  0
M  END
$$$$
default_name
  -OEChem-02102213163D

 26 25  0     1  0  0  0  0  0999 V2000
   -3.0232   -3.6924    1.0038 H   0  0  0  0  0  0  0  0  0  0  0  0
   -3.0082   -2.6684    0.6318 C   0  0  0  0  0  0  0  0  0  0  0  0
   -3.6332   -2.0414    1.2658 H   0  0  0  0  0  0  0  0  0  0  0  0
   -3.3762   -2.6444   -0.3912 H   0  0  0  0  0  0  0  0  0  0  0  0
   -1.5882   -2.1554    0.6658 C   0  0  0  0  0  0  0  0  0  0  0  0
   -0.6832   -2.8764    1.0638 O   0  0  0  0  0  0  0  0  0  0  0  0
   -1.3952   -0.9084    0.2428 N   0  0  0  0  0  0  0  0  0  0  0  0
   -2.1972   -0.3644   -0.0422 H   0  0  0  0  0  0  0  0  0  0  0  0
   -0.1122   -0.1994    0.2658 C   0  0  1  0  0  0  0  0  0  0  0  0
    0.5635   -0.7260    0.9446 H   0  0  0  0  0  0  0  0  0  0  0  0
    0.4924   -0.2204   -1.1558 C   0  0  0  0  0  0  0  0  0  0  0  0
    1.2863    0.5230   -1.2176 H   0  0  0  0  0  0  0  0  0  0  0  0
    0.9259   -1.2009   -1.3472 H   0  0  0  0  0  0  0  0  0  0  0  0
   -0.5040    0.1066   -2.2564 C   0  0  0  0  0  0  0  0  0  0  0  0
   -0.4175   -0.3447   -3.3851 O   0  0  0  0  0  0  0  0  0  0  0  0
   -1.4910    0.9191   -1.9664 N   0  0  0  0  0  0  0  0  0  0  0  0
   -2.1435    1.1031   -2.7080 H   0  0  0  0  0  0  0  0  0  0  0  0
   -1.5951    1.2886   -1.0402 H   0  0  0  0  0  0  0  0  0  0  0  0
   -0.3126    1.2341    0.8050 C   0  0  0  0  0  0  0  0  0  0  0  0
   -1.2484    1.9199    0.3934 O   0  0  0  0  0  0  0  0  0  0  0  0
    0.5615    1.6875    1.7087 N   0  0  0  0  0  0  0  0  0  0  0  0
    1.3461    1.0849    1.9358 H   0  0  0  0  0  0  0  0  0  0  0  0
    0.5043    3.0121    2.3242 C   0  0  0  0  0  0  0  0  0  0  0  0
   -0.4649    3.1514    2.8080 H   0  0  0  0  0  0  0  0  0  0  0  0
    1.2959    3.1139    3.0678 H   0  0  0  0  0  0  0  0  0  0  0  0
    0.6273    3.7799    1.5584 H   0  0  0  0  0  0  0  0  0  0  0  0
  5  6  2  0  0  0  0
  5  7  1  0  0  0  0
  2  3  1  0  0  0  0
  2  4  1  0  0  0  0
  2  5  1  0  0  0  0
  1  2  1  0  0  0  0
 19 20  2  0  0  0  0
 19 21  1  0  0  0  0
 16 17  1  0  0  0  0
 16 18  1  0  0  0  0
 14 15  2  0  0  0  0
 14 16  1  0  0  0  0
 11 12  1  0  0  0  0
 11 13  1  0  0  0  0
 11 14  1  0  0  0  0
  9 10  1  0  0  0  0
  9 11  1  0  0  0  0
  9 19  1  0  0  0  0
  7  8  1  0  0  0  0
  7  9  1  0  0  0  0
 23 24  1  0  0  0  0
 23 25  1  0  0  0  0
 23 26  1  0  0  0  0
 21 22  1  0  0  0  0
 21 23  1  0  0  0  0
M  END
$$$$
default_name
  -OEChem-02102213163D

 26 25  0     1  0  0  0  0  0999 V2000
   -3.0232   -3.6924    1.0038 H   0  0  0  0  0  0  0  0  0  0  0  0
   -3.0082   -2.6684    0.6318 C   0  0  0  0  0  0  0  0  0  0  0  0
   -3.6332   -2.0414    1.2658 H   0  0  0  0  0  0  0  0  0  0  0  0
   -3.3762   -2.6444   -0.3912 H   0  0  0  0  0  0  0  0  0  0  0  0
   -1.5882   -2.1554    0.6658 C   0  0  0  0  0  0  0  0  0  0  0  0
   -0.6832   -2.8764    1.0638 O   0  0  0  0  0  0  0  0  0  0  0  0
   -1.3952   -0.9084    0.2428 N   0  0  0  0  0  0  0  0  0  0  0  0
   -2.1972   -0.3644   -0.0422 H   0  0  0  0  0  0  0  0  0  0  0  0
   -0.1122   -0.1994    0.2658 C   0  0  1  0  0  0  0  0  0  0  0  0
    0.5635   -0.7260    0.9446 H   0  0  0  0  0  0  0  0  0  0  0  0
    0.4924   -0.2204   -1.1558 C   0  0  0  0  0  0  0  0  0  0  0  0
    1.2863    0.5230   -1.2176 H   0  0  0  0  0  0  0  0  0  0  0  0
    0.9259   -1.2009   -1.3472 H   0  0  0  0  0  0  0  0  0  0  0  0
   -0.5040    0.1066   -2.2564 C   0  0  0  0  0  0  0  0  0  0  0  0
   -0.5827   -0.5322   -3.2913 O   0  0  0  0  0  0  0  0  0  0  0  0
   -1.3026    1.1300   -2.0742 N   0  0  0  0  0  0  0  0  0  0  0  0
   -1.9621    1.3115   -2.8103 H   0  0  0  0  0  0  0  0  0  0  0  0
   -1.2707    1.6597   -1.2237 H   0  0  0  0  0  0  0  0  0  0  0  0
   -0.3126    1.2341    0.8050 C   0  0  0  0  0  0  0  0  0  0  0  0
   -1.2484    1.9199    0.3934 O   0  0  0  0  0  0  0  0  0  0  0  0
    0.5615    1.6875    1.7087 N   0  0  0  0  0  0  0  0  0  0  0  0
    1.3461    1.0849    1.9358 H   0  0  0  0  0  0  0  0  0  0  0  0
    0.5043    3.0121    2.3242 C   0  0  0  0  0  0  0  0  0  0  0  0
   -0.4649    3.1514    2.8080 H   0  0  0  0  0  0  0  0  0  0  0  0
    1.2959    3.1139    3.0678 H   0  0  0  0  0  0  0  0  0  0  0  0
    0.6273    3.7799    1.5584 H   0  0  0  0  0  0  0  0  0  0  0  0
  5  6  2  0  0  0  0
  5  7  1  0  0  0  0
  2  3  1  0  0  0  0
  2  4  1  0  0  0  0
  2  5  1  0  0  0  0
  1  2  1  0  0  0  0
 19 20  2  0  0  0  0
 19 21  1  0  0  0  0
 16 17  1  0  0  0  0
 16 18  1  0  0  0  0
 14 15  2  0  0  0  0
 14 16  1  0  0  0  0
 11 12  1  0  0  0  0
 11 13  1  0  0  0  0
 11 14  1  0  0  0  0
  9 10  1  0  0  0  0
  9 11  1  0  0  0  0
  9 19  1  0  0  0  0
  7  8  1  0  0  0  0
  7  9  1  0  0  0  0
 23 24  1  0  0  0  0
 23 25  1  0  0  0  0
 23 26  1  0  0  0  0
 21 22  1  0  0  0  0
 21 23  1  0  0  0  0
M  END
$$$$
default_name
  -OEChem-02102213163D

 26 25  0     1  0  0  0  0  0999 V2000
   -3.0232   -3.6924    1.0038 H   0  0  0  0  0  0  0  0  0  0  0  0
   -3.0082   -2.6684    0.6318 C   0  0  0  0  0  0  0  0  0  0  0  0
   -3.6332   -2.0414    1.2658 H   0  0  0  0  0  0  0  0  0  0  0  0
   -3.3762   -2.6444   -0.3912 H   0  0  0  0  0  0  0  0  0  0  0  0
   -1.5882   -2.1554    0.6658 C   0  0  0  0  0  0  0  0  0  0  0  0
   -0.6832   -2.8764    1.0638 O   0  0  0  0  0  0  0  0  0  0  0  0
   -1.3952   -0.9084    0.2428 N   0  0  0  0  0  0  0  0  0  0  0  0
   -2.1972   -0.3644   -0.0422 H   0  0  0  0  0  0  0  0  0  0  0  0
   -0.1122   -0.1994    0.2658 C   0  0  1  0  0  0  0  0  0  0  0  0
    0.5635   -0.7260    0.9446 H   0  0  0  0  0  0  0  0  0  0  0  0
    0.4924   -0.2204   -1.1558 C   0  0  0  0  0  0  0  0  0  0  0  0
    1.2863    0.5230   -1.2176 H   0  0  0  0  0  0  0  0  0  0  0  0
    0.9259   -1.2009   -1.3472 H   0  0  0  0  0  0  0  0  0  0  0  0
   -0.5040    0.1066   -2.2564 C   0  0  0  0  0  0  0  0  0  0  0  0
   -0.7721   -0.6664   -3.1597 O   0  0  0  0  0  0  0  0  0  0  0  0
   -1.0872    1.2802   -2.2247 N   0  0  0  0  0  0  0  0  0  0  0  0
   -1.7536    1.4615   -2.9545 H   0  0  0  0  0  0  0  0  0  0  0  0
   -0.8981    1.9263   -1.4819 H   0  0  0  0  0  0  0  0  0  0  0  0
   -0.3126    1.2341    0.8050 C   0  0  0  0  0  0  0  0  0  0  0  0
   -1.2484    1.9199    0.3934 O   0  0  0  0  0  0  0  0  0  0  0  0
    0.5615    1.6875    1.7087 N   0  0  0  0  0  0  0  0  0  0  0  0
    1.3461    1.0849    1.9358 H   0  0  0  0  0  0  0  0  0  0  0  0
    0.5043    3.0121    2.3242 C   0  0  0  0  0  0  0  0  0  0  0  0
   -0.4649    3.1514    2.8080 H   0  0  0  0  0  0  0  0  0  0  0  0
    1.2959    3.1139    3.0678 H   0  0  0  0  0  0  0  0  0  0  0  0
    0.6273    3.7799    1.5584 H   0  0  0  0  0  0  0  0  0  0  0  0
  5  6  2  0  0  0  0
  5  7  1  0  0  0  0
  2  3  1  0  0  0  0
  2  4  1  0  0  0  0
  2  5  1  0  0  0  0
  1  2  1  0  0  0  0
 19 20  2  0  0  0  0
 19 21  1  0  0  0  0
 16 17  1  0  0  0  0
 16 18  1  0  0  0  0
 14 15  2  0  0  0  0
 14 16  1  0  0  0  0
 11 12  1  0  0  0  0
 11 13  1  0  0  0  0
 11 14  1  0  0  0  0
  9 10  1  0  0  0  0
  9 11  1  0  0  0  0
  9 19  1  0  0  0  0
  7  8  1  0  0  0  0
  7  9  1  0  0  0  0
 23 24  1  0  0  0  0
 23 25  1  0  0  0  0
 23 26  1  0  0  0  0
 21 22  1  0  0  0  0
 21 23  1  0  0  0  0
M  END
$$$$
default_name
  -OEChem-02102213163D

 26 25  0     1  0  0  0  0  0999 V2000
   -3.0232   -3.6924    1.0038 H   0  0  0  0  0  0  0  0  0  0  0  0
   -3.0082   -2.6684    0.6318 C   0  0  0  0  0  0  0  0  0  0  0  0
   -3.6332   -2.0414    1.2658 H   0  0  0  0  0  0  0  0  0  0  0  0
   -3.3762   -2.6444   -0.3912 H   0  0  0  0  0  0  0  0  0  0  0  0
   -1.5882   -2.1554    0.6658 C   0  0  0  0  0  0  0  0  0  0  0  0
   -0.6832   -2.8764    1.0638 O   0  0  0  0  0  0  0  0  0  0  0  0
   -1.3952   -0.9084    0.2428 N   0  0  0  0  0  0  0  0  0  0  0  0
   -2.1972   -0.3644   -0.0422 H   0  0  0  0  0  0  0  0  0  0  0  0
   -0.1122   -0.1994    0.2658 C   0  0  1  0  0  0  0  0  0  0  0  0
    0.5635   -0.7260    0.9446 H   0  0  0  0  0  0  0  0  0  0  0  0
    0.4924   -0.2204   -1.1558 C   0  0  0  0  0  0  0  0  0  0  0  0
    1.2863    0.5230   -1.2176 H   0  0  0  0  0  0  0  0  0  0  0  0
    0.9259   -1.2009   -1.3472 H   0  0  0  0  0  0  0  0  0  0  0  0
   -0.5040    0.1066   -2.2564 C   0  0  0  0  0  0  0  0  0  0  0  0
   -0.9729   -0.7382   -2.9992 O   0  0  0  0  0  0  0  0  0  0  0  0
   -0.8593    1.3593   -2.4075 N   0  0  0  0  0  0  0  0  0  0  0  0
   -1.5321    1.5429   -3.1309 H   0  0  0  0  0  0  0  0  0  0  0  0
   -0.5026    2.0701   -1.7972 H   0  0  0  0  0  0  0  0  0  0  0  0
   -0.3126    1.2341    0.8050 C   0  0  0  0  0  0  0  0  0  0  0  0
   -1.2484    1.9199    0.3934 O   0  0  0  0  0  0  0  0  0  0  0  0
    0.5615    1.6875    1.7087 N   0  0  0  0  0  0  0  0  0  0  0  0
    1.3461    1.0849    1.9358 H   0  0  0  0  0  0  0  0  0  0  0  0
    0.5043    3.0121    2.3242 C   0  0  0  0  0  0  0  0  0  0  0  0
   -0.4649    3.1514    2.8080 H   0  0  0  0  0  0  0  0  0  0  0  0
    1.2959    3.1139    3.0678 H   0  0  0  0  0  0  0  0  0  0  0  0
    0.6273    3.7799    1.5584 H   0  0  0  0  0  0  0  0  0  0  0  0
  5  6  2  0  0  0  0
  5  7  1  0  0  0  0
  2  3  1  0  0  0  0
  2  4  1  0  0  0  0
  2  5  1  0  0  0  0
  1  2  1  0  0  0  0
 19 20  2  0  0  0  0
 19 21  1  0  0  0  0
 16 17  1  0  0  0  0
 16 18  1  0  0  0  0
 14 15  2  0  0  0  0
 14 16  1  0  0  0  0
 11 12  1  0  0  0  0
 11 13  1  0  0  0  0
 11 14  1  0  0  0  0
  9 10  1  0  0  0  0
  9 11  1  0  0  0  0
  9 19  1  0  0  0  0
  7  8  1  0  0  0  0
  7  9  1  0  0  0  0
 23 24  1  0  0  0  0
 23 25  1  0  0  0  0
 23 26  1  0  0  0  0
 21 22  1  0  0  0  0
 21 23  1  0  0  0  0
M  END
$$$$
default_name
  -OEChem-02102213163D

 26 25  0     1  0  0  0  0  0999 V2000
   -3.0232   -3.6924    1.0038 H   0  0  0  0  0  0  0  0  0  0  0  0
   -3.0082   -2.6684    0.6318 C   0  0  0  0  0  0  0  0  0  0  0  0
   -3.6332   -2.0414    1.2658 H   0  0  0  0  0  0  0  0  0  0  0  0
   -3.3762   -2.6444   -0.3912 H   0  0  0  0  0  0  0  0  0  0  0  0
   -1.5882   -2.1554    0.6658 C   0  0  0  0  0  0  0  0  0  0  0  0
   -0.6832   -2.8764    1.0638 O   0  0  0  0  0  0  0  0  0  0  0  0
   -1.3952   -0.9084    0.2428 N   0  0  0  0  0  0  0  0  0  0  0  0
   -2.1972   -0.3644   -0.0422 H   0  0  0  0  0  0  0  0  0  0  0  0
   -0.1122   -0.1994    0.2658 C   0  0  1  0  0  0  0  0  0  0  0  0
    0.5635   -0.7260    0.9446 H   0  0  0  0  0  0  0  0  0  0  0  0
    0.4924   -0.2204   -1.1558 C   0  0  0  0  0  0  0  0  0  0  0  0
    1.2863    0.5230   -1.2176 H   0  0  0  0  0  0  0  0  0  0  0  0
    0.9259   -1.2009   -1.3472 H   0  0  0  0  0  0  0  0  0  0  0  0
   -0.5040    0.1066   -2.2564 C   0  0  0  0  0  0  0  0  0  0  0  0
   -1.1714   -0.7427   -2.8208 O   0  0  0  0  0  0  0  0  0  0  0  0
   -0.6345    1.3620   -2.6102 N   0  0  0  0  0  0  0  0  0  0  0  0
   -1.3127    1.5501   -3.3274 H   0  0  0  0  0  0  0  0  0  0  0  0
   -0.1111    2.0815   -2.1483 H   0  0  0  0  0  0  0  0  0  0  0  0
   -0.3126    1.2341    0.8050 C   0  0  0  0  0  0  0  0  0  0  0  0
   -1.2484    1.9199    0.3934 O   0  0  0  0  0  0  0  0  0  0  0  0
    0.5615    1.6875    1.7087 N   0  0  0  0  0  0  0  0  0  0  0  0
    1.3461    1.0849    1.9358 H   0  0  0  0  0  0  0  0  0  0  0  0
    0.5043    3.0121    2.3242 C   0  0  0  0  0  0  0  0  0  0  0  0
   -0.4649    3.1514    2.8080 H   0  0  0  0  0  0  0  0  0  0  0  0
    1.2959    3.1139    3.0678 H   0  0  0  0  0  0  0  0  0  0  0  0
    0.6273    3.7799    1.5584 H   0  0  0  0  0  0  0  0  0  0  0  0
  5  6  2  0  0  0  0
  5  7  1  0  0  0  0
  2  3  1  0  0  0  0
  2  4  1  0  0  0  0
  2  5  1  0  0  0  0
  1  2  1  0  0  0  0
 19 20  2  0  0  0  0
 19 21  1  0  0  0  0
 16 17  1  0  0  0  0
 16 18  1  0  0  0  0
 14 15  2  0  0  0  0
 14 16  1  0  0  0  0
 11 12  1  0  0  0  0
 11 13  1  0  0  0  0
 11 14  1  0  0  0  0
  9 10  1  0  0  0  0
  9 11  1  0  0  0  0
  9 19  1  0  0  0  0
  7  8  1  0  0  0  0
  7  9  1  0  0  0  0
 23 24  1  0  0  0  0
 23 25  1  0  0  0  0
 23 26  1  0  0  0  0
 21 22  1  0  0  0  0
 21 23  1  0  0  0  0
M  END
$$$$
default_name
  -OEChem-02102213163D

 26 25  0     1  0  0  0  0  0999 V2000
   -3.0232   -3.6924    1.0038 H   0  0  0  0  0  0  0  0  0  0  0  0
   -3.0082   -2.6684    0.6318 C   0  0  0  0  0  0  0  0  0  0  0  0
   -3.6332   -2.0414    1.2658 H   0  0  0  0  0  0  0  0  0  0  0  0
   -3.3762   -2.6444   -0.3912 H   0  0  0  0  0  0  0  0  0  0  0  0
   -1.5882   -2.1554    0.6658 C   0  0  0  0  0  0  0  0  0  0  0  0
   -0.6832   -2.8764    1.0638 O   0  0  0  0  0  0  0  0  0  0  0  0
   -1.3952   -0.9084    0.2428 N   0  0  0  0  0  0  0  0  0  0  0  0
   -2.1972   -0.3644   -0.0422 H   0  0  0  0  0  0  0  0  0  0  0  0
   -0.1122   -0.1994    0.2658 C   0  0  1  0  0  0  0  0  0  0  0  0
    0.5635   -0.7260    0.9446 H   0  0  0  0  0  0  0  0  0  0  0  0
    0.4924   -0.2204   -1.1558 C   0  0  0  0  0  0  0  0  0  0  0  0
    1.2863    0.5230   -1.2176 H   0  0  0  0  0  0  0  0  0  0  0  0
    0.9259   -1.2009   -1.3472 H   0  0  0  0  0  0  0  0  0  0  0  0
   -0.5040    0.1066   -2.2564 C   0  0  0  0  0  0  0  0  0  0  0  0
   -1.3540   -0.6796   -2.6367 O   0  0  0  0  0  0  0  0  0  0  0  0
   -0.4282    1.2881   -2.8189 N   0  0  0  0  0  0  0  0  0  0  0  0
   -1.1104    1.4825   -3.5306 H   0  0  0  0  0  0  0  0  0  0  0  0
    0.2496    1.9596   -2.5111 H   0  0  0  0  0  0  0  0  0  0  0  0
   -0.3126    1.2341    0.8050 C   0  0  0  0  0  0  0  0  0  0  0  0
   -1.2484    1.9199    0.3934 O   0  0  0  0  0  0  0  0  0  0  0  0
    0.5615    1.6875    1.7087 N   0  0  0  0  0  0  0  0  0  0  0  0
    1.3461    1.0849    1.9358 H   0  0  0  0  0  0  0  0  0  0  0  0
    0.5043    3.0121    2.3242 C   0  0  0  0  0  0  0  0  0  0  0  0
   -0.4649    3.1514    2.8080 H   0  0  0  0  0  0  0  0  0  0  0  0
    1.2959    3.1139    3.0678 H   0  0  0  0  0  0  0  0  0  0  0  0
    0.6273    3.7799    1.5584 H   0  0  0  0  0  0  0  0  0  0  0  0
  5  6  2  0  0  0  0
  5  7  1  0  0  0  0
  2  3  1  0  0  0  0
  2  4  1  0  0  0  0
  2  5  1  0  0  0  0
  1  2  1  0  0  0  0
 19 20  2  0  0  0  0
 19 21  1  0  0  0  0
 16 17  1  0  0  0  0
 16 18  1  0  0  0  0
 14 15  2  0  0  0  0
 14 16  1  0  0  0  0
 11 12  1  0  0  0  0
 11 13  1  0  0  0  0
 11 14  1  0  0  0  0
  9 10  1  0  0  0  0
  9 11  1  0  0  0  0
  9 19  1  0  0  0  0
  7  8  1  0  0  0  0
  7  9  1  0  0  0  0
 23 24  1  0  0  0  0
 23 25  1  0  0  0  0
 23 26  1  0  0  0  0
 21 22  1  0  0  0  0
 21 23  1  0  0  0  0
M  END
$$$$
default_name
  -OEChem-02102213163D

 26 25  0     1  0  0  0  0  0999 V2000
   -3.0232   -3.6924    1.0038 H   0  0  0  0  0  0  0  0  0  0  0  0
   -3.0082   -2.6684    0.6318 C   0  0  0  0  0  0  0  0  0  0  0  0
   -3.6332   -2.0414    1.2658 H   0  0  0  0  0  0  0  0  0  0  0  0
   -3.3762   -2.6444   -0.3912 H   0  0  0  0  0  0  0  0  0  0  0  0
   -1.5882   -2.1554    0.6658 C   0  0  0  0  0  0  0  0  0  0  0  0
   -0.6832   -2.8764    1.0638 O   0  0  0  0  0  0  0  0  0  0  0  0
   -1.3952   -0.9084    0.2428 N   0  0  0  0  0  0  0  0  0  0  0  0
   -2.1972   -0.3644   -0.0422 H   0  0  0  0  0  0  0  0  0  0  0  0
   -0.1122   -0.1994    0.2658 C   0  0  1  0  0  0  0  0  0  0  0  0
    0.5635   -0.7260    0.9446 H   0  0  0  0  0  0  0  0  0  0  0  0
    0.4924   -0.2204   -1.1558 C   0  0  0  0  0  0  0  0  0  0  0  0
    1.2863    0.5230   -1.2176 H   0  0  0  0  0  0  0  0  0  0  0  0
    0.9259   -1.2009   -1.3472 H   0  0  0  0  0  0  0  0  0  0  0  0
   -0.5040    0.1066   -2.2564 C   0  0  0  0  0  0  0  0  0  0  0  0
   -1.5083   -0.5533   -2.4594 O   0  0  0  0  0  0  0  0  0  0  0  0
   -0.2544    1.1427   -3.0195 N   0  0  0  0  0  0  0  0  0  0  0  0
   -0.9389    1.3449   -3.7268 H   0  0  0  0  0  0  0  0  0  0  0  0
    0.5549    1.7127   -2.8609 H   0  0  0  0  0  0  0  0  0  0  0  0
   -0.3126    1.2341    0.8050 C   0  0  0  0  0  0  0  0  0  0  0  0
   -1.2484    1.9199    0.3934 O   0  0  0  0  0  0  0  0  0  0  0  0
    0.5615    1.6875    1.7087 N   0  0  0  0  0  0  0  0  0  0  0  0
    1.3461    1.0849    1.9358 H   0  0  0  0  0  0  0  0  0  0  0  0
    0.5043    3.0121    2.3242 C   0  0  0  0  0  0  0  0  0  0  0  0
   -0.4649    3.1514    2.8080 H   0  0  0  0  0  0  0  0  0  0  0  0
    1.2959    3.1139    3.0678 H   0  0  0  0  0  0  0  0  0  0  0  0
    0.6273    3.7799    1.5584 H   0  0  0  0  0  0  0  0  0  0  0  0
  5  6  2  0  0  0  0
  5  7  1  0  0  0  0
  2  3  1  0  0  0  0
  2  4  1  0  0  0  0
  2  5  1  0  0  0  0
  1  2  1  0  0  0  0
 19 20  2  0  0  0  0
 19 21  1  0  0  0  0
 16 17  1  0  0  0  0
 16 18  1  0  0  0  0
 14 15  2  0  0  0  0
 14 16  1  0  0  0  0
 11 12  1  0  0  0  0
 11 13  1  0  0  0  0
 11 14  1  0  0  0  0
  9 10  1  0  0  0  0
  9 11  1  0  0  0  0
  9 19  1  0  0  0  0
  7  8  1  0  0  0  0
  7  9  1  0  0  0  0
 23 24  1  0  0  0  0
 23 25  1  0  0  0  0
 23 26  1  0  0  0  0
 21 22  1  0  0  0  0
 21 23  1  0  0  0  0
M  END
$$$$
default_name
  -OEChem-02102213163D

 26 25  0     1  0  0  0  0  0999 V2000
   -3.0232   -3.6924    1.0038 H   0  0  0  0  0  0  0  0  0  0  0  0
   -3.0082   -2.6684    0.6318 C   0  0  0  0  0  0  0  0  0  0  0  0
   -3.6332   -2.0414    1.2658 H   0  0  0  0  0  0  0  0  0  0  0  0
   -3.3762   -2.6444   -0.3912 H   0  0  0  0  0  0  0  0  0  0  0  0
   -1.5882   -2.1554    0.6658 C   0  0  0  0  0  0  0  0  0  0  0  0
   -0.6832   -2.8764    1.0638 O   0  0  0  0  0  0  0  0  0  0  0  0
   -1.3952   -0.9084    0.2428 N   0  0  0  0  0  0  0  0  0  0  0  0
   -2.1972   -0.3644   -0.0422 H   0  0  0  0  0  0  0  0  0  0  0  0
   -0.1122   -0.1994    0.2658 C   0  0  1  0  0  0  0  0  0  0  0  0
    0.5635   -0.7260    0.9446 H   0  0  0  0  0  0  0  0  0  0  0  0
    0.4924   -0.2204   -1.1558 C   0  0  0  0  0  0  0  0  0  0  0  0
    1.2863    0.5230   -1.2176 H   0  0  0  0  0  0  0  0  0  0  0  0
    0.9259   -1.2009   -1.3472 H   0  0  0  0  0  0  0  0  0  0  0  0
   -0.5040    0.1066   -2.2564 C   0  0  0  0  0  0  0  0  0  0  0  0
   -1.6239   -0.3722   -2.3010 O   0  0  0  0  0  0  0  0  0  0  0  0
   -0.1249    0.9356   -3.1983 N   0  0  0  0  0  0  0  0  0  0  0  0
   -0.8100    1.1466   -3.9024 H   0  0  0  0  0  0  0  0  0  0  0  0
    0.7841    1.3576   -3.1739 H   0  0  0  0  0  0  0  0  0  0  0  0
   -0.3126    1.2341    0.8050 C   0  0  0  0  0  0  0  0  0  0  0  0
   -1.2484    1.9199    0.3934 O   0  0  0  0  0  0  0  0  0  0  0  0
    0.5615    1.6875    1.7087 N   0  0  0  0  0  0  0  0  0  0  0  0
    1.3461    1.0849    1.9358 H   0  0  0  0  0  0  0  0  0  0  0  0
    0.5043    3.0121    2.3242 C   0  0  0  0  0  0  0  0  0  0  0  0
   -0.4649    3.1514    2.8080 H   0  0  0  0  0  0  0  0  0  0  0  0
    1.2959    3.1139    3.0678 H   0  0  0  0  0  0  0  0  0  0  0  0
    0.6273    3.7799    1.5584 H   0  0  0  0  0  0  0  0  0  0  0  0
  5  6  2  0  0  0  0
  5  7  1  0  0  0  0
  2  3  1  0  0  0  0
  2  4  1  0  0  0  0
  2  5  1  0  0  0  0
  1  2  1  0  0  0  0
 19 20  2  0  0  0  0
 19 21  1  0  0  0  0
 16 17  1  0  0  0  0
 16 18  1  0  0  0  0
 14 15  2  0  0  0  0
 14 16  1  0  0  0  0
 11 12  1  0  0  0  0
 11 13  1  0  0  0  0
 11 14  1  0  0  0  0
  9 10  1  0  0  0  0
  9 11  1  0  0  0  0
  9 19  1  0  0  0  0
  7  8  1  0  0  0  0
  7  9  1  0  0  0  0
 23 24  1  0  0  0  0
 23 25  1  0  0  0  0
 23 26  1  0  0  0  0
 21 22  1  0  0  0  0
 21 23  1  0  0  0  0
M  END
$$$$
default_name
  -OEChem-02102213163D

 26 25  0     1  0  0  0  0  0999 V2000
   -3.0232   -3.6924    1.0038 H   0  0  0  0  0  0  0  0  0  0  0  0
   -3.0082   -2.6684    0.6318 C   0  0  0  0  0  0  0  0  0  0  0  0
   -3.6332   -2.0414    1.2658 H   0  0  0  0  0  0  0  0  0  0  0  0
   -3.3762   -2.6444   -0.3912 H   0  0  0  0  0  0  0  0  0  0  0  0
   -1.5882   -2.1554    0.6658 C   0  0  0  0  0  0  0  0  0  0  0  0
   -0.6832   -2.8764    1.0638 O   0  0  0  0  0  0  0  0  0  0  0  0
   -1.3952   -0.9084    0.2428 N   0  0  0  0  0  0  0  0  0  0  0  0
   -2.1972   -0.3644   -0.0422 H   0  0  0  0  0  0  0  0  0  0  0  0
   -0.1122   -0.1994    0.2658 C   0  0  1  0  0  0  0  0  0  0  0  0
    0.5635   -0.7260    0.9446 H   0  0  0  0  0  0  0  0  0  0  0  0
    0.4924   -0.2204   -1.1558 C   0  0  0  0  0  0  0  0  0  0  0  0
    1.2863    0.5230   -1.2176 H   0  0  0  0  0  0  0  0  0  0  0  0
    0.9259   -1.2009   -1.3472 H   0  0  0  0  0  0  0  0  0  0  0  0
   -0.5040    0.1066   -2.2564 C   0  0  0  0  0  0  0  0  0  0  0  0
   -1.6927   -0.1488   -2.1723 O   0  0  0  0  0  0  0  0  0  0  0  0
   -0.0486    0.6810   -3.3430 N   0  0  0  0  0  0  0  0  0  0  0  0
   -0.7325    0.9011   -4.0456 H   0  0  0  0  0  0  0  0  0  0  0  0
    0.9216    0.9186   -3.4288 H   0  0  0  0  0  0  0  0  0  0  0  0
   -0.3126    1.2341    0.8050 C   0  0  0  0  0  0  0  0  0  0  0  0
   -1.2484    1.9199    0.3934 O   0  0  0  0  0  0  0  0  0  0  0  0
    0.5615    1.6875    1.7087 N   0  0  0  0  0  0  0  0  0  0  0  0
    1.3461    1.0849    1.9358 H   0  0  0  0  0  0  0  0  0  0  0  0
    0.5043    3.0121    2.3242 C   0  0  0  0  0  0  0  0  0  0  0  0
   -0.4649    3.1514    2.8080 H   0  0  0  0  0  0  0  0  0  0  0  0
    1.2959    3.1139    3.0678 H   0  0  0  0  0  0  0  0  0  0  0  0
    0.6273    3.7799    1.5584 H   0  0  0  0  0  0  0  0  0  0  0  0
  5  6  2  0  0  0  0
  5  7  1  0  0  0  0
  2  3  1  0  0  0  0
  2  4  1  0  0  0  0
  2  5  1  0  0  0  0
  1  2  1  0  0  0  0
 19 20  2  0  0  0  0
 19 21  1  0  0  0  0
 16 17  1  0  0  0  0
 16 18  1  0  0  0  0
 14 15  2  0  0  0  0
 14 16  1  0  0  0  0
 11 12  1  0  0  0  0
 11 13  1  0  0  0  0
 11 14  1  0  0  0  0
  9 10  1  0  0  0  0
  9 11  1  0  0  0  0
  9 19  1  0  0  0  0
  7  8  1  0  0  0  0
  7  9  1  0  0  0  0
 23 24  1  0  0  0  0
 23 25  1  0  0  0  0
 23 26  1  0  0  0  0
 21 22  1  0  0  0  0
 21 23  1  0  0  0  0
M  END
$$$$
default_name
  -OEChem-02102213163D

 26 25  0     1  0  0  0  0  0999 V2000
   -3.0232   -3.6924    1.0038 H   0  0  0  0  0  0  0  0  0  0  0  0
   -3.0082   -2.6684    0.6318 C   0  0  0  0  0  0  0  0  0  0  0  0
   -3.6332   -2.0414    1.2658 H   0  0  0  0  0  0  0  0  0  0  0  0
   -3.3762   -2.6444   -0.3912 H   0  0  0  0  0  0  0  0  0  0  0  0
   -1.5882   -2.1554    0.6658 C   0  0  0  0  0  0  0  0  0  0  0  0
   -0.6832   -2.8764    1.0638 O   0  0  0  0  0  0  0  0  0  0  0  0
   -1.3952   -0.9084    0.2428 N   0  0  0  0  0  0  0  0  0  0  0  0
   -2.1972   -0.3644   -0.0422 H   0  0  0  0  0  0  0  0  0  0  0  0
   -0.1122   -0.1994    0.2658 C   0  0  1  0  0  0  0  0  0  0  0  0
    0.5635   -0.7260    0.9446 H   0  0  0  0  0  0  0  0  0  0  0  0
    0.4924   -0.2204   -1.1558 C   0  0  0  0  0  0  0  0  0  0  0  0
    1.2863    0.5230   -1.2176 H   0  0  0  0  0  0  0  0  0  0  0  0
    0.9259   -1.2009   -1.3472 H   0  0  0  0  0  0  0  0  0  0  0  0
   -0.5040    0.1066   -2.2564 C   0  0  0  0  0  0  0  0  0  0  0  0
   -1.7102    0.1018   -2.0821 O   0  0  0  0  0  0  0  0  0  0  0  0
   -0.0306    0.3963   -3.4439 N   0  0  0  0  0  0  0  0  0  0  0  0
   -0.7115    0.6251   -4.1466 H   0  0  0  0  0  0  0  0  0  0  0  0
    0.9579    0.4256   -3.6082 H   0  0  0  0  0  0  0  0  0  0  0  0
   -0.3126    1.2341    0.8050 C   0  0  0  0  0  0  0  0  0  0  0  0
   -1.2484    1.9199    0.3934 O   0  0  0  0  0  0  0  0  0  0  0  0
    0.5615    1.6875    1.7087 N   0  0  0  0  0  0  0  0  0  0  0  0
    1.3461    1.0849    1.9358 H   0  0  0  0  0  0  0  0  0  0  0  0
    0.5043    3.0121    2.3242 C   0  0  0  0  0  0  0  0  0  0  0  0
   -0.4649    3.1514    2.8080 H   0  0  0  0  0  0  0  0  0  0  0  0
    1.2959    3.1139    3.0678 H   0  0  0  0  0  0  0  0  0  0  0  0
    0.6273    3.7799    1.5584 H   0  0  0  0  0  0  0  0  0  0  0  0
  5  6  2  0  0  0  0
  5  7  1  0  0  0  0
  2  3  1  0  0  0  0
  2  4  1  0  0  0  0
  2  5  1  0  0  0  0
  1  2  1  0  0  0  0
 19 20  2  0  0  0  0
 19 21  1  0  0  0  0
 16 17  1  0  0  0  0
 16 18  1  0  0  0  0
 14 15  2  0  0  0  0
 14 16  1  0  0  0  0
 11 12  1  0  0  0  0
 11 13  1  0  0  0  0
 11 14  1  0  0  0  0
  9 10  1  0  0  0  0
  9 11  1  0  0  0  0
  9 19  1  0  0  0  0
  7  8  1  0  0  0  0
  7  9  1  0  0  0  0
 23 24  1  0  0  0  0
 23 25  1  0  0  0  0
 23 26  1  0  0  0  0
 21 22  1  0  0  0  0
 21 23  1  0  0  0  0
M  END
$$$$
default_name
  -OEChem-02102213163D

 26 25  0     1  0  0  0  0  0999 V2000
   -3.0232   -3.6924    1.0038 H   0  0  0  0  0  0  0  0  0  0  0  0
   -3.0082   -2.6684    0.6318 C   0  0  0  0  0  0  0  0  0  0  0  0
   -3.6332   -2.0414    1.2658 H   0  0  0  0  0  0  0  0  0  0  0  0
   -3.3762   -2.6444   -0.3912 H   0  0  0  0  0  0  0  0  0  0  0  0
   -1.5882   -2.1554    0.6658 C   0  0  0  0  0  0  0  0  0  0  0  0
   -0.6832   -2.8764    1.0638 O   0  0  0  0  0  0  0  0  0  0  0  0
   -1.3952   -0.9084    0.2428 N   0  0  0  0  0  0  0  0  0  0  0  0
   -2.1972   -0.3644   -0.0422 H   0  0  0  0  0  0  0  0  0  0  0  0
   -0.1122   -0.1994    0.2658 C   0  0  1  0  0  0  0  0  0  0  0  0
    0.5635   -0.7260    0.9446 H   0  0  0  0  0  0  0  0  0  0  0  0
    0.4924   -0.2204   -1.1558 C   0  0  0  0  0  0  0  0  0  0  0  0
    1.2863    0.5230   -1.2176 H   0  0  0  0  0  0  0  0  0  0  0  0
    0.9259   -1.2009   -1.3472 H   0  0  0  0  0  0  0  0  0  0  0  0
   -0.5040    0.1066   -2.2564 C   0  0  0  0  0  0  0  0  0  0  0  0
   -1.6751    0.3624   -2.0364 O   0  0  0  0  0  0  0  0  0  0  0  0
   -0.0722    0.1007   -3.4941 N   0  0  0  0  0  0  0  0  0  0  0  0
   -0.7486    0.3375   -4.1984 H   0  0  0  0  0  0  0  0  0  0  0  0
    0.8906   -0.0879   -3.6998 H   0  0  0  0  0  0  0  0  0  0  0  0
   -0.3126    1.2341    0.8050 C   0  0  0  0  0  0  0  0  0  0  0  0
   -1.2484    1.9199    0.3934 O   0  0  0  0  0  0  0  0  0  0  0  0
    0.5615    1.6875    1.7087 N   0  0  0  0  0  0  0  0  0  0  0  0
    1.3461    1.0849    1.9358 H   0  0  0  0  0  0  0  0  0  0  0  0
    0.5043    3.0121    2.3242 C   0  0  0  0  0  0  0  0  0  0  0  0
   -0.4649    3.1514    2.8080 H   0  0  0  0  0  0  0  0  0  0  0  0
    1.2959    3.1139    3.0678 H   0  0  0  0  0  0  0  0  0  0  0  0
    0.6273    3.7799    1.5584 H   0  0  0  0  0  0  0  0  0  0  0  0
  5  6  2  0  0  0  0
  5  7  1  0  0  0  0
  2  3  1  0  0  0  0
  2  4  1  0  0  0  0
  2  5  1  0  0  0  0
  1  2  1  0  0  0  0
 19 20  2  0  0  0  0
 19 21  1  0  0  0  0
 16 17  1  0  0  0  0
 16 18  1  0  0  0  0
 14 15  2  0  0  0  0
 14 16  1  0  0  0  0
 11 12  1  0  0  0  0
 11 13  1  0  0  0  0
 11 14  1  0  0  0  0
  9 10  1  0  0  0  0
  9 11  1  0  0  0  0
  9 19  1  0  0  0  0
  7  8  1  0  0  0  0
  7  9  1  0  0  0  0
 23 24  1  0  0  0  0
 23 25  1  0  0  0  0
 23 26  1  0  0  0  0
 21 22  1  0  0  0  0
 21 23  1  0  0  0  0
M  END
$$$$
default_name
  -OEChem-02102213163D

 26 25  0     1  0  0  0  0  0999 V2000
   -3.0232   -3.6924    1.0038 H   0  0  0  0  0  0  0  0  0  0  0  0
   -3.0082   -2.6684    0.6318 C   0  0  0  0  0  0  0  0  0  0  0  0
   -3.6332   -2.0414    1.2658 H   0  0  0  0  0  0  0  0  0  0  0  0
   -3.3762   -2.6444   -0.3912 H   0  0  0  0  0  0  0  0  0  0  0  0
   -1.5882   -2.1554    0.6658 C   0  0  0  0  0  0  0  0  0  0  0  0
   -0.6832   -2.8764    1.0638 O   0  0  0  0  0  0  0  0  0  0  0  0
   -1.3952   -0.9084    0.2428 N   0  0  0  0  0  0  0  0  0  0  0  0
   -2.1972   -0.3644   -0.0422 H   0  0  0  0  0  0  0  0  0  0  0  0
   -0.1122   -0.1994    0.2658 C   0  0  1  0  0  0  0  0  0  0  0  0
    0.5635   -0.7260    0.9446 H   0  0  0  0  0  0  0  0  0  0  0  0
    0.4924   -0.2204   -1.1558 C   0  0  0  0  0  0  0  0  0  0  0  0
    1.2863    0.5230   -1.2176 H   0  0  0  0  0  0  0  0  0  0  0  0
    0.9259   -1.2009   -1.3472 H   0  0  0  0  0  0  0  0  0  0  0  0
   -0.5040    0.1066   -2.2564 C   0  0  0  0  0  0  0  0  0  0  0  0
   -1.5898    0.6153   -2.0385 O   0  0  0  0  0  0  0  0  0  0  0  0
   -0.1706   -0.1855   -3.4900 N   0  0  0  0  0  0  0  0  0  0  0  0
   -0.8412    0.0578   -4.1977 H   0  0  0  0  0  0  0  0  0  0  0  0
    0.7243   -0.5868   -3.6975 H   0  0  0  0  0  0  0  0  0  0  0  0
   -0.3126    1.2341    0.8050 C   0  0  0  0  0  0  0  0  0  0  0  0
   -1.2484    1.9199    0.3934 O   0  0  0  0  0  0  0  0  0  0  0  0
    0.5615    1.6875    1.7087 N   0  0  0  0  0  0  0  0  0  0  0  0
    1.3461    1.0849    1.9358 H   0  0  0  0  0  0  0  0  0  0  0  0
    0.5043    3.0121    2.3242 C   0  0  0  0  0  0  0  0  0  0  0  0
   -0.4649    3.1514    2.8080 H   0  0  0  0  0  0  0  0  0  0  0  0
    1.2959    3.1139    3.0678 H   0  0  0  0  0  0  0  0  0  0  0  0
    0.6273    3.7799    1.5584 H   0  0  0  0  0  0  0  0  0  0  0  0
  5  6  2  0  0  0  0
  5  7  1  0  0  0  0
  2  3  1  0  0  0  0
  2  4  1  0  0  0  0
  2  5  1  0  0  0  0
  1  2  1  0  0  0  0
 19 20  2  0  0  0  0
 19 21  1  0  0  0  0
 16 17  1  0  0  0  0
 16 18  1  0  0  0  0
 14 15  2  0  0  0  0
 14 16  1  0  0  0  0
 11 12  1  0  0  0  0
 11 13  1  0  0  0  0
 11 14  1  0  0  0  0
  9 10  1  0  0  0  0
  9 11  1  0  0  0  0
  9 19  1  0  0  0  0
  7  8  1  0  0  0  0
  7  9  1  0  0  0  0
 23 24  1  0  0  0  0
 23 25  1  0  0  0  0
 23 26  1  0  0  0  0
 21 22  1  0  0  0  0
 21 23  1  0  0  0  0
M  END
$$$$
default_name
  -OEChem-02102213163D

 26 25  0     1  0  0  0  0  0999 V2000
   -3.0232   -3.6924    1.0038 H   0  0  0  0  0  0  0  0  0  0  0  0
   -3.0082   -2.6684    0.6318 C   0  0  0  0  0  0  0  0  0  0  0  0
   -3.6332   -2.0414    1.2658 H   0  0  0  0  0  0  0  0  0  0  0  0
   -3.3762   -2.6444   -0.3912 H   0  0  0  0  0  0  0  0  0  0  0  0
   -1.5882   -2.1554    0.6658 C   0  0  0  0  0  0  0  0  0  0  0  0
   -0.6832   -2.8764    1.0638 O   0  0  0  0  0  0  0  0  0  0  0  0
   -1.3952   -0.9084    0.2428 N   0  0  0  0  0  0  0  0  0  0  0  0
   -2.1972   -0.3644   -0.0422 H   0  0  0  0  0  0  0  0  0  0  0  0
   -0.1122   -0.1994    0.2658 C   0  0  1  0  0  0  0  0  0  0  0  0
    0.5635   -0.7260    0.9446 H   0  0  0  0  0  0  0  0  0  0  0  0
    0.4924   -0.2204   -1.1558 C   0  0  0  0  0  0  0  0  0  0  0  0
    1.2863    0.5230   -1.2176 H   0  0  0  0  0  0  0  0  0  0  0  0
    0.9259   -1.2009   -1.3472 H   0  0  0  0  0  0  0  0  0  0  0  0
   -0.5040    0.1066   -2.2564 C   0  0  0  0  0  0  0  0  0  0  0  0
   -1.4602    0.8432   -2.0881 O   0  0  0  0  0  0  0  0  0  0  0  0
   -0.3190   -0.4428   -3.4321 N   0  0  0  0  0  0  0  0  0  0  0  0
   -0.9830   -0.1948   -4.1444 H   0  0  0  0  0  0  0  0  0  0  0  0
    0.4703   -1.0372   -3.6013 H   0  0  0  0  0  0  0  0  0  0  0  0
   -0.3126    1.2341    0.8050 C   0  0  0  0  0  0  0  0  0  0  0  0
   -1.2484    1.9199    0.3934 O   0  0  0  0  0  0  0  0  0  0  0  0
    0.5615    1.6875    1.7087 N   0  0  0  0  0  0  0  0  0  0  0  0
    1.3461    1.0849    1.9358 H   0  0  0  0  0  0  0  0  0  0  0  0
    0.5043    3.0121    2.3242 C   0  0  0  0  0  0  0  0  0  0  0  0
   -0.4649    3.1514    2.8080 H   0  0  0  0  0  0  0  0  0  0  0  0
    1.2959    3.1139    3.0678 H   0  0  0  0  0  0  0  0  0  0  0  0
    0.6273    3.7799    1.5584 H   0  0  0  0  0  0  0  0  0  0  0  0
  5  6  2  0  0  0  0
  5  7  1  0  0  0  0
  2  3  1  0  0  0  0
  2  4  1  0  0  0  0
  2  5  1  0  0  0  0
  1  2  1  0  0  0  0
 19 20  2  0  0  0  0
 19 21  1  0  0  0  0
 16 17  1  0  0  0  0
 16 18  1  0  0  0  0
 14 15  2  0  0  0  0
 14 16  1  0  0  0  0
 11 12  1  0  0  0  0
 11 13  1  0  0  0  0
 11 14  1  0  0  0  0
  9 10  1  0  0  0  0
  9 11  1  0  0  0  0
  9 19  1  0  0  0  0
  7  8  1  0  0  0  0
  7  9  1  0  0  0  0
 23 24  1  0  0  0  0
 23 25  1  0  0  0  0
 23 26  1  0  0  0  0
 21 22  1  0  0  0  0
 21 23  1  0  0  0  0
M  END
$$$$
default_name
  -OEChem-02102213163D

 26 25  0     1  0  0  0  0  0999 V2000
   -3.0232   -3.6924    1.0038 H   0  0  0  0  0  0  0  0  0  0  0  0
   -3.0082   -2.6684    0.6318 C   0  0  0  0  0  0  0  0  0  0  0  0
   -3.6332   -2.0414    1.2658 H   0  0  0  0  0  0  0  0  0  0  0  0
   -3.3762   -2.6444   -0.3912 H   0  0  0  0  0  0  0  0  0  0  0  0
   -1.5882   -2.1554    0.6658 C   0  0  0  0  0  0  0  0  0  0  0  0
   -0.6832   -2.8764    1.0638 O   0  0  0  0  0  0  0  0  0  0  0  0
   -1.3952   -0.9084    0.2428 N   0  0  0  0  0  0  0  0  0  0  0  0
   -2.1972   -0.3644   -0.0422 H   0  0  0  0  0  0  0  0  0  0  0  0
   -0.1122   -0.1994    0.2658 C   0  0  1  0  0  0  0  0  0  0  0  0
    0.5635   -0.7260    0.9446 H   0  0  0  0  0  0  0  0  0  0  0  0
    0.4924   -0.2204   -1.1558 C   0  0  0  0  0  0  0  0  0  0  0  0
    1.2863    0.5230   -1.2176 H   0  0  0  0  0  0  0  0  0  0  0  0
    0.9259   -1.2009   -1.3472 H   0  0  0  0  0  0  0  0  0  0  0  0
   -0.5040    0.1066   -2.2564 C   0  0  0  0  0  0  0  0  0  0  0  0
   -1.2951    1.0307   -2.1819 O   0  0  0  0  0  0  0  0  0  0  0  0
   -0.5074   -0.6537   -3.3242 N   0  0  0  0  0  0  0  0  0  0  0  0
   -1.1643   -0.4033   -4.0421 H   0  0  0  0  0  0  0  0  0  0  0  0
    0.1460   -1.4083   -3.4179 H   0  0  0  0  0  0  0  0  0  0  0  0
   -0.3126    1.2341    0.8050 C   0  0  0  0  0  0  0  0  0  0  0  0
   -1.2484    1.9199    0.3934 O   0  0  0  0  0  0  0  0  0  0  0  0
    0.5615    1.6875    1.7087 N   0  0  0  0  0  0  0  0  0  0  0  0
    1.3461    1.0849    1.9358 H   0  0  0  0  0  0  0  0  0  0  0  0
    0.5043    3.0121    2.3242 C   0  0  0  0  0  0  0  0  0  0  0  0
   -0.4649    3.1514    2.8080 H   0  0  0  0  0  0  0  0  0  0  0  0
    1.2959    3.1139    3.0678 H   0  0  0  0  0  0  0  0  0  0  0  0
    0.6273    3.7799    1.5584 H   0  0  0  0  0  0  0  0  0  0  0  0
  5  6  2  0  0  0  0
  5  7  1  0  0  0  0
  2  3  1  0  0  0  0
  2  4  1  0  0  0  0
  2  5  1  0  0  0  0
  1  2  1  0  0  0  0
 19 20  2  0  0  0  0
 19 21  1  0  0  0  0
 16 17  1  0  0  0  0
 16 18  1  0  0  0  0
 14 15  2  0  0  0  0
 14 16  1  0  0  0  0
 11 12  1  0  0  0  0
 11 13  1  0  0  0  0
 11 14  1  0  0  0  0
  9 10  1  0  0  0  0
  9 11  1  0  0  0  0
  9 19  1  0  0  0  0
  7  8  1  0  0  0  0
  7  9  1  0  0  0  0
 23 24  1  0  0  0  0
 23 25  1  0  0  0  0
 23 26  1  0  0  0  0
 21 22  1  0  0  0  0
 21 23  1  0  0  0  0
M  END
$$$$
default_name
  -OEChem-02102213163D

 26 25  0     1  0  0  0  0  0999 V2000
   -3.0232   -3.6924    1.0038 H   0  0  0  0  0  0  0  0  0  0  0  0
   -3.0082   -2.6684    0.6318 C   0  0  0  0  0  0  0  0  0  0  0  0
   -3.6332   -2.0414    1.2658 H   0  0  0  0  0  0  0  0  0  0  0  0
   -3.3762   -2.6444   -0.3912 H   0  0  0  0  0  0  0  0  0  0  0  0
   -1.5882   -2.1554    0.6658 C   0  0  0  0  0  0  0  0  0  0  0  0
   -0.6832   -2.8764    1.0638 O   0  0  0  0  0  0  0  0  0  0  0  0
   -1.3952   -0.9084    0.2428 N   0  0  0  0  0  0  0  0  0  0  0  0
   -2.1972   -0.3644   -0.0422 H   0  0  0  0  0  0  0  0  0  0  0  0
   -0.1122   -0.1994    0.2658 C   0  0  1  0  0  0  0  0  0  0  0  0
    0.5635   -0.7260    0.9446 H   0  0  0  0  0  0  0  0  0  0  0  0
    0.4924   -0.2204   -1.1558 C   0  0  0  0  0  0  0  0  0  0  0  0
    1.2863    0.5230   -1.2176 H   0  0  0  0  0  0  0  0  0  0  0  0
    0.9259   -1.2009   -1.3472 H   0  0  0  0  0  0  0  0  0  0  0  0
   -0.5040    0.1066   -2.2564 C   0  0  0  0  0  0  0  0  0  0  0  0
   -1.1056    1.1649   -2.3136 O   0  0  0  0  0  0  0  0  0  0  0  0
   -0.7228   -0.8039   -3.1737 N   0  0  0  0  0  0  0  0  0  0  0  0
   -1.3729   -0.5533   -3.8979 H   0  0  0  0  0  0  0  0  0  0  0  0
   -0.2267   -1.6749   -3.1597 H   0  0  0  0  0  0  0  0  0  0  0  0
   -0.3126    1.2341    0.8050 C   0  0  0  0  0  0  0  0  0  0  0  0
   -1.2484    1.9199    0.3934 O   0  0  0  0  0  0  0  0  0  0  0  0
    0.5615    1.6875    1.7087 N   0  0  0  0  0  0  0  0  0  0  0  0
    1.3461    1.0849    1.9358 H   0  0  0  0  0  0  0  0  0  0  0  0
    0.5043    3.0121    2.3242 C   0  0  0  0  0  0  0  0  0  0  0  0
   -0.4649    3.1514    2.8080 H   0  0  0  0  0  0  0  0  0  0  0  0
    1.2959    3.1139    3.0678 H   0  0  0  0  0  0  0  0  0  0  0  0
    0.6273    3.7799    1.5584 H   0  0  0  0  0  0  0  0  0  0  0  0
  5  6  2  0  0  0  0
  5  7  1  0  0  0  0
  2  3  1  0  0  0  0
  2  4  1  0  0  0  0
  2  5  1  0  0  0  0
  1  2  1  0  0  0  0
 19 20  2  0  0  0  0
 19 21  1  0  0  0  0
 16 17  1  0  0  0  0
 16 18  1  0  0  0  0
 14 15  2  0  0  0  0
 14 16  1  0  0  0  0
 11 12  1  0  0  0  0
 11 13  1  0  0  0  0
 11 14  1  0  0  0  0
  9 10  1  0  0  0  0
  9 11  1  0  0  0  0
  9 19  1  0  0  0  0
  7  8  1  0  0  0  0
  7  9  1  0  0  0  0
 23 24  1  0  0  0  0
 23 25  1  0  0  0  0
 23 26  1  0  0  0  0
 21 22  1  0  0  0  0
 21 23  1  0  0  0  0
M  END
$$$$
default_name
  -OEChem-02102213163D

 26 25  0     1  0  0  0  0  0999 V2000
   -3.0232   -3.6924    1.0038 H   0  0  0  0  0  0  0  0  0  0  0  0
   -3.0082   -2.6684    0.6318 C   0  0  0  0  0  0  0  0  0  0  0  0
   -3.6332   -2.0414    1.2658 H   0  0  0  0  0  0  0  0  0  0  0  0
   -3.3762   -2.6444   -0.3912 H   0  0  0  0  0  0  0  0  0  0  0  0
   -1.5882   -2.1554    0.6658 C   0  0  0  0  0  0  0  0  0  0  0  0
   -0.6832   -2.8764    1.0638 O   0  0  0  0  0  0  0  0  0  0  0  0
   -1.3952   -0.9084    0.2428 N   0  0  0  0  0  0  0  0  0  0  0  0
   -2.1972   -0.3644   -0.0422 H   0  0  0  0  0  0  0  0  0  0  0  0
   -0.1122   -0.1994    0.2658 C   0  0  1  0  0  0  0  0  0  0  0  0
    0.5635   -0.7260    0.9446 H   0  0  0  0  0  0  0  0  0  0  0  0
    0.4924   -0.2204   -1.1558 C   0  0  0  0  0  0  0  0  0  0  0  0
    1.2863    0.5230   -1.2176 H   0  0  0  0  0  0  0  0  0  0  0  0
    0.9259   -1.2009   -1.3472 H   0  0  0  0  0  0  0  0  0  0  0  0
   -0.5040    0.1066   -2.2564 C   0  0  0  0  0  0  0  0  0  0  0  0
   -0.9048    1.2367   -2.4741 O   0  0  0  0  0  0  0  0  0  0  0  0
   -0.9507   -0.8830   -2.9909 N   0  0  0  0  0  0  0  0  0  0  0  0
   -1.5944   -0.6346   -3.7215 H   0  0  0  0  0  0  0  0  0  0  0  0
   -0.6222   -1.8187   -2.8444 H   0  0  0  0  0  0  0  0  0  0  0  0
   -0.3126    1.2341    0.8050 C   0  0  0  0  0  0  0  0  0  0  0  0
   -1.2484    1.9199    0.3934 O   0  0  0  0  0  0  0  0  0  0  0  0
    0.5615    1.6875    1.7087 N   0  0  0  0  0  0  0  0  0  0  0  0
    1.3461    1.0849    1.9358 H   0  0  0  0  0  0  0  0  0  0  0  0
    0.5043    3.0121    2.3242 C   0  0  0  0  0  0  0  0  0  0  0  0
   -0.4649    3.1514    2.8080 H   0  0  0  0  0  0  0  0  0  0  0  0
    1.2959    3.1139    3.0678 H   0  0  0  0  0  0  0  0  0  0  0  0
    0.6273    3.7799    1.5584 H   0  0  0  0  0  0  0  0  0  0  0  0
  5  6  2  0  0  0  0
  5  7  1  0  0  0  0
  2  3  1  0  0  0  0
  2  4  1  0  0  0  0
  2  5  1  0  0  0  0
  1  2  1  0  0  0  0
 19 20  2  0  0  0  0
 19 21  1  0  0  0  0
 16 17  1  0  0  0  0
 16 18  1  0  0  0  0
 14 15  2  0  0  0  0
 14 16  1  0  0  0  0
 11 12  1  0  0  0  0
 11 13  1  0  0  0  0
 11 14  1  0  0  0  0
  9 10  1  0  0  0  0
  9 11  1  0  0  0  0
  9 19  1  0  0  0  0
  7  8  1  0  0  0  0
  7  9  1  0  0  0  0
 23 24  1  0  0  0  0
 23 25  1  0  0  0  0
 23 26  1  0  0  0  0
 21 22  1  0  0  0  0
 21 23  1  0  0  0  0
M  END
$$$$
default_name
  -OEChem-02102213163D

 26 25  0     1  0  0  0  0  0999 V2000
   -3.0232   -3.6924    1.0038 H   0  0  0  0  0  0  0  0  0  0  0  0
   -3.0082   -2.6684    0.6318 C   0  0  0  0  0  0  0  0  0  0  0  0
   -3.6332   -2.0414    1.2658 H   0  0  0  0  0  0  0  0  0  0  0  0
   -3.3762   -2.6444   -0.3912 H   0  0  0  0  0  0  0  0  0  0  0  0
   -1.5882   -2.1554    0.6658 C   0  0  0  0  0  0  0  0  0  0  0  0
   -0.6832   -2.8764    1.0638 O   0  0  0  0  0  0  0  0  0  0  0  0
   -1.3952   -0.9084    0.2428 N   0  0  0  0  0  0  0  0  0  0  0  0
   -2.1972   -0.3644   -0.0422 H   0  0  0  0  0  0  0  0  0  0  0  0
   -0.1122   -0.1994    0.2658 C   0  0  1  0  0  0  0  0  0  0  0  0
    0.5635   -0.7260    0.9446 H   0  0  0  0  0  0  0  0  0  0  0  0
    0.4924   -0.2204   -1.1558 C   0  0  0  0  0  0  0  0  0  0  0  0
    1.2863    0.5230   -1.2176 H   0  0  0  0  0  0  0  0  0  0  0  0
    0.9259   -1.2009   -1.3472 H   0  0  0  0  0  0  0  0  0  0  0  0
   -0.5040    0.1066   -2.2564 C   0  0  0  0  0  0  0  0  0  0  0  0
   -0.7064    1.2412   -2.6524 O   0  0  0  0  0  0  0  0  0  0  0  0
   -1.1755   -0.8857   -2.7882 N   0  0  0  0  0  0  0  0  0  0  0  0
   -1.8137   -0.6418   -3.5250 H   0  0  0  0  0  0  0  0  0  0  0  0
   -1.0136   -1.8301   -2.4933 H   0  0  0  0  0  0  0  0  0  0  0  0
   -0.3126    1.2341    0.8050 C   0  0  0  0  0  0  0  0  0  0  0  0
   -1.2484    1.9199    0.3934 O   0  0  0  0  0  0  0  0  0  0  0  0
    0.5615    1.6875    1.7087 N   0  0  0  0  0  0  0  0  0  0  0  0
    1.3461    1.0849    1.9358 H   0  0  0  0  0  0  0  0  0  0  0  0
    0.5043    3.0121    2.3242 C   0  0  0  0  0  0  0  0  0  0  0  0
   -0.4649    3.1514    2.8080 H   0  0  0  0  0  0  0  0  0  0  0  0
    1.2959    3.1139    3.0678 H   0  0  0  0  0  0  0  0  0  0  0  0
    0.6273    3.7799    1.5584 H   0  0  0  0  0  0  0  0  0  0  0  0
  5  6  2  0  0  0  0
  5  7  1  0  0  0  0
  2  3  1  0  0  0  0
  2  4  1  0  0  0  0
  2  5  1  0  0  0  0
  1  2  1  0  0  0  0
 19 20  2  0  0  0  0
 19 21  1  0  0  0  0
 16 17  1  0  0  0  0
 16 18  1  0  0  0  0
 14 15  2  0  0  0  0
 14 16  1  0  0  0  0
 11 12  1  0  0  0  0
 11 13  1  0  0  0  0
 11 14  1  0  0  0  0
  9 10  1  0  0  0  0
  9 11  1  0  0  0  0
  9 19  1  0  0  0  0
  7  8  1  0  0  0  0
  7  9  1  0  0  0  0
 23 24  1  0  0  0  0
 23 25  1  0  0  0  0
 23 26  1  0  0  0  0
 21 22  1  0  0  0  0
 21 23  1  0  0  0  0
M  END
$$$$
default_name
  -OEChem-02102213163D

 26 25  0     1  0  0  0  0  0999 V2000
   -3.0232   -3.6924    1.0038 H   0  0  0  0  0  0  0  0  0  0  0  0
   -3.0082   -2.6684    0.6318 C   0  0  0  0  0  0  0  0  0  0  0  0
   -3.6332   -2.0414    1.2658 H   0  0  0  0  0  0  0  0  0  0  0  0
   -3.3762   -2.6444   -0.3912 H   0  0  0  0  0  0  0  0  0  0  0  0
   -1.5882   -2.1554    0.6658 C   0  0  0  0  0  0  0  0  0  0  0  0
   -0.6832   -2.8764    1.0638 O   0  0  0  0  0  0  0  0  0  0  0  0
   -1.3952   -0.9084    0.2428 N   0  0  0  0  0  0  0  0  0  0  0  0
   -2.1972   -0.3644   -0.0422 H   0  0  0  0  0  0  0  0  0  0  0  0
   -0.1122   -0.1994    0.2658 C   0  0  1  0  0  0  0  0  0  0  0  0
    0.5635   -0.7260    0.9446 H   0  0  0  0  0  0  0  0  0  0  0  0
    0.4924   -0.2204   -1.1558 C   0  0  0  0  0  0  0  0  0  0  0  0
    1.2863    0.5230   -1.2176 H   0  0  0  0  0  0  0  0  0  0  0  0
    0.9259   -1.2009   -1.3472 H   0  0  0  0  0  0  0  0  0  0  0  0
   -0.5040    0.1066   -2.2564 C   0  0  0  0  0  0  0  0  0  0  0  0
   -0.5237    1.1781   -2.8365 O   0  0  0  0  0  0  0  0  0  0  0  0
   -1.3818   -0.8119   -2.5795 N   0  0  0  0  0  0  0  0  0  0  0  0
   -2.0161   -0.5743   -3.3217 H   0  0  0  0  0  0  0  0  0  0  0  0
   -1.3743   -1.7082   -2.1305 H   0  0  0  0  0  0  0  0  0  0  0  0
   -0.3126    1.2341    0.8050 C   0  0  0  0  0  0  0  0  0  0  0  0
   -1.2484    1.9199    0.3934 O   0  0  0  0  0  0  0  0  0  0  0  0
    0.5615    1.6875    1.7087 N   0  0  0  0  0  0  0  0  0  0  0  0
    1.3461    1.0849    1.9358 H   0  0  0  0  0  0  0  0  0  0  0  0
    0.5043    3.0121    2.3242 C   0  0  0  0  0  0  0  0  0  0  0  0
   -0.4649    3.1514    2.8080 H   0  0  0  0  0  0  0  0  0  0  0  0
    1.2959    3.1139    3.0678 H   0  0  0  0  0  0  0  0  0  0  0  0
    0.6273    3.7799    1.5584 H   0  0  0  0  0  0  0  0  0  0  0  0
  5  6  2  0  0  0  0
  5  7  1  0  0  0  0
  2  3  1  0  0  0  0
  2  4  1  0  0  0  0
  2  5  1  0  0  0  0
  1  2  1  0  0  0  0
 19 20  2  0  0  0  0
 19 21  1  0  0  0  0
 16 17  1  0  0  0  0
 16 18  1  0  0  0  0
 14 15  2  0  0  0  0
 14 16  1  0  0  0  0
 11 12  1  0  0  0  0
 11 13  1  0  0  0  0
 11 14  1  0  0  0  0
  9 10  1  0  0  0  0
  9 11  1  0  0  0  0
  9 19  1  0  0  0  0
  7  8  1  0  0  0  0
  7  9  1  0  0  0  0
 23 24  1  0  0  0  0
 23 25  1  0  0  0  0
 23 26  1  0  0  0  0
 21 22  1  0  0  0  0
 21 23  1  0  0  0  0
M  END
$$$$
default_name
  -OEChem-02102213163D

 26 25  0     1  0  0  0  0  0999 V2000
   -3.0232   -3.6924    1.0038 H   0  0  0  0  0  0  0  0  0  0  0  0
   -3.0082   -2.6684    0.6318 C   0  0  0  0  0  0  0  0  0  0  0  0
   -3.6332   -2.0414    1.2658 H   0  0  0  0  0  0  0  0  0  0  0  0
   -3.3762   -2.6444   -0.3912 H   0  0  0  0  0  0  0  0  0  0  0  0
   -1.5882   -2.1554    0.6658 C   0  0  0  0  0  0  0  0  0  0  0  0
   -0.6832   -2.8764    1.0638 O   0  0  0  0  0  0  0  0  0  0  0  0
   -1.3952   -0.9084    0.2428 N   0  0  0  0  0  0  0  0  0  0  0  0
   -2.1972   -0.3644   -0.0422 H   0  0  0  0  0  0  0  0  0  0  0  0
   -0.1122   -0.1994    0.2658 C   0  0  1  0  0  0  0  0  0  0  0  0
    0.5635   -0.7260    0.9446 H   0  0  0  0  0  0  0  0  0  0  0  0
    0.4924   -0.2204   -1.1558 C   0  0  0  0  0  0  0  0  0  0  0  0
    1.2863    0.5230   -1.2176 H   0  0  0  0  0  0  0  0  0  0  0  0
    0.9259   -1.2009   -1.3472 H   0  0  0  0  0  0  0  0  0  0  0  0
   -0.5040    0.1066   -2.2564 C   0  0  0  0  0  0  0  0  0  0  0  0
   -0.3694    1.0518   -3.0138 O   0  0  0  0  0  0  0  0  0  0  0  0
   -1.5556   -0.6664   -2.3789 N   0  0  0  0  0  0  0  0  0  0  0  0
   -2.1875   -0.4367   -3.1256 H   0  0  0  0  0  0  0  0  0  0  0  0
   -1.6796   -1.4613   -1.7807 H   0  0  0  0  0  0  0  0  0  0  0  0
   -0.3126    1.2341    0.8050 C   0  0  0  0  0  0  0  0  0  0  0  0
   -1.2484    1.9199    0.3934 O   0  0  0  0  0  0  0  0  0  0  0  0
    0.5615    1.6875    1.7087 N   0  0  0  0  0  0  0  0  0  0  0  0
    1.3461    1.0849    1.9358 H   0  0  0  0  0  0  0  0  0  0  0  0
    0.5043    3.0121    2.3242 C   0  0  0  0  0  0  0  0  0  0  0  0
   -0.4649    3.1514    2.8080 H   0  0  0  0  0  0  0  0  0  0  0  0
    1.2959    3.1139    3.0678 H   0  0  0  0  0  0  0  0  0  0  0  0
    0.6273    3.7799    1.5584 H   0  0  0  0  0  0  0  0  0  0  0  0
  5  6  2  0  0  0  0
  5  7  1  0  0  0  0
  2  3  1  0  0  0  0
  2  4  1  0  0  0  0
  2  5  1  0  0  0  0
  1  2  1  0  0  0  0
 19 20  2  0  0  0  0
 19 21  1  0  0  0  0
 16 17  1  0  0  0  0
 16 18  1  0  0  0  0
 14 15  2  0  0  0  0
 14 16  1  0  0  0  0
 11 12  1  0  0  0  0
 11 13  1  0  0  0  0
 11 14  1  0  0  0  0
  9 10  1  0  0  0  0
  9 11  1  0  0  0  0
  9 19  1  0  0  0  0
  7  8  1  0  0  0  0
  7  9  1  0  0  0  0
 23 24  1  0  0  0  0
 23 25  1  0  0  0  0
 23 26  1  0  0  0  0
 21 22  1  0  0  0  0
 21 23  1  0  0  0  0
M  END
$$$$
default_name
  -OEChem-02102213163D

 26 25  0     1  0  0  0  0  0999 V2000
   -3.0232   -3.6924    1.0038 H   0  0  0  0  0  0  0  0  0  0  0  0
   -3.0082   -2.6684    0.6318 C   0  0  0  0  0  0  0  0  0  0  0  0
   -3.6332   -2.0414    1.2658 H   0  0  0  0  0  0  0  0  0  0  0  0
   -3.3762   -2.6444   -0.3912 H   0  0  0  0  0  0  0  0  0  0  0  0
   -1.5882   -2.1554    0.6658 C   0  0  0  0  0  0  0  0  0  0  0  0
   -0.6832   -2.8764    1.0638 O   0  0  0  0  0  0  0  0  0  0  0  0
   -1.3952   -0.9084    0.2428 N   0  0  0  0  0  0  0  0  0  0  0  0
   -2.1972   -0.3644   -0.0422 H   0  0  0  0  0  0  0  0  0  0  0  0
   -0.1122   -0.1994    0.2658 C   0  0  1  0  0  0  0  0  0  0  0  0
    0.5635   -0.7260    0.9446 H   0  0  0  0  0  0  0  0  0  0  0  0
    0.4924   -0.2204   -1.1558 C   0  0  0  0  0  0  0  0  0  0  0  0
    1.2863    0.5230   -1.2176 H   0  0  0  0  0  0  0  0  0  0  0  0
    0.9259   -1.2009   -1.3472 H   0  0  0  0  0  0  0  0  0  0  0  0
   -0.5040    0.1066   -2.2564 C   0  0  0  0  0  0  0  0  0  0  0  0
   -0.2539    0.8707   -3.1722 O   0  0  0  0  0  0  0  0  0  0  0  0
   -1.6851   -0.4594   -2.2001 N   0  0  0  0  0  0  0  0  0  0  0  0
   -2.3164   -0.2384   -2.9500 H   0  0  0  0  0  0  0  0  0  0  0  0
   -1.9089   -1.1062   -1.4677 H   0  0  0  0  0  0  0  0  0  0  0  0
   -0.3126    1.2341    0.8050 C   0  0  0  0  0  0  0  0  0  0  0  0
   -1.2484    1.9199    0.3934 O   0  0  0  0  0  0  0  0  0  0  0  0
    0.5615    1.6875    1.7087 N   0  0  0  0  0  0  0  0  0  0  0  0
    1.3461    1.0849    1.9358 H   0  0  0  0  0  0  0  0  0  0  0  0
    0.5043    3.0121    2.3242 C   0  0  0  0  0  0  0  0  0  0  0  0
   -0.4649    3.1514    2.8080 H   0  0  0  0  0  0  0  0  0  0  0  0
    1.2959    3.1139    3.0678 H   0  0  0  0  0  0  0  0  0  0  0  0
    0.6273    3.7799    1.5584 H   0  0  0  0  0  0  0  0  0  0  0  0
  5  6  2  0  0  0  0
  5  7  1  0  0  0  0
  2  3  1  0  0  0  0
  2  4  1  0  0  0  0
  2  5  1  0  0  0  0
  1  2  1  0  0  0  0
 19 20  2  0  0  0  0
 19 21  1  0  0  0  0
 16 17  1  0  0  0  0
 16 18  1  0  0  0  0
 14 15  2  0  0  0  0
 14 16  1  0  0  0  0
 11 12  1  0  0  0  0
 11 13  1  0  0  0  0
 11 14  1  0  0  0  0
  9 10  1  0  0  0  0
  9 11  1  0  0  0  0
  9 19  1  0  0  0  0
  7  8  1  0  0  0  0
  7  9  1  0  0  0  0
 23 24  1  0  0  0  0
 23 25  1  0  0  0  0
 23 26  1  0  0  0  0
 21 22  1  0  0  0  0
 21 23  1  0  0  0  0
M  END
$$$$
default_name
  -OEChem-02102213163D

 26 25  0     1  0  0  0  0  0999 V2000
   -3.0232   -3.6924    1.0038 H   0  0  0  0  0  0  0  0  0  0  0  0
   -3.0082   -2.6684    0.6318 C   0  0  0  0  0  0  0  0  0  0  0  0
   -3.6332   -2.0414    1.2658 H   0  0  0  0  0  0  0  0  0  0  0  0
   -3.3762   -2.6444   -0.3912 H   0  0  0  0  0  0  0  0  0  0  0  0
   -1.5882   -2.1554    0.6658 C   0  0  0  0  0  0  0  0  0  0  0  0
   -0.6832   -2.8764    1.0638 O   0  0  0  0  0  0  0  0  0  0  0  0
   -1.3952   -0.9084    0.2428 N   0  0  0  0  0  0  0  0  0  0  0  0
   -2.1972   -0.3644   -0.0422 H   0  0  0  0  0  0  0  0  0  0  0  0
   -0.1122   -0.1994    0.2658 C   0  0  1  0  0  0  0  0  0  0  0  0
    0.5635   -0.7260    0.9446 H   0  0  0  0  0  0  0  0  0  0  0  0
    0.4924   -0.2204   -1.1558 C   0  0  0  0  0  0  0  0  0  0  0  0
    1.2863    0.5230   -1.2176 H   0  0  0  0  0  0  0  0  0  0  0  0
    0.9259   -1.2009   -1.3472 H   0  0  0  0  0  0  0  0  0  0  0  0
   -0.5040    0.1066   -2.2564 C   0  0  0  0  0  0  0  0  0  0  0  0
   -0.1850    0.6473   -3.3009 O   0  0  0  0  0  0  0  0  0  0  0  0
   -1.7614   -0.2048   -2.0554 N   0  0  0  0  0  0  0  0  0  0  0  0
   -2.3940    0.0072   -2.8068 H   0  0  0  0  0  0  0  0  0  0  0  0
   -2.0463   -0.6672   -1.2128 H   0  0  0  0  0  0  0  0  0  0  0  0
   -0.3126    1.2341    0.8050 C   0  0  0  0  0  0  0  0  0  0  0  0
   -1.2484    1.9199    0.3934 O   0  0  0  0  0  0  0  0  0  0  0  0
    0.5615    1.6875    1.7087 N   0  0  0  0  0  0  0  0  0  0  0  0
    1.3461    1.0849    1.9358 H   0  0  0  0  0  0  0  0  0  0  0  0
    0.5043    3.0121    2.3242 C   0  0  0  0  0  0  0  0  0  0  0  0
   -0.4649    3.1514    2.8080 H   0  0  0  0  0  0  0  0  0  0  0  0
    1.2959    3.1139    3.0678 H   0  0  0  0  0  0  0  0  0  0  0  0
    0.6273    3.7799    1.5584 H   0  0  0  0  0  0  0  0  0  0  0  0
  5  6  2  0  0  0  0
  5  7  1  0  0  0  0
  2  3  1  0  0  0  0
  2  4  1  0  0  0  0
  2  5  1  0  0  0  0
  1  2  1  0  0  0  0
 19 20  2  0  0  0  0
 19 21  1  0  0  0  0
 16 17  1  0  0  0  0
 16 18  1  0  0  0  0
 14 15  2  0  0  0  0
 14 16  1  0  0  0  0
 11 12  1  0  0  0  0
 11 13  1  0  0  0  0
 11 14  1  0  0  0  0
  9 10  1  0  0  0  0
  9 11  1  0  0  0  0
  9 19  1  0  0  0  0
  7  8  1  0  0  0  0
  7  9  1  0  0  0  0
 23 24  1  0  0  0  0
 23 25  1  0  0  0  0
 23 26  1  0  0  0  0
 21 22  1  0  0  0  0
 21 23  1  0  0  0  0
M  END
$$$$
default_name
  -OEChem-02102213163D

 26 25  0     1  0  0  0  0  0999 V2000
   -3.0232   -3.6924    1.0038 H   0  0  0  0  0  0  0  0  0  0  0  0
   -3.0082   -2.6684    0.6318 C   0  0  0  0  0  0  0  0  0  0  0  0
   -3.6332   -2.0414    1.2658 H   0  0  0  0  0  0  0  0  0  0  0  0
   -3.3762   -2.6444   -0.3912 H   0  0  0  0  0  0  0  0  0  0  0  0
   -1.5882   -2.1554    0.6658 C   0  0  0  0  0  0  0  0  0  0  0  0
   -0.6832   -2.8764    1.0638 O   0  0  0  0  0  0  0  0  0  0  0  0
   -1.3952   -0.9084    0.2428 N   0  0  0  0  0  0  0  0  0  0  0  0
   -2.1972   -0.3644   -0.0422 H   0  0  0  0  0  0  0  0  0  0  0  0
   -0.1122   -0.1994    0.2658 C   0  0  1  0  0  0  0  0  0  0  0  0
    0.5635   -0.7260    0.9446 H   0  0  0  0  0  0  0  0  0  0  0  0
    0.4924   -0.2204   -1.1558 C   0  0  0  0  0  0  0  0  0  0  0  0
    1.2863    0.5230   -1.2176 H   0  0  0  0  0  0  0  0  0  0  0  0
    0.9259   -1.2009   -1.3472 H   0  0  0  0  0  0  0  0  0  0  0  0
   -0.5040    0.1066   -2.2564 C   0  0  0  0  0  0  0  0  0  0  0  0
   -0.1675    0.3967   -3.3912 O   0  0  0  0  0  0  0  0  0  0  0  0
   -1.7794    0.0800   -1.9545 N   0  0  0  0  0  0  0  0  0  0  0  0
   -2.4149    0.2831   -2.7058 H   0  0  0  0  0  0  0  0  0  0  0  0
   -2.0826   -0.1742   -1.0334 H   0  0  0  0  0  0  0  0  0  0  0  0
   -0.3126    1.2341    0.8050 C   0  0  0  0  0  0  0  0  0  0  0  0
   -1.2484    1.9199    0.3934 O   0  0  0  0  0  0  0  0  0  0  0  0
    0.5615    1.6875    1.7087 N   0  0  0  0  0  0  0  0  0  0  0  0
    1.3461    1.0849    1.9358 H   0  0  0  0  0  0  0  0  0  0  0  0
    0.5043    3.0121    2.3242 C   0  0  0  0  0  0  0  0  0  0  0  0
   -0.4649    3.1514    2.8080 H   0  0  0  0  0  0  0  0  0  0  0  0
    1.2959    3.1139    3.0678 H   0  0  0  0  0  0  0  0  0  0  0  0
    0.6273    3.7799    1.5584 H   0  0  0  0  0  0  0  0  0  0  0  0
  5  6  2  0  0  0  0
  5  7  1  0  0  0  0
  2  3  1  0  0  0  0
  2  4  1  0  0  0  0
  2  5  1  0  0  0  0
  1  2  1  0  0  0  0
 19 20  2  0  0  0  0
 19 21  1  0  0  0  0
 16 17  1  0  0  0  0
 16 18  1  0  0  0  0
 14 15  2  0  0  0  0
 14 16  1  0  0  0  0
 11 12  1  0  0  0  0
 11 13  1  0  0  0  0
 11 14  1  0  0  0  0
  9 10  1  0  0  0  0
  9 11  1  0  0  0  0
  9 19  1  0  0  0  0
  7  8  1  0  0  0  0
  7  9  1  0  0  0  0
 23 24  1  0  0  0  0
 23 25  1  0  0  0  0
 23 26  1  0  0  0  0
 21 22  1  0  0  0  0
 21 23  1  0  0  0  0
M  END
$$$$
default_name
  -OEChem-02102213163D

 26 25  0     1  0  0  0  0  0999 V2000
   -3.0232   -3.6924    1.0038 H   0  0  0  0  0  0  0  0  0  0  0  0
   -3.0082   -2.6684    0.6318 C   0  0  0  0  0  0  0  0  0  0  0  0
   -3.6332   -2.0414    1.2658 H   0  0  0  0  0  0  0  0  0  0  0  0
   -3.3762   -2.6444   -0.3912 H   0  0  0  0  0  0  0  0  0  0  0  0
   -1.5882   -2.1554    0.6658 C   0  0  0  0  0  0  0  0  0  0  0  0
   -0.6832   -2.8764    1.0638 O   0  0  0  0  0  0  0  0  0  0  0  0
   -1.3952   -0.9084    0.2428 N   0  0  0  0  0  0  0  0  0  0  0  0
   -2.1972   -0.3644   -0.0422 H   0  0  0  0  0  0  0  0  0  0  0  0
   -0.1122   -0.1994    0.2658 C   0  0  1  0  0  0  0  0  0  0  0  0
    0.5635   -0.7260    0.9446 H   0  0  0  0  0  0  0  0  0  0  0  0
    0.4924   -0.2204   -1.1558 C   0  0  0  0  0  0  0  0  0  0  0  0
    1.4413    0.3147   -1.1486 H   0  0  0  0  0  0  0  0  0  0  0  0
    0.6831   -1.2515   -1.4498 H   0  0  0  0  0  0  0  0  0  0  0  0
   -0.3801    0.4439   -2.2086 C   0  0  0  0  0  0  0  0  0  0  0  0
   -0.0617    0.5197   -3.3826 O   0  0  0  0  0  0  0  0  0  0  0  0
   -1.5197    0.9623   -1.8203 N   0  0  0  0  0  0  0  0  0  0  0  0
   -2.0831    1.3790   -2.5405 H   0  0  0  0  0  0  0  0  0  0  0  0
   -1.8132    0.8963   -0.8640 H   0  0  0  0  0  0  0  0  0  0  0  0
   -0.3126    1.2341    0.8050 C   0  0  0  0  0  0  0  0  0  0  0  0
   -1.2484    1.9199    0.3934 O   0  0  0  0  0  0  0  0  0  0  0  0
    0.5615    1.6875    1.7087 N   0  0  0  0  0  0  0  0  0  0  0  0
    1.3461    1.0849    1.9358 H   0  0  0  0  0  0  0  0  0  0  0  0
    0.5043    3.0121    2.3242 C   0  0  0  0  0  0  0  0  0  0  0  0
   -0.4649    3.1514    2.8080 H   0  0  0  0  0  0  0  0  0  0  0  0
    1.2959    3.1139    3.0678 H   0  0  0  0  0  0  0  0  0  0  0  0
    0.6273    3.7799    1.5584 H   0  0  0  0  0  0  0  0  0  0  0  0
  5  6  2  0  0  0  0
  5  7  1  0  0  0  0
  2  3  1  0  0  0  0
  2  4  1  0  0  0  0
  2  5  1  0  0  0  0
  1  2  1  0  0  0  0
 19 20  2  0  0  0  0
 19 21  1  0  0  0  0
 16 17  1  0  0  0  0
 16 18  1  0  0  0  0
 14 15  2  0  0  0  0
 14 16  1  0  0  0  0
 11 12  1  0  0  0  0
 11 13  1  0  0  0  0
 11 14  1  0  0  0  0
  9 10  1  0  0  0  0
  9 11  1  0  0  0  0
  9 19  1  0  0  0  0
  7  8  1  0  0  0  0
  7  9  1  0  0  0  0
 23 24  1  0  0  0  0
 23 25  1  0  0  0  0
 23 26  1  0  0  0  0
 21 22  1  0  0  0  0
 21 23  1  0  0  0  0
M  END
$$$$
default_name
  -OEChem-02102213163D

 26 25  0     1  0  0  0  0  0999 V2000
   -3.0232   -3.6924    1.0038 H   0  0  0  0  0  0  0  0  0  0  0  0
   -3.0082   -2.6684    0.6318 C   0  0  0  0  0  0  0  0  0  0  0  0
   -3.6332   -2.0414    1.2658 H   0  0  0  0  0  0  0  0  0  0  0  0
   -3.3762   -2.6444   -0.3912 H   0  0  0  0  0  0  0  0  0  0  0  0
   -1.5882   -2.1554    0.6658 C   0  0  0  0  0  0  0  0  0  0  0  0
   -0.6832   -2.8764    1.0638 O   0  0  0  0  0  0  0  0  0  0  0  0
   -1.3952   -0.9084    0.2428 N   0  0  0  0  0  0  0  0  0  0  0  0
   -2.1972   -0.3644   -0.0422 H   0  0  0  0  0  0  0  0  0  0  0  0
   -0.1122   -0.1994    0.2658 C   0  0  1  0  0  0  0  0  0  0  0  0
    0.5635   -0.7260    0.9446 H   0  0  0  0  0  0  0  0  0  0  0  0
    0.4924   -0.2204   -1.1558 C   0  0  0  0  0  0  0  0  0  0  0  0
    1.4413    0.3147   -1.1486 H   0  0  0  0  0  0  0  0  0  0  0  0
    0.6831   -1.2515   -1.4498 H   0  0  0  0  0  0  0  0  0  0  0  0
   -0.3801    0.4439   -2.2086 C   0  0  0  0  0  0  0  0  0  0  0  0
   -0.2047    0.2955   -3.4055 O   0  0  0  0  0  0  0  0  0  0  0  0
   -1.3560    1.2157   -1.7961 N   0  0  0  0  0  0  0  0  0  0  0  0
   -1.9266    1.6271   -2.5136 H   0  0  0  0  0  0  0  0  0  0  0  0
   -1.5329    1.3388   -0.8170 H   0  0  0  0  0  0  0  0  0  0  0  0
   -0.3126    1.2341    0.8050 C   0  0  0  0  0  0  0  0  0  0  0  0
   -1.2484    1.9199    0.3934 O   0  0  0  0  0  0  0  0  0  0  0  0
    0.5615    1.6875    1.7087 N   0  0  0  0  0  0  0  0  0  0  0  0
    1.3461    1.0849    1.9358 H   0  0  0  0  0  0  0  0  0  0  0  0
    0.5043    3.0121    2.3242 C   0  0  0  0  0  0  0  0  0  0  0  0
   -0.4649    3.1514    2.8080 H   0  0  0  0  0  0  0  0  0  0  0  0
    1.2959    3.1139    3.0678 H   0  0  0  0  0  0  0  0  0  0  0  0
    0.6273    3.7799    1.5584 H   0  0  0  0  0  0  0  0  0  0  0  0
  5  6  2  0  0  0  0
  5  7  1  0  0  0  0
  2  3  1  0  0  0  0
  2  4  1  0  0  0  0
  2  5  1  0  0  0  0
  1  2  1  0  0  0  0
 19 20  2  0  0  0  0
 19 21  1  0  0  0  0
 16 17  1  0  0  0  0
 16 18  1  0  0  0  0
 14 15  2  0  0  0  0
 14 16  1  0  0  0  0
 11 12  1  0  0  0  0
 11 13  1  0  0  0  0
 11 14  1  0  0  0  0
  9 10  1  0  0  0  0
  9 11  1  0  0  0  0
  9 19  1  0  0  0  0
  7  8  1  0  0  0  0
  7  9  1  0  0  0  0
 23 24  1  0  0  0  0
 23 25  1  0  0  0  0
 23 26  1  0  0  0  0
 21 22  1  0  0  0  0
 21 23  1  0  0  0  0
M  END
$$$$
default_name
  -OEChem-02102213163D

 26 25  0     1  0  0  0  0  0999 V2000
   -3.0232   -3.6924    1.0038 H   0  0  0  0  0  0  0  0  0  0  0  0
   -3.0082   -2.6684    0.6318 C   0  0  0  0  0  0  0  0  0  0  0  0
   -3.6332   -2.0414    1.2658 H   0  0  0  0  0  0  0  0  0  0  0  0
   -3.3762   -2.6444   -0.3912 H   0  0  0  0  0  0  0  0  0  0  0  0
   -1.5882   -2.1554    0.6658 C   0  0  0  0  0  0  0  0  0  0  0  0
   -0.6832   -2.8764    1.0638 O   0  0  0  0  0  0  0  0  0  0  0  0
   -1.3952   -0.9084    0.2428 N   0  0  0  0  0  0  0  0  0  0  0  0
   -2.1972   -0.3644   -0.0422 H   0  0  0  0  0  0  0  0  0  0  0  0
   -0.1122   -0.1994    0.2658 C   0  0  1  0  0  0  0  0  0  0  0  0
    0.5635   -0.7260    0.9446 H   0  0  0  0  0  0  0  0  0  0  0  0
    0.4924   -0.2204   -1.1558 C   0  0  0  0  0  0  0  0  0  0  0  0
    1.4413    0.3147   -1.1486 H   0  0  0  0  0  0  0  0  0  0  0  0
    0.6831   -1.2515   -1.4498 H   0  0  0  0  0  0  0  0  0  0  0  0
   -0.3801    0.4439   -2.2086 C   0  0  0  0  0  0  0  0  0  0  0  0
   -0.3856    0.1013   -3.3782 O   0  0  0  0  0  0  0  0  0  0  0  0
   -1.1498    1.4347   -1.8289 N   0  0  0  0  0  0  0  0  0  0  0  0
   -1.7279    1.8428   -2.5422 H   0  0  0  0  0  0  0  0  0  0  0  0
   -1.1776    1.7230   -0.8691 H   0  0  0  0  0  0  0  0  0  0  0  0
   -0.3126    1.2341    0.8050 C   0  0  0  0  0  0  0  0  0  0  0  0
   -1.2484    1.9199    0.3934 O   0  0  0  0  0  0  0  0  0  0  0  0
    0.5615    1.6875    1.7087 N   0  0  0  0  0  0  0  0  0  0  0  0
    1.3461    1.0849    1.9358 H   0  0  0  0  0  0  0  0  0  0  0  0
    0.5043    3.0121    2.3242 C   0  0  0  0  0  0  0  0  0  0  0  0
   -0.4649    3.1514    2.8080 H   0  0  0  0  0  0  0  0  0  0  0  0
    1.2959    3.1139    3.0678 H   0  0  0  0  0  0  0  0  0  0  0  0
    0.6273    3.7799    1.5584 H   0  0  0  0  0  0  0  0  0  0  0  0
  5  6  2  0  0  0  0
  5  7  1  0  0  0  0
  2  3  1  0  0  0  0
  2  4  1  0  0  0  0
  2  5  1  0  0  0  0
  1  2  1  0  0  0  0
 19 20  2  0  0  0  0
 19 21  1  0  0  0  0
 16 17  1  0  0  0  0
 16 18  1  0  0  0  0
 14 15  2  0  0  0  0
 14 16  1  0  0  0  0
 11 12  1  0  0  0  0
 11 13  1  0  0  0  0
 11 14  1  0  0  0  0
  9 10  1  0  0  0  0
  9 11  1  0  0  0  0
  9 19  1  0  0  0  0
  7  8  1  0  0  0  0
  7  9  1  0  0  0  0
 23 24  1  0  0  0  0
 23 25  1  0  0  0  0
 23 26  1  0  0  0  0
 21 22  1  0  0  0  0
 21 23  1  0  0  0  0
M  END
$$$$
default_name
  -OEChem-02102213163D

 26 25  0     1  0  0  0  0  0999 V2000
   -3.0232   -3.6924    1.0038 H   0  0  0  0  0  0  0  0  0  0  0  0
   -3.0082   -2.6684    0.6318 C   0  0  0  0  0  0  0  0  0  0  0  0
   -3.6332   -2.0414    1.2658 H   0  0  0  0  0  0  0  0  0  0  0  0
   -3.3762   -2.6444   -0.3912 H   0  0  0  0  0  0  0  0  0  0  0  0
   -1.5882   -2.1554    0.6658 C   0  0  0  0  0  0  0  0  0  0  0  0
   -0.6832   -2.8764    1.0638 O   0  0  0  0  0  0  0  0  0  0  0  0
   -1.3952   -0.9084    0.2428 N   0  0  0  0  0  0  0  0  0  0  0  0
   -2.1972   -0.3644   -0.0422 H   0  0  0  0  0  0  0  0  0  0  0  0
   -0.1122   -0.1994    0.2658 C   0  0  1  0  0  0  0  0  0  0  0  0
    0.5635   -0.7260    0.9446 H   0  0  0  0  0  0  0  0  0  0  0  0
    0.4924   -0.2204   -1.1558 C   0  0  0  0  0  0  0  0  0  0  0  0
    1.4413    0.3147   -1.1486 H   0  0  0  0  0  0  0  0  0  0  0  0
    0.6831   -1.2515   -1.4498 H   0  0  0  0  0  0  0  0  0  0  0  0
   -0.3801    0.4439   -2.2086 C   0  0  0  0  0  0  0  0  0  0  0  0
   -0.5921   -0.0499   -3.3024 O   0  0  0  0  0  0  0  0  0  0  0  0
   -0.9149    1.6045   -1.9164 N   0  0  0  0  0  0  0  0  0  0  0  0
   -1.5006    2.0112   -2.6243 H   0  0  0  0  0  0  0  0  0  0  0  0
   -0.7713    2.0227   -1.0167 H   0  0  0  0  0  0  0  0  0  0  0  0
   -0.3126    1.2341    0.8050 C   0  0  0  0  0  0  0  0  0  0  0  0
   -1.2484    1.9199    0.3934 O   0  0  0  0  0  0  0  0  0  0  0  0
    0.5615    1.6875    1.7087 N   0  0  0  0  0  0  0  0  0  0  0  0
    1.3461    1.0849    1.9358 H   0  0  0  0  0  0  0  0  0  0  0  0
    0.5043    3.0121    2.3242 C   0  0  0  0  0  0  0  0  0  0  0  0
   -0.4649    3.1514    2.8080 H   0  0  0  0  0  0  0  0  0  0  0  0
    1.2959    3.1139    3.0678 H   0  0  0  0  0  0  0  0  0  0  0  0
    0.6273    3.7799    1.5584 H   0  0  0  0  0  0  0  0  0  0  0  0
  5  6  2  0  0  0  0
  5  7  1  0  0  0  0
  2  3  1  0  0  0  0
  2  4  1  0  0  0  0
  2  5  1  0  0  0  0
  1  2  1  0  0  0  0
 19 20  2  0  0  0  0
 19 21  1  0  0  0  0
 16 17  1  0  0  0  0
 16 18  1  0  0  0  0
 14 15  2  0  0  0  0
 14 16  1  0  0  0  0
 11 12  1  0  0  0  0
 11 13  1  0  0  0  0
 11 14  1  0  0  0  0
  9 10  1  0  0  0  0
  9 11  1  0  0  0  0
  9 19  1  0  0  0  0
  7  8  1  0  0  0  0
  7  9  1  0  0  0  0
 23 24  1  0  0  0  0
 23 25  1  0  0  0  0
 23 26  1  0  0  0  0
 21 22  1  0  0  0  0
 21 23  1  0  0  0  0
M  END
$$$$
default_name
  -OEChem-02102213163D

 26 25  0     1  0  0  0  0  0999 V2000
   -3.0232   -3.6924    1.0038 H   0  0  0  0  0  0  0  0  0  0  0  0
   -3.0082   -2.6684    0.6318 C   0  0  0  0  0  0  0  0  0  0  0  0
   -3.6332   -2.0414    1.2658 H   0  0  0  0  0  0  0  0  0  0  0  0
   -3.3762   -2.6444   -0.3912 H   0  0  0  0  0  0  0  0  0  0  0  0
   -1.5882   -2.1554    0.6658 C   0  0  0  0  0  0  0  0  0  0  0  0
   -0.6832   -2.8764    1.0638 O   0  0  0  0  0  0  0  0  0  0  0  0
   -1.3952   -0.9084    0.2428 N   0  0  0  0  0  0  0  0  0  0  0  0
   -2.1972   -0.3644   -0.0422 H   0  0  0  0  0  0  0  0  0  0  0  0
   -0.1122   -0.1994    0.2658 C   0  0  1  0  0  0  0  0  0  0  0  0
    0.5635   -0.7260    0.9446 H   0  0  0  0  0  0  0  0  0  0  0  0
    0.4924   -0.2204   -1.1558 C   0  0  0  0  0  0  0  0  0  0  0  0
    1.4413    0.3147   -1.1486 H   0  0  0  0  0  0  0  0  0  0  0  0
    0.6831   -1.2515   -1.4498 H   0  0  0  0  0  0  0  0  0  0  0  0
   -0.3801    0.4439   -2.2086 C   0  0  0  0  0  0  0  0  0  0  0  0
   -0.8101   -0.1477   -3.1835 O   0  0  0  0  0  0  0  0  0  0  0  0
   -0.6676    1.7133   -2.0527 N   0  0  0  0  0  0  0  0  0  0  0  0
   -1.2601    2.1210   -2.7544 H   0  0  0  0  0  0  0  0  0  0  0  0
   -0.3420    2.2174   -1.2496 H   0  0  0  0  0  0  0  0  0  0  0  0
   -0.3126    1.2341    0.8050 C   0  0  0  0  0  0  0  0  0  0  0  0
   -1.2484    1.9199    0.3934 O   0  0  0  0  0  0  0  0  0  0  0  0
    0.5615    1.6875    1.7087 N   0  0  0  0  0  0  0  0  0  0  0  0
    1.3461    1.0849    1.9358 H   0  0  0  0  0  0  0  0  0  0  0  0
    0.5043    3.0121    2.3242 C   0  0  0  0  0  0  0  0  0  0  0  0
   -0.4649    3.1514    2.8080 H   0  0  0  0  0  0  0  0  0  0  0  0
    1.2959    3.1139    3.0678 H   0  0  0  0  0  0  0  0  0  0  0  0
    0.6273    3.7799    1.5584 H   0  0  0  0  0  0  0  0  0  0  0  0
  5  6  2  0  0  0  0
  5  7  1  0  0  0  0
  2  3  1  0  0  0  0
  2  4  1  0  0  0  0
  2  5  1  0  0  0  0
  1  2  1  0  0  0  0
 19 20  2  0  0  0  0
 19 21  1  0  0  0  0
 16 17  1  0  0  0  0
 16 18  1  0  0  0  0
 14 15  2  0  0  0  0
 14 16  1  0  0  0  0
 11 12  1  0  0  0  0
 11 13  1  0  0  0  0
 11 14  1  0  0  0  0
  9 10  1  0  0  0  0
  9 11  1  0  0  0  0
  9 19  1  0  0  0  0
  7  8  1  0  0  0  0
  7  9  1  0  0  0  0
 23 24  1  0  0  0  0
 23 25  1  0  0  0  0
 23 26  1  0  0  0  0
 21 22  1  0  0  0  0
 21 23  1  0  0  0  0
M  END
$$$$
default_name
  -OEChem-02102213163D

 26 25  0     1  0  0  0  0  0999 V2000
   -3.0232   -3.6924    1.0038 H   0  0  0  0  0  0  0  0  0  0  0  0
   -3.0082   -2.6684    0.6318 C   0  0  0  0  0  0  0  0  0  0  0  0
   -3.6332   -2.0414    1.2658 H   0  0  0  0  0  0  0  0  0  0  0  0
   -3.3762   -2.6444   -0.3912 H   0  0  0  0  0  0  0  0  0  0  0  0
   -1.5882   -2.1554    0.6658 C   0  0  0  0  0  0  0  0  0  0  0  0
   -0.6832   -2.8764    1.0638 O   0  0  0  0  0  0  0  0  0  0  0  0
   -1.3952   -0.9084    0.2428 N   0  0  0  0  0  0  0  0  0  0  0  0
   -2.1972   -0.3644   -0.0422 H   0  0  0  0  0  0  0  0  0  0  0  0
   -0.1122   -0.1994    0.2658 C   0  0  1  0  0  0  0  0  0  0  0  0
    0.5635   -0.7260    0.9446 H   0  0  0  0  0  0  0  0  0  0  0  0
    0.4924   -0.2204   -1.1558 C   0  0  0  0  0  0  0  0  0  0  0  0
    1.4413    0.3147   -1.1486 H   0  0  0  0  0  0  0  0  0  0  0  0
    0.6831   -1.2515   -1.4498 H   0  0  0  0  0  0  0  0  0  0  0  0
   -0.3801    0.4439   -2.2086 C   0  0  0  0  0  0  0  0  0  0  0  0
   -1.0247   -0.1854   -3.0294 O   0  0  0  0  0  0  0  0  0  0  0  0
   -0.4246    1.7539   -2.2285 N   0  0  0  0  0  0  0  0  0  0  0  0
   -1.0228    2.1645   -2.9235 H   0  0  0  0  0  0  0  0  0  0  0  0
    0.0814    2.2939   -1.5522 H   0  0  0  0  0  0  0  0  0  0  0  0
   -0.3126    1.2341    0.8050 C   0  0  0  0  0  0  0  0  0  0  0  0
   -1.2484    1.9199    0.3934 O   0  0  0  0  0  0  0  0  0  0  0  0
    0.5615    1.6875    1.7087 N   0  0  0  0  0  0  0  0  0  0  0  0
    1.3461    1.0849    1.9358 H   0  0  0  0  0  0  0  0  0  0  0  0
    0.5043    3.0121    2.3242 C   0  0  0  0  0  0  0  0  0  0  0  0
   -0.4649    3.1514    2.8080 H   0  0  0  0  0  0  0  0  0  0  0  0
    1.2959    3.1139    3.0678 H   0  0  0  0  0  0  0  0  0  0  0  0
    0.6273    3.7799    1.5584 H   0  0  0  0  0  0  0  0  0  0  0  0
  5  6  2  0  0  0  0
  5  7  1  0  0  0  0
  2  3  1  0  0  0  0
  2  4  1  0  0  0  0
  2  5  1  0  0  0  0
  1  2  1  0  0  0  0
 19 20  2  0  0  0  0
 19 21  1  0  0  0  0
 16 17  1  0  0  0  0
 16 18  1  0  0  0  0
 14 15  2  0  0  0  0
 14 16  1  0  0  0  0
 11 12  1  0  0  0  0
 11 13  1  0  0  0  0
 11 14  1  0  0  0  0
  9 10  1  0  0  0  0
  9 11  1  0  0  0  0
  9 19  1  0  0  0  0
  7  8  1  0  0  0  0
  7  9  1  0  0  0  0
 23 24  1  0  0  0  0
 23 25  1  0  0  0  0
 23 26  1  0  0  0  0
 21 22  1  0  0  0  0
 21 23  1  0  0  0  0
M  END
$$$$
default_name
  -OEChem-02102213163D

 26 25  0     1  0  0  0  0  0999 V2000
   -3.0232   -3.6924    1.0038 H   0  0  0  0  0  0  0  0  0  0  0  0
   -3.0082   -2.6684    0.6318 C   0  0  0  0  0  0  0  0  0  0  0  0
   -3.6332   -2.0414    1.2658 H   0  0  0  0  0  0  0  0  0  0  0  0
   -3.3762   -2.6444   -0.3912 H   0  0  0  0  0  0  0  0  0  0  0  0
   -1.5882   -2.1554    0.6658 C   0  0  0  0  0  0  0  0  0  0  0  0
   -0.6832   -2.8764    1.0638 O   0  0  0  0  0  0  0  0  0  0  0  0
   -1.3952   -0.9084    0.2428 N   0  0  0  0  0  0  0  0  0  0  0  0
   -2.1972   -0.3644   -0.0422 H   0  0  0  0  0  0  0  0  0  0  0  0
   -0.1122   -0.1994    0.2658 C   0  0  1  0  0  0  0  0  0  0  0  0
    0.5635   -0.7260    0.9446 H   0  0  0  0  0  0  0  0  0  0  0  0
    0.4924   -0.2204   -1.1558 C   0  0  0  0  0  0  0  0  0  0  0  0
    1.4413    0.3147   -1.1486 H   0  0  0  0  0  0  0  0  0  0  0  0
    0.6831   -1.2515   -1.4498 H   0  0  0  0  0  0  0  0  0  0  0  0
   -0.3801    0.4439   -2.2086 C   0  0  0  0  0  0  0  0  0  0  0  0
   -1.2214   -0.1604   -2.8507 O   0  0  0  0  0  0  0  0  0  0  0  0
   -0.2025    1.7234   -2.4318 N   0  0  0  0  0  0  0  0  0  0  0  0
   -0.8050    2.1390   -3.1202 H   0  0  0  0  0  0  0  0  0  0  0  0
    0.4698    2.2470   -1.9037 H   0  0  0  0  0  0  0  0  0  0  0  0
   -0.3126    1.2341    0.8050 C   0  0  0  0  0  0  0  0  0  0  0  0
   -1.2484    1.9199    0.3934 O   0  0  0  0  0  0  0  0  0  0  0  0
    0.5615    1.6875    1.7087 N   0  0  0  0  0  0  0  0  0  0  0  0
    1.3461    1.0849    1.9358 H   0  0  0  0  0  0  0  0  0  0  0  0
    0.5043    3.0121    2.3242 C   0  0  0  0  0  0  0  0  0  0  0  0
   -0.4649    3.1514    2.8080 H   0  0  0  0  0  0  0  0  0  0  0  0
    1.2959    3.1139    3.0678 H   0  0  0  0  0  0  0  0  0  0  0  0
    0.6273    3.7799    1.5584 H   0  0  0  0  0  0  0  0  0  0  0  0
  5  6  2  0  0  0  0
  5  7  1  0  0  0  0
  2  3  1  0  0  0  0
  2  4  1  0  0  0  0
  2  5  1  0  0  0  0
  1  2  1  0  0  0  0
 19 20  2  0  0  0  0
 19 21  1  0  0  0  0
 16 17  1  0  0  0  0
 16 18  1  0  0  0  0
 14 15  2  0  0  0  0
 14 16  1  0  0  0  0
 11 12  1  0  0  0  0
 11 13  1  0  0  0  0
 11 14  1  0  0  0  0
  9 10  1  0  0  0  0
  9 11  1  0  0  0  0
  9 19  1  0  0  0  0
  7  8  1  0  0  0  0
  7  9  1  0  0  0  0
 23 24  1  0  0  0  0
 23 25  1  0  0  0  0
 23 26  1  0  0  0  0
 21 22  1  0  0  0  0
 21 23  1  0  0  0  0
M  END
$$$$
default_name
  -OEChem-02102213163D

 26 25  0     1  0  0  0  0  0999 V2000
   -3.0232   -3.6924    1.0038 H   0  0  0  0  0  0  0  0  0  0  0  0
   -3.0082   -2.6684    0.6318 C   0  0  0  0  0  0  0  0  0  0  0  0
   -3.6332   -2.0414    1.2658 H   0  0  0  0  0  0  0  0  0  0  0  0
   -3.3762   -2.6444   -0.3912 H   0  0  0  0  0  0  0  0  0  0  0  0
   -1.5882   -2.1554    0.6658 C   0  0  0  0  0  0  0  0  0  0  0  0
   -0.6832   -2.8764    1.0638 O   0  0  0  0  0  0  0  0  0  0  0  0
   -1.3952   -0.9084    0.2428 N   0  0  0  0  0  0  0  0  0  0  0  0
   -2.1972   -0.3644   -0.0422 H   0  0  0  0  0  0  0  0  0  0  0  0
   -0.1122   -0.1994    0.2658 C   0  0  1  0  0  0  0  0  0  0  0  0
    0.5635   -0.7260    0.9446 H   0  0  0  0  0  0  0  0  0  0  0  0
    0.4924   -0.2204   -1.1558 C   0  0  0  0  0  0  0  0  0  0  0  0
    1.4413    0.3147   -1.1486 H   0  0  0  0  0  0  0  0  0  0  0  0
    0.6831   -1.2515   -1.4498 H   0  0  0  0  0  0  0  0  0  0  0  0
   -0.3801    0.4439   -2.2086 C   0  0  0  0  0  0  0  0  0  0  0  0
   -1.3866   -0.0746   -2.6596 O   0  0  0  0  0  0  0  0  0  0  0  0
   -0.0164    1.6239   -2.6488 N   0  0  0  0  0  0  0  0  0  0  0  0
   -0.6214    2.0461   -3.3310 H   0  0  0  0  0  0  0  0  0  0  0  0
    0.7968    2.0799   -2.2801 H   0  0  0  0  0  0  0  0  0  0  0  0
   -0.3126    1.2341    0.8050 C   0  0  0  0  0  0  0  0  0  0  0  0
   -1.2484    1.9199    0.3934 O   0  0  0  0  0  0  0  0  0  0  0  0
    0.5615    1.6875    1.7087 N   0  0  0  0  0  0  0  0  0  0  0  0
    1.3461    1.0849    1.9358 H   0  0  0  0  0  0  0  0  0  0  0  0
    0.5043    3.0121    2.3242 C   0  0  0  0  0  0  0  0  0  0  0  0
   -0.4649    3.1514    2.8080 H   0  0  0  0  0  0  0  0  0  0  0  0
    1.2959    3.1139    3.0678 H   0  0  0  0  0  0  0  0  0  0  0  0
    0.6273    3.7799    1.5584 H   0  0  0  0  0  0  0  0  0  0  0  0
  5  6  2  0  0  0  0
  5  7  1  0  0  0  0
  2  3  1  0  0  0  0
  2  4  1  0  0  0  0
  2  5  1  0  0  0  0
  1  2  1  0  0  0  0
 19 20  2  0  0  0  0
 19 21  1  0  0  0  0
 16 17  1  0  0  0  0
 16 18  1  0  0  0  0
 14 15  2  0  0  0  0
 14 16  1  0  0  0  0
 11 12  1  0  0  0  0
 11 13  1  0  0  0  0
 11 14  1  0  0  0  0
  9 10  1  0  0  0  0
  9 11  1  0  0  0  0
  9 19  1  0  0  0  0
  7  8  1  0  0  0  0
  7  9  1  0  0  0  0
 23 24  1  0  0  0  0
 23 25  1  0  0  0  0
 23 26  1  0  0  0  0
 21 22  1  0  0  0  0
 21 23  1  0  0  0  0
M  END
$$$$
default_name
  -OEChem-02102213163D

 26 25  0     1  0  0  0  0  0999 V2000
   -3.0232   -3.6924    1.0038 H   0  0  0  0  0  0  0  0  0  0  0  0
   -3.0082   -2.6684    0.6318 C   0  0  0  0  0  0  0  0  0  0  0  0
   -3.6332   -2.0414    1.2658 H   0  0  0  0  0  0  0  0  0  0  0  0
   -3.3762   -2.6444   -0.3912 H   0  0  0  0  0  0  0  0  0  0  0  0
   -1.5882   -2.1554    0.6658 C   0  0  0  0  0  0  0  0  0  0  0  0
   -0.6832   -2.8764    1.0638 O   0  0  0  0  0  0  0  0  0  0  0  0
   -1.3952   -0.9084    0.2428 N   0  0  0  0  0  0  0  0  0  0  0  0
   -2.1972   -0.3644   -0.0422 H   0  0  0  0  0  0  0  0  0  0  0  0
   -0.1122   -0.1994    0.2658 C   0  0  1  0  0  0  0  0  0  0  0  0
    0.5635   -0.7260    0.9446 H   0  0  0  0  0  0  0  0  0  0  0  0
    0.4924   -0.2204   -1.1558 C   0  0  0  0  0  0  0  0  0  0  0  0
    1.4413    0.3147   -1.1486 H   0  0  0  0  0  0  0  0  0  0  0  0
    0.6831   -1.2515   -1.4498 H   0  0  0  0  0  0  0  0  0  0  0  0
   -0.3801    0.4439   -2.2086 C   0  0  0  0  0  0  0  0  0  0  0  0
   -1.5092    0.0664   -2.4690 O   0  0  0  0  0  0  0  0  0  0  0  0
    0.1210    1.4622   -2.8646 N   0  0  0  0  0  0  0  0  0  0  0  0
   -0.4845    1.8920   -3.5416 H   0  0  0  0  0  0  0  0  0  0  0  0
    1.0401    1.8039   -2.6559 H   0  0  0  0  0  0  0  0  0  0  0  0
   -0.3126    1.2341    0.8050 C   0  0  0  0  0  0  0  0  0  0  0  0
   -1.2484    1.9199    0.3934 O   0  0  0  0  0  0  0  0  0  0  0  0
    0.5615    1.6875    1.7087 N   0  0  0  0  0  0  0  0  0  0  0  0
    1.3461    1.0849    1.9358 H   0  0  0  0  0  0  0  0  0  0  0  0
    0.5043    3.0121    2.3242 C   0  0  0  0  0  0  0  0  0  0  0  0
   -0.4649    3.1514    2.8080 H   0  0  0  0  0  0  0  0  0  0  0  0
    1.2959    3.1139    3.0678 H   0  0  0  0  0  0  0  0  0  0  0  0
    0.6273    3.7799    1.5584 H   0  0  0  0  0  0  0  0  0  0  0  0
  5  6  2  0  0  0  0
  5  7  1  0  0  0  0
  2  3  1  0  0  0  0
  2  4  1  0  0  0  0
  2  5  1  0  0  0  0
  1  2  1  0  0  0  0
 19 20  2  0  0  0  0
 19 21  1  0  0  0  0
 16 17  1  0  0  0  0
 16 18  1  0  0  0  0
 14 15  2  0  0  0  0
 14 16  1  0  0  0  0
 11 12  1  0  0  0  0
 11 13  1  0  0  0  0
 11 14  1  0  0  0  0
  9 10  1  0  0  0  0
  9 11  1  0  0  0  0
  9 19  1  0  0  0  0
  7  8  1  0  0  0  0
  7  9  1  0  0  0  0
 23 24  1  0  0  0  0
 23 25  1  0  0  0  0
 23 26  1  0  0  0  0
 21 22  1  0  0  0  0
 21 23  1  0  0  0  0
M  END
$$$$
default_name
  -OEChem-02102213163D

 26 25  0     1  0  0  0  0  0999 V2000
   -3.0232   -3.6924    1.0038 H   0  0  0  0  0  0  0  0  0  0  0  0
   -3.0082   -2.6684    0.6318 C   0  0  0  0  0  0  0  0  0  0  0  0
   -3.6332   -2.0414    1.2658 H   0  0  0  0  0  0  0  0  0  0  0  0
   -3.3762   -2.6444   -0.3912 H   0  0  0  0  0  0  0  0  0  0  0  0
   -1.5882   -2.1554    0.6658 C   0  0  0  0  0  0  0  0  0  0  0  0
   -0.6832   -2.8764    1.0638 O   0  0  0  0  0  0  0  0  0  0  0  0
   -1.3952   -0.9084    0.2428 N   0  0  0  0  0  0  0  0  0  0  0  0
   -2.1972   -0.3644   -0.0422 H   0  0  0  0  0  0  0  0  0  0  0  0
   -0.1122   -0.1994    0.2658 C   0  0  1  0  0  0  0  0  0  0  0  0
    0.5635   -0.7260    0.9446 H   0  0  0  0  0  0  0  0  0  0  0  0
    0.4924   -0.2204   -1.1558 C   0  0  0  0  0  0  0  0  0  0  0  0
    1.4413    0.3147   -1.1486 H   0  0  0  0  0  0  0  0  0  0  0  0
    0.6831   -1.2515   -1.4498 H   0  0  0  0  0  0  0  0  0  0  0  0
   -0.3801    0.4439   -2.2086 C   0  0  0  0  0  0  0  0  0  0  0  0
   -1.5808    0.2529   -2.2920 O   0  0  0  0  0  0  0  0  0  0  0  0
    0.2003    1.2494   -3.0646 N   0  0  0  0  0  0  0  0  0  0  0  0
   -0.4038    1.6875   -3.7376 H   0  0  0  0  0  0  0  0  0  0  0  0
    1.1831    1.4379   -3.0054 H   0  0  0  0  0  0  0  0  0  0  0  0
   -0.3126    1.2341    0.8050 C   0  0  0  0  0  0  0  0  0  0  0  0
   -1.2484    1.9199    0.3934 O   0  0  0  0  0  0  0  0  0  0  0  0
    0.5615    1.6875    1.7087 N   0  0  0  0  0  0  0  0  0  0  0  0
    1.3461    1.0849    1.9358 H   0  0  0  0  0  0  0  0  0  0  0  0
    0.5043    3.0121    2.3242 C   0  0  0  0  0  0  0  0  0  0  0  0
   -0.4649    3.1514    2.8080 H   0  0  0  0  0  0  0  0  0  0  0  0
    1.2959    3.1139    3.0678 H   0  0  0  0  0  0  0  0  0  0  0  0
    0.6273    3.7799    1.5584 H   0  0  0  0  0  0  0  0  0  0  0  0
  5  6  2  0  0  0  0
  5  7  1  0  0  0  0
  2  3  1  0  0  0  0
  2  4  1  0  0  0  0
  2  5  1  0  0  0  0
  1  2  1  0  0  0  0
 19 20  2  0  0  0  0
 19 21  1  0  0  0  0
 16 17  1  0  0  0  0
 16 18  1  0  0  0  0
 14 15  2  0  0  0  0
 14 16  1  0  0  0  0
 11 12  1  0  0  0  0
 11 13  1  0  0  0  0
 11 14  1  0  0  0  0
  9 10  1  0  0  0  0
  9 11  1  0  0  0  0
  9 19  1  0  0  0  0
  7  8  1  0  0  0  0
  7  9  1  0  0  0  0
 23 24  1  0  0  0  0
 23 25  1  0  0  0  0
 23 26  1  0  0  0  0
 21 22  1  0  0  0  0
 21 23  1  0  0  0  0
M  END
$$$$
default_name
  -OEChem-02102213163D

 26 25  0     1  0  0  0  0  0999 V2000
   -3.0232   -3.6924    1.0038 H   0  0  0  0  0  0  0  0  0  0  0  0
   -3.0082   -2.6684    0.6318 C   0  0  0  0  0  0  0  0  0  0  0  0
   -3.6332   -2.0414    1.2658 H   0  0  0  0  0  0  0  0  0  0  0  0
   -3.3762   -2.6444   -0.3912 H   0  0  0  0  0  0  0  0  0  0  0  0
   -1.5882   -2.1554    0.6658 C   0  0  0  0  0  0  0  0  0  0  0  0
   -0.6832   -2.8764    1.0638 O   0  0  0  0  0  0  0  0  0  0  0  0
   -1.3952   -0.9084    0.2428 N   0  0  0  0  0  0  0  0  0  0  0  0
   -2.1972   -0.3644   -0.0422 H   0  0  0  0  0  0  0  0  0  0  0  0
   -0.1122   -0.1994    0.2658 C   0  0  1  0  0  0  0  0  0  0  0  0
    0.5635   -0.7260    0.9446 H   0  0  0  0  0  0  0  0  0  0  0  0
    0.4924   -0.2204   -1.1558 C   0  0  0  0  0  0  0  0  0  0  0  0
    1.4413    0.3147   -1.1486 H   0  0  0  0  0  0  0  0  0  0  0  0
    0.6831   -1.2515   -1.4498 H   0  0  0  0  0  0  0  0  0  0  0  0
   -0.3801    0.4439   -2.2086 C   0  0  0  0  0  0  0  0  0  0  0  0
   -1.5966    0.4721   -2.1406 O   0  0  0  0  0  0  0  0  0  0  0  0
    0.2161    0.9999   -3.2352 N   0  0  0  0  0  0  0  0  0  0  0  0
   -0.3846    1.4463   -3.9057 H   0  0  0  0  0  0  0  0  0  0  0  0
    1.2162    1.0068   -3.3048 H   0  0  0  0  0  0  0  0  0  0  0  0
   -0.3126    1.2341    0.8050 C   0  0  0  0  0  0  0  0  0  0  0  0
   -1.2484    1.9199    0.3934 O   0  0  0  0  0  0  0  0  0  0  0  0
    0.5615    1.6875    1.7087 N   0  0  0  0  0  0  0  0  0  0  0  0
    1.3461    1.0849    1.9358 H   0  0  0  0  0  0  0  0  0  0  0  0
    0.5043    3.0121    2.3242 C   0  0  0  0  0  0  0  0  0  0  0  0
   -0.4649    3.1514    2.8080 H   0  0  0  0  0  0  0  0  0  0  0  0
    1.2959    3.1139    3.0678 H   0  0  0  0  0  0  0  0  0  0  0  0
    0.6273    3.7799    1.5584 H   0  0  0  0  0  0  0  0  0  0  0  0
  5  6  2  0  0  0  0
  5  7  1  0  0  0  0
  2  3  1  0  0  0  0
  2  4  1  0  0  0  0
  2  5  1  0  0  0  0
  1  2  1  0  0  0  0
 19 20  2  0  0  0  0
 19 21  1  0  0  0  0
 16 17  1  0  0  0  0
 16 18  1  0  0  0  0
 14 15  2  0  0  0  0
 14 16  1  0  0  0  0
 11 12  1  0  0  0  0
 11 13  1  0  0  0  0
 11 14  1  0  0  0  0
  9 10  1  0  0  0  0
  9 11  1  0  0  0  0
  9 19  1  0  0  0  0
  7  8  1  0  0  0  0
  7  9  1  0  0  0  0
 23 24  1  0  0  0  0
 23 25  1  0  0  0  0
 23 26  1  0  0  0  0
 21 22  1  0  0  0  0
 21 23  1  0  0  0  0
M  END
$$$$
default_name
  -OEChem-02102213163D

 26 25  0     1  0  0  0  0  0999 V2000
   -3.0232   -3.6924    1.0038 H   0  0  0  0  0  0  0  0  0  0  0  0
   -3.0082   -2.6684    0.6318 C   0  0  0  0  0  0  0  0  0  0  0  0
   -3.6332   -2.0414    1.2658 H   0  0  0  0  0  0  0  0  0  0  0  0
   -3.3762   -2.6444   -0.3912 H   0  0  0  0  0  0  0  0  0  0  0  0
   -1.5882   -2.1554    0.6658 C   0  0  0  0  0  0  0  0  0  0  0  0
   -0.6832   -2.8764    1.0638 O   0  0  0  0  0  0  0  0  0  0  0  0
   -1.3952   -0.9084    0.2428 N   0  0  0  0  0  0  0  0  0  0  0  0
   -2.1972   -0.3644   -0.0422 H   0  0  0  0  0  0  0  0  0  0  0  0
   -0.1122   -0.1994    0.2658 C   0  0  1  0  0  0  0  0  0  0  0  0
    0.5635   -0.7260    0.9446 H   0  0  0  0  0  0  0  0  0  0  0  0
    0.4924   -0.2204   -1.1558 C   0  0  0  0  0  0  0  0  0  0  0  0
    1.4413    0.3147   -1.1486 H   0  0  0  0  0  0  0  0  0  0  0  0
    0.6831   -1.2515   -1.4498 H   0  0  0  0  0  0  0  0  0  0  0  0
   -0.3801    0.4439   -2.2086 C   0  0  0  0  0  0  0  0  0  0  0  0
   -1.5553    0.7092   -2.0252 O   0  0  0  0  0  0  0  0  0  0  0  0
    0.1674    0.7307   -3.3647 N   0  0  0  0  0  0  0  0  0  0  0  0
   -0.4283    1.1849   -4.0344 H   0  0  0  0  0  0  0  0  0  0  0  0
    1.1369    0.5400   -3.5337 H   0  0  0  0  0  0  0  0  0  0  0  0
   -0.3126    1.2341    0.8050 C   0  0  0  0  0  0  0  0  0  0  0  0
   -1.2484    1.9199    0.3934 O   0  0  0  0  0  0  0  0  0  0  0  0
    0.5615    1.6875    1.7087 N   0  0  0  0  0  0  0  0  0  0  0  0
    1.3461    1.0849    1.9358 H   0  0  0  0  0  0  0  0  0  0  0  0
    0.5043    3.0121    2.3242 C   0  0  0  0  0  0  0  0  0  0  0  0
   -0.4649    3.1514    2.8080 H   0  0  0  0  0  0  0  0  0  0  0  0
    1.2959    3.1139    3.0678 H   0  0  0  0  0  0  0  0  0  0  0  0
    0.6273    3.7799    1.5584 H   0  0  0  0  0  0  0  0  0  0  0  0
  5  6  2  0  0  0  0
  5  7  1  0  0  0  0
  2  3  1  0  0  0  0
  2  4  1  0  0  0  0
  2  5  1  0  0  0  0
  1  2  1  0  0  0  0
 19 20  2  0  0  0  0
 19 21  1  0  0  0  0
 16 17  1  0  0  0  0
 16 18  1  0  0  0  0
 14 15  2  0  0  0  0
 14 16  1  0  0  0  0
 11 12  1  0  0  0  0
 11 13  1  0  0  0  0
 11 14  1  0  0  0  0
  9 10  1  0  0  0  0
  9 11  1  0  0  0  0
  9 19  1  0  0  0  0
  7  8  1  0  0  0  0
  7  9  1  0  0  0  0
 23 24  1  0  0  0  0
 23 25  1  0  0  0  0
 23 26  1  0  0  0  0
 21 22  1  0  0  0  0
 21 23  1  0  0  0  0
M  END
$$$$
default_name
  -OEChem-02102213163D

 26 25  0     1  0  0  0  0  0999 V2000
   -3.0232   -3.6924    1.0038 H   0  0  0  0  0  0  0  0  0  0  0  0
   -3.0082   -2.6684    0.6318 C   0  0  0  0  0  0  0  0  0  0  0  0
   -3.6332   -2.0414    1.2658 H   0  0  0  0  0  0  0  0  0  0  0  0
   -3.3762   -2.6444   -0.3912 H   0  0  0  0  0  0  0  0  0  0  0  0
   -1.5882   -2.1554    0.6658 C   0  0  0  0  0  0  0  0  0  0  0  0
   -0.6832   -2.8764    1.0638 O   0  0  0  0  0  0  0  0  0  0  0  0
   -1.3952   -0.9084    0.2428 N   0  0  0  0  0  0  0  0  0  0  0  0
   -2.1972   -0.3644   -0.0422 H   0  0  0  0  0  0  0  0  0  0  0  0
   -0.1122   -0.1994    0.2658 C   0  0  1  0  0  0  0  0  0  0  0  0
    0.5635   -0.7260    0.9446 H   0  0  0  0  0  0  0  0  0  0  0  0
    0.4924   -0.2204   -1.1558 C   0  0  0  0  0  0  0  0  0  0  0  0
    1.4413    0.3147   -1.1486 H   0  0  0  0  0  0  0  0  0  0  0  0
    0.6831   -1.2515   -1.4498 H   0  0  0  0  0  0  0  0  0  0  0  0
   -0.3801    0.4439   -2.2086 C   0  0  0  0  0  0  0  0  0  0  0  0
   -1.4600    0.9479   -1.9536 O   0  0  0  0  0  0  0  0  0  0  0  0
    0.0574    0.4602   -3.4442 N   0  0  0  0  0  0  0  0  0  0  0  0
   -0.5319    0.9212   -4.1149 H   0  0  0  0  0  0  0  0  0  0  0  0
    0.9509    0.0693   -3.6765 H   0  0  0  0  0  0  0  0  0  0  0  0
   -0.3126    1.2341    0.8050 C   0  0  0  0  0  0  0  0  0  0  0  0
   -1.2484    1.9199    0.3934 O   0  0  0  0  0  0  0  0  0  0  0  0
    0.5615    1.6875    1.7087 N   0  0  0  0  0  0  0  0  0  0  0  0
    1.3461    1.0849    1.9358 H   0  0  0  0  0  0  0  0  0  0  0  0
    0.5043    3.0121    2.3242 C   0  0  0  0  0  0  0  0  0  0  0  0
   -0.4649    3.1514    2.8080 H   0  0  0  0  0  0  0  0  0  0  0  0
    1.2959    3.1139    3.0678 H   0  0  0  0  0  0  0  0  0  0  0  0
    0.6273    3.7799    1.5584 H   0  0  0  0  0  0  0  0  0  0  0  0
  5  6  2  0  0  0  0
  5  7  1  0  0  0  0
  2  3  1  0  0  0  0
  2  4  1  0  0  0  0
  2  5  1  0  0  0  0
  1  2  1  0  0  0  0
 19 20  2  0  0  0  0
 19 21  1  0  0  0  0
 16 17  1  0  0  0  0
 16 18  1  0  0  0  0
 14 15  2  0  0  0  0
 14 16  1  0  0  0  0
 11 12  1  0  0  0  0
 11 13  1  0  0  0  0
 11 14  1  0  0  0  0
  9 10  1  0  0  0  0
  9 11  1  0  0  0  0
  9 19  1  0  0  0  0
  7  8  1  0  0  0  0
  7  9  1  0  0  0  0
 23 24  1  0  0  0  0
 23 25  1  0  0  0  0
 23 26  1  0  0  0  0
 21 22  1  0  0  0  0
 21 23  1  0  0  0  0
M  END
$$$$
default_name
  -OEChem-02102213163D

 26 25  0     1  0  0  0  0  0999 V2000
   -3.0232   -3.6924    1.0038 H   0  0  0  0  0  0  0  0  0  0  0  0
   -3.0082   -2.6684    0.6318 C   0  0  0  0  0  0  0  0  0  0  0  0
   -3.6332   -2.0414    1.2658 H   0  0  0  0  0  0  0  0  0  0  0  0
   -3.3762   -2.6444   -0.3912 H   0  0  0  0  0  0  0  0  0  0  0  0
   -1.5882   -2.1554    0.6658 C   0  0  0  0  0  0  0  0  0  0  0  0
   -0.6832   -2.8764    1.0638 O   0  0  0  0  0  0  0  0  0  0  0  0
   -1.3952   -0.9084    0.2428 N   0  0  0  0  0  0  0  0  0  0  0  0
   -2.1972   -0.3644   -0.0422 H   0  0  0  0  0  0  0  0  0  0  0  0
   -0.1122   -0.1994    0.2658 C   0  0  1  0  0  0  0  0  0  0  0  0
    0.5635   -0.7260    0.9446 H   0  0  0  0  0  0  0  0  0  0  0  0
    0.4924   -0.2204   -1.1558 C   0  0  0  0  0  0  0  0  0  0  0  0
    1.4413    0.3147   -1.1486 H   0  0  0  0  0  0  0  0  0  0  0  0
    0.6831   -1.2515   -1.4498 H   0  0  0  0  0  0  0  0  0  0  0  0
   -0.3801    0.4439   -2.2086 C   0  0  0  0  0  0  0  0  0  0  0  0
   -1.3169    1.1721   -1.9306 O   0  0  0  0  0  0  0  0  0  0  0  0
   -0.1063    0.2068   -3.4685 N   0  0  0  0  0  0  0  0  0  0  0  0
   -0.6884    0.6730   -4.1418 H   0  0  0  0  0  0  0  0  0  0  0  0
    0.6706   -0.3732   -3.7235 H   0  0  0  0  0  0  0  0  0  0  0  0
   -0.3126    1.2341    0.8050 C   0  0  0  0  0  0  0  0  0  0  0  0
   -1.2484    1.9199    0.3934 O   0  0  0  0  0  0  0  0  0  0  0  0
    0.5615    1.6875    1.7087 N   0  0  0  0  0  0  0  0  0  0  0  0
    1.3461    1.0849    1.9358 H   0  0  0  0  0  0  0  0  0  0  0  0
    0.5043    3.0121    2.3242 C   0  0  0  0  0  0  0  0  0  0  0  0
   -0.4649    3.1514    2.8080 H   0  0  0  0  0  0  0  0  0  0  0  0
    1.2959    3.1139    3.0678 H   0  0  0  0  0  0  0  0  0  0  0  0
    0.6273    3.7799    1.5584 H   0  0  0  0  0  0  0  0  0  0  0  0
  5  6  2  0  0  0  0
  5  7  1  0  0  0  0
  2  3  1  0  0  0  0
  2  4  1  0  0  0  0
  2  5  1  0  0  0  0
  1  2  1  0  0  0  0
 19 20  2  0  0  0  0
 19 21  1  0  0  0  0
 16 17  1  0  0  0  0
 16 18  1  0  0  0  0
 14 15  2  0  0  0  0
 14 16  1  0  0  0  0
 11 12  1  0  0  0  0
 11 13  1  0  0  0  0
 11 14  1  0  0  0  0
  9 10  1  0  0  0  0
  9 11  1  0  0  0  0
  9 19  1  0  0  0  0
  7  8  1  0  0  0  0
  7  9  1  0  0  0  0
 23 24  1  0  0  0  0
 23 25  1  0  0  0  0
 23 26  1  0  0  0  0
 21 22  1  0  0  0  0
 21 23  1  0  0  0  0
M  END
$$$$
default_name
  -OEChem-02102213163D

 26 25  0     1  0  0  0  0  0999 V2000
   -3.0232   -3.6924    1.0038 H   0  0  0  0  0  0  0  0  0  0  0  0
   -3.0082   -2.6684    0.6318 C   0  0  0  0  0  0  0  0  0  0  0  0
   -3.6332   -2.0414    1.2658 H   0  0  0  0  0  0  0  0  0  0  0  0
   -3.3762   -2.6444   -0.3912 H   0  0  0  0  0  0  0  0  0  0  0  0
   -1.5882   -2.1554    0.6658 C   0  0  0  0  0  0  0  0  0  0  0  0
   -0.6832   -2.8764    1.0638 O   0  0  0  0  0  0  0  0  0  0  0  0
   -1.3952   -0.9084    0.2428 N   0  0  0  0  0  0  0  0  0  0  0  0
   -2.1972   -0.3644   -0.0422 H   0  0  0  0  0  0  0  0  0  0  0  0
   -0.1122   -0.1994    0.2658 C   0  0  1  0  0  0  0  0  0  0  0  0
    0.5635   -0.7260    0.9446 H   0  0  0  0  0  0  0  0  0  0  0  0
    0.4924   -0.2204   -1.1558 C   0  0  0  0  0  0  0  0  0  0  0  0
    1.4413    0.3147   -1.1486 H   0  0  0  0  0  0  0  0  0  0  0  0
    0.6831   -1.2515   -1.4498 H   0  0  0  0  0  0  0  0  0  0  0  0
   -0.3801    0.4439   -2.2086 C   0  0  0  0  0  0  0  0  0  0  0  0
   -1.1360    1.3664   -1.9580 O   0  0  0  0  0  0  0  0  0  0  0  0
   -0.3126   -0.0123   -3.4357 N   0  0  0  0  0  0  0  0  0  0  0  0
   -0.8871    0.4574   -4.1132 H   0  0  0  0  0  0  0  0  0  0  0  0
    0.3152   -0.7574   -3.6714 H   0  0  0  0  0  0  0  0  0  0  0  0
   -0.3126    1.2341    0.8050 C   0  0  0  0  0  0  0  0  0  0  0  0
   -1.2484    1.9199    0.3934 O   0  0  0  0  0  0  0  0  0  0  0  0
    0.5615    1.6875    1.7087 N   0  0  0  0  0  0  0  0  0  0  0  0
    1.3461    1.0849    1.9358 H   0  0  0  0  0  0  0  0  0  0  0  0
    0.5043    3.0121    2.3242 C   0  0  0  0  0  0  0  0  0  0  0  0
   -0.4649    3.1514    2.8080 H   0  0  0  0  0  0  0  0  0  0  0  0
    1.2959    3.1139    3.0678 H   0  0  0  0  0  0  0  0  0  0  0  0
    0.6273    3.7799    1.5584 H   0  0  0  0  0  0  0  0  0  0  0  0
  5  6  2  0  0  0  0
  5  7  1  0  0  0  0
  2  3  1  0  0  0  0
  2  4  1  0  0  0  0
  2  5  1  0  0  0  0
  1  2  1  0  0  0  0
 19 20  2  0  0  0  0
 19 21  1  0  0  0  0
 16 17  1  0  0  0  0
 16 18  1  0  0  0  0
 14 15  2  0  0  0  0
 14 16  1  0  0  0  0
 11 12  1  0  0  0  0
 11 13  1  0  0  0  0
 11 14  1  0  0  0  0
  9 10  1  0  0  0  0
  9 11  1  0  0  0  0
  9 19  1  0  0  0  0
  7  8  1  0  0  0  0
  7  9  1  0  0  0  0
 23 24  1  0  0  0  0
 23 25  1  0  0  0  0
 23 26  1  0  0  0  0
 21 22  1  0  0  0  0
 21 23  1  0  0  0  0
M  END
$$$$
default_name
  -OEChem-02102213163D

 26 25  0     1  0  0  0  0  0999 V2000
   -3.0232   -3.6924    1.0038 H   0  0  0  0  0  0  0  0  0  0  0  0
   -3.0082   -2.6684    0.6318 C   0  0  0  0  0  0  0  0  0  0  0  0
   -3.6332   -2.0414    1.2658 H   0  0  0  0  0  0  0  0  0  0  0  0
   -3.3762   -2.6444   -0.3912 H   0  0  0  0  0  0  0  0  0  0  0  0
   -1.5882   -2.1554    0.6658 C   0  0  0  0  0  0  0  0  0  0  0  0
   -0.6832   -2.8764    1.0638 O   0  0  0  0  0  0  0  0  0  0  0  0
   -1.3952   -0.9084    0.2428 N   0  0  0  0  0  0  0  0  0  0  0  0
   -2.1972   -0.3644   -0.0422 H   0  0  0  0  0  0  0  0  0  0  0  0
   -0.1122   -0.1994    0.2658 C   0  0  1  0  0  0  0  0  0  0  0  0
    0.5635   -0.7260    0.9446 H   0  0  0  0  0  0  0  0  0  0  0  0
    0.4924   -0.2204   -1.1558 C   0  0  0  0  0  0  0  0  0  0  0  0
    1.4413    0.3147   -1.1486 H   0  0  0  0  0  0  0  0  0  0  0  0
    0.6831   -1.2515   -1.4498 H   0  0  0  0  0  0  0  0  0  0  0  0
   -0.3801    0.4439   -2.2086 C   0  0  0  0  0  0  0  0  0  0  0  0
   -0.9296    1.5176   -2.0337 O   0  0  0  0  0  0  0  0  0  0  0  0
   -0.5474   -0.1820   -3.3482 N   0  0  0  0  0  0  0  0  0  0  0  0
   -1.1145    0.2889   -4.0311 H   0  0  0  0  0  0  0  0  0  0  0  0
   -0.0910   -1.0571   -3.5239 H   0  0  0  0  0  0  0  0  0  0  0  0
   -0.3126    1.2341    0.8050 C   0  0  0  0  0  0  0  0  0  0  0  0
   -1.2484    1.9199    0.3934 O   0  0  0  0  0  0  0  0  0  0  0  0
    0.5615    1.6875    1.7087 N   0  0  0  0  0  0  0  0  0  0  0  0
    1.3461    1.0849    1.9358 H   0  0  0  0  0  0  0  0  0  0  0  0
    0.5043    3.0121    2.3242 C   0  0  0  0  0  0  0  0  0  0  0  0
   -0.4649    3.1514    2.8080 H   0  0  0  0  0  0  0  0  0  0  0  0
    1.2959    3.1139    3.0678 H   0  0  0  0  0  0  0  0  0  0  0  0
    0.6273    3.7799    1.5584 H   0  0  0  0  0  0  0  0  0  0  0  0
  5  6  2  0  0  0  0
  5  7  1  0  0  0  0
  2  3  1  0  0  0  0
  2  4  1  0  0  0  0
  2  5  1  0  0  0  0
  1  2  1  0  0  0  0
 19 20  2  0  0  0  0
 19 21  1  0  0  0  0
 16 17  1  0  0  0  0
 16 18  1  0  0  0  0
 14 15  2  0  0  0  0
 14 16  1  0  0  0  0
 11 12  1  0  0  0  0
 11 13  1  0  0  0  0
 11 14  1  0  0  0  0
  9 10  1  0  0  0  0
  9 11  1  0  0  0  0
  9 19  1  0  0  0  0
  7  8  1  0  0  0  0
  7  9  1  0  0  0  0
 23 24  1  0  0  0  0
 23 25  1  0  0  0  0
 23 26  1  0  0  0  0
 21 22  1  0  0  0  0
 21 23  1  0  0  0  0
M  END
$$$$
default_name
  -OEChem-02102213163D

 26 25  0     1  0  0  0  0  0999 V2000
   -3.0232   -3.6924    1.0038 H   0  0  0  0  0  0  0  0  0  0  0  0
   -3.0082   -2.6684    0.6318 C   0  0  0  0  0  0  0  0  0  0  0  0
   -3.6332   -2.0414    1.2658 H   0  0  0  0  0  0  0  0  0  0  0  0
   -3.3762   -2.6444   -0.3912 H   0  0  0  0  0  0  0  0  0  0  0  0
   -1.5882   -2.1554    0.6658 C   0  0  0  0  0  0  0  0  0  0  0  0
   -0.6832   -2.8764    1.0638 O   0  0  0  0  0  0  0  0  0  0  0  0
   -1.3952   -0.9084    0.2428 N   0  0  0  0  0  0  0  0  0  0  0  0
   -2.1972   -0.3644   -0.0422 H   0  0  0  0  0  0  0  0  0  0  0  0
   -0.1122   -0.1994    0.2658 C   0  0  1  0  0  0  0  0  0  0  0  0
    0.5635   -0.7260    0.9446 H   0  0  0  0  0  0  0  0  0  0  0  0
    0.4924   -0.2204   -1.1558 C   0  0  0  0  0  0  0  0  0  0  0  0
    1.4413    0.3147   -1.1486 H   0  0  0  0  0  0  0  0  0  0  0  0
    0.6831   -1.2515   -1.4498 H   0  0  0  0  0  0  0  0  0  0  0  0
   -0.3801    0.4439   -2.2086 C   0  0  0  0  0  0  0  0  0  0  0  0
   -0.7116    1.6153   -2.1527 O   0  0  0  0  0  0  0  0  0  0  0  0
   -0.7948   -0.2908   -3.2119 N   0  0  0  0  0  0  0  0  0  0  0  0
   -1.3549    0.1792   -3.9011 H   0  0  0  0  0  0  0  0  0  0  0  0
   -0.5204   -1.2518   -3.2909 H   0  0  0  0  0  0  0  0  0  0  0  0
   -0.3126    1.2341    0.8050 C   0  0  0  0  0  0  0  0  0  0  0  0
   -1.2484    1.9199    0.3934 O   0  0  0  0  0  0  0  0  0  0  0  0
    0.5615    1.6875    1.7087 N   0  0  0  0  0  0  0  0  0  0  0  0
    1.3461    1.0849    1.9358 H   0  0  0  0  0  0  0  0  0  0  0  0
    0.5043    3.0121    2.3242 C   0  0  0  0  0  0  0  0  0  0  0  0
   -0.4649    3.1514    2.8080 H   0  0  0  0  0  0  0  0  0  0  0  0
    1.2959    3.1139    3.0678 H   0  0  0  0  0  0  0  0  0  0  0  0
    0.6273    3.7799    1.5584 H   0  0  0  0  0  0  0  0  0  0  0  0
  5  6  2  0  0  0  0
  5  7  1  0  0  0  0
  2  3  1  0  0  0  0
  2  4  1  0  0  0  0
  2  5  1  0  0  0  0
  1  2  1  0  0  0  0
 19 20  2  0  0  0  0
 19 21  1  0  0  0  0
 16 17  1  0  0  0  0
 16 18  1  0  0  0  0
 14 15  2  0  0  0  0
 14 16  1  0  0  0  0
 11 12  1  0  0  0  0
 11 13  1  0  0  0  0
 11 14  1  0  0  0  0
  9 10  1  0  0  0  0
  9 11  1  0  0  0  0
  9 19  1  0  0  0  0
  7  8  1  0  0  0  0
  7  9  1  0  0  0  0
 23 24  1  0  0  0  0
 23 25  1  0  0  0  0
 23 26  1  0  0  0  0
 21 22  1  0  0  0  0
 21 23  1  0  0  0  0
M  END
$$$$
default_name
  -OEChem-02102213163D

 26 25  0     1  0  0  0  0  0999 V2000
   -3.0232   -3.6924    1.0038 H   0  0  0  0  0  0  0  0  0  0  0  0
   -3.0082   -2.6684    0.6318 C   0  0  0  0  0  0  0  0  0  0  0  0
   -3.6332   -2.0414    1.2658 H   0  0  0  0  0  0  0  0  0  0  0  0
   -3.3762   -2.6444   -0.3912 H   0  0  0  0  0  0  0  0  0  0  0  0
   -1.5882   -2.1554    0.6658 C   0  0  0  0  0  0  0  0  0  0  0  0
   -0.6832   -2.8764    1.0638 O   0  0  0  0  0  0  0  0  0  0  0  0
   -1.3952   -0.9084    0.2428 N   0  0  0  0  0  0  0  0  0  0  0  0
   -2.1972   -0.3644   -0.0422 H   0  0  0  0  0  0  0  0  0  0  0  0
   -0.1122   -0.1994    0.2658 C   0  0  1  0  0  0  0  0  0  0  0  0
    0.5635   -0.7260    0.9446 H   0  0  0  0  0  0  0  0  0  0  0  0
    0.4924   -0.2204   -1.1558 C   0  0  0  0  0  0  0  0  0  0  0  0
    1.4413    0.3147   -1.1486 H   0  0  0  0  0  0  0  0  0  0  0  0
    0.6831   -1.2515   -1.4498 H   0  0  0  0  0  0  0  0  0  0  0  0
   -0.3801    0.4439   -2.2086 C   0  0  0  0  0  0  0  0  0  0  0  0
   -0.4969    1.6530   -2.3067 O   0  0  0  0  0  0  0  0  0  0  0  0
   -1.0378   -0.3314   -3.0361 N   0  0  0  0  0  0  0  0  0  0  0  0
   -1.5922    0.1356   -3.7319 H   0  0  0  0  0  0  0  0  0  0  0  0
   -0.9437   -1.3283   -2.9884 H   0  0  0  0  0  0  0  0  0  0  0  0
   -0.3126    1.2341    0.8050 C   0  0  0  0  0  0  0  0  0  0  0  0
   -1.2484    1.9199    0.3934 O   0  0  0  0  0  0  0  0  0  0  0  0
    0.5615    1.6875    1.7087 N   0  0  0  0  0  0  0  0  0  0  0  0
    1.3461    1.0849    1.9358 H   0  0  0  0  0  0  0  0  0  0  0  0
    0.5043    3.0121    2.3242 C   0  0  0  0  0  0  0  0  0  0  0  0
   -0.4649    3.1514    2.8080 H   0  0  0  0  0  0  0  0  0  0  0  0
    1.2959    3.1139    3.0678 H   0  0  0  0  0  0  0  0  0  0  0  0
    0.6273    3.7799    1.5584 H   0  0  0  0  0  0  0  0  0  0  0  0
  5  6  2  0  0  0  0
  5  7  1  0  0  0  0
  2  3  1  0  0  0  0
  2  4  1  0  0  0  0
  2  5  1  0  0  0  0
  1  2  1  0  0  0  0
 19 20  2  0  0  0  0
 19 21  1  0  0  0  0
 16 17  1  0  0  0  0
 16 18  1  0  0  0  0
 14 15  2  0  0  0  0
 14 16  1  0  0  0  0
 11 12  1  0  0  0  0
 11 13  1  0  0  0  0
 11 14  1  0  0  0  0
  9 10  1  0  0  0  0
  9 11  1  0  0  0  0
  9 19  1  0  0  0  0
  7  8  1  0  0  0  0
  7  9  1  0  0  0  0
 23 24  1  0  0  0  0
 23 25  1  0  0  0  0
 23 26  1  0  0  0  0
 21 22  1  0  0  0  0
 21 23  1  0  0  0  0
M  END
$$$$
default_name
  -OEChem-02102213163D

 26 25  0     1  0  0  0  0  0999 V2000
   -3.0232   -3.6924    1.0038 H   0  0  0  0  0  0  0  0  0  0  0  0
   -3.0082   -2.6684    0.6318 C   0  0  0  0  0  0  0  0  0  0  0  0
   -3.6332   -2.0414    1.2658 H   0  0  0  0  0  0  0  0  0  0  0  0
   -3.3762   -2.6444   -0.3912 H   0  0  0  0  0  0  0  0  0  0  0  0
   -1.5882   -2.1554    0.6658 C   0  0  0  0  0  0  0  0  0  0  0  0
   -0.6832   -2.8764    1.0638 O   0  0  0  0  0  0  0  0  0  0  0  0
   -1.3952   -0.9084    0.2428 N   0  0  0  0  0  0  0  0  0  0  0  0
   -2.1972   -0.3644   -0.0422 H   0  0  0  0  0  0  0  0  0  0  0  0
   -0.1122   -0.1994    0.2658 C   0  0  1  0  0  0  0  0  0  0  0  0
    0.5635   -0.7260    0.9446 H   0  0  0  0  0  0  0  0  0  0  0  0
    0.4924   -0.2204   -1.1558 C   0  0  0  0  0  0  0  0  0  0  0  0
    1.4413    0.3147   -1.1486 H   0  0  0  0  0  0  0  0  0  0  0  0
    0.6831   -1.2515   -1.4498 H   0  0  0  0  0  0  0  0  0  0  0  0
   -0.3801    0.4439   -2.2086 C   0  0  0  0  0  0  0  0  0  0  0  0
   -0.3003    1.6281   -2.4854 O   0  0  0  0  0  0  0  0  0  0  0  0
   -1.2599   -0.3009   -2.8328 N   0  0  0  0  0  0  0  0  0  0  0  0
   -1.8101    0.1611   -3.5353 H   0  0  0  0  0  0  0  0  0  0  0  0
   -1.3321   -1.2814   -2.6369 H   0  0  0  0  0  0  0  0  0  0  0  0
   -0.3126    1.2341    0.8050 C   0  0  0  0  0  0  0  0  0  0  0  0
   -1.2484    1.9199    0.3934 O   0  0  0  0  0  0  0  0  0  0  0  0
    0.5615    1.6875    1.7087 N   0  0  0  0  0  0  0  0  0  0  0  0
    1.3461    1.0849    1.9358 H   0  0  0  0  0  0  0  0  0  0  0  0
    0.5043    3.0121    2.3242 C   0  0  0  0  0  0  0  0  0  0  0  0
   -0.4649    3.1514    2.8080 H   0  0  0  0  0  0  0  0  0  0  0  0
    1.2959    3.1139    3.0678 H   0  0  0  0  0  0  0  0  0  0  0  0
    0.6273    3.7799    1.5584 H   0  0  0  0  0  0  0  0  0  0  0  0
  5  6  2  0  0  0  0
  5  7  1  0  0  0  0
  2  3  1  0  0  0  0
  2  4  1  0  0  0  0
  2  5  1  0  0  0  0
  1  2  1  0  0  0  0
 19 20  2  0  0  0  0
 19 21  1  0  0  0  0
 16 17  1  0  0  0  0
 16 18  1  0  0  0  0
 14 15  2  0  0  0  0
 14 16  1  0  0  0  0
 11 12  1  0  0  0  0
 11 13  1  0  0  0  0
 11 14  1  0  0  0  0
  9 10  1  0  0  0  0
  9 11  1  0  0  0  0
  9 19  1  0  0  0  0
  7  8  1  0  0  0  0
  7  9  1  0  0  0  0
 23 24  1  0  0  0  0
 23 25  1  0  0  0  0
 23 26  1  0  0  0  0
 21 22  1  0  0  0  0
 21 23  1  0  0  0  0
M  END
$$$$
default_name
  -OEChem-02102213163D

 26 25  0     1  0  0  0  0  0999 V2000
   -3.0232   -3.6924    1.0038 H   0  0  0  0  0  0  0  0  0  0  0  0
   -3.0082   -2.6684    0.6318 C   0  0  0  0  0  0  0  0  0  0  0  0
   -3.6332   -2.0414    1.2658 H   0  0  0  0  0  0  0  0  0  0  0  0
   -3.3762   -2.6444   -0.3912 H   0  0  0  0  0  0  0  0  0  0  0  0
   -1.5882   -2.1554    0.6658 C   0  0  0  0  0  0  0  0  0  0  0  0
   -0.6832   -2.8764    1.0638 O   0  0  0  0  0  0  0  0  0  0  0  0
   -1.3952   -0.9084    0.2428 N   0  0  0  0  0  0  0  0  0  0  0  0
   -2.1972   -0.3644   -0.0422 H   0  0  0  0  0  0  0  0  0  0  0  0
   -0.1122   -0.1994    0.2658 C   0  0  1  0  0  0  0  0  0  0  0  0
    0.5635   -0.7260    0.9446 H   0  0  0  0  0  0  0  0  0  0  0  0
    0.4924   -0.2204   -1.1558 C   0  0  0  0  0  0  0  0  0  0  0  0
    1.4413    0.3147   -1.1486 H   0  0  0  0  0  0  0  0  0  0  0  0
    0.6831   -1.2515   -1.4498 H   0  0  0  0  0  0  0  0  0  0  0  0
   -0.3801    0.4439   -2.2086 C   0  0  0  0  0  0  0  0  0  0  0  0
   -0.1351    1.5422   -2.6766 O   0  0  0  0  0  0  0  0  0  0  0  0
   -1.4460   -0.2014   -2.6158 N   0  0  0  0  0  0  0  0  0  0  0  0
   -1.9937    0.2541   -3.3245 H   0  0  0  0  0  0  0  0  0  0  0  0
   -1.6591   -1.1143   -2.2604 H   0  0  0  0  0  0  0  0  0  0  0  0
   -0.3126    1.2341    0.8050 C   0  0  0  0  0  0  0  0  0  0  0  0
   -1.2484    1.9199    0.3934 O   0  0  0  0  0  0  0  0  0  0  0  0
    0.5615    1.6875    1.7087 N   0  0  0  0  0  0  0  0  0  0  0  0
    1.3461    1.0849    1.9358 H   0  0  0  0  0  0  0  0  0  0  0  0
    0.5043    3.0121    2.3242 C   0  0  0  0  0  0  0  0  0  0  0  0
   -0.4649    3.1514    2.8080 H   0  0  0  0  0  0  0  0  0  0  0  0
    1.2959    3.1139    3.0678 H   0  0  0  0  0  0  0  0  0  0  0  0
    0.6273    3.7799    1.5584 H   0  0  0  0  0  0  0  0  0  0  0  0
  5  6  2  0  0  0  0
  5  7  1  0  0  0  0
  2  3  1  0  0  0  0
  2  4  1  0  0  0  0
  2  5  1  0  0  0  0
  1  2  1  0  0  0  0
 19 20  2  0  0  0  0
 19 21  1  0  0  0  0
 16 17  1  0  0  0  0
 16 18  1  0  0  0  0
 14 15  2  0  0  0  0
 14 16  1  0  0  0  0
 11 12  1  0  0  0  0
 11 13  1  0  0  0  0
 11 14  1  0  0  0  0
  9 10  1  0  0  0  0
  9 11  1  0  0  0  0
  9 19  1  0  0  0  0
  7  8  1  0  0  0  0
  7  9  1  0  0  0  0
 23 24  1  0  0  0  0
 23 25  1  0  0  0  0
 23 26  1  0  0  0  0
 21 22  1  0  0  0  0
 21 23  1  0  0  0  0
M  END
$$$$
default_name
  -OEChem-02102213163D

 26 25  0     1  0  0  0  0  0999 V2000
   -3.0232   -3.6924    1.0038 H   0  0  0  0  0  0  0  0  0  0  0  0
   -3.0082   -2.6684    0.6318 C   0  0  0  0  0  0  0  0  0  0  0  0
   -3.6332   -2.0414    1.2658 H   0  0  0  0  0  0  0  0  0  0  0  0
   -3.3762   -2.6444   -0.3912 H   0  0  0  0  0  0  0  0  0  0  0  0
   -1.5882   -2.1554    0.6658 C   0  0  0  0  0  0  0  0  0  0  0  0
   -0.6832   -2.8764    1.0638 O   0  0  0  0  0  0  0  0  0  0  0  0
   -1.3952   -0.9084    0.2428 N   0  0  0  0  0  0  0  0  0  0  0  0
   -2.1972   -0.3644   -0.0422 H   0  0  0  0  0  0  0  0  0  0  0  0
   -0.1122   -0.1994    0.2658 C   0  0  1  0  0  0  0  0  0  0  0  0
    0.5635   -0.7260    0.9446 H   0  0  0  0  0  0  0  0  0  0  0  0
    0.4924   -0.2204   -1.1558 C   0  0  0  0  0  0  0  0  0  0  0  0
    1.4413    0.3147   -1.1486 H   0  0  0  0  0  0  0  0  0  0  0  0
    0.6831   -1.2515   -1.4498 H   0  0  0  0  0  0  0  0  0  0  0  0
   -0.3801    0.4439   -2.2086 C   0  0  0  0  0  0  0  0  0  0  0  0
   -0.0124    1.4012   -2.8672 O   0  0  0  0  0  0  0  0  0  0  0  0
   -1.5833   -0.0398   -2.4000 N   0  0  0  0  0  0  0  0  0  0  0  0
   -2.1305    0.4081   -3.1139 H   0  0  0  0  0  0  0  0  0  0  0  0
   -1.9024   -0.8383   -1.8846 H   0  0  0  0  0  0  0  0  0  0  0  0
   -0.3126    1.2341    0.8050 C   0  0  0  0  0  0  0  0  0  0  0  0
   -1.2484    1.9199    0.3934 O   0  0  0  0  0  0  0  0  0  0  0  0
    0.5615    1.6875    1.7087 N   0  0  0  0  0  0  0  0  0  0  0  0
    1.3461    1.0849    1.9358 H   0  0  0  0  0  0  0  0  0  0  0  0
    0.5043    3.0121    2.3242 C   0  0  0  0  0  0  0  0  0  0  0  0
   -0.4649    3.1514    2.8080 H   0  0  0  0  0  0  0  0  0  0  0  0
    1.2959    3.1139    3.0678 H   0  0  0  0  0  0  0  0  0  0  0  0
    0.6273    3.7799    1.5584 H   0  0  0  0  0  0  0  0  0  0  0  0
  5  6  2  0  0  0  0
  5  7  1  0  0  0  0
  2  3  1  0  0  0  0
  2  4  1  0  0  0  0
  2  5  1  0  0  0  0
  1  2  1  0  0  0  0
 19 20  2  0  0  0  0
 19 21  1  0  0  0  0
 16 17  1  0  0  0  0
 16 18  1  0  0  0  0
 14 15  2  0  0  0  0
 14 16  1  0  0  0  0
 11 12  1  0  0  0  0
 11 13  1  0  0  0  0
 11 14  1  0  0  0  0
  9 10  1  0  0  0  0
  9 11  1  0  0  0  0
  9 19  1  0  0  0  0
  7  8  1  0  0  0  0
  7  9  1  0  0  0  0
 23 24  1  0  0  0  0
 23 25  1  0  0  0  0
 23 26  1  0  0  0  0
 21 22  1  0  0  0  0
 21 23  1  0  0  0  0
M  END
$$$$
default_name
  -OEChem-02102213163D

 26 25  0     1  0  0  0  0  0999 V2000
   -3.0232   -3.6924    1.0038 H   0  0  0  0  0  0  0  0  0  0  0  0
   -3.0082   -2.6684    0.6318 C   0  0  0  0  0  0  0  0  0  0  0  0
   -3.6332   -2.0414    1.2658 H   0  0  0  0  0  0  0  0  0  0  0  0
   -3.3762   -2.6444   -0.3912 H   0  0  0  0  0  0  0  0  0  0  0  0
   -1.5882   -2.1554    0.6658 C   0  0  0  0  0  0  0  0  0  0  0  0
   -0.6832   -2.8764    1.0638 O   0  0  0  0  0  0  0  0  0  0  0  0
   -1.3952   -0.9084    0.2428 N   0  0  0  0  0  0  0  0  0  0  0  0
   -2.1972   -0.3644   -0.0422 H   0  0  0  0  0  0  0  0  0  0  0  0
   -0.1122   -0.1994    0.2658 C   0  0  1  0  0  0  0  0  0  0  0  0
    0.5635   -0.7260    0.9446 H   0  0  0  0  0  0  0  0  0  0  0  0
    0.4924   -0.2204   -1.1558 C   0  0  0  0  0  0  0  0  0  0  0  0
    1.4413    0.3147   -1.1486 H   0  0  0  0  0  0  0  0  0  0  0  0
    0.6831   -1.2515   -1.4498 H   0  0  0  0  0  0  0  0  0  0  0  0
   -0.3801    0.4439   -2.2086 C   0  0  0  0  0  0  0  0  0  0  0  0
    0.0592    1.2148   -3.0442 O   0  0  0  0  0  0  0  0  0  0  0  0
   -1.6626    0.1731   -2.1999 N   0  0  0  0  0  0  0  0  0  0  0  0
   -2.2113    0.6127   -2.9179 H   0  0  0  0  0  0  0  0  0  0  0  0
   -2.0454   -0.4723   -1.5351 H   0  0  0  0  0  0  0  0  0  0  0  0
   -0.3126    1.2341    0.8050 C   0  0  0  0  0  0  0  0  0  0  0  0
   -1.2484    1.9199    0.3934 O   0  0  0  0  0  0  0  0  0  0  0  0
    0.5615    1.6875    1.7087 N   0  0  0  0  0  0  0  0  0  0  0  0
    1.3461    1.0849    1.9358 H   0  0  0  0  0  0  0  0  0  0  0  0
    0.5043    3.0121    2.3242 C   0  0  0  0  0  0  0  0  0  0  0  0
   -0.4649    3.1514    2.8080 H   0  0  0  0  0  0  0  0  0  0  0  0
    1.2959    3.1139    3.0678 H   0  0  0  0  0  0  0  0  0  0  0  0
    0.6273    3.7799    1.5584 H   0  0  0  0  0  0  0  0  0  0  0  0
  5  6  2  0  0  0  0
  5  7  1  0  0  0  0
  2  3  1  0  0  0  0
  2  4  1  0  0  0  0
  2  5  1  0  0  0  0
  1  2  1  0  0  0  0
 19 20  2  0  0  0  0
 19 21  1  0  0  0  0
 16 17  1  0  0  0  0
 16 18  1  0  0  0  0
 14 15  2  0  0  0  0
 14 16  1  0  0  0  0
 11 12  1  0  0  0  0
 11 13  1  0  0  0  0
 11 14  1  0  0  0  0
  9 10  1  0  0  0  0
  9 11  1  0  0  0  0
  9 19  1  0  0  0  0
  7  8  1  0  0  0  0
  7  9  1  0  0  0  0
 23 24  1  0  0  0  0
 23 25  1  0  0  0  0
 23 26  1  0  0  0  0
 21 22  1  0  0  0  0
 21 23  1  0  0  0  0
M  END
$$$$
default_name
  -OEChem-02102213163D

 26 25  0     1  0  0  0  0  0999 V2000
   -3.0232   -3.6924    1.0038 H   0  0  0  0  0  0  0  0  0  0  0  0
   -3.0082   -2.6684    0.6318 C   0  0  0  0  0  0  0  0  0  0  0  0
   -3.6332   -2.0414    1.2658 H   0  0  0  0  0  0  0  0  0  0  0  0
   -3.3762   -2.6444   -0.3912 H   0  0  0  0  0  0  0  0  0  0  0  0
   -1.5882   -2.1554    0.6658 C   0  0  0  0  0  0  0  0  0  0  0  0
   -0.6832   -2.8764    1.0638 O   0  0  0  0  0  0  0  0  0  0  0  0
   -1.3952   -0.9084    0.2428 N   0  0  0  0  0  0  0  0  0  0  0  0
   -2.1972   -0.3644   -0.0422 H   0  0  0  0  0  0  0  0  0  0  0  0
   -0.1122   -0.1994    0.2658 C   0  0  1  0  0  0  0  0  0  0  0  0
    0.5635   -0.7260    0.9446 H   0  0  0  0  0  0  0  0  0  0  0  0
    0.4924   -0.2204   -1.1558 C   0  0  0  0  0  0  0  0  0  0  0  0
    1.4413    0.3147   -1.1486 H   0  0  0  0  0  0  0  0  0  0  0  0
    0.6831   -1.2515   -1.4498 H   0  0  0  0  0  0  0  0  0  0  0  0
   -0.3801    0.4439   -2.2086 C   0  0  0  0  0  0  0  0  0  0  0  0
    0.0749    0.9955   -3.1955 O   0  0  0  0  0  0  0  0  0  0  0  0
   -1.6784    0.4226   -2.0294 N   0  0  0  0  0  0  0  0  0  0  0  0
   -2.2305    0.8538   -2.7498 H   0  0  0  0  0  0  0  0  0  0  0  0
   -2.0785   -0.0412   -1.2357 H   0  0  0  0  0  0  0  0  0  0  0  0
   -0.3126    1.2341    0.8050 C   0  0  0  0  0  0  0  0  0  0  0  0
   -1.2484    1.9199    0.3934 O   0  0  0  0  0  0  0  0  0  0  0  0
    0.5615    1.6875    1.7087 N   0  0  0  0  0  0  0  0  0  0  0  0
    1.3461    1.0849    1.9358 H   0  0  0  0  0  0  0  0  0  0  0  0
    0.5043    3.0121    2.3242 C   0  0  0  0  0  0  0  0  0  0  0  0
   -0.4649    3.1514    2.8080 H   0  0  0  0  0  0  0  0  0  0  0  0
    1.2959    3.1139    3.0678 H   0  0  0  0  0  0  0  0  0  0  0  0
    0.6273    3.7799    1.5584 H   0  0  0  0  0  0  0  0  0  0  0  0
  5  6  2  0  0  0  0
  5  7  1  0  0  0  0
  2  3  1  0  0  0  0
  2  4  1  0  0  0  0
  2  5  1  0  0  0  0
  1  2  1  0  0  0  0
 19 20  2  0  0  0  0
 19 21  1  0  0  0  0
 16 17  1  0  0  0  0
 16 18  1  0  0  0  0
 14 15  2  0  0  0  0
 14 16  1  0  0  0  0
 11 12  1  0  0  0  0
 11 13  1  0  0  0  0
 11 14  1  0  0  0  0
  9 10  1  0  0  0  0
  9 11  1  0  0  0  0
  9 19  1  0  0  0  0
  7  8  1  0  0  0  0
  7  9  1  0  0  0  0
 23 24  1  0  0  0  0
 23 25  1  0  0  0  0
 23 26  1  0  0  0  0
 21 22  1  0  0  0  0
 21 23  1  0  0  0  0
M  END
$$$$
default_name
  -OEChem-02102213163D

 26 25  0     1  0  0  0  0  0999 V2000
   -3.0232   -3.6924    1.0038 H   0  0  0  0  0  0  0  0  0  0  0  0
   -3.0082   -2.6684    0.6318 C   0  0  0  0  0  0  0  0  0  0  0  0
   -3.6332   -2.0414    1.2658 H   0  0  0  0  0  0  0  0  0  0  0  0
   -3.3762   -2.6444   -0.3912 H   0  0  0  0  0  0  0  0  0  0  0  0
   -1.5882   -2.1554    0.6658 C   0  0  0  0  0  0  0  0  0  0  0  0
   -0.6832   -2.8764    1.0638 O   0  0  0  0  0  0  0  0  0  0  0  0
   -1.3952   -0.9084    0.2428 N   0  0  0  0  0  0  0  0  0  0  0  0
   -2.1972   -0.3644   -0.0422 H   0  0  0  0  0  0  0  0  0  0  0  0
   -0.1122   -0.1994    0.2658 C   0  0  1  0  0  0  0  0  0  0  0  0
    0.5635   -0.7260    0.9446 H   0  0  0  0  0  0  0  0  0  0  0  0
    0.4924   -0.2204   -1.1558 C   0  0  0  0  0  0  0  0  0  0  0  0
    1.4413    0.3147   -1.1486 H   0  0  0  0  0  0  0  0  0  0  0  0
    0.6831   -1.2515   -1.4498 H   0  0  0  0  0  0  0  0  0  0  0  0
   -0.3801    0.4439   -2.2086 C   0  0  0  0  0  0  0  0  0  0  0  0
    0.0337    0.7584   -3.3110 O   0  0  0  0  0  0  0  0  0  0  0  0
   -1.6297    0.6918   -1.8999 N   0  0  0  0  0  0  0  0  0  0  0  0
   -2.1867    1.1152   -2.6211 H   0  0  0  0  0  0  0  0  0  0  0  0
   -1.9993    0.4256   -1.0068 H   0  0  0  0  0  0  0  0  0  0  0  0
   -0.3126    1.2341    0.8050 C   0  0  0  0  0  0  0  0  0  0  0  0
   -1.2484    1.9199    0.3934 O   0  0  0  0  0  0  0  0  0  0  0  0
    0.5615    1.6875    1.7087 N   0  0  0  0  0  0  0  0  0  0  0  0
    1.3461    1.0849    1.9358 H   0  0  0  0  0  0  0  0  0  0  0  0
    0.5043    3.0121    2.3242 C   0  0  0  0  0  0  0  0  0  0  0  0
   -0.4649    3.1514    2.8080 H   0  0  0  0  0  0  0  0  0  0  0  0
    1.2959    3.1139    3.0678 H   0  0  0  0  0  0  0  0  0  0  0  0
    0.6273    3.7799    1.5584 H   0  0  0  0  0  0  0  0  0  0  0  0
  5  6  2  0  0  0  0
  5  7  1  0  0  0  0
  2  3  1  0  0  0  0
  2  4  1  0  0  0  0
  2  5  1  0  0  0  0
  1  2  1  0  0  0  0
 19 20  2  0  0  0  0
 19 21  1  0  0  0  0
 16 17  1  0  0  0  0
 16 18  1  0  0  0  0
 14 15  2  0  0  0  0
 14 16  1  0  0  0  0
 11 12  1  0  0  0  0
 11 13  1  0  0  0  0
 11 14  1  0  0  0  0
  9 10  1  0  0  0  0
  9 11  1  0  0  0  0
  9 19  1  0  0  0  0
  7  8  1  0  0  0  0
  7  9  1  0  0  0  0
 23 24  1  0  0  0  0
 23 25  1  0  0  0  0
 23 26  1  0  0  0  0
 21 22  1  0  0  0  0
 21 23  1  0  0  0  0
M  END
$$$$
default_name
  -OEChem-02102213163D

 26 25  0     1  0  0  0  0  0999 V2000
   -3.0232   -3.6924    1.0038 H   0  0  0  0  0  0  0  0  0  0  0  0
   -3.0082   -2.6684    0.6318 C   0  0  0  0  0  0  0  0  0  0  0  0
   -3.6332   -2.0414    1.2658 H   0  0  0  0  0  0  0  0  0  0  0  0
   -3.3762   -2.6444   -0.3912 H   0  0  0  0  0  0  0  0  0  0  0  0
   -1.5882   -2.1554    0.6658 C   0  0  0  0  0  0  0  0  0  0  0  0
   -0.6832   -2.8764    1.0638 O   0  0  0  0  0  0  0  0  0  0  0  0
   -1.3952   -0.9084    0.2428 N   0  0  0  0  0  0  0  0  0  0  0  0
   -2.1972   -0.3644   -0.0422 H   0  0  0  0  0  0  0  0  0  0  0  0
   -0.1122   -0.1994    0.2658 C   0  0  1  0  0  0  0  0  0  0  0  0
    0.5635   -0.7260    0.9446 H   0  0  0  0  0  0  0  0  0  0  0  0
    0.4924   -0.2204   -1.1558 C   0  0  0  0  0  0  0  0  0  0  0  0
    1.5412    0.0696   -1.1025 H   0  0  0  0  0  0  0  0  0  0  0  0
    0.4368   -1.2322   -1.5548 H   0  0  0  0  0  0  0  0  0  0  0  0
   -0.1802    0.7354   -2.1279 C   0  0  0  0  0  0  0  0  0  0  0  0
    0.1656    0.8511   -3.2908 O   0  0  0  0  0  0  0  0  0  0  0  0
   -1.1697    1.4686   -1.6790 N   0  0  0  0  0  0  0  0  0  0  0  0
   -1.6063    2.0780   -2.3481 H   0  0  0  0  0  0  0  0  0  0  0  0
   -1.4855    1.3783   -0.7318 H   0  0  0  0  0  0  0  0  0  0  0  0
   -0.3126    1.2341    0.8050 C   0  0  0  0  0  0  0  0  0  0  0  0
   -1.2484    1.9199    0.3934 O   0  0  0  0  0  0  0  0  0  0  0  0
    0.5615    1.6875    1.7087 N   0  0  0  0  0  0  0  0  0  0  0  0
    1.3461    1.0849    1.9358 H   0  0  0  0  0  0  0  0  0  0  0  0
    0.5043    3.0121    2.3242 C   0  0  0  0  0  0  0  0  0  0  0  0
   -0.4649    3.1514    2.8080 H   0  0  0  0  0  0  0  0  0  0  0  0
    1.2959    3.1139    3.0678 H   0  0  0  0  0  0  0  0  0  0  0  0
    0.6273    3.7799    1.5584 H   0  0  0  0  0  0  0  0  0  0  0  0
  5  6  2  0  0  0  0
  5  7  1  0  0  0  0
  2  3  1  0  0  0  0
  2  4  1  0  0  0  0
  2  5  1  0  0  0  0
  1  2  1  0  0  0  0
 19 20  2  0  0  0  0
 19 21  1  0  0  0  0
 16 17  1  0  0  0  0
 16 18  1  0  0  0  0
 14 15  2  0  0  0  0
 14 16  1  0  0  0  0
 11 12  1  0  0  0  0
 11 13  1  0  0  0  0
 11 14  1  0  0  0  0
  9 10  1  0  0  0  0
  9 11  1  0  0  0  0
  9 19  1  0  0  0  0
  7  8  1  0  0  0  0
  7  9  1  0  0  0  0
 23 24  1  0  0  0  0
 23 25  1  0  0  0  0
 23 26  1  0  0  0  0
 21 22  1  0  0  0  0
 21 23  1  0  0  0  0
M  END
$$$$
default_name
  -OEChem-02102213163D

 26 25  0     1  0  0  0  0  0999 V2000
   -3.0232   -3.6924    1.0038 H   0  0  0  0  0  0  0  0  0  0  0  0
   -3.0082   -2.6684    0.6318 C   0  0  0  0  0  0  0  0  0  0  0  0
   -3.6332   -2.0414    1.2658 H   0  0  0  0  0  0  0  0  0  0  0  0
   -3.3762   -2.6444   -0.3912 H   0  0  0  0  0  0  0  0  0  0  0  0
   -1.5882   -2.1554    0.6658 C   0  0  0  0  0  0  0  0  0  0  0  0
   -0.6832   -2.8764    1.0638 O   0  0  0  0  0  0  0  0  0  0  0  0
   -1.3952   -0.9084    0.2428 N   0  0  0  0  0  0  0  0  0  0  0  0
   -2.1972   -0.3644   -0.0422 H   0  0  0  0  0  0  0  0  0  0  0  0
   -0.1122   -0.1994    0.2658 C   0  0  1  0  0  0  0  0  0  0  0  0
    0.5635   -0.7260    0.9446 H   0  0  0  0  0  0  0  0  0  0  0  0
    0.4924   -0.2204   -1.1558 C   0  0  0  0  0  0  0  0  0  0  0  0
    1.5412    0.0696   -1.1025 H   0  0  0  0  0  0  0  0  0  0  0  0
    0.4368   -1.2322   -1.5548 H   0  0  0  0  0  0  0  0  0  0  0  0
   -0.1802    0.7354   -2.1279 C   0  0  0  0  0  0  0  0  0  0  0  0
   -0.0263    0.6710   -3.3352 O   0  0  0  0  0  0  0  0  0  0  0  0
   -0.9508    1.6719   -1.6305 N   0  0  0  0  0  0  0  0  0  0  0  0
   -1.3957    2.2777   -2.2975 H   0  0  0  0  0  0  0  0  0  0  0  0
   -1.1088    1.7343   -0.6425 H   0  0  0  0  0  0  0  0  0  0  0  0
   -0.3126    1.2341    0.8050 C   0  0  0  0  0  0  0  0  0  0  0  0
   -1.2484    1.9199    0.3934 O   0  0  0  0  0  0  0  0  0  0  0  0
    0.5615    1.6875    1.7087 N   0  0  0  0  0  0  0  0  0  0  0  0
    1.3461    1.0849    1.9358 H   0  0  0  0  0  0  0  0  0  0  0  0
    0.5043    3.0121    2.3242 C   0  0  0  0  0  0  0  0  0  0  0  0
   -0.4649    3.1514    2.8080 H   0  0  0  0  0  0  0  0  0  0  0  0
    1.2959    3.1139    3.0678 H   0  0  0  0  0  0  0  0  0  0  0  0
    0.6273    3.7799    1.5584 H   0  0  0  0  0  0  0  0  0  0  0  0
  5  6  2  0  0  0  0
  5  7  1  0  0  0  0
  2  3  1  0  0  0  0
  2  4  1  0  0  0  0
  2  5  1  0  0  0  0
  1  2  1  0  0  0  0
 19 20  2  0  0  0  0
 19 21  1  0  0  0  0
 16 17  1  0  0  0  0
 16 18  1  0  0  0  0
 14 15  2  0  0  0  0
 14 16  1  0  0  0  0
 11 12  1  0  0  0  0
 11 13  1  0  0  0  0
 11 14  1  0  0  0  0
  9 10  1  0  0  0  0
  9 11  1  0  0  0  0
  9 19  1  0  0  0  0
  7  8  1  0  0  0  0
  7  9  1  0  0  0  0
 23 24  1  0  0  0  0
 23 25  1  0  0  0  0
 23 26  1  0  0  0  0
 21 22  1  0  0  0  0
 21 23  1  0  0  0  0
M  END
$$$$
default_name
  -OEChem-02102213163D

 26 25  0     1  0  0  0  0  0999 V2000
   -3.0232   -3.6924    1.0038 H   0  0  0  0  0  0  0  0  0  0  0  0
   -3.0082   -2.6684    0.6318 C   0  0  0  0  0  0  0  0  0  0  0  0
   -3.6332   -2.0414    1.2658 H   0  0  0  0  0  0  0  0  0  0  0  0
   -3.3762   -2.6444   -0.3912 H   0  0  0  0  0  0  0  0  0  0  0  0
   -1.5882   -2.1554    0.6658 C   0  0  0  0  0  0  0  0  0  0  0  0
   -0.6832   -2.8764    1.0638 O   0  0  0  0  0  0  0  0  0  0  0  0
   -1.3952   -0.9084    0.2428 N   0  0  0  0  0  0  0  0  0  0  0  0
   -2.1972   -0.3644   -0.0422 H   0  0  0  0  0  0  0  0  0  0  0  0
   -0.1122   -0.1994    0.2658 C   0  0  1  0  0  0  0  0  0  0  0  0
    0.5635   -0.7260    0.9446 H   0  0  0  0  0  0  0  0  0  0  0  0
    0.4924   -0.2204   -1.1558 C   0  0  0  0  0  0  0  0  0  0  0  0
    1.5412    0.0696   -1.1025 H   0  0  0  0  0  0  0  0  0  0  0  0
    0.4368   -1.2322   -1.5548 H   0  0  0  0  0  0  0  0  0  0  0  0
   -0.1802    0.7354   -2.1279 C   0  0  0  0  0  0  0  0  0  0  0  0
   -0.2486    0.5237   -3.3262 O   0  0  0  0  0  0  0  0  0  0  0  0
   -0.6979    1.8376   -1.6426 N   0  0  0  0  0  0  0  0  0  0  0  0
   -1.1510    2.4415   -2.3057 H   0  0  0  0  0  0  0  0  0  0  0  0
   -0.6714    2.0259   -0.6583 H   0  0  0  0  0  0  0  0  0  0  0  0
   -0.3126    1.2341    0.8050 C   0  0  0  0  0  0  0  0  0  0  0  0
   -1.2484    1.9199    0.3934 O   0  0  0  0  0  0  0  0  0  0  0  0
    0.5615    1.6875    1.7087 N   0  0  0  0  0  0  0  0  0  0  0  0
    1.3461    1.0849    1.9358 H   0  0  0  0  0  0  0  0  0  0  0  0
    0.5043    3.0121    2.3242 C   0  0  0  0  0  0  0  0  0  0  0  0
   -0.4649    3.1514    2.8080 H   0  0  0  0  0  0  0  0  0  0  0  0
    1.2959    3.1139    3.0678 H   0  0  0  0  0  0  0  0  0  0  0  0
    0.6273    3.7799    1.5584 H   0  0  0  0  0  0  0  0  0  0  0  0
  5  6  2  0  0  0  0
  5  7  1  0  0  0  0
  2  3  1  0  0  0  0
  2  4  1  0  0  0  0
  2  5  1  0  0  0  0
  1  2  1  0  0  0  0
 19 20  2  0  0  0  0
 19 21  1  0  0  0  0
 16 17  1  0  0  0  0
 16 18  1  0  0  0  0
 14 15  2  0  0  0  0
 14 16  1  0  0  0  0
 11 12  1  0  0  0  0
 11 13  1  0  0  0  0
 11 14  1  0  0  0  0
  9 10  1  0  0  0  0
  9 11  1  0  0  0  0
  9 19  1  0  0  0  0
  7  8  1  0  0  0  0
  7  9  1  0  0  0  0
 23 24  1  0  0  0  0
 23 25  1  0  0  0  0
 23 26  1  0  0  0  0
 21 22  1  0  0  0  0
 21 23  1  0  0  0  0
M  END
$$$$
default_name
  -OEChem-02102213163D

 26 25  0     1  0  0  0  0  0999 V2000
   -3.0232   -3.6924    1.0038 H   0  0  0  0  0  0  0  0  0  0  0  0
   -3.0082   -2.6684    0.6318 C   0  0  0  0  0  0  0  0  0  0  0  0
   -3.6332   -2.0414    1.2658 H   0  0  0  0  0  0  0  0  0  0  0  0
   -3.3762   -2.6444   -0.3912 H   0  0  0  0  0  0  0  0  0  0  0  0
   -1.5882   -2.1554    0.6658 C   0  0  0  0  0  0  0  0  0  0  0  0
   -0.6832   -2.8764    1.0638 O   0  0  0  0  0  0  0  0  0  0  0  0
   -1.3952   -0.9084    0.2428 N   0  0  0  0  0  0  0  0  0  0  0  0
   -2.1972   -0.3644   -0.0422 H   0  0  0  0  0  0  0  0  0  0  0  0
   -0.1122   -0.1994    0.2658 C   0  0  1  0  0  0  0  0  0  0  0  0
    0.5635   -0.7260    0.9446 H   0  0  0  0  0  0  0  0  0  0  0  0
    0.4924   -0.2204   -1.1558 C   0  0  0  0  0  0  0  0  0  0  0  0
    1.5412    0.0696   -1.1025 H   0  0  0  0  0  0  0  0  0  0  0  0
    0.4368   -1.2322   -1.5548 H   0  0  0  0  0  0  0  0  0  0  0  0
   -0.1802    0.7354   -2.1279 C   0  0  0  0  0  0  0  0  0  0  0  0
   -0.4863    0.4193   -3.2644 O   0  0  0  0  0  0  0  0  0  0  0  0
   -0.4281    1.9544   -1.7145 N   0  0  0  0  0  0  0  0  0  0  0  0
   -0.8888    2.5583   -2.3723 H   0  0  0  0  0  0  0  0  0  0  0  0
   -0.2033    2.2334   -0.7782 H   0  0  0  0  0  0  0  0  0  0  0  0
   -0.3126    1.2341    0.8050 C   0  0  0  0  0  0  0  0  0  0  0  0
   -1.2484    1.9199    0.3934 O   0  0  0  0  0  0  0  0  0  0  0  0
    0.5615    1.6875    1.7087 N   0  0  0  0  0  0  0  0  0  0  0  0
    1.3461    1.0849    1.9358 H   0  0  0  0  0  0  0  0  0  0  0  0
    0.5043    3.0121    2.3242 C   0  0  0  0  0  0  0  0  0  0  0  0
   -0.4649    3.1514    2.8080 H   0  0  0  0  0  0  0  0  0  0  0  0
    1.2959    3.1139    3.0678 H   0  0  0  0  0  0  0  0  0  0  0  0
    0.6273    3.7799    1.5584 H   0  0  0  0  0  0  0  0  0  0  0  0
  5  6  2  0  0  0  0
  5  7  1  0  0  0  0
  2  3  1  0  0  0  0
  2  4  1  0  0  0  0
  2  5  1  0  0  0  0
  1  2  1  0  0  0  0
 19 20  2  0  0  0  0
 19 21  1  0  0  0  0
 16 17  1  0  0  0  0
 16 18  1  0  0  0  0
 14 15  2  0  0  0  0
 14 16  1  0  0  0  0
 11 12  1  0  0  0  0
 11 13  1  0  0  0  0
 11 14  1  0  0  0  0
  9 10  1  0  0  0  0
  9 11  1  0  0  0  0
  9 19  1  0  0  0  0
  7  8  1  0  0  0  0
  7  9  1  0  0  0  0
 23 24  1  0  0  0  0
 23 25  1  0  0  0  0
 23 26  1  0  0  0  0
 21 22  1  0  0  0  0
 21 23  1  0  0  0  0
M  END
$$$$
default_name
  -OEChem-02102213163D

 26 25  0     1  0  0  0  0  0999 V2000
   -3.0232   -3.6924    1.0038 H   0  0  0  0  0  0  0  0  0  0  0  0
   -3.0082   -2.6684    0.6318 C   0  0  0  0  0  0  0  0  0  0  0  0
   -3.6332   -2.0414    1.2658 H   0  0  0  0  0  0  0  0  0  0  0  0
   -3.3762   -2.6444   -0.3912 H   0  0  0  0  0  0  0  0  0  0  0  0
   -1.5882   -2.1554    0.6658 C   0  0  0  0  0  0  0  0  0  0  0  0
   -0.6832   -2.8764    1.0638 O   0  0  0  0  0  0  0  0  0  0  0  0
   -1.3952   -0.9084    0.2428 N   0  0  0  0  0  0  0  0  0  0  0  0
   -2.1972   -0.3644   -0.0422 H   0  0  0  0  0  0  0  0  0  0  0  0
   -0.1122   -0.1994    0.2658 C   0  0  1  0  0  0  0  0  0  0  0  0
    0.5635   -0.7260    0.9446 H   0  0  0  0  0  0  0  0  0  0  0  0
    0.4924   -0.2204   -1.1558 C   0  0  0  0  0  0  0  0  0  0  0  0
    1.5412    0.0696   -1.1025 H   0  0  0  0  0  0  0  0  0  0  0  0
    0.4368   -1.2322   -1.5548 H   0  0  0  0  0  0  0  0  0  0  0  0
   -0.1802    0.7354   -2.1279 C   0  0  0  0  0  0  0  0  0  0  0  0
   -0.7232    0.3648   -3.1541 O   0  0  0  0  0  0  0  0  0  0  0  0
   -0.1598    2.0143   -1.8412 N   0  0  0  0  0  0  0  0  0  0  0  0
   -0.6271    2.6201   -2.4926 H   0  0  0  0  0  0  0  0  0  0  0  0
    0.2637    2.3427   -0.9939 H   0  0  0  0  0  0  0  0  0  0  0  0
   -0.3126    1.2341    0.8050 C   0  0  0  0  0  0  0  0  0  0  0  0
   -1.2484    1.9199    0.3934 O   0  0  0  0  0  0  0  0  0  0  0  0
    0.5615    1.6875    1.7087 N   0  0  0  0  0  0  0  0  0  0  0  0
    1.3461    1.0849    1.9358 H   0  0  0  0  0  0  0  0  0  0  0  0
    0.5043    3.0121    2.3242 C   0  0  0  0  0  0  0  0  0  0  0  0
   -0.4649    3.1514    2.8080 H   0  0  0  0  0  0  0  0  0  0  0  0
    1.2959    3.1139    3.0678 H   0  0  0  0  0  0  0  0  0  0  0  0
    0.6273    3.7799    1.5584 H   0  0  0  0  0  0  0  0  0  0  0  0
  5  6  2  0  0  0  0
  5  7  1  0  0  0  0
  2  3  1  0  0  0  0
  2  4  1  0  0  0  0
  2  5  1  0  0  0  0
  1  2  1  0  0  0  0
 19 20  2  0  0  0  0
 19 21  1  0  0  0  0
 16 17  1  0  0  0  0
 16 18  1  0  0  0  0
 14 15  2  0  0  0  0
 14 16  1  0  0  0  0
 11 12  1  0  0  0  0
 11 13  1  0  0  0  0
 11 14  1  0  0  0  0
  9 10  1  0  0  0  0
  9 11  1  0  0  0  0
  9 19  1  0  0  0  0
  7  8  1  0  0  0  0
  7  9  1  0  0  0  0
 23 24  1  0  0  0  0
 23 25  1  0  0  0  0
 23 26  1  0  0  0  0
 21 22  1  0  0  0  0
 21 23  1  0  0  0  0
M  END
$$$$
default_name
  -OEChem-02102213163D

 26 25  0     1  0  0  0  0  0999 V2000
   -3.0232   -3.6924    1.0038 H   0  0  0  0  0  0  0  0  0  0  0  0
   -3.0082   -2.6684    0.6318 C   0  0  0  0  0  0  0  0  0  0  0  0
   -3.6332   -2.0414    1.2658 H   0  0  0  0  0  0  0  0  0  0  0  0
   -3.3762   -2.6444   -0.3912 H   0  0  0  0  0  0  0  0  0  0  0  0
   -1.5882   -2.1554    0.6658 C   0  0  0  0  0  0  0  0  0  0  0  0
   -0.6832   -2.8764    1.0638 O   0  0  0  0  0  0  0  0  0  0  0  0
   -1.3952   -0.9084    0.2428 N   0  0  0  0  0  0  0  0  0  0  0  0
   -2.1972   -0.3644   -0.0422 H   0  0  0  0  0  0  0  0  0  0  0  0
   -0.1122   -0.1994    0.2658 C   0  0  1  0  0  0  0  0  0  0  0  0
    0.5635   -0.7260    0.9446 H   0  0  0  0  0  0  0  0  0  0  0  0
    0.4924   -0.2204   -1.1558 C   0  0  0  0  0  0  0  0  0  0  0  0
    1.5412    0.0696   -1.1025 H   0  0  0  0  0  0  0  0  0  0  0  0
    0.4368   -1.2322   -1.5548 H   0  0  0  0  0  0  0  0  0  0  0  0
   -0.1802    0.7354   -2.1279 C   0  0  0  0  0  0  0  0  0  0  0  0
   -0.9430    0.3640   -3.0028 O   0  0  0  0  0  0  0  0  0  0  0  0
    0.0886    2.0133   -2.0140 N   0  0  0  0  0  0  0  0  0  0  0  0
   -0.3836    2.6227   -2.6584 H   0  0  0  0  0  0  0  0  0  0  0  0
    0.6978    2.3462   -1.2908 H   0  0  0  0  0  0  0  0  0  0  0  0
   -0.3126    1.2341    0.8050 C   0  0  0  0  0  0  0  0  0  0  0  0
   -1.2484    1.9199    0.3934 O   0  0  0  0  0  0  0  0  0  0  0  0
    0.5615    1.6875    1.7087 N   0  0  0  0  0  0  0  0  0  0  0  0
    1.3461    1.0849    1.9358 H   0  0  0  0  0  0  0  0  0  0  0  0
    0.5043    3.0121    2.3242 C   0  0  0  0  0  0  0  0  0  0  0  0
   -0.4649    3.1514    2.8080 H   0  0  0  0  0  0  0  0  0  0  0  0
    1.2959    3.1139    3.0678 H   0  0  0  0  0  0  0  0  0  0  0  0
    0.6273    3.7799    1.5584 H   0  0  0  0  0  0  0  0  0  0  0  0
  5  6  2  0  0  0  0
  5  7  1  0  0  0  0
  2  3  1  0  0  0  0
  2  4  1  0  0  0  0
  2  5  1  0  0  0  0
  1  2  1  0  0  0  0
 19 20  2  0  0  0  0
 19 21  1  0  0  0  0
 16 17  1  0  0  0  0
 16 18  1  0  0  0  0
 14 15  2  0  0  0  0
 14 16  1  0  0  0  0
 11 12  1  0  0  0  0
 11 13  1  0  0  0  0
 11 14  1  0  0  0  0
  9 10  1  0  0  0  0
  9 11  1  0  0  0  0
  9 19  1  0  0  0  0
  7  8  1  0  0  0  0
  7  9  1  0  0  0  0
 23 24  1  0  0  0  0
 23 25  1  0  0  0  0
 23 26  1  0  0  0  0
 21 22  1  0  0  0  0
 21 23  1  0  0  0  0
M  END
$$$$
default_name
  -OEChem-02102213163D

 26 25  0     1  0  0  0  0  0999 V2000
   -3.0232   -3.6924    1.0038 H   0  0  0  0  0  0  0  0  0  0  0  0
   -3.0082   -2.6684    0.6318 C   0  0  0  0  0  0  0  0  0  0  0  0
   -3.6332   -2.0414    1.2658 H   0  0  0  0  0  0  0  0  0  0  0  0
   -3.3762   -2.6444   -0.3912 H   0  0  0  0  0  0  0  0  0  0  0  0
   -1.5882   -2.1554    0.6658 C   0  0  0  0  0  0  0  0  0  0  0  0
   -0.6832   -2.8764    1.0638 O   0  0  0  0  0  0  0  0  0  0  0  0
   -1.3952   -0.9084    0.2428 N   0  0  0  0  0  0  0  0  0  0  0  0
   -2.1972   -0.3644   -0.0422 H   0  0  0  0  0  0  0  0  0  0  0  0
   -0.1122   -0.1994    0.2658 C   0  0  1  0  0  0  0  0  0  0  0  0
    0.5635   -0.7260    0.9446 H   0  0  0  0  0  0  0  0  0  0  0  0
    0.4924   -0.2204   -1.1558 C   0  0  0  0  0  0  0  0  0  0  0  0
    1.5412    0.0696   -1.1025 H   0  0  0  0  0  0  0  0  0  0  0  0
    0.4368   -1.2322   -1.5548 H   0  0  0  0  0  0  0  0  0  0  0  0
   -0.1802    0.7354   -2.1279 C   0  0  0  0  0  0  0  0  0  0  0  0
   -1.1309    0.4169   -2.8208 O   0  0  0  0  0  0  0  0  0  0  0  0
    0.3003    1.9515   -2.2213 N   0  0  0  0  0  0  0  0  0  0  0  0
   -0.1751    2.5660   -2.8586 H   0  0  0  0  0  0  0  0  0  0  0  0
    1.0694    2.2438   -1.6486 H   0  0  0  0  0  0  0  0  0  0  0  0
   -0.3126    1.2341    0.8050 C   0  0  0  0  0  0  0  0  0  0  0  0
   -1.2484    1.9199    0.3934 O   0  0  0  0  0  0  0  0  0  0  0  0
    0.5615    1.6875    1.7087 N   0  0  0  0  0  0  0  0  0  0  0  0
    1.3461    1.0849    1.9358 H   0  0  0  0  0  0  0  0  0  0  0  0
    0.5043    3.0121    2.3242 C   0  0  0  0  0  0  0  0  0  0  0  0
   -0.4649    3.1514    2.8080 H   0  0  0  0  0  0  0  0  0  0  0  0
    1.2959    3.1139    3.0678 H   0  0  0  0  0  0  0  0  0  0  0  0
    0.6273    3.7799    1.5584 H   0  0  0  0  0  0  0  0  0  0  0  0
  5  6  2  0  0  0  0
  5  7  1  0  0  0  0
  2  3  1  0  0  0  0
  2  4  1  0  0  0  0
  2  5  1  0  0  0  0
  1  2  1  0  0  0  0
 19 20  2  0  0  0  0
 19 21  1  0  0  0  0
 16 17  1  0  0  0  0
 16 18  1  0  0  0  0
 14 15  2  0  0  0  0
 14 16  1  0  0  0  0
 11 12  1  0  0  0  0
 11 13  1  0  0  0  0
 11 14  1  0  0  0  0
  9 10  1  0  0  0  0
  9 11  1  0  0  0  0
  9 19  1  0  0  0  0
  7  8  1  0  0  0  0
  7  9  1  0  0  0  0
 23 24  1  0  0  0  0
 23 25  1  0  0  0  0
 23 26  1  0  0  0  0
 21 22  1  0  0  0  0
 21 23  1  0  0  0  0
M  END
$$$$
default_name
  -OEChem-02102213163D

 26 25  0     1  0  0  0  0  0999 V2000
   -3.0232   -3.6924    1.0038 H   0  0  0  0  0  0  0  0  0  0  0  0
   -3.0082   -2.6684    0.6318 C   0  0  0  0  0  0  0  0  0  0  0  0
   -3.6332   -2.0414    1.2658 H   0  0  0  0  0  0  0  0  0  0  0  0
   -3.3762   -2.6444   -0.3912 H   0  0  0  0  0  0  0  0  0  0  0  0
   -1.5882   -2.1554    0.6658 C   0  0  0  0  0  0  0  0  0  0  0  0
   -0.6832   -2.8764    1.0638 O   0  0  0  0  0  0  0  0  0  0  0  0
   -1.3952   -0.9084    0.2428 N   0  0  0  0  0  0  0  0  0  0  0  0
   -2.1972   -0.3644   -0.0422 H   0  0  0  0  0  0  0  0  0  0  0  0
   -0.1122   -0.1994    0.2658 C   0  0  1  0  0  0  0  0  0  0  0  0
    0.5635   -0.7260    0.9446 H   0  0  0  0  0  0  0  0  0  0  0  0
    0.4924   -0.2204   -1.1558 C   0  0  0  0  0  0  0  0  0  0  0  0
    1.5412    0.0696   -1.1025 H   0  0  0  0  0  0  0  0  0  0  0  0
    0.4368   -1.2322   -1.5548 H   0  0  0  0  0  0  0  0  0  0  0  0
   -0.1802    0.7354   -2.1279 C   0  0  0  0  0  0  0  0  0  0  0  0
   -1.2739    0.5200   -2.6204 O   0  0  0  0  0  0  0  0  0  0  0  0
    0.4608    1.8329   -2.4489 N   0  0  0  0  0  0  0  0  0  0  0  0
   -0.0155    2.4537   -3.0794 H   0  0  0  0  0  0  0  0  0  0  0  0
    1.3531    2.0424   -2.0429 H   0  0  0  0  0  0  0  0  0  0  0  0
   -0.3126    1.2341    0.8050 C   0  0  0  0  0  0  0  0  0  0  0  0
   -1.2484    1.9199    0.3934 O   0  0  0  0  0  0  0  0  0  0  0  0
    0.5615    1.6875    1.7087 N   0  0  0  0  0  0  0  0  0  0  0  0
    1.3461    1.0849    1.9358 H   0  0  0  0  0  0  0  0  0  0  0  0
    0.5043    3.0121    2.3242 C   0  0  0  0  0  0  0  0  0  0  0  0
   -0.4649    3.1514    2.8080 H   0  0  0  0  0  0  0  0  0  0  0  0
    1.2959    3.1139    3.0678 H   0  0  0  0  0  0  0  0  0  0  0  0
    0.6273    3.7799    1.5584 H   0  0  0  0  0  0  0  0  0  0  0  0
  5  6  2  0  0  0  0
  5  7  1  0  0  0  0
  2  3  1  0  0  0  0
  2  4  1  0  0  0  0
  2  5  1  0  0  0  0
  1  2  1  0  0  0  0
 19 20  2  0  0  0  0
 19 21  1  0  0  0  0
 16 17  1  0  0  0  0
 16 18  1  0  0  0  0
 14 15  2  0  0  0  0
 14 16  1  0  0  0  0
 11 12  1  0  0  0  0
 11 13  1  0  0  0  0
 11 14  1  0  0  0  0
  9 10  1  0  0  0  0
  9 11  1  0  0  0  0
  9 19  1  0  0  0  0
  7  8  1  0  0  0  0
  7  9  1  0  0  0  0
 23 24  1  0  0  0  0
 23 25  1  0  0  0  0
 23 26  1  0  0  0  0
 21 22  1  0  0  0  0
 21 23  1  0  0  0  0
M  END
$$$$
default_name
  -OEChem-02102213163D

 26 25  0     1  0  0  0  0  0999 V2000
   -3.0232   -3.6924    1.0038 H   0  0  0  0  0  0  0  0  0  0  0  0
   -3.0082   -2.6684    0.6318 C   0  0  0  0  0  0  0  0  0  0  0  0
   -3.6332   -2.0414    1.2658 H   0  0  0  0  0  0  0  0  0  0  0  0
   -3.3762   -2.6444   -0.3912 H   0  0  0  0  0  0  0  0  0  0  0  0
   -1.5882   -2.1554    0.6658 C   0  0  0  0  0  0  0  0  0  0  0  0
   -0.6832   -2.8764    1.0638 O   0  0  0  0  0  0  0  0  0  0  0  0
   -1.3952   -0.9084    0.2428 N   0  0  0  0  0  0  0  0  0  0  0  0
   -2.1972   -0.3644   -0.0422 H   0  0  0  0  0  0  0  0  0  0  0  0
   -0.1122   -0.1994    0.2658 C   0  0  1  0  0  0  0  0  0  0  0  0
    0.5635   -0.7260    0.9446 H   0  0  0  0  0  0  0  0  0  0  0  0
    0.4924   -0.2204   -1.1558 C   0  0  0  0  0  0  0  0  0  0  0  0
    1.5412    0.0696   -1.1025 H   0  0  0  0  0  0  0  0  0  0  0  0
    0.4368   -1.2322   -1.5548 H   0  0  0  0  0  0  0  0  0  0  0  0
   -0.1802    0.7354   -2.1279 C   0  0  0  0  0  0  0  0  0  0  0  0
   -1.3625    0.6661   -2.4154 O   0  0  0  0  0  0  0  0  0  0  0  0
    0.5591    1.6658   -2.6813 N   0  0  0  0  0  0  0  0  0  0  0  0
    0.0841    2.2935   -3.3057 H   0  0  0  0  0  0  0  0  0  0  0  0
    1.5297    1.7557   -2.4470 H   0  0  0  0  0  0  0  0  0  0  0  0
   -0.3126    1.2341    0.8050 C   0  0  0  0  0  0  0  0  0  0  0  0
   -1.2484    1.9199    0.3934 O   0  0  0  0  0  0  0  0  0  0  0  0
    0.5615    1.6875    1.7087 N   0  0  0  0  0  0  0  0  0  0  0  0
    1.3461    1.0849    1.9358 H   0  0  0  0  0  0  0  0  0  0  0  0
    0.5043    3.0121    2.3242 C   0  0  0  0  0  0  0  0  0  0  0  0
   -0.4649    3.1514    2.8080 H   0  0  0  0  0  0  0  0  0  0  0  0
    1.2959    3.1139    3.0678 H   0  0  0  0  0  0  0  0  0  0  0  0
    0.6273    3.7799    1.5584 H   0  0  0  0  0  0  0  0  0  0  0  0
  5  6  2  0  0  0  0
  5  7  1  0  0  0  0
  2  3  1  0  0  0  0
  2  4  1  0  0  0  0
  2  5  1  0  0  0  0
  1  2  1  0  0  0  0
 19 20  2  0  0  0  0
 19 21  1  0  0  0  0
 16 17  1  0  0  0  0
 16 18  1  0  0  0  0
 14 15  2  0  0  0  0
 14 16  1  0  0  0  0
 11 12  1  0  0  0  0
 11 13  1  0  0  0  0
 11 14  1  0  0  0  0
  9 10  1  0  0  0  0
  9 11  1  0  0  0  0
  9 19  1  0  0  0  0
  7  8  1  0  0  0  0
  7  9  1  0  0  0  0
 23 24  1  0  0  0  0
 23 25  1  0  0  0  0
 23 26  1  0  0  0  0
 21 22  1  0  0  0  0
 21 23  1  0  0  0  0
M  END
$$$$
default_name
  -OEChem-02102213163D

 26 25  0     1  0  0  0  0  0999 V2000
   -3.0232   -3.6924    1.0038 H   0  0  0  0  0  0  0  0  0  0  0  0
   -3.0082   -2.6684    0.6318 C   0  0  0  0  0  0  0  0  0  0  0  0
   -3.6332   -2.0414    1.2658 H   0  0  0  0  0  0  0  0  0  0  0  0
   -3.3762   -2.6444   -0.3912 H   0  0  0  0  0  0  0  0  0  0  0  0
   -1.5882   -2.1554    0.6658 C   0  0  0  0  0  0  0  0  0  0  0  0
   -0.6832   -2.8764    1.0638 O   0  0  0  0  0  0  0  0  0  0  0  0
   -1.3952   -0.9084    0.2428 N   0  0  0  0  0  0  0  0  0  0  0  0
   -2.1972   -0.3644   -0.0422 H   0  0  0  0  0  0  0  0  0  0  0  0
   -0.1122   -0.1994    0.2658 C   0  0  1  0  0  0  0  0  0  0  0  0
    0.5635   -0.7260    0.9446 H   0  0  0  0  0  0  0  0  0  0  0  0
    0.4924   -0.2204   -1.1558 C   0  0  0  0  0  0  0  0  0  0  0  0
    1.5412    0.0696   -1.1025 H   0  0  0  0  0  0  0  0  0  0  0  0
    0.4368   -1.2322   -1.5548 H   0  0  0  0  0  0  0  0  0  0  0  0
   -0.1802    0.7354   -2.1279 C   0  0  0  0  0  0  0  0  0  0  0  0
   -1.3904    0.8455   -2.2198 O   0  0  0  0  0  0  0  0  0  0  0  0
    0.5886    1.4615   -2.9026 N   0  0  0  0  0  0  0  0  0  0  0  0
    0.1169    2.0965   -3.5222 H   0  0  0  0  0  0  0  0  0  0  0  0
    1.5870    1.4033   -2.8331 H   0  0  0  0  0  0  0  0  0  0  0  0
   -0.3126    1.2341    0.8050 C   0  0  0  0  0  0  0  0  0  0  0  0
   -1.2484    1.9199    0.3934 O   0  0  0  0  0  0  0  0  0  0  0  0
    0.5615    1.6875    1.7087 N   0  0  0  0  0  0  0  0  0  0  0  0
    1.3461    1.0849    1.9358 H   0  0  0  0  0  0  0  0  0  0  0  0
    0.5043    3.0121    2.3242 C   0  0  0  0  0  0  0  0  0  0  0  0
   -0.4649    3.1514    2.8080 H   0  0  0  0  0  0  0  0  0  0  0  0
    1.2959    3.1139    3.0678 H   0  0  0  0  0  0  0  0  0  0  0  0
    0.6273    3.7799    1.5584 H   0  0  0  0  0  0  0  0  0  0  0  0
  5  6  2  0  0  0  0
  5  7  1  0  0  0  0
  2  3  1  0  0  0  0
  2  4  1  0  0  0  0
  2  5  1  0  0  0  0
  1  2  1  0  0  0  0
 19 20  2  0  0  0  0
 19 21  1  0  0  0  0
 16 17  1  0  0  0  0
 16 18  1  0  0  0  0
 14 15  2  0  0  0  0
 14 16  1  0  0  0  0
 11 12  1  0  0  0  0
 11 13  1  0  0  0  0
 11 14  1  0  0  0  0
  9 10  1  0  0  0  0
  9 11  1  0  0  0  0
  9 19  1  0  0  0  0
  7  8  1  0  0  0  0
  7  9  1  0  0  0  0
 23 24  1  0  0  0  0
 23 25  1  0  0  0  0
 23 26  1  0  0  0  0
 21 22  1  0  0  0  0
 21 23  1  0  0  0  0
M  END
$$$$
default_name
  -OEChem-02102213163D

 26 25  0     1  0  0  0  0  0999 V2000
   -3.0232   -3.6924    1.0038 H   0  0  0  0  0  0  0  0  0  0  0  0
   -3.0082   -2.6684    0.6318 C   0  0  0  0  0  0  0  0  0  0  0  0
   -3.6332   -2.0414    1.2658 H   0  0  0  0  0  0  0  0  0  0  0  0
   -3.3762   -2.6444   -0.3912 H   0  0  0  0  0  0  0  0  0  0  0  0
   -1.5882   -2.1554    0.6658 C   0  0  0  0  0  0  0  0  0  0  0  0
   -0.6832   -2.8764    1.0638 O   0  0  0  0  0  0  0  0  0  0  0  0
   -1.3952   -0.9084    0.2428 N   0  0  0  0  0  0  0  0  0  0  0  0
   -2.1972   -0.3644   -0.0422 H   0  0  0  0  0  0  0  0  0  0  0  0
   -0.1122   -0.1994    0.2658 C   0  0  1  0  0  0  0  0  0  0  0  0
    0.5635   -0.7260    0.9446 H   0  0  0  0  0  0  0  0  0  0  0  0
    0.4924   -0.2204   -1.1558 C   0  0  0  0  0  0  0  0  0  0  0  0
    1.5412    0.0696   -1.1025 H   0  0  0  0  0  0  0  0  0  0  0  0
    0.4368   -1.2322   -1.5548 H   0  0  0  0  0  0  0  0  0  0  0  0
   -0.1802    0.7354   -2.1279 C   0  0  0  0  0  0  0  0  0  0  0  0
   -1.3559    1.0457   -2.0468 O   0  0  0  0  0  0  0  0  0  0  0  0
    0.5473    1.2339   -3.0978 N   0  0  0  0  0  0  0  0  0  0  0  0
    0.0808    1.8759   -3.7141 H   0  0  0  0  0  0  0  0  0  0  0  0
    1.5213    1.0092   -3.1751 H   0  0  0  0  0  0  0  0  0  0  0  0
   -0.3126    1.2341    0.8050 C   0  0  0  0  0  0  0  0  0  0  0  0
   -1.2484    1.9199    0.3934 O   0  0  0  0  0  0  0  0  0  0  0  0
    0.5615    1.6875    1.7087 N   0  0  0  0  0  0  0  0  0  0  0  0
    1.3461    1.0849    1.9358 H   0  0  0  0  0  0  0  0  0  0  0  0
    0.5043    3.0121    2.3242 C   0  0  0  0  0  0  0  0  0  0  0  0
   -0.4649    3.1514    2.8080 H   0  0  0  0  0  0  0  0  0  0  0  0
    1.2959    3.1139    3.0678 H   0  0  0  0  0  0  0  0  0  0  0  0
    0.6273    3.7799    1.5584 H   0  0  0  0  0  0  0  0  0  0  0  0
  5  6  2  0  0  0  0
  5  7  1  0  0  0  0
  2  3  1  0  0  0  0
  2  4  1  0  0  0  0
  2  5  1  0  0  0  0
  1  2  1  0  0  0  0
 19 20  2  0  0  0  0
 19 21  1  0  0  0  0
 16 17  1  0  0  0  0
 16 18  1  0  0  0  0
 14 15  2  0  0  0  0
 14 16  1  0  0  0  0
 11 12  1  0  0  0  0
 11 13  1  0  0  0  0
 11 14  1  0  0  0  0
  9 10  1  0  0  0  0
  9 11  1  0  0  0  0
  9 19  1  0  0  0  0
  7  8  1  0  0  0  0
  7  9  1  0  0  0  0
 23 24  1  0  0  0  0
 23 25  1  0  0  0  0
 23 26  1  0  0  0  0
 21 22  1  0  0  0  0
 21 23  1  0  0  0  0
M  END
$$$$
default_name
  -OEChem-02102213163D

 26 25  0     1  0  0  0  0  0999 V2000
   -3.0232   -3.6924    1.0038 H   0  0  0  0  0  0  0  0  0  0  0  0
   -3.0082   -2.6684    0.6318 C   0  0  0  0  0  0  0  0  0  0  0  0
   -3.6332   -2.0414    1.2658 H   0  0  0  0  0  0  0  0  0  0  0  0
   -3.3762   -2.6444   -0.3912 H   0  0  0  0  0  0  0  0  0  0  0  0
   -1.5882   -2.1554    0.6658 C   0  0  0  0  0  0  0  0  0  0  0  0
   -0.6832   -2.8764    1.0638 O   0  0  0  0  0  0  0  0  0  0  0  0
   -1.3952   -0.9084    0.2428 N   0  0  0  0  0  0  0  0  0  0  0  0
   -2.1972   -0.3644   -0.0422 H   0  0  0  0  0  0  0  0  0  0  0  0
   -0.1122   -0.1994    0.2658 C   0  0  1  0  0  0  0  0  0  0  0  0
    0.5635   -0.7260    0.9446 H   0  0  0  0  0  0  0  0  0  0  0  0
    0.4924   -0.2204   -1.1558 C   0  0  0  0  0  0  0  0  0  0  0  0
    1.5412    0.0696   -1.1025 H   0  0  0  0  0  0  0  0  0  0  0  0
    0.4368   -1.2322   -1.5548 H   0  0  0  0  0  0  0  0  0  0  0  0
   -0.1802    0.7354   -2.1279 C   0  0  0  0  0  0  0  0  0  0  0  0
   -1.2613    1.2532   -1.9082 O   0  0  0  0  0  0  0  0  0  0  0  0
    0.4380    0.9985   -3.2535 N   0  0  0  0  0  0  0  0  0  0  0  0
   -0.0218    1.6468   -3.8684 H   0  0  0  0  0  0  0  0  0  0  0  0
    1.3369    0.6003   -3.4496 H   0  0  0  0  0  0  0  0  0  0  0  0
   -0.3126    1.2341    0.8050 C   0  0  0  0  0  0  0  0  0  0  0  0
   -1.2484    1.9199    0.3934 O   0  0  0  0  0  0  0  0  0  0  0  0
    0.5615    1.6875    1.7087 N   0  0  0  0  0  0  0  0  0  0  0  0
    1.3461    1.0849    1.9358 H   0  0  0  0  0  0  0  0  0  0  0  0
    0.5043    3.0121    2.3242 C   0  0  0  0  0  0  0  0  0  0  0  0
   -0.4649    3.1514    2.8080 H   0  0  0  0  0  0  0  0  0  0  0  0
    1.2959    3.1139    3.0678 H   0  0  0  0  0  0  0  0  0  0  0  0
    0.6273    3.7799    1.5584 H   0  0  0  0  0  0  0  0  0  0  0  0
  5  6  2  0  0  0  0
  5  7  1  0  0  0  0
  2  3  1  0  0  0  0
  2  4  1  0  0  0  0
  2  5  1  0  0  0  0
  1  2  1  0  0  0  0
 19 20  2  0  0  0  0
 19 21  1  0  0  0  0
 16 17  1  0  0  0  0
 16 18  1  0  0  0  0
 14 15  2  0  0  0  0
 14 16  1  0  0  0  0
 11 12  1  0  0  0  0
 11 13  1  0  0  0  0
 11 14  1  0  0  0  0
  9 10  1  0  0  0  0
  9 11  1  0  0  0  0
  9 19  1  0  0  0  0
  7  8  1  0  0  0  0
  7  9  1  0  0  0  0
 23 24  1  0  0  0  0
 23 25  1  0  0  0  0
 23 26  1  0  0  0  0
 21 22  1  0  0  0  0
 21 23  1  0  0  0  0
M  END
$$$$
default_name
  -OEChem-02102213163D

 26 25  0     1  0  0  0  0  0999 V2000
   -3.0232   -3.6924    1.0038 H   0  0  0  0  0  0  0  0  0  0  0  0
   -3.0082   -2.6684    0.6318 C   0  0  0  0  0  0  0  0  0  0  0  0
   -3.6332   -2.0414    1.2658 H   0  0  0  0  0  0  0  0  0  0  0  0
   -3.3762   -2.6444   -0.3912 H   0  0  0  0  0  0  0  0  0  0  0  0
   -1.5882   -2.1554    0.6658 C   0  0  0  0  0  0  0  0  0  0  0  0
   -0.6832   -2.8764    1.0638 O   0  0  0  0  0  0  0  0  0  0  0  0
   -1.3952   -0.9084    0.2428 N   0  0  0  0  0  0  0  0  0  0  0  0
   -2.1972   -0.3644   -0.0422 H   0  0  0  0  0  0  0  0  0  0  0  0
   -0.1122   -0.1994    0.2658 C   0  0  1  0  0  0  0  0  0  0  0  0
    0.5635   -0.7260    0.9446 H   0  0  0  0  0  0  0  0  0  0  0  0
    0.4924   -0.2204   -1.1558 C   0  0  0  0  0  0  0  0  0  0  0  0
    1.5412    0.0696   -1.1025 H   0  0  0  0  0  0  0  0  0  0  0  0
    0.4368   -1.2322   -1.5548 H   0  0  0  0  0  0  0  0  0  0  0  0
   -0.1802    0.7354   -2.1279 C   0  0  0  0  0  0  0  0  0  0  0  0
   -1.1130    1.4539   -1.8135 O   0  0  0  0  0  0  0  0  0  0  0  0
    0.2680    0.7715   -3.3592 N   0  0  0  0  0  0  0  0  0  0  0  0
   -0.1840    1.4249   -3.9744 H   0  0  0  0  0  0  0  0  0  0  0  0
    1.0464    0.2044   -3.6379 H   0  0  0  0  0  0  0  0  0  0  0  0
   -0.3126    1.2341    0.8050 C   0  0  0  0  0  0  0  0  0  0  0  0
   -1.2484    1.9199    0.3934 O   0  0  0  0  0  0  0  0  0  0  0  0
    0.5615    1.6875    1.7087 N   0  0  0  0  0  0  0  0  0  0  0  0
    1.3461    1.0849    1.9358 H   0  0  0  0  0  0  0  0  0  0  0  0
    0.5043    3.0121    2.3242 C   0  0  0  0  0  0  0  0  0  0  0  0
   -0.4649    3.1514    2.8080 H   0  0  0  0  0  0  0  0  0  0  0  0
    1.2959    3.1139    3.0678 H   0  0  0  0  0  0  0  0  0  0  0  0
    0.6273    3.7799    1.5584 H   0  0  0  0  0  0  0  0  0  0  0  0
  5  6  2  0  0  0  0
  5  7  1  0  0  0  0
  2  3  1  0  0  0  0
  2  4  1  0  0  0  0
  2  5  1  0  0  0  0
  1  2  1  0  0  0  0
 19 20  2  0  0  0  0
 19 21  1  0  0  0  0
 16 17  1  0  0  0  0
 16 18  1  0  0  0  0
 14 15  2  0  0  0  0
 14 16  1  0  0  0  0
 11 12  1  0  0  0  0
 11 13  1  0  0  0  0
 11 14  1  0  0  0  0
  9 10  1  0  0  0  0
  9 11  1  0  0  0  0
  9 19  1  0  0  0  0
  7  8  1  0  0  0  0
  7  9  1  0  0  0  0
 23 24  1  0  0  0  0
 23 25  1  0  0  0  0
 23 26  1  0  0  0  0
 21 22  1  0  0  0  0
 21 23  1  0  0  0  0
M  END
$$$$
default_name
  -OEChem-02102213163D

 26 25  0     1  0  0  0  0  0999 V2000
   -3.0232   -3.6924    1.0038 H   0  0  0  0  0  0  0  0  0  0  0  0
   -3.0082   -2.6684    0.6318 C   0  0  0  0  0  0  0  0  0  0  0  0
   -3.6332   -2.0414    1.2658 H   0  0  0  0  0  0  0  0  0  0  0  0
   -3.3762   -2.6444   -0.3912 H   0  0  0  0  0  0  0  0  0  0  0  0
   -1.5882   -2.1554    0.6658 C   0  0  0  0  0  0  0  0  0  0  0  0
   -0.6832   -2.8764    1.0638 O   0  0  0  0  0  0  0  0  0  0  0  0
   -1.3952   -0.9084    0.2428 N   0  0  0  0  0  0  0  0  0  0  0  0
   -2.1972   -0.3644   -0.0422 H   0  0  0  0  0  0  0  0  0  0  0  0
   -0.1122   -0.1994    0.2658 C   0  0  1  0  0  0  0  0  0  0  0  0
    0.5635   -0.7260    0.9446 H   0  0  0  0  0  0  0  0  0  0  0  0
    0.4924   -0.2204   -1.1558 C   0  0  0  0  0  0  0  0  0  0  0  0
    1.5412    0.0696   -1.1025 H   0  0  0  0  0  0  0  0  0  0  0  0
    0.4368   -1.2322   -1.5548 H   0  0  0  0  0  0  0  0  0  0  0  0
   -0.1802    0.7354   -2.1279 C   0  0  0  0  0  0  0  0  0  0  0  0
   -0.9211    1.6340   -1.7691 O   0  0  0  0  0  0  0  0  0  0  0  0
    0.0491    0.5682   -3.4077 N   0  0  0  0  0  0  0  0  0  0  0  0
   -0.3946    1.2252   -4.0250 H   0  0  0  0  0  0  0  0  0  0  0  0
    0.6696   -0.1515   -3.7272 H   0  0  0  0  0  0  0  0  0  0  0  0
   -0.3126    1.2341    0.8050 C   0  0  0  0  0  0  0  0  0  0  0  0
   -1.2484    1.9199    0.3934 O   0  0  0  0  0  0  0  0  0  0  0  0
    0.5615    1.6875    1.7087 N   0  0  0  0  0  0  0  0  0  0  0  0
    1.3461    1.0849    1.9358 H   0  0  0  0  0  0  0  0  0  0  0  0
    0.5043    3.0121    2.3242 C   0  0  0  0  0  0  0  0  0  0  0  0
   -0.4649    3.1514    2.8080 H   0  0  0  0  0  0  0  0  0  0  0  0
    1.2959    3.1139    3.0678 H   0  0  0  0  0  0  0  0  0  0  0  0
    0.6273    3.7799    1.5584 H   0  0  0  0  0  0  0  0  0  0  0  0
  5  6  2  0  0  0  0
  5  7  1  0  0  0  0
  2  3  1  0  0  0  0
  2  4  1  0  0  0  0
  2  5  1  0  0  0  0
  1  2  1  0  0  0  0
 19 20  2  0  0  0  0
 19 21  1  0  0  0  0
 16 17  1  0  0  0  0
 16 18  1  0  0  0  0
 14 15  2  0  0  0  0
 14 16  1  0  0  0  0
 11 12  1  0  0  0  0
 11 13  1  0  0  0  0
 11 14  1  0  0  0  0
  9 10  1  0  0  0  0
  9 11  1  0  0  0  0
  9 19  1  0  0  0  0
  7  8  1  0  0  0  0
  7  9  1  0  0  0  0
 23 24  1  0  0  0  0
 23 25  1  0  0  0  0
 23 26  1  0  0  0  0
 21 22  1  0  0  0  0
 21 23  1  0  0  0  0
M  END
$$$$
default_name
  -OEChem-02102213163D

 26 25  0     1  0  0  0  0  0999 V2000
   -3.0232   -3.6924    1.0038 H   0  0  0  0  0  0  0  0  0  0  0  0
   -3.0082   -2.6684    0.6318 C   0  0  0  0  0  0  0  0  0  0  0  0
   -3.6332   -2.0414    1.2658 H   0  0  0  0  0  0  0  0  0  0  0  0
   -3.3762   -2.6444   -0.3912 H   0  0  0  0  0  0  0  0  0  0  0  0
   -1.5882   -2.1554    0.6658 C   0  0  0  0  0  0  0  0  0  0  0  0
   -0.6832   -2.8764    1.0638 O   0  0  0  0  0  0  0  0  0  0  0  0
   -1.3952   -0.9084    0.2428 N   0  0  0  0  0  0  0  0  0  0  0  0
   -2.1972   -0.3644   -0.0422 H   0  0  0  0  0  0  0  0  0  0  0  0
   -0.1122   -0.1994    0.2658 C   0  0  1  0  0  0  0  0  0  0  0  0
    0.5635   -0.7260    0.9446 H   0  0  0  0  0  0  0  0  0  0  0  0
    0.4924   -0.2204   -1.1558 C   0  0  0  0  0  0  0  0  0  0  0  0
    1.5412    0.0696   -1.1025 H   0  0  0  0  0  0  0  0  0  0  0  0
    0.4368   -1.2322   -1.5548 H   0  0  0  0  0  0  0  0  0  0  0  0
   -0.1802    0.7354   -2.1279 C   0  0  0  0  0  0  0  0  0  0  0  0
   -0.6988    1.7813   -1.7781 O   0  0  0  0  0  0  0  0  0  0  0  0
   -0.2038    0.4025   -3.3956 N   0  0  0  0  0  0  0  0  0  0  0  0
   -0.6393    1.0613   -4.0168 H   0  0  0  0  0  0  0  0  0  0  0  0
    0.2323   -0.4432   -3.7114 H   0  0  0  0  0  0  0  0  0  0  0  0
   -0.3126    1.2341    0.8050 C   0  0  0  0  0  0  0  0  0  0  0  0
   -1.2484    1.9199    0.3934 O   0  0  0  0  0  0  0  0  0  0  0  0
    0.5615    1.6875    1.7087 N   0  0  0  0  0  0  0  0  0  0  0  0
    1.3461    1.0849    1.9358 H   0  0  0  0  0  0  0  0  0  0  0  0
    0.5043    3.0121    2.3242 C   0  0  0  0  0  0  0  0  0  0  0  0
   -0.4649    3.1514    2.8080 H   0  0  0  0  0  0  0  0  0  0  0  0
    1.2959    3.1139    3.0678 H   0  0  0  0  0  0  0  0  0  0  0  0
    0.6273    3.7799    1.5584 H   0  0  0  0  0  0  0  0  0  0  0  0
  5  6  2  0  0  0  0
  5  7  1  0  0  0  0
  2  3  1  0  0  0  0
  2  4  1  0  0  0  0
  2  5  1  0  0  0  0
  1  2  1  0  0  0  0
 19 20  2  0  0  0  0
 19 21  1  0  0  0  0
 16 17  1  0  0  0  0
 16 18  1  0  0  0  0
 14 15  2  0  0  0  0
 14 16  1  0  0  0  0
 11 12  1  0  0  0  0
 11 13  1  0  0  0  0
 11 14  1  0  0  0  0
  9 10  1  0  0  0  0
  9 11  1  0  0  0  0
  9 19  1  0  0  0  0
  7  8  1  0  0  0  0
  7  9  1  0  0  0  0
 23 24  1  0  0  0  0
 23 25  1  0  0  0  0
 23 26  1  0  0  0  0
 21 22  1  0  0  0  0
 21 23  1  0  0  0  0
M  END
$$$$
default_name
  -OEChem-02102213163D

 26 25  0     1  0  0  0  0  0999 V2000
   -3.0232   -3.6924    1.0038 H   0  0  0  0  0  0  0  0  0  0  0  0
   -3.0082   -2.6684    0.6318 C   0  0  0  0  0  0  0  0  0  0  0  0
   -3.6332   -2.0414    1.2658 H   0  0  0  0  0  0  0  0  0  0  0  0
   -3.3762   -2.6444   -0.3912 H   0  0  0  0  0  0  0  0  0  0  0  0
   -1.5882   -2.1554    0.6658 C   0  0  0  0  0  0  0  0  0  0  0  0
   -0.6832   -2.8764    1.0638 O   0  0  0  0  0  0  0  0  0  0  0  0
   -1.3952   -0.9084    0.2428 N   0  0  0  0  0  0  0  0  0  0  0  0
   -2.1972   -0.3644   -0.0422 H   0  0  0  0  0  0  0  0  0  0  0  0
   -0.1122   -0.1994    0.2658 C   0  0  1  0  0  0  0  0  0  0  0  0
    0.5635   -0.7260    0.9446 H   0  0  0  0  0  0  0  0  0  0  0  0
    0.4924   -0.2204   -1.1558 C   0  0  0  0  0  0  0  0  0  0  0  0
    1.5412    0.0696   -1.1025 H   0  0  0  0  0  0  0  0  0  0  0  0
    0.4368   -1.2322   -1.5548 H   0  0  0  0  0  0  0  0  0  0  0  0
   -0.1802    0.7354   -2.1279 C   0  0  0  0  0  0  0  0  0  0  0  0
   -0.4611    1.8858   -1.8399 O   0  0  0  0  0  0  0  0  0  0  0  0
   -0.4736    0.2857   -3.3237 N   0  0  0  0  0  0  0  0  0  0  0  0
   -0.9015    0.9445   -3.9502 H   0  0  0  0  0  0  0  0  0  0  0  0
   -0.2358   -0.6507   -3.5915 H   0  0  0  0  0  0  0  0  0  0  0  0
   -0.3126    1.2341    0.8050 C   0  0  0  0  0  0  0  0  0  0  0  0
   -1.2484    1.9199    0.3934 O   0  0  0  0  0  0  0  0  0  0  0  0
    0.5615    1.6875    1.7087 N   0  0  0  0  0  0  0  0  0  0  0  0
    1.3461    1.0849    1.9358 H   0  0  0  0  0  0  0  0  0  0  0  0
    0.5043    3.0121    2.3242 C   0  0  0  0  0  0  0  0  0  0  0  0
   -0.4649    3.1514    2.8080 H   0  0  0  0  0  0  0  0  0  0  0  0
    1.2959    3.1139    3.0678 H   0  0  0  0  0  0  0  0  0  0  0  0
    0.6273    3.7799    1.5584 H   0  0  0  0  0  0  0  0  0  0  0  0
  5  6  2  0  0  0  0
  5  7  1  0  0  0  0
  2  3  1  0  0  0  0
  2  4  1  0  0  0  0
  2  5  1  0  0  0  0
  1  2  1  0  0  0  0
 19 20  2  0  0  0  0
 19 21  1  0  0  0  0
 16 17  1  0  0  0  0
 16 18  1  0  0  0  0
 14 15  2  0  0  0  0
 14 16  1  0  0  0  0
 11 12  1  0  0  0  0
 11 13  1  0  0  0  0
 11 14  1  0  0  0  0
  9 10  1  0  0  0  0
  9 11  1  0  0  0  0
  9 19  1  0  0  0  0
  7  8  1  0  0  0  0
  7  9  1  0  0  0  0
 23 24  1  0  0  0  0
 23 25  1  0  0  0  0
 23 26  1  0  0  0  0
 21 22  1  0  0  0  0
 21 23  1  0  0  0  0
M  END
$$$$
default_name
  -OEChem-02102213163D

 26 25  0     1  0  0  0  0  0999 V2000
   -3.0232   -3.6924    1.0038 H   0  0  0  0  0  0  0  0  0  0  0  0
   -3.0082   -2.6684    0.6318 C   0  0  0  0  0  0  0  0  0  0  0  0
   -3.6332   -2.0414    1.2658 H   0  0  0  0  0  0  0  0  0  0  0  0
   -3.3762   -2.6444   -0.3912 H   0  0  0  0  0  0  0  0  0  0  0  0
   -1.5882   -2.1554    0.6658 C   0  0  0  0  0  0  0  0  0  0  0  0
   -0.6832   -2.8764    1.0638 O   0  0  0  0  0  0  0  0  0  0  0  0
   -1.3952   -0.9084    0.2428 N   0  0  0  0  0  0  0  0  0  0  0  0
   -2.1972   -0.3644   -0.0422 H   0  0  0  0  0  0  0  0  0  0  0  0
   -0.1122   -0.1994    0.2658 C   0  0  1  0  0  0  0  0  0  0  0  0
    0.5635   -0.7260    0.9446 H   0  0  0  0  0  0  0  0  0  0  0  0
    0.4924   -0.2204   -1.1558 C   0  0  0  0  0  0  0  0  0  0  0  0
    1.5412    0.0696   -1.1025 H   0  0  0  0  0  0  0  0  0  0  0  0
    0.4368   -1.2322   -1.5548 H   0  0  0  0  0  0  0  0  0  0  0  0
   -0.1802    0.7354   -2.1279 C   0  0  0  0  0  0  0  0  0  0  0  0
   -0.2242    1.9403   -1.9502 O   0  0  0  0  0  0  0  0  0  0  0  0
   -0.7419    0.2257   -3.1971 N   0  0  0  0  0  0  0  0  0  0  0  0
   -1.1632    0.8827   -3.8299 H   0  0  0  0  0  0  0  0  0  0  0  0
   -0.7029   -0.7600   -3.3758 H   0  0  0  0  0  0  0  0  0  0  0  0
   -0.3126    1.2341    0.8050 C   0  0  0  0  0  0  0  0  0  0  0  0
   -1.2484    1.9199    0.3934 O   0  0  0  0  0  0  0  0  0  0  0  0
    0.5615    1.6875    1.7087 N   0  0  0  0  0  0  0  0  0  0  0  0
    1.3461    1.0849    1.9358 H   0  0  0  0  0  0  0  0  0  0  0  0
    0.5043    3.0121    2.3242 C   0  0  0  0  0  0  0  0  0  0  0  0
   -0.4649    3.1514    2.8080 H   0  0  0  0  0  0  0  0  0  0  0  0
    1.2959    3.1139    3.0678 H   0  0  0  0  0  0  0  0  0  0  0  0
    0.6273    3.7799    1.5584 H   0  0  0  0  0  0  0  0  0  0  0  0
  5  6  2  0  0  0  0
  5  7  1  0  0  0  0
  2  3  1  0  0  0  0
  2  4  1  0  0  0  0
  2  5  1  0  0  0  0
  1  2  1  0  0  0  0
 19 20  2  0  0  0  0
 19 21  1  0  0  0  0
 16 17  1  0  0  0  0
 16 18  1  0  0  0  0
 14 15  2  0  0  0  0
 14 16  1  0  0  0  0
 11 12  1  0  0  0  0
 11 13  1  0  0  0  0
 11 14  1  0  0  0  0
  9 10  1  0  0  0  0
  9 11  1  0  0  0  0
  9 19  1  0  0  0  0
  7  8  1  0  0  0  0
  7  9  1  0  0  0  0
 23 24  1  0  0  0  0
 23 25  1  0  0  0  0
 23 26  1  0  0  0  0
 21 22  1  0  0  0  0
 21 23  1  0  0  0  0
M  END
$$$$
default_name
  -OEChem-02102213163D

 26 25  0     1  0  0  0  0  0999 V2000
   -3.0232   -3.6924    1.0038 H   0  0  0  0  0  0  0  0  0  0  0  0
   -3.0082   -2.6684    0.6318 C   0  0  0  0  0  0  0  0  0  0  0  0
   -3.6332   -2.0414    1.2658 H   0  0  0  0  0  0  0  0  0  0  0  0
   -3.3762   -2.6444   -0.3912 H   0  0  0  0  0  0  0  0  0  0  0  0
   -1.5882   -2.1554    0.6658 C   0  0  0  0  0  0  0  0  0  0  0  0
   -0.6832   -2.8764    1.0638 O   0  0  0  0  0  0  0  0  0  0  0  0
   -1.3952   -0.9084    0.2428 N   0  0  0  0  0  0  0  0  0  0  0  0
   -2.1972   -0.3644   -0.0422 H   0  0  0  0  0  0  0  0  0  0  0  0
   -0.1122   -0.1994    0.2658 C   0  0  1  0  0  0  0  0  0  0  0  0
    0.5635   -0.7260    0.9446 H   0  0  0  0  0  0  0  0  0  0  0  0
    0.4924   -0.2204   -1.1558 C   0  0  0  0  0  0  0  0  0  0  0  0
    1.5412    0.0696   -1.1025 H   0  0  0  0  0  0  0  0  0  0  0  0
    0.4368   -1.2322   -1.5548 H   0  0  0  0  0  0  0  0  0  0  0  0
   -0.1802    0.7354   -2.1279 C   0  0  0  0  0  0  0  0  0  0  0  0
   -0.0044    1.9411   -2.1015 O   0  0  0  0  0  0  0  0  0  0  0  0
   -0.9903    0.2267   -3.0242 N   0  0  0  0  0  0  0  0  0  0  0  0
   -1.4066    0.8801   -3.6640 H   0  0  0  0  0  0  0  0  0  0  0  0
   -1.1370   -0.7635   -3.0789 H   0  0  0  0  0  0  0  0  0  0  0  0
   -0.3126    1.2341    0.8050 C   0  0  0  0  0  0  0  0  0  0  0  0
   -1.2484    1.9199    0.3934 O   0  0  0  0  0  0  0  0  0  0  0  0
    0.5615    1.6875    1.7087 N   0  0  0  0  0  0  0  0  0  0  0  0
    1.3461    1.0849    1.9358 H   0  0  0  0  0  0  0  0  0  0  0  0
    0.5043    3.0121    2.3242 C   0  0  0  0  0  0  0  0  0  0  0  0
   -0.4649    3.1514    2.8080 H   0  0  0  0  0  0  0  0  0  0  0  0
    1.2959    3.1139    3.0678 H   0  0  0  0  0  0  0  0  0  0  0  0
    0.6273    3.7799    1.5584 H   0  0  0  0  0  0  0  0  0  0  0  0
  5  6  2  0  0  0  0
  5  7  1  0  0  0  0
  2  3  1  0  0  0  0
  2  4  1  0  0  0  0
  2  5  1  0  0  0  0
  1  2  1  0  0  0  0
 19 20  2  0  0  0  0
 19 21  1  0  0  0  0
 16 17  1  0  0  0  0
 16 18  1  0  0  0  0
 14 15  2  0  0  0  0
 14 16  1  0  0  0  0
 11 12  1  0  0  0  0
 11 13  1  0  0  0  0
 11 14  1  0  0  0  0
  9 10  1  0  0  0  0
  9 11  1  0  0  0  0
  9 19  1  0  0  0  0
  7  8  1  0  0  0  0
  7  9  1  0  0  0  0
 23 24  1  0  0  0  0
 23 25  1  0  0  0  0
 23 26  1  0  0  0  0
 21 22  1  0  0  0  0
 21 23  1  0  0  0  0
M  END
$$$$
default_name
  -OEChem-02102213163D

 26 25  0     1  0  0  0  0  0999 V2000
   -3.0232   -3.6924    1.0038 H   0  0  0  0  0  0  0  0  0  0  0  0
   -3.0082   -2.6684    0.6318 C   0  0  0  0  0  0  0  0  0  0  0  0
   -3.6332   -2.0414    1.2658 H   0  0  0  0  0  0  0  0  0  0  0  0
   -3.3762   -2.6444   -0.3912 H   0  0  0  0  0  0  0  0  0  0  0  0
   -1.5882   -2.1554    0.6658 C   0  0  0  0  0  0  0  0  0  0  0  0
   -0.6832   -2.8764    1.0638 O   0  0  0  0  0  0  0  0  0  0  0  0
   -1.3952   -0.9084    0.2428 N   0  0  0  0  0  0  0  0  0  0  0  0
   -2.1972   -0.3644   -0.0422 H   0  0  0  0  0  0  0  0  0  0  0  0
   -0.1122   -0.1994    0.2658 C   0  0  1  0  0  0  0  0  0  0  0  0
    0.5635   -0.7260    0.9446 H   0  0  0  0  0  0  0  0  0  0  0  0
    0.4924   -0.2204   -1.1558 C   0  0  0  0  0  0  0  0  0  0  0  0
    1.5412    0.0696   -1.1025 H   0  0  0  0  0  0  0  0  0  0  0  0
    0.4368   -1.2322   -1.5548 H   0  0  0  0  0  0  0  0  0  0  0  0
   -0.1802    0.7354   -2.1279 C   0  0  0  0  0  0  0  0  0  0  0  0
    0.1835    1.8881   -2.2835 O   0  0  0  0  0  0  0  0  0  0  0  0
   -1.2020    0.2886   -2.8169 N   0  0  0  0  0  0  0  0  0  0  0  0
   -1.6152    0.9369   -3.4639 H   0  0  0  0  0  0  0  0  0  0  0  0
   -1.5085   -0.6611   -2.7211 H   0  0  0  0  0  0  0  0  0  0  0  0
   -0.3126    1.2341    0.8050 C   0  0  0  0  0  0  0  0  0  0  0  0
   -1.2484    1.9199    0.3934 O   0  0  0  0  0  0  0  0  0  0  0  0
    0.5615    1.6875    1.7087 N   0  0  0  0  0  0  0  0  0  0  0  0
    1.3461    1.0849    1.9358 H   0  0  0  0  0  0  0  0  0  0  0  0
    0.5043    3.0121    2.3242 C   0  0  0  0  0  0  0  0  0  0  0  0
   -0.4649    3.1514    2.8080 H   0  0  0  0  0  0  0  0  0  0  0  0
    1.2959    3.1139    3.0678 H   0  0  0  0  0  0  0  0  0  0  0  0
    0.6273    3.7799    1.5584 H   0  0  0  0  0  0  0  0  0  0  0  0
  5  6  2  0  0  0  0
  5  7  1  0  0  0  0
  2  3  1  0  0  0  0
  2  4  1  0  0  0  0
  2  5  1  0  0  0  0
  1  2  1  0  0  0  0
 19 20  2  0  0  0  0
 19 21  1  0  0  0  0
 16 17  1  0  0  0  0
 16 18  1  0  0  0  0
 14 15  2  0  0  0  0
 14 16  1  0  0  0  0
 11 12  1  0  0  0  0
 11 13  1  0  0  0  0
 11 14  1  0  0  0  0
  9 10  1  0  0  0  0
  9 11  1  0  0  0  0
  9 19  1  0  0  0  0
  7  8  1  0  0  0  0
  7  9  1  0  0  0  0
 23 24  1  0  0  0  0
 23 25  1  0  0  0  0
 23 26  1  0  0  0  0
 21 22  1  0  0  0  0
 21 23  1  0  0  0  0
M  END
$$$$
default_name
  -OEChem-02102213163D

 26 25  0     1  0  0  0  0  0999 V2000
   -3.0232   -3.6924    1.0038 H   0  0  0  0  0  0  0  0  0  0  0  0
   -3.0082   -2.6684    0.6318 C   0  0  0  0  0  0  0  0  0  0  0  0
   -3.6332   -2.0414    1.2658 H   0  0  0  0  0  0  0  0  0  0  0  0
   -3.3762   -2.6444   -0.3912 H   0  0  0  0  0  0  0  0  0  0  0  0
   -1.5882   -2.1554    0.6658 C   0  0  0  0  0  0  0  0  0  0  0  0
   -0.6832   -2.8764    1.0638 O   0  0  0  0  0  0  0  0  0  0  0  0
   -1.3952   -0.9084    0.2428 N   0  0  0  0  0  0  0  0  0  0  0  0
   -2.1972   -0.3644   -0.0422 H   0  0  0  0  0  0  0  0  0  0  0  0
   -0.1122   -0.1994    0.2658 C   0  0  1  0  0  0  0  0  0  0  0  0
    0.5635   -0.7260    0.9446 H   0  0  0  0  0  0  0  0  0  0  0  0
    0.4924   -0.2204   -1.1558 C   0  0  0  0  0  0  0  0  0  0  0  0
    1.5412    0.0696   -1.1025 H   0  0  0  0  0  0  0  0  0  0  0  0
    0.4368   -1.2322   -1.5548 H   0  0  0  0  0  0  0  0  0  0  0  0
   -0.1802    0.7354   -2.1279 C   0  0  0  0  0  0  0  0  0  0  0  0
    0.3265    1.7851   -2.4839 O   0  0  0  0  0  0  0  0  0  0  0  0
   -1.3624    0.4072   -2.5893 N   0  0  0  0  0  0  0  0  0  0  0  0
   -1.7748    1.0492   -3.2431 H   0  0  0  0  0  0  0  0  0  0  0  0
   -1.7923   -0.4597   -2.3268 H   0  0  0  0  0  0  0  0  0  0  0  0
   -0.3126    1.2341    0.8050 C   0  0  0  0  0  0  0  0  0  0  0  0
   -1.2484    1.9199    0.3934 O   0  0  0  0  0  0  0  0  0  0  0  0
    0.5615    1.6875    1.7087 N   0  0  0  0  0  0  0  0  0  0  0  0
    1.3461    1.0849    1.9358 H   0  0  0  0  0  0  0  0  0  0  0  0
    0.5043    3.0121    2.3242 C   0  0  0  0  0  0  0  0  0  0  0  0
   -0.4649    3.1514    2.8080 H   0  0  0  0  0  0  0  0  0  0  0  0
    1.2959    3.1139    3.0678 H   0  0  0  0  0  0  0  0  0  0  0  0
    0.6273    3.7799    1.5584 H   0  0  0  0  0  0  0  0  0  0  0  0
  5  6  2  0  0  0  0
  5  7  1  0  0  0  0
  2  3  1  0  0  0  0
  2  4  1  0  0  0  0
  2  5  1  0  0  0  0
  1  2  1  0  0  0  0
 19 20  2  0  0  0  0
 19 21  1  0  0  0  0
 16 17  1  0  0  0  0
 16 18  1  0  0  0  0
 14 15  2  0  0  0  0
 14 16  1  0  0  0  0
 11 12  1  0  0  0  0
 11 13  1  0  0  0  0
 11 14  1  0  0  0  0
  9 10  1  0  0  0  0
  9 11  1  0  0  0  0
  9 19  1  0  0  0  0
  7  8  1  0  0  0  0
  7  9  1  0  0  0  0
 23 24  1  0  0  0  0
 23 25  1  0  0  0  0
 23 26  1  0  0  0  0
 21 22  1  0  0  0  0
 21 23  1  0  0  0  0
M  END
$$$$
default_name
  -OEChem-02102213163D

 26 25  0     1  0  0  0  0  0999 V2000
   -3.0232   -3.6924    1.0038 H   0  0  0  0  0  0  0  0  0  0  0  0
   -3.0082   -2.6684    0.6318 C   0  0  0  0  0  0  0  0  0  0  0  0
   -3.6332   -2.0414    1.2658 H   0  0  0  0  0  0  0  0  0  0  0  0
   -3.3762   -2.6444   -0.3912 H   0  0  0  0  0  0  0  0  0  0  0  0
   -1.5882   -2.1554    0.6658 C   0  0  0  0  0  0  0  0  0  0  0  0
   -0.6832   -2.8764    1.0638 O   0  0  0  0  0  0  0  0  0  0  0  0
   -1.3952   -0.9084    0.2428 N   0  0  0  0  0  0  0  0  0  0  0  0
   -2.1972   -0.3644   -0.0422 H   0  0  0  0  0  0  0  0  0  0  0  0
   -0.1122   -0.1994    0.2658 C   0  0  1  0  0  0  0  0  0  0  0  0
    0.5635   -0.7260    0.9446 H   0  0  0  0  0  0  0  0  0  0  0  0
    0.4924   -0.2204   -1.1558 C   0  0  0  0  0  0  0  0  0  0  0  0
    1.5412    0.0696   -1.1025 H   0  0  0  0  0  0  0  0  0  0  0  0
    0.4368   -1.2322   -1.5548 H   0  0  0  0  0  0  0  0  0  0  0  0
   -0.1802    0.7354   -2.1279 C   0  0  0  0  0  0  0  0  0  0  0  0
    0.4151    1.6389   -2.6889 O   0  0  0  0  0  0  0  0  0  0  0  0
   -1.4608    0.5743   -2.3569 N   0  0  0  0  0  0  0  0  0  0  0  0
   -1.8743    1.2093   -3.0168 H   0  0  0  0  0  0  0  0  0  0  0  0
   -1.9688   -0.1730   -1.9227 H   0  0  0  0  0  0  0  0  0  0  0  0
   -0.3126    1.2341    0.8050 C   0  0  0  0  0  0  0  0  0  0  0  0
   -1.2484    1.9199    0.3934 O   0  0  0  0  0  0  0  0  0  0  0  0
    0.5615    1.6875    1.7087 N   0  0  0  0  0  0  0  0  0  0  0  0
    1.3461    1.0849    1.9358 H   0  0  0  0  0  0  0  0  0  0  0  0
    0.5043    3.0121    2.3242 C   0  0  0  0  0  0  0  0  0  0  0  0
   -0.4649    3.1514    2.8080 H   0  0  0  0  0  0  0  0  0  0  0  0
    1.2959    3.1139    3.0678 H   0  0  0  0  0  0  0  0  0  0  0  0
    0.6273    3.7799    1.5584 H   0  0  0  0  0  0  0  0  0  0  0  0
  5  6  2  0  0  0  0
  5  7  1  0  0  0  0
  2  3  1  0  0  0  0
  2  4  1  0  0  0  0
  2  5  1  0  0  0  0
  1  2  1  0  0  0  0
 19 20  2  0  0  0  0
 19 21  1  0  0  0  0
 16 17  1  0  0  0  0
 16 18  1  0  0  0  0
 14 15  2  0  0  0  0
 14 16  1  0  0  0  0
 11 12  1  0  0  0  0
 11 13  1  0  0  0  0
 11 14  1  0  0  0  0
  9 10  1  0  0  0  0
  9 11  1  0  0  0  0
  9 19  1  0  0  0  0
  7  8  1  0  0  0  0
  7  9  1  0  0  0  0
 23 24  1  0  0  0  0
 23 25  1  0  0  0  0
 23 26  1  0  0  0  0
 21 22  1  0  0  0  0
 21 23  1  0  0  0  0
M  END
$$$$
default_name
  -OEChem-02102213163D

 26 25  0     1  0  0  0  0  0999 V2000
   -3.0232   -3.6924    1.0038 H   0  0  0  0  0  0  0  0  0  0  0  0
   -3.0082   -2.6684    0.6318 C   0  0  0  0  0  0  0  0  0  0  0  0
   -3.6332   -2.0414    1.2658 H   0  0  0  0  0  0  0  0  0  0  0  0
   -3.3762   -2.6444   -0.3912 H   0  0  0  0  0  0  0  0  0  0  0  0
   -1.5882   -2.1554    0.6658 C   0  0  0  0  0  0  0  0  0  0  0  0
   -0.6832   -2.8764    1.0638 O   0  0  0  0  0  0  0  0  0  0  0  0
   -1.3952   -0.9084    0.2428 N   0  0  0  0  0  0  0  0  0  0  0  0
   -2.1972   -0.3644   -0.0422 H   0  0  0  0  0  0  0  0  0  0  0  0
   -0.1122   -0.1994    0.2658 C   0  0  1  0  0  0  0  0  0  0  0  0
    0.5635   -0.7260    0.9446 H   0  0  0  0  0  0  0  0  0  0  0  0
    0.4924   -0.2204   -1.1558 C   0  0  0  0  0  0  0  0  0  0  0  0
    1.5412    0.0696   -1.1025 H   0  0  0  0  0  0  0  0  0  0  0  0
    0.4368   -1.2322   -1.5548 H   0  0  0  0  0  0  0  0  0  0  0  0
   -0.1802    0.7354   -2.1279 C   0  0  0  0  0  0  0  0  0  0  0  0
    0.4430    1.4596   -2.8845 O   0  0  0  0  0  0  0  0  0  0  0  0
   -1.4903    0.7786   -2.1356 N   0  0  0  0  0  0  0  0  0  0  0  0
   -1.9072    1.4064   -2.8003 H   0  0  0  0  0  0  0  0  0  0  0  0
   -2.0262    0.1794   -1.5366 H   0  0  0  0  0  0  0  0  0  0  0  0
   -0.3126    1.2341    0.8050 C   0  0  0  0  0  0  0  0  0  0  0  0
   -1.2484    1.9199    0.3934 O   0  0  0  0  0  0  0  0  0  0  0  0
    0.5615    1.6875    1.7087 N   0  0  0  0  0  0  0  0  0  0  0  0
    1.3461    1.0849    1.9358 H   0  0  0  0  0  0  0  0  0  0  0  0
    0.5043    3.0121    2.3242 C   0  0  0  0  0  0  0  0  0  0  0  0
   -0.4649    3.1514    2.8080 H   0  0  0  0  0  0  0  0  0  0  0  0
    1.2959    3.1139    3.0678 H   0  0  0  0  0  0  0  0  0  0  0  0
    0.6273    3.7799    1.5584 H   0  0  0  0  0  0  0  0  0  0  0  0
  5  6  2  0  0  0  0
  5  7  1  0  0  0  0
  2  3  1  0  0  0  0
  2  4  1  0  0  0  0
  2  5  1  0  0  0  0
  1  2  1  0  0  0  0
 19 20  2  0  0  0  0
 19 21  1  0  0  0  0
 16 17  1  0  0  0  0
 16 18  1  0  0  0  0
 14 15  2  0  0  0  0
 14 16  1  0  0  0  0
 11 12  1  0  0  0  0
 11 13  1  0  0  0  0
 11 14  1  0  0  0  0
  9 10  1  0  0  0  0
  9 11  1  0  0  0  0
  9 19  1  0  0  0  0
  7  8  1  0  0  0  0
  7  9  1  0  0  0  0
 23 24  1  0  0  0  0
 23 25  1  0  0  0  0
 23 26  1  0  0  0  0
 21 22  1  0  0  0  0
 21 23  1  0  0  0  0
M  END
$$$$
default_name
  -OEChem-02102213163D

 26 25  0     1  0  0  0  0  0999 V2000
   -3.0232   -3.6924    1.0038 H   0  0  0  0  0  0  0  0  0  0  0  0
   -3.0082   -2.6684    0.6318 C   0  0  0  0  0  0  0  0  0  0  0  0
   -3.6332   -2.0414    1.2658 H   0  0  0  0  0  0  0  0  0  0  0  0
   -3.3762   -2.6444   -0.3912 H   0  0  0  0  0  0  0  0  0  0  0  0
   -1.5882   -2.1554    0.6658 C   0  0  0  0  0  0  0  0  0  0  0  0
   -0.6832   -2.8764    1.0638 O   0  0  0  0  0  0  0  0  0  0  0  0
   -1.3952   -0.9084    0.2428 N   0  0  0  0  0  0  0  0  0  0  0  0
   -2.1972   -0.3644   -0.0422 H   0  0  0  0  0  0  0  0  0  0  0  0
   -0.1122   -0.1994    0.2658 C   0  0  1  0  0  0  0  0  0  0  0  0
    0.5635   -0.7260    0.9446 H   0  0  0  0  0  0  0  0  0  0  0  0
    0.4924   -0.2204   -1.1558 C   0  0  0  0  0  0  0  0  0  0  0  0
    1.5412    0.0696   -1.1025 H   0  0  0  0  0  0  0  0  0  0  0  0
    0.4368   -1.2322   -1.5548 H   0  0  0  0  0  0  0  0  0  0  0  0
   -0.1802    0.7354   -2.1279 C   0  0  0  0  0  0  0  0  0  0  0  0
    0.4085    1.2593   -3.0576 O   0  0  0  0  0  0  0  0  0  0  0  0
   -1.4490    1.0062   -1.9404 N   0  0  0  0  0  0  0  0  0  0  0  0
   -1.8711    1.6270   -2.6084 H   0  0  0  0  0  0  0  0  0  0  0  0
   -1.9604    0.5735   -1.1946 H   0  0  0  0  0  0  0  0  0  0  0  0
   -0.3126    1.2341    0.8050 C   0  0  0  0  0  0  0  0  0  0  0  0
   -1.2484    1.9199    0.3934 O   0  0  0  0  0  0  0  0  0  0  0  0
    0.5615    1.6875    1.7087 N   0  0  0  0  0  0  0  0  0  0  0  0
    1.3461    1.0849    1.9358 H   0  0  0  0  0  0  0  0  0  0  0  0
    0.5043    3.0121    2.3242 C   0  0  0  0  0  0  0  0  0  0  0  0
   -0.4649    3.1514    2.8080 H   0  0  0  0  0  0  0  0  0  0  0  0
    1.2959    3.1139    3.0678 H   0  0  0  0  0  0  0  0  0  0  0  0
    0.6273    3.7799    1.5584 H   0  0  0  0  0  0  0  0  0  0  0  0
  5  6  2  0  0  0  0
  5  7  1  0  0  0  0
  2  3  1  0  0  0  0
  2  4  1  0  0  0  0
  2  5  1  0  0  0  0
  1  2  1  0  0  0  0
 19 20  2  0  0  0  0
 19 21  1  0  0  0  0
 16 17  1  0  0  0  0
 16 18  1  0  0  0  0
 14 15  2  0  0  0  0
 14 16  1  0  0  0  0
 11 12  1  0  0  0  0
 11 13  1  0  0  0  0
 11 14  1  0  0  0  0
  9 10  1  0  0  0  0
  9 11  1  0  0  0  0
  9 19  1  0  0  0  0
  7  8  1  0  0  0  0
  7  9  1  0  0  0  0
 23 24  1  0  0  0  0
 23 25  1  0  0  0  0
 23 26  1  0  0  0  0
 21 22  1  0  0  0  0
 21 23  1  0  0  0  0
M  END
$$$$
default_name
  -OEChem-02102213163D

 26 25  0     1  0  0  0  0  0999 V2000
   -3.0232   -3.6924    1.0038 H   0  0  0  0  0  0  0  0  0  0  0  0
   -3.0082   -2.6684    0.6318 C   0  0  0  0  0  0  0  0  0  0  0  0
   -3.6332   -2.0414    1.2658 H   0  0  0  0  0  0  0  0  0  0  0  0
   -3.3762   -2.6444   -0.3912 H   0  0  0  0  0  0  0  0  0  0  0  0
   -1.5882   -2.1554    0.6658 C   0  0  0  0  0  0  0  0  0  0  0  0
   -0.6832   -2.8764    1.0638 O   0  0  0  0  0  0  0  0  0  0  0  0
   -1.3952   -0.9084    0.2428 N   0  0  0  0  0  0  0  0  0  0  0  0
   -2.1972   -0.3644   -0.0422 H   0  0  0  0  0  0  0  0  0  0  0  0
   -0.1122   -0.1994    0.2658 C   0  0  1  0  0  0  0  0  0  0  0  0
    0.5635   -0.7260    0.9446 H   0  0  0  0  0  0  0  0  0  0  0  0
    0.4924   -0.2204   -1.1558 C   0  0  0  0  0  0  0  0  0  0  0  0
    1.5412    0.0696   -1.1025 H   0  0  0  0  0  0  0  0  0  0  0  0
    0.4368   -1.2322   -1.5548 H   0  0  0  0  0  0  0  0  0  0  0  0
   -0.1802    0.7354   -2.1279 C   0  0  0  0  0  0  0  0  0  0  0  0
    0.3139    1.0518   -3.1961 O   0  0  0  0  0  0  0  0  0  0  0  0
   -1.3396    1.2415   -1.7847 N   0  0  0  0  0  0  0  0  0  0  0  0
   -1.7684    1.8560   -2.4541 H   0  0  0  0  0  0  0  0  0  0  0  0
   -1.7760    0.9824   -0.9201 H   0  0  0  0  0  0  0  0  0  0  0  0
   -0.3126    1.2341    0.8050 C   0  0  0  0  0  0  0  0  0  0  0  0
   -1.2484    1.9199    0.3934 O   0  0  0  0  0  0  0  0  0  0  0  0
    0.5615    1.6875    1.7087 N   0  0  0  0  0  0  0  0  0  0  0  0
    1.3461    1.0849    1.9358 H   0  0  0  0  0  0  0  0  0  0  0  0
    0.5043    3.0121    2.3242 C   0  0  0  0  0  0  0  0  0  0  0  0
   -0.4649    3.1514    2.8080 H   0  0  0  0  0  0  0  0  0  0  0  0
    1.2959    3.1139    3.0678 H   0  0  0  0  0  0  0  0  0  0  0  0
    0.6273    3.7799    1.5584 H   0  0  0  0  0  0  0  0  0  0  0  0
  5  6  2  0  0  0  0
  5  7  1  0  0  0  0
  2  3  1  0  0  0  0
  2  4  1  0  0  0  0
  2  5  1  0  0  0  0
  1  2  1  0  0  0  0
 19 20  2  0  0  0  0
 19 21  1  0  0  0  0
 16 17  1  0  0  0  0
 16 18  1  0  0  0  0
 14 15  2  0  0  0  0
 14 16  1  0  0  0  0
 11 12  1  0  0  0  0
 11 13  1  0  0  0  0
 11 14  1  0  0  0  0
  9 10  1  0  0  0  0
  9 11  1  0  0  0  0
  9 19  1  0  0  0  0
  7  8  1  0  0  0  0
  7  9  1  0  0  0  0
 23 24  1  0  0  0  0
 23 25  1  0  0  0  0
 23 26  1  0  0  0  0
 21 22  1  0  0  0  0
 21 23  1  0  0  0  0
M  END
$$$$
default_name
  -OEChem-02102213163D

 26 25  0     1  0  0  0  0  0999 V2000
   -3.0232   -3.6924    1.0038 H   0  0  0  0  0  0  0  0  0  0  0  0
   -3.0082   -2.6684    0.6318 C   0  0  0  0  0  0  0  0  0  0  0  0
   -3.6332   -2.0414    1.2658 H   0  0  0  0  0  0  0  0  0  0  0  0
   -3.3762   -2.6444   -0.3912 H   0  0  0  0  0  0  0  0  0  0  0  0
   -1.5882   -2.1554    0.6658 C   0  0  0  0  0  0  0  0  0  0  0  0
   -0.6832   -2.8764    1.0638 O   0  0  0  0  0  0  0  0  0  0  0  0
   -1.3952   -0.9084    0.2428 N   0  0  0  0  0  0  0  0  0  0  0  0
   -2.1972   -0.3644   -0.0422 H   0  0  0  0  0  0  0  0  0  0  0  0
   -0.1122   -0.1994    0.2658 C   0  0  1  0  0  0  0  0  0  0  0  0
    0.5635   -0.7260    0.9446 H   0  0  0  0  0  0  0  0  0  0  0  0
    0.4924   -0.2204   -1.1558 C   0  0  0  0  0  0  0  0  0  0  0  0
    1.5791   -0.1956   -1.0824 H   0  0  0  0  0  0  0  0  0  0  0  0
    0.2040   -1.1442   -1.6551 H   0  0  0  0  0  0  0  0  0  0  0  0
    0.0820    0.9612   -2.0198 C   0  0  0  0  0  0  0  0  0  0  0  0
    0.4637    1.1079   -3.1678 O   0  0  0  0  0  0  0  0  0  0  0  0
   -0.7116    1.8600   -1.4899 N   0  0  0  0  0  0  0  0  0  0  0  0
   -0.9800    2.6201   -2.0897 H   0  0  0  0  0  0  0  0  0  0  0  0
   -1.0547    1.7525   -0.5541 H   0  0  0  0  0  0  0  0  0  0  0  0
   -0.3126    1.2341    0.8050 C   0  0  0  0  0  0  0  0  0  0  0  0
   -1.2484    1.9199    0.3934 O   0  0  0  0  0  0  0  0  0  0  0  0
    0.5615    1.6875    1.7087 N   0  0  0  0  0  0  0  0  0  0  0  0
    1.3461    1.0849    1.9358 H   0  0  0  0  0  0  0  0  0  0  0  0
    0.5043    3.0121    2.3242 C   0  0  0  0  0  0  0  0  0  0  0  0
   -0.4649    3.1514    2.8080 H   0  0  0  0  0  0  0  0  0  0  0  0
    1.2959    3.1139    3.0678 H   0  0  0  0  0  0  0  0  0  0  0  0
    0.6273    3.7799    1.5584 H   0  0  0  0  0  0  0  0  0  0  0  0
  5  6  2  0  0  0  0
  5  7  1  0  0  0  0
  2  3  1  0  0  0  0
  2  4  1  0  0  0  0
  2  5  1  0  0  0  0
  1  2  1  0  0  0  0
 19 20  2  0  0  0  0
 19 21  1  0  0  0  0
 16 17  1  0  0  0  0
 16 18  1  0  0  0  0
 14 15  2  0  0  0  0
 14 16  1  0  0  0  0
 11 12  1  0  0  0  0
 11 13  1  0  0  0  0
 11 14  1  0  0  0  0
  9 10  1  0  0  0  0
  9 11  1  0  0  0  0
  9 19  1  0  0  0  0
  7  8  1  0  0  0  0
  7  9  1  0  0  0  0
 23 24  1  0  0  0  0
 23 25  1  0  0  0  0
 23 26  1  0  0  0  0
 21 22  1  0  0  0  0
 21 23  1  0  0  0  0
M  END
$$$$
default_name
  -OEChem-02102213163D

 26 25  0     1  0  0  0  0  0999 V2000
   -3.0232   -3.6924    1.0038 H   0  0  0  0  0  0  0  0  0  0  0  0
   -3.0082   -2.6684    0.6318 C   0  0  0  0  0  0  0  0  0  0  0  0
   -3.6332   -2.0414    1.2658 H   0  0  0  0  0  0  0  0  0  0  0  0
   -3.3762   -2.6444   -0.3912 H   0  0  0  0  0  0  0  0  0  0  0  0
   -1.5882   -2.1554    0.6658 C   0  0  0  0  0  0  0  0  0  0  0  0
   -0.6832   -2.8764    1.0638 O   0  0  0  0  0  0  0  0  0  0  0  0
   -1.3952   -0.9084    0.2428 N   0  0  0  0  0  0  0  0  0  0  0  0
   -2.1972   -0.3644   -0.0422 H   0  0  0  0  0  0  0  0  0  0  0  0
   -0.1122   -0.1994    0.2658 C   0  0  1  0  0  0  0  0  0  0  0  0
    0.5635   -0.7260    0.9446 H   0  0  0  0  0  0  0  0  0  0  0  0
    0.4924   -0.2204   -1.1558 C   0  0  0  0  0  0  0  0  0  0  0  0
    1.5791   -0.1956   -1.0824 H   0  0  0  0  0  0  0  0  0  0  0  0
    0.2040   -1.1442   -1.6551 H   0  0  0  0  0  0  0  0  0  0  0  0
    0.0820    0.9612   -2.0198 C   0  0  0  0  0  0  0  0  0  0  0  0
    0.2352    0.9841   -3.2286 O   0  0  0  0  0  0  0  0  0  0  0  0
   -0.4514    1.9993   -1.4230 N   0  0  0  0  0  0  0  0  0  0  0  0
   -0.7287    2.7577   -2.0209 H   0  0  0  0  0  0  0  0  0  0  0  0
   -0.6055    1.9975   -0.4324 H   0  0  0  0  0  0  0  0  0  0  0  0
   -0.3126    1.2341    0.8050 C   0  0  0  0  0  0  0  0  0  0  0  0
   -1.2484    1.9199    0.3934 O   0  0  0  0  0  0  0  0  0  0  0  0
    0.5615    1.6875    1.7087 N   0  0  0  0  0  0  0  0  0  0  0  0
    1.3461    1.0849    1.9358 H   0  0  0  0  0  0  0  0  0  0  0  0
    0.5043    3.0121    2.3242 C   0  0  0  0  0  0  0  0  0  0  0  0
   -0.4649    3.1514    2.8080 H   0  0  0  0  0  0  0  0  0  0  0  0
    1.2959    3.1139    3.0678 H   0  0  0  0  0  0  0  0  0  0  0  0
    0.6273    3.7799    1.5584 H   0  0  0  0  0  0  0  0  0  0  0  0
  5  6  2  0  0  0  0
  5  7  1  0  0  0  0
  2  3  1  0  0  0  0
  2  4  1  0  0  0  0
  2  5  1  0  0  0  0
  1  2  1  0  0  0  0
 19 20  2  0  0  0  0
 19 21  1  0  0  0  0
 16 17  1  0  0  0  0
 16 18  1  0  0  0  0
 14 15  2  0  0  0  0
 14 16  1  0  0  0  0
 11 12  1  0  0  0  0
 11 13  1  0  0  0  0
 11 14  1  0  0  0  0
  9 10  1  0  0  0  0
  9 11  1  0  0  0  0
  9 19  1  0  0  0  0
  7  8  1  0  0  0  0
  7  9  1  0  0  0  0
 23 24  1  0  0  0  0
 23 25  1  0  0  0  0
 23 26  1  0  0  0  0
 21 22  1  0  0  0  0
 21 23  1  0  0  0  0
M  END
$$$$
default_name
  -OEChem-02102213163D

 26 25  0     1  0  0  0  0  0999 V2000
   -3.0232   -3.6924    1.0038 H   0  0  0  0  0  0  0  0  0  0  0  0
   -3.0082   -2.6684    0.6318 C   0  0  0  0  0  0  0  0  0  0  0  0
   -3.6332   -2.0414    1.2658 H   0  0  0  0  0  0  0  0  0  0  0  0
   -3.3762   -2.6444   -0.3912 H   0  0  0  0  0  0  0  0  0  0  0  0
   -1.5882   -2.1554    0.6658 C   0  0  0  0  0  0  0  0  0  0  0  0
   -0.6832   -2.8764    1.0638 O   0  0  0  0  0  0  0  0  0  0  0  0
   -1.3952   -0.9084    0.2428 N   0  0  0  0  0  0  0  0  0  0  0  0
   -2.1972   -0.3644   -0.0422 H   0  0  0  0  0  0  0  0  0  0  0  0
   -0.1122   -0.1994    0.2658 C   0  0  1  0  0  0  0  0  0  0  0  0
    0.5635   -0.7260    0.9446 H   0  0  0  0  0  0  0  0  0  0  0  0
    0.4924   -0.2204   -1.1558 C   0  0  0  0  0  0  0  0  0  0  0  0
    1.5791   -0.1956   -1.0824 H   0  0  0  0  0  0  0  0  0  0  0  0
    0.2040   -1.1442   -1.6551 H   0  0  0  0  0  0  0  0  0  0  0  0
    0.0820    0.9612   -2.0198 C   0  0  0  0  0  0  0  0  0  0  0  0
   -0.0159    0.8939   -3.2326 O   0  0  0  0  0  0  0  0  0  0  0  0
   -0.1661    2.1003   -1.4204 N   0  0  0  0  0  0  0  0  0  0  0  0
   -0.4519    2.8585   -2.0146 H   0  0  0  0  0  0  0  0  0  0  0  0
   -0.1111    2.1766   -0.4223 H   0  0  0  0  0  0  0  0  0  0  0  0
   -0.3126    1.2341    0.8050 C   0  0  0  0  0  0  0  0  0  0  0  0
   -1.2484    1.9199    0.3934 O   0  0  0  0  0  0  0  0  0  0  0  0
    0.5615    1.6875    1.7087 N   0  0  0  0  0  0  0  0  0  0  0  0
    1.3461    1.0849    1.9358 H   0  0  0  0  0  0  0  0  0  0  0  0
    0.5043    3.0121    2.3242 C   0  0  0  0  0  0  0  0  0  0  0  0
   -0.4649    3.1514    2.8080 H   0  0  0  0  0  0  0  0  0  0  0  0
    1.2959    3.1139    3.0678 H   0  0  0  0  0  0  0  0  0  0  0  0
    0.6273    3.7799    1.5584 H   0  0  0  0  0  0  0  0  0  0  0  0
  5  6  2  0  0  0  0
  5  7  1  0  0  0  0
  2  3  1  0  0  0  0
  2  4  1  0  0  0  0
  2  5  1  0  0  0  0
  1  2  1  0  0  0  0
 19 20  2  0  0  0  0
 19 21  1  0  0  0  0
 16 17  1  0  0  0  0
 16 18  1  0  0  0  0
 14 15  2  0  0  0  0
 14 16  1  0  0  0  0
 11 12  1  0  0  0  0
 11 13  1  0  0  0  0
 11 14  1  0  0  0  0
  9 10  1  0  0  0  0
  9 11  1  0  0  0  0
  9 19  1  0  0  0  0
  7  8  1  0  0  0  0
  7  9  1  0  0  0  0
 23 24  1  0  0  0  0
 23 25  1  0  0  0  0
 23 26  1  0  0  0  0
 21 22  1  0  0  0  0
 21 23  1  0  0  0  0
M  END
$$$$
default_name
  -OEChem-02102213163D

 26 25  0     1  0  0  0  0  0999 V2000
   -3.0232   -3.6924    1.0038 H   0  0  0  0  0  0  0  0  0  0  0  0
   -3.0082   -2.6684    0.6318 C   0  0  0  0  0  0  0  0  0  0  0  0
   -3.6332   -2.0414    1.2658 H   0  0  0  0  0  0  0  0  0  0  0  0
   -3.3762   -2.6444   -0.3912 H   0  0  0  0  0  0  0  0  0  0  0  0
   -1.5882   -2.1554    0.6658 C   0  0  0  0  0  0  0  0  0  0  0  0
   -0.6832   -2.8764    1.0638 O   0  0  0  0  0  0  0  0  0  0  0  0
   -1.3952   -0.9084    0.2428 N   0  0  0  0  0  0  0  0  0  0  0  0
   -2.1972   -0.3644   -0.0422 H   0  0  0  0  0  0  0  0  0  0  0  0
   -0.1122   -0.1994    0.2658 C   0  0  1  0  0  0  0  0  0  0  0  0
    0.5635   -0.7260    0.9446 H   0  0  0  0  0  0  0  0  0  0  0  0
    0.4924   -0.2204   -1.1558 C   0  0  0  0  0  0  0  0  0  0  0  0
    1.5791   -0.1956   -1.0824 H   0  0  0  0  0  0  0  0  0  0  0  0
    0.2040   -1.1442   -1.6551 H   0  0  0  0  0  0  0  0  0  0  0  0
    0.0820    0.9612   -2.0198 C   0  0  0  0  0  0  0  0  0  0  0  0
   -0.2726    0.8434   -3.1798 O   0  0  0  0  0  0  0  0  0  0  0  0
    0.1249    2.1560   -1.4823 N   0  0  0  0  0  0  0  0  0  0  0  0
   -0.1685    2.9155   -2.0712 H   0  0  0  0  0  0  0  0  0  0  0  0
    0.3948    2.2776   -0.5245 H   0  0  0  0  0  0  0  0  0  0  0  0
   -0.3126    1.2341    0.8050 C   0  0  0  0  0  0  0  0  0  0  0  0
   -1.2484    1.9199    0.3934 O   0  0  0  0  0  0  0  0  0  0  0  0
    0.5615    1.6875    1.7087 N   0  0  0  0  0  0  0  0  0  0  0  0
    1.3461    1.0849    1.9358 H   0  0  0  0  0  0  0  0  0  0  0  0
    0.5043    3.0121    2.3242 C   0  0  0  0  0  0  0  0  0  0  0  0
   -0.4649    3.1514    2.8080 H   0  0  0  0  0  0  0  0  0  0  0  0
    1.2959    3.1139    3.0678 H   0  0  0  0  0  0  0  0  0  0  0  0
    0.6273    3.7799    1.5584 H   0  0  0  0  0  0  0  0  0  0  0  0
  5  6  2  0  0  0  0
  5  7  1  0  0  0  0
  2  3  1  0  0  0  0
  2  4  1  0  0  0  0
  2  5  1  0  0  0  0
  1  2  1  0  0  0  0
 19 20  2  0  0  0  0
 19 21  1  0  0  0  0
 16 17  1  0  0  0  0
 16 18  1  0  0  0  0
 14 15  2  0  0  0  0
 14 16  1  0  0  0  0
 11 12  1  0  0  0  0
 11 13  1  0  0  0  0
 11 14  1  0  0  0  0
  9 10  1  0  0  0  0
  9 11  1  0  0  0  0
  9 19  1  0  0  0  0
  7  8  1  0  0  0  0
  7  9  1  0  0  0  0
 23 24  1  0  0  0  0
 23 25  1  0  0  0  0
 23 26  1  0  0  0  0
 21 22  1  0  0  0  0
 21 23  1  0  0  0  0
M  END
$$$$
default_name
  -OEChem-02102213163D

 26 25  0     1  0  0  0  0  0999 V2000
   -3.0232   -3.6924    1.0038 H   0  0  0  0  0  0  0  0  0  0  0  0
   -3.0082   -2.6684    0.6318 C   0  0  0  0  0  0  0  0  0  0  0  0
   -3.6332   -2.0414    1.2658 H   0  0  0  0  0  0  0  0  0  0  0  0
   -3.3762   -2.6444   -0.3912 H   0  0  0  0  0  0  0  0  0  0  0  0
   -1.5882   -2.1554    0.6658 C   0  0  0  0  0  0  0  0  0  0  0  0
   -0.6832   -2.8764    1.0638 O   0  0  0  0  0  0  0  0  0  0  0  0
   -1.3952   -0.9084    0.2428 N   0  0  0  0  0  0  0  0  0  0  0  0
   -2.1972   -0.3644   -0.0422 H   0  0  0  0  0  0  0  0  0  0  0  0
   -0.1122   -0.1994    0.2658 C   0  0  1  0  0  0  0  0  0  0  0  0
    0.5635   -0.7260    0.9446 H   0  0  0  0  0  0  0  0  0  0  0  0
    0.4924   -0.2204   -1.1558 C   0  0  0  0  0  0  0  0  0  0  0  0
    1.5791   -0.1956   -1.0824 H   0  0  0  0  0  0  0  0  0  0  0  0
    0.2040   -1.1442   -1.6551 H   0  0  0  0  0  0  0  0  0  0  0  0
    0.0820    0.9612   -2.0198 C   0  0  0  0  0  0  0  0  0  0  0  0
   -0.5173    0.8361   -3.0735 O   0  0  0  0  0  0  0  0  0  0  0  0
    0.4017    2.1628   -1.6046 N   0  0  0  0  0  0  0  0  0  0  0  0
    0.1023    2.9250   -2.1869 H   0  0  0  0  0  0  0  0  0  0  0  0
    0.8777    2.2935   -0.7320 H   0  0  0  0  0  0  0  0  0  0  0  0
   -0.3126    1.2341    0.8050 C   0  0  0  0  0  0  0  0  0  0  0  0
   -1.2484    1.9199    0.3934 O   0  0  0  0  0  0  0  0  0  0  0  0
    0.5615    1.6875    1.7087 N   0  0  0  0  0  0  0  0  0  0  0  0
    1.3461    1.0849    1.9358 H   0  0  0  0  0  0  0  0  0  0  0  0
    0.5043    3.0121    2.3242 C   0  0  0  0  0  0  0  0  0  0  0  0
   -0.4649    3.1514    2.8080 H   0  0  0  0  0  0  0  0  0  0  0  0
    1.2959    3.1139    3.0678 H   0  0  0  0  0  0  0  0  0  0  0  0
    0.6273    3.7799    1.5584 H   0  0  0  0  0  0  0  0  0  0  0  0
  5  6  2  0  0  0  0
  5  7  1  0  0  0  0
  2  3  1  0  0  0  0
  2  4  1  0  0  0  0
  2  5  1  0  0  0  0
  1  2  1  0  0  0  0
 19 20  2  0  0  0  0
 19 21  1  0  0  0  0
 16 17  1  0  0  0  0
 16 18  1  0  0  0  0
 14 15  2  0  0  0  0
 14 16  1  0  0  0  0
 11 12  1  0  0  0  0
 11 13  1  0  0  0  0
 11 14  1  0  0  0  0
  9 10  1  0  0  0  0
  9 11  1  0  0  0  0
  9 19  1  0  0  0  0
  7  8  1  0  0  0  0
  7  9  1  0  0  0  0
 23 24  1  0  0  0  0
 23 25  1  0  0  0  0
 23 26  1  0  0  0  0
 21 22  1  0  0  0  0
 21 23  1  0  0  0  0
M  END
$$$$
default_name
  -OEChem-02102213163D

 26 25  0     1  0  0  0  0  0999 V2000
   -3.0232   -3.6924    1.0038 H   0  0  0  0  0  0  0  0  0  0  0  0
   -3.0082   -2.6684    0.6318 C   0  0  0  0  0  0  0  0  0  0  0  0
   -3.6332   -2.0414    1.2658 H   0  0  0  0  0  0  0  0  0  0  0  0
   -3.3762   -2.6444   -0.3912 H   0  0  0  0  0  0  0  0  0  0  0  0
   -1.5882   -2.1554    0.6658 C   0  0  0  0  0  0  0  0  0  0  0  0
   -0.6832   -2.8764    1.0638 O   0  0  0  0  0  0  0  0  0  0  0  0
   -1.3952   -0.9084    0.2428 N   0  0  0  0  0  0  0  0  0  0  0  0
   -2.1972   -0.3644   -0.0422 H   0  0  0  0  0  0  0  0  0  0  0  0
   -0.1122   -0.1994    0.2658 C   0  0  1  0  0  0  0  0  0  0  0  0
    0.5635   -0.7260    0.9446 H   0  0  0  0  0  0  0  0  0  0  0  0
    0.4924   -0.2204   -1.1558 C   0  0  0  0  0  0  0  0  0  0  0  0
    1.5791   -0.1956   -1.0824 H   0  0  0  0  0  0  0  0  0  0  0  0
    0.2040   -1.1442   -1.6551 H   0  0  0  0  0  0  0  0  0  0  0  0
    0.0820    0.9612   -2.0198 C   0  0  0  0  0  0  0  0  0  0  0  0
   -0.7334    0.8725   -2.9211 O   0  0  0  0  0  0  0  0  0  0  0  0
    0.6454    2.1200   -1.7788 N   0  0  0  0  0  0  0  0  0  0  0  0
    0.3419    2.8862   -2.3538 H   0  0  0  0  0  0  0  0  0  0  0  0
    1.3048    2.2234   -1.0308 H   0  0  0  0  0  0  0  0  0  0  0  0
   -0.3126    1.2341    0.8050 C   0  0  0  0  0  0  0  0  0  0  0  0
   -1.2484    1.9199    0.3934 O   0  0  0  0  0  0  0  0  0  0  0  0
    0.5615    1.6875    1.7087 N   0  0  0  0  0  0  0  0  0  0  0  0
    1.3461    1.0849    1.9358 H   0  0  0  0  0  0  0  0  0  0  0  0
    0.5043    3.0121    2.3242 C   0  0  0  0  0  0  0  0  0  0  0  0
   -0.4649    3.1514    2.8080 H   0  0  0  0  0  0  0  0  0  0  0  0
    1.2959    3.1139    3.0678 H   0  0  0  0  0  0  0  0  0  0  0  0
    0.6273    3.7799    1.5584 H   0  0  0  0  0  0  0  0  0  0  0  0
  5  6  2  0  0  0  0
  5  7  1  0  0  0  0
  2  3  1  0  0  0  0
  2  4  1  0  0  0  0
  2  5  1  0  0  0  0
  1  2  1  0  0  0  0
 19 20  2  0  0  0  0
 19 21  1  0  0  0  0
 16 17  1  0  0  0  0
 16 18  1  0  0  0  0
 14 15  2  0  0  0  0
 14 16  1  0  0  0  0
 11 12  1  0  0  0  0
 11 13  1  0  0  0  0
 11 14  1  0  0  0  0
  9 10  1  0  0  0  0
  9 11  1  0  0  0  0
  9 19  1  0  0  0  0
  7  8  1  0  0  0  0
  7  9  1  0  0  0  0
 23 24  1  0  0  0  0
 23 25  1  0  0  0  0
 23 26  1  0  0  0  0
 21 22  1  0  0  0  0
 21 23  1  0  0  0  0
M  END
$$$$
default_name
  -OEChem-02102213163D

 26 25  0     1  0  0  0  0  0999 V2000
   -3.0232   -3.6924    1.0038 H   0  0  0  0  0  0  0  0  0  0  0  0
   -3.0082   -2.6684    0.6318 C   0  0  0  0  0  0  0  0  0  0  0  0
   -3.6332   -2.0414    1.2658 H   0  0  0  0  0  0  0  0  0  0  0  0
   -3.3762   -2.6444   -0.3912 H   0  0  0  0  0  0  0  0  0  0  0  0
   -1.5882   -2.1554    0.6658 C   0  0  0  0  0  0  0  0  0  0  0  0
   -0.6832   -2.8764    1.0638 O   0  0  0  0  0  0  0  0  0  0  0  0
   -1.3952   -0.9084    0.2428 N   0  0  0  0  0  0  0  0  0  0  0  0
   -2.1972   -0.3644   -0.0422 H   0  0  0  0  0  0  0  0  0  0  0  0
   -0.1122   -0.1994    0.2658 C   0  0  1  0  0  0  0  0  0  0  0  0
    0.5635   -0.7260    0.9446 H   0  0  0  0  0  0  0  0  0  0  0  0
    0.4924   -0.2204   -1.1558 C   0  0  0  0  0  0  0  0  0  0  0  0
    1.5791   -0.1956   -1.0824 H   0  0  0  0  0  0  0  0  0  0  0  0
    0.2040   -1.1442   -1.6551 H   0  0  0  0  0  0  0  0  0  0  0  0
    0.0820    0.9612   -2.0198 C   0  0  0  0  0  0  0  0  0  0  0  0
   -0.9061    0.9500   -2.7330 O   0  0  0  0  0  0  0  0  0  0  0  0
    0.8395    2.0307   -1.9932 N   0  0  0  0  0  0  0  0  0  0  0  0
    0.5342    2.8019   -2.5605 H   0  0  0  0  0  0  0  0  0  0  0  0
    1.6469    2.0720   -1.4004 H   0  0  0  0  0  0  0  0  0  0  0  0
   -0.3126    1.2341    0.8050 C   0  0  0  0  0  0  0  0  0  0  0  0
   -1.2484    1.9199    0.3934 O   0  0  0  0  0  0  0  0  0  0  0  0
    0.5615    1.6875    1.7087 N   0  0  0  0  0  0  0  0  0  0  0  0
    1.3461    1.0849    1.9358 H   0  0  0  0  0  0  0  0  0  0  0  0
    0.5043    3.0121    2.3242 C   0  0  0  0  0  0  0  0  0  0  0  0
   -0.4649    3.1514    2.8080 H   0  0  0  0  0  0  0  0  0  0  0  0
    1.2959    3.1139    3.0678 H   0  0  0  0  0  0  0  0  0  0  0  0
    0.6273    3.7799    1.5584 H   0  0  0  0  0  0  0  0  0  0  0  0
  5  6  2  0  0  0  0
  5  7  1  0  0  0  0
  2  3  1  0  0  0  0
  2  4  1  0  0  0  0
  2  5  1  0  0  0  0
  1  2  1  0  0  0  0
 19 20  2  0  0  0  0
 19 21  1  0  0  0  0
 16 17  1  0  0  0  0
 16 18  1  0  0  0  0
 14 15  2  0  0  0  0
 14 16  1  0  0  0  0
 11 12  1  0  0  0  0
 11 13  1  0  0  0  0
 11 14  1  0  0  0  0
  9 10  1  0  0  0  0
  9 11  1  0  0  0  0
  9 19  1  0  0  0  0
  7  8  1  0  0  0  0
  7  9  1  0  0  0  0
 23 24  1  0  0  0  0
 23 25  1  0  0  0  0
 23 26  1  0  0  0  0
 21 22  1  0  0  0  0
 21 23  1  0  0  0  0
M  END
$$$$
default_name
  -OEChem-02102213163D

 26 25  0     1  0  0  0  0  0999 V2000
   -3.0232   -3.6924    1.0038 H   0  0  0  0  0  0  0  0  0  0  0  0
   -3.0082   -2.6684    0.6318 C   0  0  0  0  0  0  0  0  0  0  0  0
   -3.6332   -2.0414    1.2658 H   0  0  0  0  0  0  0  0  0  0  0  0
   -3.3762   -2.6444   -0.3912 H   0  0  0  0  0  0  0  0  0  0  0  0
   -1.5882   -2.1554    0.6658 C   0  0  0  0  0  0  0  0  0  0  0  0
   -0.6832   -2.8764    1.0638 O   0  0  0  0  0  0  0  0  0  0  0  0
   -1.3952   -0.9084    0.2428 N   0  0  0  0  0  0  0  0  0  0  0  0
   -2.1972   -0.3644   -0.0422 H   0  0  0  0  0  0  0  0  0  0  0  0
   -0.1122   -0.1994    0.2658 C   0  0  1  0  0  0  0  0  0  0  0  0
    0.5635   -0.7260    0.9446 H   0  0  0  0  0  0  0  0  0  0  0  0
    0.4924   -0.2204   -1.1558 C   0  0  0  0  0  0  0  0  0  0  0  0
    1.5791   -0.1956   -1.0824 H   0  0  0  0  0  0  0  0  0  0  0  0
    0.2040   -1.1442   -1.6551 H   0  0  0  0  0  0  0  0  0  0  0  0
    0.0820    0.9612   -2.0198 C   0  0  0  0  0  0  0  0  0  0  0  0
   -1.0236    1.0634   -2.5220 O   0  0  0  0  0  0  0  0  0  0  0  0
    0.9707    1.9009   -2.2330 N   0  0  0  0  0  0  0  0  0  0  0  0
    0.6659    2.6776   -2.7929 H   0  0  0  0  0  0  0  0  0  0  0  0
    1.8808    1.8496   -1.8157 H   0  0  0  0  0  0  0  0  0  0  0  0
   -0.3126    1.2341    0.8050 C   0  0  0  0  0  0  0  0  0  0  0  0
   -1.2484    1.9199    0.3934 O   0  0  0  0  0  0  0  0  0  0  0  0
    0.5615    1.6875    1.7087 N   0  0  0  0  0  0  0  0  0  0  0  0
    1.3461    1.0849    1.9358 H   0  0  0  0  0  0  0  0  0  0  0  0
    0.5043    3.0121    2.3242 C   0  0  0  0  0  0  0  0  0  0  0  0
   -0.4649    3.1514    2.8080 H   0  0  0  0  0  0  0  0  0  0  0  0
    1.2959    3.1139    3.0678 H   0  0  0  0  0  0  0  0  0  0  0  0
    0.6273    3.7799    1.5584 H   0  0  0  0  0  0  0  0  0  0  0  0
  5  6  2  0  0  0  0
  5  7  1  0  0  0  0
  2  3  1  0  0  0  0
  2  4  1  0  0  0  0
  2  5  1  0  0  0  0
  1  2  1  0  0  0  0
 19 20  2  0  0  0  0
 19 21  1  0  0  0  0
 16 17  1  0  0  0  0
 16 18  1  0  0  0  0
 14 15  2  0  0  0  0
 14 16  1  0  0  0  0
 11 12  1  0  0  0  0
 11 13  1  0  0  0  0
 11 14  1  0  0  0  0
  9 10  1  0  0  0  0
  9 11  1  0  0  0  0
  9 19  1  0  0  0  0
  7  8  1  0  0  0  0
  7  9  1  0  0  0  0
 23 24  1  0  0  0  0
 23 25  1  0  0  0  0
 23 26  1  0  0  0  0
 21 22  1  0  0  0  0
 21 23  1  0  0  0  0
M  END
$$$$
default_name
  -OEChem-02102213163D

 26 25  0     1  0  0  0  0  0999 V2000
   -3.0232   -3.6924    1.0038 H   0  0  0  0  0  0  0  0  0  0  0  0
   -3.0082   -2.6684    0.6318 C   0  0  0  0  0  0  0  0  0  0  0  0
   -3.6332   -2.0414    1.2658 H   0  0  0  0  0  0  0  0  0  0  0  0
   -3.3762   -2.6444   -0.3912 H   0  0  0  0  0  0  0  0  0  0  0  0
   -1.5882   -2.1554    0.6658 C   0  0  0  0  0  0  0  0  0  0  0  0
   -0.6832   -2.8764    1.0638 O   0  0  0  0  0  0  0  0  0  0  0  0
   -1.3952   -0.9084    0.2428 N   0  0  0  0  0  0  0  0  0  0  0  0
   -2.1972   -0.3644   -0.0422 H   0  0  0  0  0  0  0  0  0  0  0  0
   -0.1122   -0.1994    0.2658 C   0  0  1  0  0  0  0  0  0  0  0  0
    0.5635   -0.7260    0.9446 H   0  0  0  0  0  0  0  0  0  0  0  0
    0.4924   -0.2204   -1.1558 C   0  0  0  0  0  0  0  0  0  0  0  0
    1.5791   -0.1956   -1.0824 H   0  0  0  0  0  0  0  0  0  0  0  0
    0.2040   -1.1442   -1.6551 H   0  0  0  0  0  0  0  0  0  0  0  0
    0.0820    0.9612   -2.0198 C   0  0  0  0  0  0  0  0  0  0  0  0
   -1.0781    1.2051   -2.3025 O   0  0  0  0  0  0  0  0  0  0  0  0
    1.0301    1.7395   -2.4821 N   0  0  0  0  0  0  0  0  0  0  0  0
    0.7280    2.5221   -3.0352 H   0  0  0  0  0  0  0  0  0  0  0  0
    1.9904    1.5714   -2.2483 H   0  0  0  0  0  0  0  0  0  0  0  0
   -0.3126    1.2341    0.8050 C   0  0  0  0  0  0  0  0  0  0  0  0
   -1.2484    1.9199    0.3934 O   0  0  0  0  0  0  0  0  0  0  0  0
    0.5615    1.6875    1.7087 N   0  0  0  0  0  0  0  0  0  0  0  0
    1.3461    1.0849    1.9358 H   0  0  0  0  0  0  0  0  0  0  0  0
    0.5043    3.0121    2.3242 C   0  0  0  0  0  0  0  0  0  0  0  0
   -0.4649    3.1514    2.8080 H   0  0  0  0  0  0  0  0  0  0  0  0
    1.2959    3.1139    3.0678 H   0  0  0  0  0  0  0  0  0  0  0  0
    0.6273    3.7799    1.5584 H   0  0  0  0  0  0  0  0  0  0  0  0
  5  6  2  0  0  0  0
  5  7  1  0  0  0  0
  2  3  1  0  0  0  0
  2  4  1  0  0  0  0
  2  5  1  0  0  0  0
  1  2  1  0  0  0  0
 19 20  2  0  0  0  0
 19 21  1  0  0  0  0
 16 17  1  0  0  0  0
 16 18  1  0  0  0  0
 14 15  2  0  0  0  0
 14 16  1  0  0  0  0
 11 12  1  0  0  0  0
 11 13  1  0  0  0  0
 11 14  1  0  0  0  0
  9 10  1  0  0  0  0
  9 11  1  0  0  0  0
  9 19  1  0  0  0  0
  7  8  1  0  0  0  0
  7  9  1  0  0  0  0
 23 24  1  0  0  0  0
 23 25  1  0  0  0  0
 23 26  1  0  0  0  0
 21 22  1  0  0  0  0
 21 23  1  0  0  0  0
M  END
$$$$
default_name
  -OEChem-02102213163D

 26 25  0     1  0  0  0  0  0999 V2000
   -3.0232   -3.6924    1.0038 H   0  0  0  0  0  0  0  0  0  0  0  0
   -3.0082   -2.6684    0.6318 C   0  0  0  0  0  0  0  0  0  0  0  0
   -3.6332   -2.0414    1.2658 H   0  0  0  0  0  0  0  0  0  0  0  0
   -3.3762   -2.6444   -0.3912 H   0  0  0  0  0  0  0  0  0  0  0  0
   -1.5882   -2.1554    0.6658 C   0  0  0  0  0  0  0  0  0  0  0  0
   -0.6832   -2.8764    1.0638 O   0  0  0  0  0  0  0  0  0  0  0  0
   -1.3952   -0.9084    0.2428 N   0  0  0  0  0  0  0  0  0  0  0  0
   -2.1972   -0.3644   -0.0422 H   0  0  0  0  0  0  0  0  0  0  0  0
   -0.1122   -0.1994    0.2658 C   0  0  1  0  0  0  0  0  0  0  0  0
    0.5635   -0.7260    0.9446 H   0  0  0  0  0  0  0  0  0  0  0  0
    0.4924   -0.2204   -1.1558 C   0  0  0  0  0  0  0  0  0  0  0  0
    1.5791   -0.1956   -1.0824 H   0  0  0  0  0  0  0  0  0  0  0  0
    0.2040   -1.1442   -1.6551 H   0  0  0  0  0  0  0  0  0  0  0  0
    0.0820    0.9612   -2.0198 C   0  0  0  0  0  0  0  0  0  0  0  0
   -1.0656    1.3652   -2.0893 O   0  0  0  0  0  0  0  0  0  0  0  0
    1.0137    1.5574   -2.7233 N   0  0  0  0  0  0  0  0  0  0  0  0
    0.7165    2.3457   -3.2709 H   0  0  0  0  0  0  0  0  0  0  0  0
    1.9683    1.2563   -2.6688 H   0  0  0  0  0  0  0  0  0  0  0  0
   -0.3126    1.2341    0.8050 C   0  0  0  0  0  0  0  0  0  0  0  0
   -1.2484    1.9199    0.3934 O   0  0  0  0  0  0  0  0  0  0  0  0
    0.5615    1.6875    1.7087 N   0  0  0  0  0  0  0  0  0  0  0  0
    1.3461    1.0849    1.9358 H   0  0  0  0  0  0  0  0  0  0  0  0
    0.5043    3.0121    2.3242 C   0  0  0  0  0  0  0  0  0  0  0  0
   -0.4649    3.1514    2.8080 H   0  0  0  0  0  0  0  0  0  0  0  0
    1.2959    3.1139    3.0678 H   0  0  0  0  0  0  0  0  0  0  0  0
    0.6273    3.7799    1.5584 H   0  0  0  0  0  0  0  0  0  0  0  0
  5  6  2  0  0  0  0
  5  7  1  0  0  0  0
  2  3  1  0  0  0  0
  2  4  1  0  0  0  0
  2  5  1  0  0  0  0
  1  2  1  0  0  0  0
 19 20  2  0  0  0  0
 19 21  1  0  0  0  0
 16 17  1  0  0  0  0
 16 18  1  0  0  0  0
 14 15  2  0  0  0  0
 14 16  1  0  0  0  0
 11 12  1  0  0  0  0
 11 13  1  0  0  0  0
 11 14  1  0  0  0  0
  9 10  1  0  0  0  0
  9 11  1  0  0  0  0
  9 19  1  0  0  0  0
  7  8  1  0  0  0  0
  7  9  1  0  0  0  0
 23 24  1  0  0  0  0
 23 25  1  0  0  0  0
 23 26  1  0  0  0  0
 21 22  1  0  0  0  0
 21 23  1  0  0  0  0
M  END
$$$$
default_name
  -OEChem-02102213163D

 26 25  0     1  0  0  0  0  0999 V2000
   -3.0232   -3.6924    1.0038 H   0  0  0  0  0  0  0  0  0  0  0  0
   -3.0082   -2.6684    0.6318 C   0  0  0  0  0  0  0  0  0  0  0  0
   -3.6332   -2.0414    1.2658 H   0  0  0  0  0  0  0  0  0  0  0  0
   -3.3762   -2.6444   -0.3912 H   0  0  0  0  0  0  0  0  0  0  0  0
   -1.5882   -2.1554    0.6658 C   0  0  0  0  0  0  0  0  0  0  0  0
   -0.6832   -2.8764    1.0638 O   0  0  0  0  0  0  0  0  0  0  0  0
   -1.3952   -0.9084    0.2428 N   0  0  0  0  0  0  0  0  0  0  0  0
   -2.1972   -0.3644   -0.0422 H   0  0  0  0  0  0  0  0  0  0  0  0
   -0.1122   -0.1994    0.2658 C   0  0  1  0  0  0  0  0  0  0  0  0
    0.5635   -0.7260    0.9446 H   0  0  0  0  0  0  0  0  0  0  0  0
    0.4924   -0.2204   -1.1558 C   0  0  0  0  0  0  0  0  0  0  0  0
    1.5791   -0.1956   -1.0824 H   0  0  0  0  0  0  0  0  0  0  0  0
    0.2040   -1.1442   -1.6551 H   0  0  0  0  0  0  0  0  0  0  0  0
    0.0820    0.9612   -2.0198 C   0  0  0  0  0  0  0  0  0  0  0  0
   -0.9872    1.5330   -1.8972 O   0  0  0  0  0  0  0  0  0  0  0  0
    0.9225    1.3671   -2.9402 N   0  0  0  0  0  0  0  0  0  0  0  0
    0.6319    2.1606   -3.4839 H   0  0  0  0  0  0  0  0  0  0  0  0
    1.8161    0.9258   -3.0485 H   0  0  0  0  0  0  0  0  0  0  0  0
   -0.3126    1.2341    0.8050 C   0  0  0  0  0  0  0  0  0  0  0  0
   -1.2484    1.9199    0.3934 O   0  0  0  0  0  0  0  0  0  0  0  0
    0.5615    1.6875    1.7087 N   0  0  0  0  0  0  0  0  0  0  0  0
    1.3461    1.0849    1.9358 H   0  0  0  0  0  0  0  0  0  0  0  0
    0.5043    3.0121    2.3242 C   0  0  0  0  0  0  0  0  0  0  0  0
   -0.4649    3.1514    2.8080 H   0  0  0  0  0  0  0  0  0  0  0  0
    1.2959    3.1139    3.0678 H   0  0  0  0  0  0  0  0  0  0  0  0
    0.6273    3.7799    1.5584 H   0  0  0  0  0  0  0  0  0  0  0  0
  5  6  2  0  0  0  0
  5  7  1  0  0  0  0
  2  3  1  0  0  0  0
  2  4  1  0  0  0  0
  2  5  1  0  0  0  0
  1  2  1  0  0  0  0
 19 20  2  0  0  0  0
 19 21  1  0  0  0  0
 16 17  1  0  0  0  0
 16 18  1  0  0  0  0
 14 15  2  0  0  0  0
 14 16  1  0  0  0  0
 11 12  1  0  0  0  0
 11 13  1  0  0  0  0
 11 14  1  0  0  0  0
  9 10  1  0  0  0  0
  9 11  1  0  0  0  0
  9 19  1  0  0  0  0
  7  8  1  0  0  0  0
  7  9  1  0  0  0  0
 23 24  1  0  0  0  0
 23 25  1  0  0  0  0
 23 26  1  0  0  0  0
 21 22  1  0  0  0  0
 21 23  1  0  0  0  0
M  END
$$$$
default_name
  -OEChem-02102213163D

 26 25  0     1  0  0  0  0  0999 V2000
   -3.0232   -3.6924    1.0038 H   0  0  0  0  0  0  0  0  0  0  0  0
   -3.0082   -2.6684    0.6318 C   0  0  0  0  0  0  0  0  0  0  0  0
   -3.6332   -2.0414    1.2658 H   0  0  0  0  0  0  0  0  0  0  0  0
   -3.3762   -2.6444   -0.3912 H   0  0  0  0  0  0  0  0  0  0  0  0
   -1.5882   -2.1554    0.6658 C   0  0  0  0  0  0  0  0  0  0  0  0
   -0.6832   -2.8764    1.0638 O   0  0  0  0  0  0  0  0  0  0  0  0
   -1.3952   -0.9084    0.2428 N   0  0  0  0  0  0  0  0  0  0  0  0
   -2.1972   -0.3644   -0.0422 H   0  0  0  0  0  0  0  0  0  0  0  0
   -0.1122   -0.1994    0.2658 C   0  0  1  0  0  0  0  0  0  0  0  0
    0.5635   -0.7260    0.9446 H   0  0  0  0  0  0  0  0  0  0  0  0
    0.4924   -0.2204   -1.1558 C   0  0  0  0  0  0  0  0  0  0  0  0
    1.5791   -0.1956   -1.0824 H   0  0  0  0  0  0  0  0  0  0  0  0
    0.2040   -1.1442   -1.6551 H   0  0  0  0  0  0  0  0  0  0  0  0
    0.0820    0.9612   -2.0198 C   0  0  0  0  0  0  0  0  0  0  0  0
   -0.8481    1.6969   -1.7390 O   0  0  0  0  0  0  0  0  0  0  0  0
    0.7627    1.1816   -3.1181 N   0  0  0  0  0  0  0  0  0  0  0  0
    0.4802    1.9793   -3.6598 H   0  0  0  0  0  0  0  0  0  0  0  0
    1.5440    0.6024   -3.3615 H   0  0  0  0  0  0  0  0  0  0  0  0
   -0.3126    1.2341    0.8050 C   0  0  0  0  0  0  0  0  0  0  0  0
   -1.2484    1.9199    0.3934 O   0  0  0  0  0  0  0  0  0  0  0  0
    0.5615    1.6875    1.7087 N   0  0  0  0  0  0  0  0  0  0  0  0
    1.3461    1.0849    1.9358 H   0  0  0  0  0  0  0  0  0  0  0  0
    0.5043    3.0121    2.3242 C   0  0  0  0  0  0  0  0  0  0  0  0
   -0.4649    3.1514    2.8080 H   0  0  0  0  0  0  0  0  0  0  0  0
    1.2959    3.1139    3.0678 H   0  0  0  0  0  0  0  0  0  0  0  0
    0.6273    3.7799    1.5584 H   0  0  0  0  0  0  0  0  0  0  0  0
  5  6  2  0  0  0  0
  5  7  1  0  0  0  0
  2  3  1  0  0  0  0
  2  4  1  0  0  0  0
  2  5  1  0  0  0  0
  1  2  1  0  0  0  0
 19 20  2  0  0  0  0
 19 21  1  0  0  0  0
 16 17  1  0  0  0  0
 16 18  1  0  0  0  0
 14 15  2  0  0  0  0
 14 16  1  0  0  0  0
 11 12  1  0  0  0  0
 11 13  1  0  0  0  0
 11 14  1  0  0  0  0
  9 10  1  0  0  0  0
  9 11  1  0  0  0  0
  9 19  1  0  0  0  0
  7  8  1  0  0  0  0
  7  9  1  0  0  0  0
 23 24  1  0  0  0  0
 23 25  1  0  0  0  0
 23 26  1  0  0  0  0
 21 22  1  0  0  0  0
 21 23  1  0  0  0  0
M  END
$$$$
default_name
  -OEChem-02102213163D

 26 25  0     1  0  0  0  0  0999 V2000
   -3.0232   -3.6924    1.0038 H   0  0  0  0  0  0  0  0  0  0  0  0
   -3.0082   -2.6684    0.6318 C   0  0  0  0  0  0  0  0  0  0  0  0
   -3.6332   -2.0414    1.2658 H   0  0  0  0  0  0  0  0  0  0  0  0
   -3.3762   -2.6444   -0.3912 H   0  0  0  0  0  0  0  0  0  0  0  0
   -1.5882   -2.1554    0.6658 C   0  0  0  0  0  0  0  0  0  0  0  0
   -0.6832   -2.8764    1.0638 O   0  0  0  0  0  0  0  0  0  0  0  0
   -1.3952   -0.9084    0.2428 N   0  0  0  0  0  0  0  0  0  0  0  0
   -2.1972   -0.3644   -0.0422 H   0  0  0  0  0  0  0  0  0  0  0  0
   -0.1122   -0.1994    0.2658 C   0  0  1  0  0  0  0  0  0  0  0  0
    0.5635   -0.7260    0.9446 H   0  0  0  0  0  0  0  0  0  0  0  0
    0.4924   -0.2204   -1.1558 C   0  0  0  0  0  0  0  0  0  0  0  0
    1.5791   -0.1956   -1.0824 H   0  0  0  0  0  0  0  0  0  0  0  0
    0.2040   -1.1442   -1.6551 H   0  0  0  0  0  0  0  0  0  0  0  0
    0.0820    0.9612   -2.0198 C   0  0  0  0  0  0  0  0  0  0  0  0
   -0.6578    1.8458   -1.6257 O   0  0  0  0  0  0  0  0  0  0  0  0
    0.5454    1.0134   -3.2449 N   0  0  0  0  0  0  0  0  0  0  0  0
    0.2716    1.8143   -3.7864 H   0  0  0  0  0  0  0  0  0  0  0  0
    1.1707    0.3082   -3.5866 H   0  0  0  0  0  0  0  0  0  0  0  0
   -0.3126    1.2341    0.8050 C   0  0  0  0  0  0  0  0  0  0  0  0
   -1.2484    1.9199    0.3934 O   0  0  0  0  0  0  0  0  0  0  0  0
    0.5615    1.6875    1.7087 N   0  0  0  0  0  0  0  0  0  0  0  0
    1.3461    1.0849    1.9358 H   0  0  0  0  0  0  0  0  0  0  0  0
    0.5043    3.0121    2.3242 C   0  0  0  0  0  0  0  0  0  0  0  0
   -0.4649    3.1514    2.8080 H   0  0  0  0  0  0  0  0  0  0  0  0
    1.2959    3.1139    3.0678 H   0  0  0  0  0  0  0  0  0  0  0  0
    0.6273    3.7799    1.5584 H   0  0  0  0  0  0  0  0  0  0  0  0
  5  6  2  0  0  0  0
  5  7  1  0  0  0  0
  2  3  1  0  0  0  0
  2  4  1  0  0  0  0
  2  5  1  0  0  0  0
  1  2  1  0  0  0  0
 19 20  2  0  0  0  0
 19 21  1  0  0  0  0
 16 17  1  0  0  0  0
 16 18  1  0  0  0  0
 14 15  2  0  0  0  0
 14 16  1  0  0  0  0
 11 12  1  0  0  0  0
 11 13  1  0  0  0  0
 11 14  1  0  0  0  0
  9 10  1  0  0  0  0
  9 11  1  0  0  0  0
  9 19  1  0  0  0  0
  7  8  1  0  0  0  0
  7  9  1  0  0  0  0
 23 24  1  0  0  0  0
 23 25  1  0  0  0  0
 23 26  1  0  0  0  0
 21 22  1  0  0  0  0
 21 23  1  0  0  0  0
M  END
$$$$
default_name
  -OEChem-02102213163D

 26 25  0     1  0  0  0  0  0999 V2000
   -3.0232   -3.6924    1.0038 H   0  0  0  0  0  0  0  0  0  0  0  0
   -3.0082   -2.6684    0.6318 C   0  0  0  0  0  0  0  0  0  0  0  0
   -3.6332   -2.0414    1.2658 H   0  0  0  0  0  0  0  0  0  0  0  0
   -3.3762   -2.6444   -0.3912 H   0  0  0  0  0  0  0  0  0  0  0  0
   -1.5882   -2.1554    0.6658 C   0  0  0  0  0  0  0  0  0  0  0  0
   -0.6832   -2.8764    1.0638 O   0  0  0  0  0  0  0  0  0  0  0  0
   -1.3952   -0.9084    0.2428 N   0  0  0  0  0  0  0  0  0  0  0  0
   -2.1972   -0.3644   -0.0422 H   0  0  0  0  0  0  0  0  0  0  0  0
   -0.1122   -0.1994    0.2658 C   0  0  1  0  0  0  0  0  0  0  0  0
    0.5635   -0.7260    0.9446 H   0  0  0  0  0  0  0  0  0  0  0  0
    0.4924   -0.2204   -1.1558 C   0  0  0  0  0  0  0  0  0  0  0  0
    1.5791   -0.1956   -1.0824 H   0  0  0  0  0  0  0  0  0  0  0  0
    0.2040   -1.1442   -1.6551 H   0  0  0  0  0  0  0  0  0  0  0  0
    0.0820    0.9612   -2.0198 C   0  0  0  0  0  0  0  0  0  0  0  0
   -0.4293    1.9696   -1.5649 O   0  0  0  0  0  0  0  0  0  0  0  0
    0.2852    0.8741   -3.3118 N   0  0  0  0  0  0  0  0  0  0  0  0
    0.0203    1.6767   -3.8552 H   0  0  0  0  0  0  0  0  0  0  0  0
    0.7215    0.0632   -3.7083 H   0  0  0  0  0  0  0  0  0  0  0  0
   -0.3126    1.2341    0.8050 C   0  0  0  0  0  0  0  0  0  0  0  0
   -1.2484    1.9199    0.3934 O   0  0  0  0  0  0  0  0  0  0  0  0
    0.5615    1.6875    1.7087 N   0  0  0  0  0  0  0  0  0  0  0  0
    1.3461    1.0849    1.9358 H   0  0  0  0  0  0  0  0  0  0  0  0
    0.5043    3.0121    2.3242 C   0  0  0  0  0  0  0  0  0  0  0  0
   -0.4649    3.1514    2.8080 H   0  0  0  0  0  0  0  0  0  0  0  0
    1.2959    3.1139    3.0678 H   0  0  0  0  0  0  0  0  0  0  0  0
    0.6273    3.7799    1.5584 H   0  0  0  0  0  0  0  0  0  0  0  0
  5  6  2  0  0  0  0
  5  7  1  0  0  0  0
  2  3  1  0  0  0  0
  2  4  1  0  0  0  0
  2  5  1  0  0  0  0
  1  2  1  0  0  0  0
 19 20  2  0  0  0  0
 19 21  1  0  0  0  0
 16 17  1  0  0  0  0
 16 18  1  0  0  0  0
 14 15  2  0  0  0  0
 14 16  1  0  0  0  0
 11 12  1  0  0  0  0
 11 13  1  0  0  0  0
 11 14  1  0  0  0  0
  9 10  1  0  0  0  0
  9 11  1  0  0  0  0
  9 19  1  0  0  0  0
  7  8  1  0  0  0  0
  7  9  1  0  0  0  0
 23 24  1  0  0  0  0
 23 25  1  0  0  0  0
 23 26  1  0  0  0  0
 21 22  1  0  0  0  0
 21 23  1  0  0  0  0
M  END
$$$$
default_name
  -OEChem-02102213163D

 26 25  0     1  0  0  0  0  0999 V2000
   -3.0232   -3.6924    1.0038 H   0  0  0  0  0  0  0  0  0  0  0  0
   -3.0082   -2.6684    0.6318 C   0  0  0  0  0  0  0  0  0  0  0  0
   -3.6332   -2.0414    1.2658 H   0  0  0  0  0  0  0  0  0  0  0  0
   -3.3762   -2.6444   -0.3912 H   0  0  0  0  0  0  0  0  0  0  0  0
   -1.5882   -2.1554    0.6658 C   0  0  0  0  0  0  0  0  0  0  0  0
   -0.6832   -2.8764    1.0638 O   0  0  0  0  0  0  0  0  0  0  0  0
   -1.3952   -0.9084    0.2428 N   0  0  0  0  0  0  0  0  0  0  0  0
   -2.1972   -0.3644   -0.0422 H   0  0  0  0  0  0  0  0  0  0  0  0
   -0.1122   -0.1994    0.2658 C   0  0  1  0  0  0  0  0  0  0  0  0
    0.5635   -0.7260    0.9446 H   0  0  0  0  0  0  0  0  0  0  0  0
    0.4924   -0.2204   -1.1558 C   0  0  0  0  0  0  0  0  0  0  0  0
    1.5791   -0.1956   -1.0824 H   0  0  0  0  0  0  0  0  0  0  0  0
    0.2040   -1.1442   -1.6551 H   0  0  0  0  0  0  0  0  0  0  0  0
    0.0820    0.9612   -2.0198 C   0  0  0  0  0  0  0  0  0  0  0  0
   -0.1782    2.0598   -1.5609 O   0  0  0  0  0  0  0  0  0  0  0  0
   -0.0001    0.7731   -3.3144 N   0  0  0  0  0  0  0  0  0  0  0  0
   -0.2565    1.5760   -3.8616 H   0  0  0  0  0  0  0  0  0  0  0  0
    0.2272   -0.1158   -3.7184 H   0  0  0  0  0  0  0  0  0  0  0  0
   -0.3126    1.2341    0.8050 C   0  0  0  0  0  0  0  0  0  0  0  0
   -1.2484    1.9199    0.3934 O   0  0  0  0  0  0  0  0  0  0  0  0
    0.5615    1.6875    1.7087 N   0  0  0  0  0  0  0  0  0  0  0  0
    1.3461    1.0849    1.9358 H   0  0  0  0  0  0  0  0  0  0  0  0
    0.5043    3.0121    2.3242 C   0  0  0  0  0  0  0  0  0  0  0  0
   -0.4649    3.1514    2.8080 H   0  0  0  0  0  0  0  0  0  0  0  0
    1.2959    3.1139    3.0678 H   0  0  0  0  0  0  0  0  0  0  0  0
    0.6273    3.7799    1.5584 H   0  0  0  0  0  0  0  0  0  0  0  0
  5  6  2  0  0  0  0
  5  7  1  0  0  0  0
  2  3  1  0  0  0  0
  2  4  1  0  0  0  0
  2  5  1  0  0  0  0
  1  2  1  0  0  0  0
 19 20  2  0  0  0  0
 19 21  1  0  0  0  0
 16 17  1  0  0  0  0
 16 18  1  0  0  0  0
 14 15  2  0  0  0  0
 14 16  1  0  0  0  0
 11 12  1  0  0  0  0
 11 13  1  0  0  0  0
 11 14  1  0  0  0  0
  9 10  1  0  0  0  0
  9 11  1  0  0  0  0
  9 19  1  0  0  0  0
  7  8  1  0  0  0  0
  7  9  1  0  0  0  0
 23 24  1  0  0  0  0
 23 25  1  0  0  0  0
 23 26  1  0  0  0  0
 21 22  1  0  0  0  0
 21 23  1  0  0  0  0
M  END
$$$$
default_name
  -OEChem-02102213163D

 26 25  0     1  0  0  0  0  0999 V2000
   -3.0232   -3.6924    1.0038 H   0  0  0  0  0  0  0  0  0  0  0  0
   -3.0082   -2.6684    0.6318 C   0  0  0  0  0  0  0  0  0  0  0  0
   -3.6332   -2.0414    1.2658 H   0  0  0  0  0  0  0  0  0  0  0  0
   -3.3762   -2.6444   -0.3912 H   0  0  0  0  0  0  0  0  0  0  0  0
   -1.5882   -2.1554    0.6658 C   0  0  0  0  0  0  0  0  0  0  0  0
   -0.6832   -2.8764    1.0638 O   0  0  0  0  0  0  0  0  0  0  0  0
   -1.3952   -0.9084    0.2428 N   0  0  0  0  0  0  0  0  0  0  0  0
   -2.1972   -0.3644   -0.0422 H   0  0  0  0  0  0  0  0  0  0  0  0
   -0.1122   -0.1994    0.2658 C   0  0  1  0  0  0  0  0  0  0  0  0
    0.5635   -0.7260    0.9446 H   0  0  0  0  0  0  0  0  0  0  0  0
    0.4924   -0.2204   -1.1558 C   0  0  0  0  0  0  0  0  0  0  0  0
    1.5791   -0.1956   -1.0824 H   0  0  0  0  0  0  0  0  0  0  0  0
    0.2040   -1.1442   -1.6551 H   0  0  0  0  0  0  0  0  0  0  0  0
    0.0820    0.9612   -2.0198 C   0  0  0  0  0  0  0  0  0  0  0  0
    0.0785    2.1103   -1.6138 O   0  0  0  0  0  0  0  0  0  0  0  0
   -0.2911    0.7173   -3.2525 N   0  0  0  0  0  0  0  0  0  0  0  0
   -0.5399    1.5189   -3.8050 H   0  0  0  0  0  0  0  0  0  0  0  0
   -0.2788   -0.2168   -3.6162 H   0  0  0  0  0  0  0  0  0  0  0  0
   -0.3126    1.2341    0.8050 C   0  0  0  0  0  0  0  0  0  0  0  0
   -1.2484    1.9199    0.3934 O   0  0  0  0  0  0  0  0  0  0  0  0
    0.5615    1.6875    1.7087 N   0  0  0  0  0  0  0  0  0  0  0  0
    1.3461    1.0849    1.9358 H   0  0  0  0  0  0  0  0  0  0  0  0
    0.5043    3.0121    2.3242 C   0  0  0  0  0  0  0  0  0  0  0  0
   -0.4649    3.1514    2.8080 H   0  0  0  0  0  0  0  0  0  0  0  0
    1.2959    3.1139    3.0678 H   0  0  0  0  0  0  0  0  0  0  0  0
    0.6273    3.7799    1.5584 H   0  0  0  0  0  0  0  0  0  0  0  0
  5  6  2  0  0  0  0
  5  7  1  0  0  0  0
  2  3  1  0  0  0  0
  2  4  1  0  0  0  0
  2  5  1  0  0  0  0
  1  2  1  0  0  0  0
 19 20  2  0  0  0  0
 19 21  1  0  0  0  0
 16 17  1  0  0  0  0
 16 18  1  0  0  0  0
 14 15  2  0  0  0  0
 14 16  1  0  0  0  0
 11 12  1  0  0  0  0
 11 13  1  0  0  0  0
 11 14  1  0  0  0  0
  9 10  1  0  0  0  0
  9 11  1  0  0  0  0
  9 19  1  0  0  0  0
  7  8  1  0  0  0  0
  7  9  1  0  0  0  0
 23 24  1  0  0  0  0
 23 25  1  0  0  0  0
 23 26  1  0  0  0  0
 21 22  1  0  0  0  0
 21 23  1  0  0  0  0
M  END
$$$$
default_name
  -OEChem-02102213163D

 26 25  0     1  0  0  0  0  0999 V2000
   -3.0232   -3.6924    1.0038 H   0  0  0  0  0  0  0  0  0  0  0  0
   -3.0082   -2.6684    0.6318 C   0  0  0  0  0  0  0  0  0  0  0  0
   -3.6332   -2.0414    1.2658 H   0  0  0  0  0  0  0  0  0  0  0  0
   -3.3762   -2.6444   -0.3912 H   0  0  0  0  0  0  0  0  0  0  0  0
   -1.5882   -2.1554    0.6658 C   0  0  0  0  0  0  0  0  0  0  0  0
   -0.6832   -2.8764    1.0638 O   0  0  0  0  0  0  0  0  0  0  0  0
   -1.3952   -0.9084    0.2428 N   0  0  0  0  0  0  0  0  0  0  0  0
   -2.1972   -0.3644   -0.0422 H   0  0  0  0  0  0  0  0  0  0  0  0
   -0.1122   -0.1994    0.2658 C   0  0  1  0  0  0  0  0  0  0  0  0
    0.5635   -0.7260    0.9446 H   0  0  0  0  0  0  0  0  0  0  0  0
    0.4924   -0.2204   -1.1558 C   0  0  0  0  0  0  0  0  0  0  0  0
    1.5791   -0.1956   -1.0824 H   0  0  0  0  0  0  0  0  0  0  0  0
    0.2040   -1.1442   -1.6551 H   0  0  0  0  0  0  0  0  0  0  0  0
    0.0820    0.9612   -2.0198 C   0  0  0  0  0  0  0  0  0  0  0  0
    0.3232    2.1176   -1.7200 O   0  0  0  0  0  0  0  0  0  0  0  0
   -0.5679    0.7106   -3.1302 N   0  0  0  0  0  0  0  0  0  0  0  0
   -0.8107    1.5094   -3.6893 H   0  0  0  0  0  0  0  0  0  0  0  0
   -0.7617   -0.2328   -3.4086 H   0  0  0  0  0  0  0  0  0  0  0  0
   -0.3126    1.2341    0.8050 C   0  0  0  0  0  0  0  0  0  0  0  0
   -1.2484    1.9199    0.3934 O   0  0  0  0  0  0  0  0  0  0  0  0
    0.5615    1.6875    1.7087 N   0  0  0  0  0  0  0  0  0  0  0  0
    1.3461    1.0849    1.9358 H   0  0  0  0  0  0  0  0  0  0  0  0
    0.5043    3.0121    2.3242 C   0  0  0  0  0  0  0  0  0  0  0  0
   -0.4649    3.1514    2.8080 H   0  0  0  0  0  0  0  0  0  0  0  0
    1.2959    3.1139    3.0678 H   0  0  0  0  0  0  0  0  0  0  0  0
    0.6273    3.7799    1.5584 H   0  0  0  0  0  0  0  0  0  0  0  0
  5  6  2  0  0  0  0
  5  7  1  0  0  0  0
  2  3  1  0  0  0  0
  2  4  1  0  0  0  0
  2  5  1  0  0  0  0
  1  2  1  0  0  0  0
 19 20  2  0  0  0  0
 19 21  1  0  0  0  0
 16 17  1  0  0  0  0
 16 18  1  0  0  0  0
 14 15  2  0  0  0  0
 14 16  1  0  0  0  0
 11 12  1  0  0  0  0
 11 13  1  0  0  0  0
 11 14  1  0  0  0  0
  9 10  1  0  0  0  0
  9 11  1  0  0  0  0
  9 19  1  0  0  0  0
  7  8  1  0  0  0  0
  7  9  1  0  0  0  0
 23 24  1  0  0  0  0
 23 25  1  0  0  0  0
 23 26  1  0  0  0  0
 21 22  1  0  0  0  0
 21 23  1  0  0  0  0
M  END
$$$$
default_name
  -OEChem-02102213163D

 26 25  0     1  0  0  0  0  0999 V2000
   -3.0232   -3.6924    1.0038 H   0  0  0  0  0  0  0  0  0  0  0  0
   -3.0082   -2.6684    0.6318 C   0  0  0  0  0  0  0  0  0  0  0  0
   -3.6332   -2.0414    1.2658 H   0  0  0  0  0  0  0  0  0  0  0  0
   -3.3762   -2.6444   -0.3912 H   0  0  0  0  0  0  0  0  0  0  0  0
   -1.5882   -2.1554    0.6658 C   0  0  0  0  0  0  0  0  0  0  0  0
   -0.6832   -2.8764    1.0638 O   0  0  0  0  0  0  0  0  0  0  0  0
   -1.3952   -0.9084    0.2428 N   0  0  0  0  0  0  0  0  0  0  0  0
   -2.1972   -0.3644   -0.0422 H   0  0  0  0  0  0  0  0  0  0  0  0
   -0.1122   -0.1994    0.2658 C   0  0  1  0  0  0  0  0  0  0  0  0
    0.5635   -0.7260    0.9446 H   0  0  0  0  0  0  0  0  0  0  0  0
    0.4924   -0.2204   -1.1558 C   0  0  0  0  0  0  0  0  0  0  0  0
    1.5791   -0.1956   -1.0824 H   0  0  0  0  0  0  0  0  0  0  0  0
    0.2040   -1.1442   -1.6551 H   0  0  0  0  0  0  0  0  0  0  0  0
    0.0820    0.9612   -2.0198 C   0  0  0  0  0  0  0  0  0  0  0  0
    0.5392    2.0812   -1.8724 O   0  0  0  0  0  0  0  0  0  0  0  0
   -0.8116    0.7533   -2.9560 N   0  0  0  0  0  0  0  0  0  0  0  0
   -1.0503    1.5482   -3.5224 H   0  0  0  0  0  0  0  0  0  0  0  0
   -1.1888   -0.1627   -3.1099 H   0  0  0  0  0  0  0  0  0  0  0  0
   -0.3126    1.2341    0.8050 C   0  0  0  0  0  0  0  0  0  0  0  0
   -1.2484    1.9199    0.3934 O   0  0  0  0  0  0  0  0  0  0  0  0
    0.5615    1.6875    1.7087 N   0  0  0  0  0  0  0  0  0  0  0  0
    1.3461    1.0849    1.9358 H   0  0  0  0  0  0  0  0  0  0  0  0
    0.5043    3.0121    2.3242 C   0  0  0  0  0  0  0  0  0  0  0  0
   -0.4649    3.1514    2.8080 H   0  0  0  0  0  0  0  0  0  0  0  0
    1.2959    3.1139    3.0678 H   0  0  0  0  0  0  0  0  0  0  0  0
    0.6273    3.7799    1.5584 H   0  0  0  0  0  0  0  0  0  0  0  0
  5  6  2  0  0  0  0
  5  7  1  0  0  0  0
  2  3  1  0  0  0  0
  2  4  1  0  0  0  0
  2  5  1  0  0  0  0
  1  2  1  0  0  0  0
 19 20  2  0  0  0  0
 19 21  1  0  0  0  0
 16 17  1  0  0  0  0
 16 18  1  0  0  0  0
 14 15  2  0  0  0  0
 14 16  1  0  0  0  0
 11 12  1  0  0  0  0
 11 13  1  0  0  0  0
 11 14  1  0  0  0  0
  9 10  1  0  0  0  0
  9 11  1  0  0  0  0
  9 19  1  0  0  0  0
  7  8  1  0  0  0  0
  7  9  1  0  0  0  0
 23 24  1  0  0  0  0
 23 25  1  0  0  0  0
 23 26  1  0  0  0  0
 21 22  1  0  0  0  0
 21 23  1  0  0  0  0
M  END
$$$$
default_name
  -OEChem-02102213163D

 26 25  0     1  0  0  0  0  0999 V2000
   -3.0232   -3.6924    1.0038 H   0  0  0  0  0  0  0  0  0  0  0  0
   -3.0082   -2.6684    0.6318 C   0  0  0  0  0  0  0  0  0  0  0  0
   -3.6332   -2.0414    1.2658 H   0  0  0  0  0  0  0  0  0  0  0  0
   -3.3762   -2.6444   -0.3912 H   0  0  0  0  0  0  0  0  0  0  0  0
   -1.5882   -2.1554    0.6658 C   0  0  0  0  0  0  0  0  0  0  0  0
   -0.6832   -2.8764    1.0638 O   0  0  0  0  0  0  0  0  0  0  0  0
   -1.3952   -0.9084    0.2428 N   0  0  0  0  0  0  0  0  0  0  0  0
   -2.1972   -0.3644   -0.0422 H   0  0  0  0  0  0  0  0  0  0  0  0
   -0.1122   -0.1994    0.2658 C   0  0  1  0  0  0  0  0  0  0  0  0
    0.5635   -0.7260    0.9446 H   0  0  0  0  0  0  0  0  0  0  0  0
    0.4924   -0.2204   -1.1558 C   0  0  0  0  0  0  0  0  0  0  0  0
    1.5791   -0.1956   -1.0824 H   0  0  0  0  0  0  0  0  0  0  0  0
    0.2040   -1.1442   -1.6551 H   0  0  0  0  0  0  0  0  0  0  0  0
    0.0820    0.9612   -2.0198 C   0  0  0  0  0  0  0  0  0  0  0  0
    0.7120    2.0037   -2.0605 O   0  0  0  0  0  0  0  0  0  0  0  0
   -1.0057    0.8426   -2.7416 N   0  0  0  0  0  0  0  0  0  0  0  0
   -1.2426    1.6326   -3.3157 H   0  0  0  0  0  0  0  0  0  0  0  0
   -1.5309   -0.0113   -2.7402 H   0  0  0  0  0  0  0  0  0  0  0  0
   -0.3126    1.2341    0.8050 C   0  0  0  0  0  0  0  0  0  0  0  0
   -1.2484    1.9199    0.3934 O   0  0  0  0  0  0  0  0  0  0  0  0
    0.5615    1.6875    1.7087 N   0  0  0  0  0  0  0  0  0  0  0  0
    1.3461    1.0849    1.9358 H   0  0  0  0  0  0  0  0  0  0  0  0
    0.5043    3.0121    2.3242 C   0  0  0  0  0  0  0  0  0  0  0  0
   -0.4649    3.1514    2.8080 H   0  0  0  0  0  0  0  0  0  0  0  0
    1.2959    3.1139    3.0678 H   0  0  0  0  0  0  0  0  0  0  0  0
    0.6273    3.7799    1.5584 H   0  0  0  0  0  0  0  0  0  0  0  0
  5  6  2  0  0  0  0
  5  7  1  0  0  0  0
  2  3  1  0  0  0  0
  2  4  1  0  0  0  0
  2  5  1  0  0  0  0
  1  2  1  0  0  0  0
 19 20  2  0  0  0  0
 19 21  1  0  0  0  0
 16 17  1  0  0  0  0
 16 18  1  0  0  0  0
 14 15  2  0  0  0  0
 14 16  1  0  0  0  0
 11 12  1  0  0  0  0
 11 13  1  0  0  0  0
 11 14  1  0  0  0  0
  9 10  1  0  0  0  0
  9 11  1  0  0  0  0
  9 19  1  0  0  0  0
  7  8  1  0  0  0  0
  7  9  1  0  0  0  0
 23 24  1  0  0  0  0
 23 25  1  0  0  0  0
 23 26  1  0  0  0  0
 21 22  1  0  0  0  0
 21 23  1  0  0  0  0
M  END
$$$$
default_name
  -OEChem-02102213163D

 26 25  0     1  0  0  0  0  0999 V2000
   -3.0232   -3.6924    1.0038 H   0  0  0  0  0  0  0  0  0  0  0  0
   -3.0082   -2.6684    0.6318 C   0  0  0  0  0  0  0  0  0  0  0  0
   -3.6332   -2.0414    1.2658 H   0  0  0  0  0  0  0  0  0  0  0  0
   -3.3762   -2.6444   -0.3912 H   0  0  0  0  0  0  0  0  0  0  0  0
   -1.5882   -2.1554    0.6658 C   0  0  0  0  0  0  0  0  0  0  0  0
   -0.6832   -2.8764    1.0638 O   0  0  0  0  0  0  0  0  0  0  0  0
   -1.3952   -0.9084    0.2428 N   0  0  0  0  0  0  0  0  0  0  0  0
   -2.1972   -0.3644   -0.0422 H   0  0  0  0  0  0  0  0  0  0  0  0
   -0.1122   -0.1994    0.2658 C   0  0  1  0  0  0  0  0  0  0  0  0
    0.5635   -0.7260    0.9446 H   0  0  0  0  0  0  0  0  0  0  0  0
    0.4924   -0.2204   -1.1558 C   0  0  0  0  0  0  0  0  0  0  0  0
    1.5791   -0.1956   -1.0824 H   0  0  0  0  0  0  0  0  0  0  0  0
    0.2040   -1.1442   -1.6551 H   0  0  0  0  0  0  0  0  0  0  0  0
    0.0820    0.9612   -2.0198 C   0  0  0  0  0  0  0  0  0  0  0  0
    0.8295    1.8902   -2.2715 O   0  0  0  0  0  0  0  0  0  0  0  0
   -1.1369    0.9724   -2.5018 N   0  0  0  0  0  0  0  0  0  0  0  0
   -1.3743    1.7568   -3.0833 H   0  0  0  0  0  0  0  0  0  0  0  0
   -1.7648    0.2111   -2.3250 H   0  0  0  0  0  0  0  0  0  0  0  0
   -0.3126    1.2341    0.8050 C   0  0  0  0  0  0  0  0  0  0  0  0
   -1.2484    1.9199    0.3934 O   0  0  0  0  0  0  0  0  0  0  0  0
    0.5615    1.6875    1.7087 N   0  0  0  0  0  0  0  0  0  0  0  0
    1.3461    1.0849    1.9358 H   0  0  0  0  0  0  0  0  0  0  0  0
    0.5043    3.0121    2.3242 C   0  0  0  0  0  0  0  0  0  0  0  0
   -0.4649    3.1514    2.8080 H   0  0  0  0  0  0  0  0  0  0  0  0
    1.2959    3.1139    3.0678 H   0  0  0  0  0  0  0  0  0  0  0  0
    0.6273    3.7799    1.5584 H   0  0  0  0  0  0  0  0  0  0  0  0
  5  6  2  0  0  0  0
  5  7  1  0  0  0  0
  2  3  1  0  0  0  0
  2  4  1  0  0  0  0
  2  5  1  0  0  0  0
  1  2  1  0  0  0  0
 19 20  2  0  0  0  0
 19 21  1  0  0  0  0
 16 17  1  0  0  0  0
 16 18  1  0  0  0  0
 14 15  2  0  0  0  0
 14 16  1  0  0  0  0
 11 12  1  0  0  0  0
 11 13  1  0  0  0  0
 11 14  1  0  0  0  0
  9 10  1  0  0  0  0
  9 11  1  0  0  0  0
  9 19  1  0  0  0  0
  7  8  1  0  0  0  0
  7  9  1  0  0  0  0
 23 24  1  0  0  0  0
 23 25  1  0  0  0  0
 23 26  1  0  0  0  0
 21 22  1  0  0  0  0
 21 23  1  0  0  0  0
M  END
$$$$
default_name
  -OEChem-02102213163D

 26 25  0     1  0  0  0  0  0999 V2000
   -3.0232   -3.6924    1.0038 H   0  0  0  0  0  0  0  0  0  0  0  0
   -3.0082   -2.6684    0.6318 C   0  0  0  0  0  0  0  0  0  0  0  0
   -3.6332   -2.0414    1.2658 H   0  0  0  0  0  0  0  0  0  0  0  0
   -3.3762   -2.6444   -0.3912 H   0  0  0  0  0  0  0  0  0  0  0  0
   -1.5882   -2.1554    0.6658 C   0  0  0  0  0  0  0  0  0  0  0  0
   -0.6832   -2.8764    1.0638 O   0  0  0  0  0  0  0  0  0  0  0  0
   -1.3952   -0.9084    0.2428 N   0  0  0  0  0  0  0  0  0  0  0  0
   -2.1972   -0.3644   -0.0422 H   0  0  0  0  0  0  0  0  0  0  0  0
   -0.1122   -0.1994    0.2658 C   0  0  1  0  0  0  0  0  0  0  0  0
    0.5635   -0.7260    0.9446 H   0  0  0  0  0  0  0  0  0  0  0  0
    0.4924   -0.2204   -1.1558 C   0  0  0  0  0  0  0  0  0  0  0  0
    1.5791   -0.1956   -1.0824 H   0  0  0  0  0  0  0  0  0  0  0  0
    0.2040   -1.1442   -1.6551 H   0  0  0  0  0  0  0  0  0  0  0  0
    0.0820    0.9612   -2.0198 C   0  0  0  0  0  0  0  0  0  0  0  0
    0.8840    1.7486   -2.4911 O   0  0  0  0  0  0  0  0  0  0  0  0
   -1.1963    1.1339   -2.2527 N   0  0  0  0  0  0  0  0  0  0  0  0
   -1.4364    1.9124   -2.8409 H   0  0  0  0  0  0  0  0  0  0  0  0
   -1.8744    0.4893   -1.8924 H   0  0  0  0  0  0  0  0  0  0  0  0
   -0.3126    1.2341    0.8050 C   0  0  0  0  0  0  0  0  0  0  0  0
   -1.2484    1.9199    0.3934 O   0  0  0  0  0  0  0  0  0  0  0  0
    0.5615    1.6875    1.7087 N   0  0  0  0  0  0  0  0  0  0  0  0
    1.3461    1.0849    1.9358 H   0  0  0  0  0  0  0  0  0  0  0  0
    0.5043    3.0121    2.3242 C   0  0  0  0  0  0  0  0  0  0  0  0
   -0.4649    3.1514    2.8080 H   0  0  0  0  0  0  0  0  0  0  0  0
    1.2959    3.1139    3.0678 H   0  0  0  0  0  0  0  0  0  0  0  0
    0.6273    3.7799    1.5584 H   0  0  0  0  0  0  0  0  0  0  0  0
  5  6  2  0  0  0  0
  5  7  1  0  0  0  0
  2  3  1  0  0  0  0
  2  4  1  0  0  0  0
  2  5  1  0  0  0  0
  1  2  1  0  0  0  0
 19 20  2  0  0  0  0
 19 21  1  0  0  0  0
 16 17  1  0  0  0  0
 16 18  1  0  0  0  0
 14 15  2  0  0  0  0
 14 16  1  0  0  0  0
 11 12  1  0  0  0  0
 11 13  1  0  0  0  0
 11 14  1  0  0  0  0
  9 10  1  0  0  0  0
  9 11  1  0  0  0  0
  9 19  1  0  0  0  0
  7  8  1  0  0  0  0
  7  9  1  0  0  0  0
 23 24  1  0  0  0  0
 23 25  1  0  0  0  0
 23 26  1  0  0  0  0
 21 22  1  0  0  0  0
 21 23  1  0  0  0  0
M  END
$$$$
default_name
  -OEChem-02102213163D

 26 25  0     1  0  0  0  0  0999 V2000
   -3.0232   -3.6924    1.0038 H   0  0  0  0  0  0  0  0  0  0  0  0
   -3.0082   -2.6684    0.6318 C   0  0  0  0  0  0  0  0  0  0  0  0
   -3.6332   -2.0414    1.2658 H   0  0  0  0  0  0  0  0  0  0  0  0
   -3.3762   -2.6444   -0.3912 H   0  0  0  0  0  0  0  0  0  0  0  0
   -1.5882   -2.1554    0.6658 C   0  0  0  0  0  0  0  0  0  0  0  0
   -0.6832   -2.8764    1.0638 O   0  0  0  0  0  0  0  0  0  0  0  0
   -1.3952   -0.9084    0.2428 N   0  0  0  0  0  0  0  0  0  0  0  0
   -2.1972   -0.3644   -0.0422 H   0  0  0  0  0  0  0  0  0  0  0  0
   -0.1122   -0.1994    0.2658 C   0  0  1  0  0  0  0  0  0  0  0  0
    0.5635   -0.7260    0.9446 H   0  0  0  0  0  0  0  0  0  0  0  0
    0.4924   -0.2204   -1.1558 C   0  0  0  0  0  0  0  0  0  0  0  0
    1.5791   -0.1956   -1.0824 H   0  0  0  0  0  0  0  0  0  0  0  0
    0.2040   -1.1442   -1.6551 H   0  0  0  0  0  0  0  0  0  0  0  0
    0.0820    0.9612   -2.0198 C   0  0  0  0  0  0  0  0  0  0  0  0
    0.8715    1.5885   -2.7042 O   0  0  0  0  0  0  0  0  0  0  0  0
   -1.1799    1.3159   -2.0115 N   0  0  0  0  0  0  0  0  0  0  0  0
   -1.4249    2.0887   -2.6052 H   0  0  0  0  0  0  0  0  0  0  0  0
   -1.8523    0.8044   -1.4719 H   0  0  0  0  0  0  0  0  0  0  0  0
   -0.3126    1.2341    0.8050 C   0  0  0  0  0  0  0  0  0  0  0  0
   -1.2484    1.9199    0.3934 O   0  0  0  0  0  0  0  0  0  0  0  0
    0.5615    1.6875    1.7087 N   0  0  0  0  0  0  0  0  0  0  0  0
    1.3461    1.0849    1.9358 H   0  0  0  0  0  0  0  0  0  0  0  0
    0.5043    3.0121    2.3242 C   0  0  0  0  0  0  0  0  0  0  0  0
   -0.4649    3.1514    2.8080 H   0  0  0  0  0  0  0  0  0  0  0  0
    1.2959    3.1139    3.0678 H   0  0  0  0  0  0  0  0  0  0  0  0
    0.6273    3.7799    1.5584 H   0  0  0  0  0  0  0  0  0  0  0  0
  5  6  2  0  0  0  0
  5  7  1  0  0  0  0
  2  3  1  0  0  0  0
  2  4  1  0  0  0  0
  2  5  1  0  0  0  0
  1  2  1  0  0  0  0
 19 20  2  0  0  0  0
 19 21  1  0  0  0  0
 16 17  1  0  0  0  0
 16 18  1  0  0  0  0
 14 15  2  0  0  0  0
 14 16  1  0  0  0  0
 11 12  1  0  0  0  0
 11 13  1  0  0  0  0
 11 14  1  0  0  0  0
  9 10  1  0  0  0  0
  9 11  1  0  0  0  0
  9 19  1  0  0  0  0
  7  8  1  0  0  0  0
  7  9  1  0  0  0  0
 23 24  1  0  0  0  0
 23 25  1  0  0  0  0
 23 26  1  0  0  0  0
 21 22  1  0  0  0  0
 21 23  1  0  0  0  0
M  END
$$$$
default_name
  -OEChem-02102213163D

 26 25  0     1  0  0  0  0  0999 V2000
   -3.0232   -3.6924    1.0038 H   0  0  0  0  0  0  0  0  0  0  0  0
   -3.0082   -2.6684    0.6318 C   0  0  0  0  0  0  0  0  0  0  0  0
   -3.6332   -2.0414    1.2658 H   0  0  0  0  0  0  0  0  0  0  0  0
   -3.3762   -2.6444   -0.3912 H   0  0  0  0  0  0  0  0  0  0  0  0
   -1.5882   -2.1554    0.6658 C   0  0  0  0  0  0  0  0  0  0  0  0
   -0.6832   -2.8764    1.0638 O   0  0  0  0  0  0  0  0  0  0  0  0
   -1.3952   -0.9084    0.2428 N   0  0  0  0  0  0  0  0  0  0  0  0
   -2.1972   -0.3644   -0.0422 H   0  0  0  0  0  0  0  0  0  0  0  0
   -0.1122   -0.1994    0.2658 C   0  0  1  0  0  0  0  0  0  0  0  0
    0.5635   -0.7260    0.9446 H   0  0  0  0  0  0  0  0  0  0  0  0
    0.4924   -0.2204   -1.1558 C   0  0  0  0  0  0  0  0  0  0  0  0
    1.5791   -0.1956   -1.0824 H   0  0  0  0  0  0  0  0  0  0  0  0
    0.2040   -1.1442   -1.6551 H   0  0  0  0  0  0  0  0  0  0  0  0
    0.0820    0.9612   -2.0198 C   0  0  0  0  0  0  0  0  0  0  0  0
    0.7931    1.4207   -2.8964 O   0  0  0  0  0  0  0  0  0  0  0  0
   -1.0887    1.5062   -1.7946 N   0  0  0  0  0  0  0  0  0  0  0  0
   -1.3403    2.2738   -2.3922 H   0  0  0  0  0  0  0  0  0  0  0  0
   -1.7001    1.1349   -1.0922 H   0  0  0  0  0  0  0  0  0  0  0  0
   -0.3126    1.2341    0.8050 C   0  0  0  0  0  0  0  0  0  0  0  0
   -1.2484    1.9199    0.3934 O   0  0  0  0  0  0  0  0  0  0  0  0
    0.5615    1.6875    1.7087 N   0  0  0  0  0  0  0  0  0  0  0  0
    1.3461    1.0849    1.9358 H   0  0  0  0  0  0  0  0  0  0  0  0
    0.5043    3.0121    2.3242 C   0  0  0  0  0  0  0  0  0  0  0  0
   -0.4649    3.1514    2.8080 H   0  0  0  0  0  0  0  0  0  0  0  0
    1.2959    3.1139    3.0678 H   0  0  0  0  0  0  0  0  0  0  0  0
    0.6273    3.7799    1.5584 H   0  0  0  0  0  0  0  0  0  0  0  0
  5  6  2  0  0  0  0
  5  7  1  0  0  0  0
  2  3  1  0  0  0  0
  2  4  1  0  0  0  0
  2  5  1  0  0  0  0
  1  2  1  0  0  0  0
 19 20  2  0  0  0  0
 19 21  1  0  0  0  0
 16 17  1  0  0  0  0
 16 18  1  0  0  0  0
 14 15  2  0  0  0  0
 14 16  1  0  0  0  0
 11 12  1  0  0  0  0
 11 13  1  0  0  0  0
 11 14  1  0  0  0  0
  9 10  1  0  0  0  0
  9 11  1  0  0  0  0
  9 19  1  0  0  0  0
  7  8  1  0  0  0  0
  7  9  1  0  0  0  0
 23 24  1  0  0  0  0
 23 25  1  0  0  0  0
 23 26  1  0  0  0  0
 21 22  1  0  0  0  0
 21 23  1  0  0  0  0
M  END
$$$$
default_name
  -OEChem-02102213163D

 26 25  0     1  0  0  0  0  0999 V2000
   -3.0232   -3.6924    1.0038 H   0  0  0  0  0  0  0  0  0  0  0  0
   -3.0082   -2.6684    0.6318 C   0  0  0  0  0  0  0  0  0  0  0  0
   -3.6332   -2.0414    1.2658 H   0  0  0  0  0  0  0  0  0  0  0  0
   -3.3762   -2.6444   -0.3912 H   0  0  0  0  0  0  0  0  0  0  0  0
   -1.5882   -2.1554    0.6658 C   0  0  0  0  0  0  0  0  0  0  0  0
   -0.6832   -2.8764    1.0638 O   0  0  0  0  0  0  0  0  0  0  0  0
   -1.3952   -0.9084    0.2428 N   0  0  0  0  0  0  0  0  0  0  0  0
   -2.1972   -0.3644   -0.0422 H   0  0  0  0  0  0  0  0  0  0  0  0
   -0.1122   -0.1994    0.2658 C   0  0  1  0  0  0  0  0  0  0  0  0
    0.5635   -0.7260    0.9446 H   0  0  0  0  0  0  0  0  0  0  0  0
    0.4924   -0.2204   -1.1558 C   0  0  0  0  0  0  0  0  0  0  0  0
    1.5791   -0.1956   -1.0824 H   0  0  0  0  0  0  0  0  0  0  0  0
    0.2040   -1.1442   -1.6551 H   0  0  0  0  0  0  0  0  0  0  0  0
    0.0820    0.9612   -2.0198 C   0  0  0  0  0  0  0  0  0  0  0  0
    0.6540    1.2568   -3.0545 O   0  0  0  0  0  0  0  0  0  0  0  0
   -0.9290    1.6918   -1.6167 N   0  0  0  0  0  0  0  0  0  0  0  0
   -1.1886    2.4551   -2.2164 H   0  0  0  0  0  0  0  0  0  0  0  0
   -1.4280    1.4583   -0.7791 H   0  0  0  0  0  0  0  0  0  0  0  0
   -0.3126    1.2341    0.8050 C   0  0  0  0  0  0  0  0  0  0  0  0
   -1.2484    1.9199    0.3934 O   0  0  0  0  0  0  0  0  0  0  0  0
    0.5615    1.6875    1.7087 N   0  0  0  0  0  0  0  0  0  0  0  0
    1.3461    1.0849    1.9358 H   0  0  0  0  0  0  0  0  0  0  0  0
    0.5043    3.0121    2.3242 C   0  0  0  0  0  0  0  0  0  0  0  0
   -0.4649    3.1514    2.8080 H   0  0  0  0  0  0  0  0  0  0  0  0
    1.2959    3.1139    3.0678 H   0  0  0  0  0  0  0  0  0  0  0  0
    0.6273    3.7799    1.5584 H   0  0  0  0  0  0  0  0  0  0  0  0
  5  6  2  0  0  0  0
  5  7  1  0  0  0  0
  2  3  1  0  0  0  0
  2  4  1  0  0  0  0
  2  5  1  0  0  0  0
  1  2  1  0  0  0  0
 19 20  2  0  0  0  0
 19 21  1  0  0  0  0
 16 17  1  0  0  0  0
 16 18  1  0  0  0  0
 14 15  2  0  0  0  0
 14 16  1  0  0  0  0
 11 12  1  0  0  0  0
 11 13  1  0  0  0  0
 11 14  1  0  0  0  0
  9 10  1  0  0  0  0
  9 11  1  0  0  0  0
  9 19  1  0  0  0  0
  7  8  1  0  0  0  0
  7  9  1  0  0  0  0
 23 24  1  0  0  0  0
 23 25  1  0  0  0  0
 23 26  1  0  0  0  0
 21 22  1  0  0  0  0
 21 23  1  0  0  0  0
M  END
$$$$
default_name
  -OEChem-02102213163D

 26 25  0     1  0  0  0  0  0999 V2000
   -3.0232   -3.6924    1.0038 H   0  0  0  0  0  0  0  0  0  0  0  0
   -3.0082   -2.6684    0.6318 C   0  0  0  0  0  0  0  0  0  0  0  0
   -3.6332   -2.0414    1.2658 H   0  0  0  0  0  0  0  0  0  0  0  0
   -3.3762   -2.6444   -0.3912 H   0  0  0  0  0  0  0  0  0  0  0  0
   -1.5882   -2.1554    0.6658 C   0  0  0  0  0  0  0  0  0  0  0  0
   -0.6832   -2.8764    1.0638 O   0  0  0  0  0  0  0  0  0  0  0  0
   -1.3952   -0.9084    0.2428 N   0  0  0  0  0  0  0  0  0  0  0  0
   -2.1972   -0.3644   -0.0422 H   0  0  0  0  0  0  0  0  0  0  0  0
   -0.1122   -0.1994    0.2658 C   0  0  1  0  0  0  0  0  0  0  0  0
    0.5635   -0.7260    0.9446 H   0  0  0  0  0  0  0  0  0  0  0  0
    0.4924   -0.2204   -1.1558 C   0  0  0  0  0  0  0  0  0  0  0  0
    1.5525   -0.4628   -1.0898 H   0  0  0  0  0  0  0  0  0  0  0  0
    0.0004   -0.9936   -1.7439 H   0  0  0  0  0  0  0  0  0  0  0  0
    0.3887    1.1059   -1.8915 C   0  0  0  0  0  0  0  0  0  0  0  0
    0.8124    1.2724   -3.0219 O   0  0  0  0  0  0  0  0  0  0  0  0
   -0.1765    2.1097   -1.2660 N   0  0  0  0  0  0  0  0  0  0  0  0
   -0.2468    2.9685   -1.7831 H   0  0  0  0  0  0  0  0  0  0  0  0
   -0.5500    1.9933   -0.3430 H   0  0  0  0  0  0  0  0  0  0  0  0
   -0.3126    1.2341    0.8050 C   0  0  0  0  0  0  0  0  0  0  0  0
   -1.2484    1.9199    0.3934 O   0  0  0  0  0  0  0  0  0  0  0  0
    0.5615    1.6875    1.7087 N   0  0  0  0  0  0  0  0  0  0  0  0
    1.3461    1.0849    1.9358 H   0  0  0  0  0  0  0  0  0  0  0  0
    0.5043    3.0121    2.3242 C   0  0  0  0  0  0  0  0  0  0  0  0
   -0.4649    3.1514    2.8080 H   0  0  0  0  0  0  0  0  0  0  0  0
    1.2959    3.1139    3.0678 H   0  0  0  0  0  0  0  0  0  0  0  0
    0.6273    3.7799    1.5584 H   0  0  0  0  0  0  0  0  0  0  0  0
  5  6  2  0  0  0  0
  5  7  1  0  0  0  0
  2  3  1  0  0  0  0
  2  4  1  0  0  0  0
  2  5  1  0  0  0  0
  1  2  1  0  0  0  0
 19 20  2  0  0  0  0
 19 21  1  0  0  0  0
 16 17  1  0  0  0  0
 16 18  1  0  0  0  0
 14 15  2  0  0  0  0
 14 16  1  0  0  0  0
 11 12  1  0  0  0  0
 11 13  1  0  0  0  0
 11 14  1  0  0  0  0
  9 10  1  0  0  0  0
  9 11  1  0  0  0  0
  9 19  1  0  0  0  0
  7  8  1  0  0  0  0
  7  9  1  0  0  0  0
 23 24  1  0  0  0  0
 23 25  1  0  0  0  0
 23 26  1  0  0  0  0
 21 22  1  0  0  0  0
 21 23  1  0  0  0  0
M  END
$$$$
default_name
  -OEChem-02102213163D

 26 25  0     1  0  0  0  0  0999 V2000
   -3.0232   -3.6924    1.0038 H   0  0  0  0  0  0  0  0  0  0  0  0
   -3.0082   -2.6684    0.6318 C   0  0  0  0  0  0  0  0  0  0  0  0
   -3.6332   -2.0414    1.2658 H   0  0  0  0  0  0  0  0  0  0  0  0
   -3.3762   -2.6444   -0.3912 H   0  0  0  0  0  0  0  0  0  0  0  0
   -1.5882   -2.1554    0.6658 C   0  0  0  0  0  0  0  0  0  0  0  0
   -0.6832   -2.8764    1.0638 O   0  0  0  0  0  0  0  0  0  0  0  0
   -1.3952   -0.9084    0.2428 N   0  0  0  0  0  0  0  0  0  0  0  0
   -2.1972   -0.3644   -0.0422 H   0  0  0  0  0  0  0  0  0  0  0  0
   -0.1122   -0.1994    0.2658 C   0  0  1  0  0  0  0  0  0  0  0  0
    0.5635   -0.7260    0.9446 H   0  0  0  0  0  0  0  0  0  0  0  0
    0.4924   -0.2204   -1.1558 C   0  0  0  0  0  0  0  0  0  0  0  0
    1.5525   -0.4628   -1.0898 H   0  0  0  0  0  0  0  0  0  0  0  0
    0.0004   -0.9936   -1.7439 H   0  0  0  0  0  0  0  0  0  0  0  0
    0.3887    1.1059   -1.8915 C   0  0  0  0  0  0  0  0  0  0  0  0
    0.5620    1.2134   -3.0930 O   0  0  0  0  0  0  0  0  0  0  0  0
    0.1083    2.1756   -1.1875 N   0  0  0  0  0  0  0  0  0  0  0  0
    0.0289    3.0345   -1.7028 H   0  0  0  0  0  0  0  0  0  0  0  0
   -0.0575    2.1107   -0.2009 H   0  0  0  0  0  0  0  0  0  0  0  0
   -0.3126    1.2341    0.8050 C   0  0  0  0  0  0  0  0  0  0  0  0
   -1.2484    1.9199    0.3934 O   0  0  0  0  0  0  0  0  0  0  0  0
    0.5615    1.6875    1.7087 N   0  0  0  0  0  0  0  0  0  0  0  0
    1.3461    1.0849    1.9358 H   0  0  0  0  0  0  0  0  0  0  0  0
    0.5043    3.0121    2.3242 C   0  0  0  0  0  0  0  0  0  0  0  0
   -0.4649    3.1514    2.8080 H   0  0  0  0  0  0  0  0  0  0  0  0
    1.2959    3.1139    3.0678 H   0  0  0  0  0  0  0  0  0  0  0  0
    0.6273    3.7799    1.5584 H   0  0  0  0  0  0  0  0  0  0  0  0
  5  6  2  0  0  0  0
  5  7  1  0  0  0  0
  2  3  1  0  0  0  0
  2  4  1  0  0  0  0
  2  5  1  0  0  0  0
  1  2  1  0  0  0  0
 19 20  2  0  0  0  0
 19 21  1  0  0  0  0
 16 17  1  0  0  0  0
 16 18  1  0  0  0  0
 14 15  2  0  0  0  0
 14 16  1  0  0  0  0
 11 12  1  0  0  0  0
 11 13  1  0  0  0  0
 11 14  1  0  0  0  0
  9 10  1  0  0  0  0
  9 11  1  0  0  0  0
  9 19  1  0  0  0  0
  7  8  1  0  0  0  0
  7  9  1  0  0  0  0
 23 24  1  0  0  0  0
 23 25  1  0  0  0  0
 23 26  1  0  0  0  0
 21 22  1  0  0  0  0
 21 23  1  0  0  0  0
M  END
$$$$
default_name
  -OEChem-02102213163D

 26 25  0     1  0  0  0  0  0999 V2000
   -3.0232   -3.6924    1.0038 H   0  0  0  0  0  0  0  0  0  0  0  0
   -3.0082   -2.6684    0.6318 C   0  0  0  0  0  0  0  0  0  0  0  0
   -3.6332   -2.0414    1.2658 H   0  0  0  0  0  0  0  0  0  0  0  0
   -3.3762   -2.6444   -0.3912 H   0  0  0  0  0  0  0  0  0  0  0  0
   -1.5882   -2.1554    0.6658 C   0  0  0  0  0  0  0  0  0  0  0  0
   -0.6832   -2.8764    1.0638 O   0  0  0  0  0  0  0  0  0  0  0  0
   -1.3952   -0.9084    0.2428 N   0  0  0  0  0  0  0  0  0  0  0  0
   -2.1972   -0.3644   -0.0422 H   0  0  0  0  0  0  0  0  0  0  0  0
   -0.1122   -0.1994    0.2658 C   0  0  1  0  0  0  0  0  0  0  0  0
    0.5635   -0.7260    0.9446 H   0  0  0  0  0  0  0  0  0  0  0  0
    0.4924   -0.2204   -1.1558 C   0  0  0  0  0  0  0  0  0  0  0  0
    1.5525   -0.4628   -1.0898 H   0  0  0  0  0  0  0  0  0  0  0  0
    0.0004   -0.9936   -1.7439 H   0  0  0  0  0  0  0  0  0  0  0  0
    0.3887    1.1059   -1.8915 C   0  0  0  0  0  0  0  0  0  0  0  0
    0.2967    1.1865   -3.1040 O   0  0  0  0  0  0  0  0  0  0  0  0
    0.4094    2.2048   -1.1772 N   0  0  0  0  0  0  0  0  0  0  0  0
    0.3216    3.0653   -1.6887 H   0  0  0  0  0  0  0  0  0  0  0  0
    0.4651    2.1648   -0.1770 H   0  0  0  0  0  0  0  0  0  0  0  0
   -0.3126    1.2341    0.8050 C   0  0  0  0  0  0  0  0  0  0  0  0
   -1.2484    1.9199    0.3934 O   0  0  0  0  0  0  0  0  0  0  0  0
    0.5615    1.6875    1.7087 N   0  0  0  0  0  0  0  0  0  0  0  0
    1.3461    1.0849    1.9358 H   0  0  0  0  0  0  0  0  0  0  0  0
    0.5043    3.0121    2.3242 C   0  0  0  0  0  0  0  0  0  0  0  0
   -0.4649    3.1514    2.8080 H   0  0  0  0  0  0  0  0  0  0  0  0
    1.2959    3.1139    3.0678 H   0  0  0  0  0  0  0  0  0  0  0  0
    0.6273    3.7799    1.5584 H   0  0  0  0  0  0  0  0  0  0  0  0
  5  6  2  0  0  0  0
  5  7  1  0  0  0  0
  2  3  1  0  0  0  0
  2  4  1  0  0  0  0
  2  5  1  0  0  0  0
  1  2  1  0  0  0  0
 19 20  2  0  0  0  0
 19 21  1  0  0  0  0
 16 17  1  0  0  0  0
 16 18  1  0  0  0  0
 14 15  2  0  0  0  0
 14 16  1  0  0  0  0
 11 12  1  0  0  0  0
 11 13  1  0  0  0  0
 11 14  1  0  0  0  0
  9 10  1  0  0  0  0
  9 11  1  0  0  0  0
  9 19  1  0  0  0  0
  7  8  1  0  0  0  0
  7  9  1  0  0  0  0
 23 24  1  0  0  0  0
 23 25  1  0  0  0  0
 23 26  1  0  0  0  0
 21 22  1  0  0  0  0
 21 23  1  0  0  0  0
M  END
$$$$
default_name
  -OEChem-02102213163D

 26 25  0     1  0  0  0  0  0999 V2000
   -3.0232   -3.6924    1.0038 H   0  0  0  0  0  0  0  0  0  0  0  0
   -3.0082   -2.6684    0.6318 C   0  0  0  0  0  0  0  0  0  0  0  0
   -3.6332   -2.0414    1.2658 H   0  0  0  0  0  0  0  0  0  0  0  0
   -3.3762   -2.6444   -0.3912 H   0  0  0  0  0  0  0  0  0  0  0  0
   -1.5882   -2.1554    0.6658 C   0  0  0  0  0  0  0  0  0  0  0  0
   -0.6832   -2.8764    1.0638 O   0  0  0  0  0  0  0  0  0  0  0  0
   -1.3952   -0.9084    0.2428 N   0  0  0  0  0  0  0  0  0  0  0  0
   -2.1972   -0.3644   -0.0422 H   0  0  0  0  0  0  0  0  0  0  0  0
   -0.1122   -0.1994    0.2658 C   0  0  1  0  0  0  0  0  0  0  0  0
    0.5635   -0.7260    0.9446 H   0  0  0  0  0  0  0  0  0  0  0  0
    0.4924   -0.2204   -1.1558 C   0  0  0  0  0  0  0  0  0  0  0  0
    1.5525   -0.4628   -1.0898 H   0  0  0  0  0  0  0  0  0  0  0  0
    0.0004   -0.9936   -1.7439 H   0  0  0  0  0  0  0  0  0  0  0  0
    0.3887    1.1059   -1.8915 C   0  0  0  0  0  0  0  0  0  0  0  0
    0.0346    1.1936   -3.0543 O   0  0  0  0  0  0  0  0  0  0  0  0
    0.7062    2.1956   -1.2357 N   0  0  0  0  0  0  0  0  0  0  0  0
    0.6113    3.0585   -1.7417 H   0  0  0  0  0  0  0  0  0  0  0  0
    0.9821    2.1521   -0.2729 H   0  0  0  0  0  0  0  0  0  0  0  0
   -0.3126    1.2341    0.8050 C   0  0  0  0  0  0  0  0  0  0  0  0
   -1.2484    1.9199    0.3934 O   0  0  0  0  0  0  0  0  0  0  0  0
    0.5615    1.6875    1.7087 N   0  0  0  0  0  0  0  0  0  0  0  0
    1.3461    1.0849    1.9358 H   0  0  0  0  0  0  0  0  0  0  0  0
    0.5043    3.0121    2.3242 C   0  0  0  0  0  0  0  0  0  0  0  0
   -0.4649    3.1514    2.8080 H   0  0  0  0  0  0  0  0  0  0  0  0
    1.2959    3.1139    3.0678 H   0  0  0  0  0  0  0  0  0  0  0  0
    0.6273    3.7799    1.5584 H   0  0  0  0  0  0  0  0  0  0  0  0
  5  6  2  0  0  0  0
  5  7  1  0  0  0  0
  2  3  1  0  0  0  0
  2  4  1  0  0  0  0
  2  5  1  0  0  0  0
  1  2  1  0  0  0  0
 19 20  2  0  0  0  0
 19 21  1  0  0  0  0
 16 17  1  0  0  0  0
 16 18  1  0  0  0  0
 14 15  2  0  0  0  0
 14 16  1  0  0  0  0
 11 12  1  0  0  0  0
 11 13  1  0  0  0  0
 11 14  1  0  0  0  0
  9 10  1  0  0  0  0
  9 11  1  0  0  0  0
  9 19  1  0  0  0  0
  7  8  1  0  0  0  0
  7  9  1  0  0  0  0
 23 24  1  0  0  0  0
 23 25  1  0  0  0  0
 23 26  1  0  0  0  0
 21 22  1  0  0  0  0
 21 23  1  0  0  0  0
M  END
$$$$
default_name
  -OEChem-02102213163D

 26 25  0     1  0  0  0  0  0999 V2000
   -3.0232   -3.6924    1.0038 H   0  0  0  0  0  0  0  0  0  0  0  0
   -3.0082   -2.6684    0.6318 C   0  0  0  0  0  0  0  0  0  0  0  0
   -3.6332   -2.0414    1.2658 H   0  0  0  0  0  0  0  0  0  0  0  0
   -3.3762   -2.6444   -0.3912 H   0  0  0  0  0  0  0  0  0  0  0  0
   -1.5882   -2.1554    0.6658 C   0  0  0  0  0  0  0  0  0  0  0  0
   -0.6832   -2.8764    1.0638 O   0  0  0  0  0  0  0  0  0  0  0  0
   -1.3952   -0.9084    0.2428 N   0  0  0  0  0  0  0  0  0  0  0  0
   -2.1972   -0.3644   -0.0422 H   0  0  0  0  0  0  0  0  0  0  0  0
   -0.1122   -0.1994    0.2658 C   0  0  1  0  0  0  0  0  0  0  0  0
    0.5635   -0.7260    0.9446 H   0  0  0  0  0  0  0  0  0  0  0  0
    0.4924   -0.2204   -1.1558 C   0  0  0  0  0  0  0  0  0  0  0  0
    1.5525   -0.4628   -1.0898 H   0  0  0  0  0  0  0  0  0  0  0  0
    0.0004   -0.9936   -1.7439 H   0  0  0  0  0  0  0  0  0  0  0  0
    0.3887    1.1059   -1.8915 C   0  0  0  0  0  0  0  0  0  0  0  0
   -0.2064    1.2342   -2.9472 O   0  0  0  0  0  0  0  0  0  0  0  0
    0.9785    2.1485   -1.3590 N   0  0  0  0  0  0  0  0  0  0  0  0
    0.8783    3.0148   -1.8581 H   0  0  0  0  0  0  0  0  0  0  0  0
    1.4582    2.0733   -0.4819 H   0  0  0  0  0  0  0  0  0  0  0  0
   -0.3126    1.2341    0.8050 C   0  0  0  0  0  0  0  0  0  0  0  0
   -1.2484    1.9199    0.3934 O   0  0  0  0  0  0  0  0  0  0  0  0
    0.5615    1.6875    1.7087 N   0  0  0  0  0  0  0  0  0  0  0  0
    1.3461    1.0849    1.9358 H   0  0  0  0  0  0  0  0  0  0  0  0
    0.5043    3.0121    2.3242 C   0  0  0  0  0  0  0  0  0  0  0  0
   -0.4649    3.1514    2.8080 H   0  0  0  0  0  0  0  0  0  0  0  0
    1.2959    3.1139    3.0678 H   0  0  0  0  0  0  0  0  0  0  0  0
    0.6273    3.7799    1.5584 H   0  0  0  0  0  0  0  0  0  0  0  0
  5  6  2  0  0  0  0
  5  7  1  0  0  0  0
  2  3  1  0  0  0  0
  2  4  1  0  0  0  0
  2  5  1  0  0  0  0
  1  2  1  0  0  0  0
 19 20  2  0  0  0  0
 19 21  1  0  0  0  0
 16 17  1  0  0  0  0
 16 18  1  0  0  0  0
 14 15  2  0  0  0  0
 14 16  1  0  0  0  0
 11 12  1  0  0  0  0
 11 13  1  0  0  0  0
 11 14  1  0  0  0  0
  9 10  1  0  0  0  0
  9 11  1  0  0  0  0
  9 19  1  0  0  0  0
  7  8  1  0  0  0  0
  7  9  1  0  0  0  0
 23 24  1  0  0  0  0
 23 25  1  0  0  0  0
 23 26  1  0  0  0  0
 21 22  1  0  0  0  0
 21 23  1  0  0  0  0
M  END
$$$$
default_name
  -OEChem-02102213163D

 26 25  0     1  0  0  0  0  0999 V2000
   -3.0232   -3.6924    1.0038 H   0  0  0  0  0  0  0  0  0  0  0  0
   -3.0082   -2.6684    0.6318 C   0  0  0  0  0  0  0  0  0  0  0  0
   -3.6332   -2.0414    1.2658 H   0  0  0  0  0  0  0  0  0  0  0  0
   -3.3762   -2.6444   -0.3912 H   0  0  0  0  0  0  0  0  0  0  0  0
   -1.5882   -2.1554    0.6658 C   0  0  0  0  0  0  0  0  0  0  0  0
   -0.6832   -2.8764    1.0638 O   0  0  0  0  0  0  0  0  0  0  0  0
   -1.3952   -0.9084    0.2428 N   0  0  0  0  0  0  0  0  0  0  0  0
   -2.1972   -0.3644   -0.0422 H   0  0  0  0  0  0  0  0  0  0  0  0
   -0.1122   -0.1994    0.2658 C   0  0  1  0  0  0  0  0  0  0  0  0
    0.5635   -0.7260    0.9446 H   0  0  0  0  0  0  0  0  0  0  0  0
    0.4924   -0.2204   -1.1558 C   0  0  0  0  0  0  0  0  0  0  0  0
    1.5525   -0.4628   -1.0898 H   0  0  0  0  0  0  0  0  0  0  0  0
    0.0004   -0.9936   -1.7439 H   0  0  0  0  0  0  0  0  0  0  0  0
    0.3887    1.1059   -1.8915 C   0  0  0  0  0  0  0  0  0  0  0  0
   -0.4100    1.3054   -2.7900 O   0  0  0  0  0  0  0  0  0  0  0  0
    1.2078    2.0667   -1.5388 N   0  0  0  0  0  0  0  0  0  0  0  0
    1.1045    2.9371   -2.0302 H   0  0  0  0  0  0  0  0  0  0  0  0
    1.8610    1.9340   -0.7900 H   0  0  0  0  0  0  0  0  0  0  0  0
   -0.3126    1.2341    0.8050 C   0  0  0  0  0  0  0  0  0  0  0  0
   -1.2484    1.9199    0.3934 O   0  0  0  0  0  0  0  0  0  0  0  0
    0.5615    1.6875    1.7087 N   0  0  0  0  0  0  0  0  0  0  0  0
    1.3461    1.0849    1.9358 H   0  0  0  0  0  0  0  0  0  0  0  0
    0.5043    3.0121    2.3242 C   0  0  0  0  0  0  0  0  0  0  0  0
   -0.4649    3.1514    2.8080 H   0  0  0  0  0  0  0  0  0  0  0  0
    1.2959    3.1139    3.0678 H   0  0  0  0  0  0  0  0  0  0  0  0
    0.6273    3.7799    1.5584 H   0  0  0  0  0  0  0  0  0  0  0  0
  5  6  2  0  0  0  0
  5  7  1  0  0  0  0
  2  3  1  0  0  0  0
  2  4  1  0  0  0  0
  2  5  1  0  0  0  0
  1  2  1  0  0  0  0
 19 20  2  0  0  0  0
 19 21  1  0  0  0  0
 16 17  1  0  0  0  0
 16 18  1  0  0  0  0
 14 15  2  0  0  0  0
 14 16  1  0  0  0  0
 11 12  1  0  0  0  0
 11 13  1  0  0  0  0
 11 14  1  0  0  0  0
  9 10  1  0  0  0  0
  9 11  1  0  0  0  0
  9 19  1  0  0  0  0
  7  8  1  0  0  0  0
  7  9  1  0  0  0  0
 23 24  1  0  0  0  0
 23 25  1  0  0  0  0
 23 26  1  0  0  0  0
 21 22  1  0  0  0  0
 21 23  1  0  0  0  0
M  END
$$$$
default_name
  -OEChem-02102213163D

 26 25  0     1  0  0  0  0  0999 V2000
   -3.0232   -3.6924    1.0038 H   0  0  0  0  0  0  0  0  0  0  0  0
   -3.0082   -2.6684    0.6318 C   0  0  0  0  0  0  0  0  0  0  0  0
   -3.6332   -2.0414    1.2658 H   0  0  0  0  0  0  0  0  0  0  0  0
   -3.3762   -2.6444   -0.3912 H   0  0  0  0  0  0  0  0  0  0  0  0
   -1.5882   -2.1554    0.6658 C   0  0  0  0  0  0  0  0  0  0  0  0
   -0.6832   -2.8764    1.0638 O   0  0  0  0  0  0  0  0  0  0  0  0
   -1.3952   -0.9084    0.2428 N   0  0  0  0  0  0  0  0  0  0  0  0
   -2.1972   -0.3644   -0.0422 H   0  0  0  0  0  0  0  0  0  0  0  0
   -0.1122   -0.1994    0.2658 C   0  0  1  0  0  0  0  0  0  0  0  0
    0.5635   -0.7260    0.9446 H   0  0  0  0  0  0  0  0  0  0  0  0
    0.4924   -0.2204   -1.1558 C   0  0  0  0  0  0  0  0  0  0  0  0
    1.5525   -0.4628   -1.0898 H   0  0  0  0  0  0  0  0  0  0  0  0
    0.0004   -0.9936   -1.7439 H   0  0  0  0  0  0  0  0  0  0  0  0
    0.3887    1.1059   -1.8915 C   0  0  0  0  0  0  0  0  0  0  0  0
   -0.5623    1.4025   -2.5935 O   0  0  0  0  0  0  0  0  0  0  0  0
    1.3784    1.9558   -1.7629 N   0  0  0  0  0  0  0  0  0  0  0  0
    1.2744    2.8306   -2.2461 H   0  0  0  0  0  0  0  0  0  0  0  0
    2.1630    1.7434   -1.1761 H   0  0  0  0  0  0  0  0  0  0  0  0
   -0.3126    1.2341    0.8050 C   0  0  0  0  0  0  0  0  0  0  0  0
   -1.2484    1.9199    0.3934 O   0  0  0  0  0  0  0  0  0  0  0  0
    0.5615    1.6875    1.7087 N   0  0  0  0  0  0  0  0  0  0  0  0
    1.3461    1.0849    1.9358 H   0  0  0  0  0  0  0  0  0  0  0  0
    0.5043    3.0121    2.3242 C   0  0  0  0  0  0  0  0  0  0  0  0
   -0.4649    3.1514    2.8080 H   0  0  0  0  0  0  0  0  0  0  0  0
    1.2959    3.1139    3.0678 H   0  0  0  0  0  0  0  0  0  0  0  0
    0.6273    3.7799    1.5584 H   0  0  0  0  0  0  0  0  0  0  0  0
  5  6  2  0  0  0  0
  5  7  1  0  0  0  0
  2  3  1  0  0  0  0
  2  4  1  0  0  0  0
  2  5  1  0  0  0  0
  1  2  1  0  0  0  0
 19 20  2  0  0  0  0
 19 21  1  0  0  0  0
 16 17  1  0  0  0  0
 16 18  1  0  0  0  0
 14 15  2  0  0  0  0
 14 16  1  0  0  0  0
 11 12  1  0  0  0  0
 11 13  1  0  0  0  0
 11 14  1  0  0  0  0
  9 10  1  0  0  0  0
  9 11  1  0  0  0  0
  9 19  1  0  0  0  0
  7  8  1  0  0  0  0
  7  9  1  0  0  0  0
 23 24  1  0  0  0  0
 23 25  1  0  0  0  0
 23 26  1  0  0  0  0
 21 22  1  0  0  0  0
 21 23  1  0  0  0  0
M  END
$$$$
default_name
  -OEChem-02102213163D

 26 25  0     1  0  0  0  0  0999 V2000
   -3.0232   -3.6924    1.0038 H   0  0  0  0  0  0  0  0  0  0  0  0
   -3.0082   -2.6684    0.6318 C   0  0  0  0  0  0  0  0  0  0  0  0
   -3.6332   -2.0414    1.2658 H   0  0  0  0  0  0  0  0  0  0  0  0
   -3.3762   -2.6444   -0.3912 H   0  0  0  0  0  0  0  0  0  0  0  0
   -1.5882   -2.1554    0.6658 C   0  0  0  0  0  0  0  0  0  0  0  0
   -0.6832   -2.8764    1.0638 O   0  0  0  0  0  0  0  0  0  0  0  0
   -1.3952   -0.9084    0.2428 N   0  0  0  0  0  0  0  0  0  0  0  0
   -2.1972   -0.3644   -0.0422 H   0  0  0  0  0  0  0  0  0  0  0  0
   -0.1122   -0.1994    0.2658 C   0  0  1  0  0  0  0  0  0  0  0  0
    0.5635   -0.7260    0.9446 H   0  0  0  0  0  0  0  0  0  0  0  0
    0.4924   -0.2204   -1.1558 C   0  0  0  0  0  0  0  0  0  0  0  0
    1.5525   -0.4628   -1.0898 H   0  0  0  0  0  0  0  0  0  0  0  0
    0.0004   -0.9936   -1.7439 H   0  0  0  0  0  0  0  0  0  0  0  0
    0.3887    1.1059   -1.8915 C   0  0  0  0  0  0  0  0  0  0  0  0
   -0.6528    1.5188   -2.3710 O   0  0  0  0  0  0  0  0  0  0  0  0
    1.4787    1.8233   -2.0158 N   0  0  0  0  0  0  0  0  0  0  0  0
    1.3764    2.7027   -2.4911 H   0  0  0  0  0  0  0  0  0  0  0  0
    2.3438    1.5148   -1.6138 H   0  0  0  0  0  0  0  0  0  0  0  0
   -0.3126    1.2341    0.8050 C   0  0  0  0  0  0  0  0  0  0  0  0
   -1.2484    1.9199    0.3934 O   0  0  0  0  0  0  0  0  0  0  0  0
    0.5615    1.6875    1.7087 N   0  0  0  0  0  0  0  0  0  0  0  0
    1.3461    1.0849    1.9358 H   0  0  0  0  0  0  0  0  0  0  0  0
    0.5043    3.0121    2.3242 C   0  0  0  0  0  0  0  0  0  0  0  0
   -0.4649    3.1514    2.8080 H   0  0  0  0  0  0  0  0  0  0  0  0
    1.2959    3.1139    3.0678 H   0  0  0  0  0  0  0  0  0  0  0  0
    0.6273    3.7799    1.5584 H   0  0  0  0  0  0  0  0  0  0  0  0
  5  6  2  0  0  0  0
  5  7  1  0  0  0  0
  2  3  1  0  0  0  0
  2  4  1  0  0  0  0
  2  5  1  0  0  0  0
  1  2  1  0  0  0  0
 19 20  2  0  0  0  0
 19 21  1  0  0  0  0
 16 17  1  0  0  0  0
 16 18  1  0  0  0  0
 14 15  2  0  0  0  0
 14 16  1  0  0  0  0
 11 12  1  0  0  0  0
 11 13  1  0  0  0  0
 11 14  1  0  0  0  0
  9 10  1  0  0  0  0
  9 11  1  0  0  0  0
  9 19  1  0  0  0  0
  7  8  1  0  0  0  0
  7  9  1  0  0  0  0
 23 24  1  0  0  0  0
 23 25  1  0  0  0  0
 23 26  1  0  0  0  0
 21 22  1  0  0  0  0
 21 23  1  0  0  0  0
M  END
$$$$
default_name
  -OEChem-02102213163D

 26 25  0     1  0  0  0  0  0999 V2000
   -3.0232   -3.6924    1.0038 H   0  0  0  0  0  0  0  0  0  0  0  0
   -3.0082   -2.6684    0.6318 C   0  0  0  0  0  0  0  0  0  0  0  0
   -3.6332   -2.0414    1.2658 H   0  0  0  0  0  0  0  0  0  0  0  0
   -3.3762   -2.6444   -0.3912 H   0  0  0  0  0  0  0  0  0  0  0  0
   -1.5882   -2.1554    0.6658 C   0  0  0  0  0  0  0  0  0  0  0  0
   -0.6832   -2.8764    1.0638 O   0  0  0  0  0  0  0  0  0  0  0  0
   -1.3952   -0.9084    0.2428 N   0  0  0  0  0  0  0  0  0  0  0  0
   -2.1972   -0.3644   -0.0422 H   0  0  0  0  0  0  0  0  0  0  0  0
   -0.1122   -0.1994    0.2658 C   0  0  1  0  0  0  0  0  0  0  0  0
    0.5635   -0.7260    0.9446 H   0  0  0  0  0  0  0  0  0  0  0  0
    0.4924   -0.2204   -1.1558 C   0  0  0  0  0  0  0  0  0  0  0  0
    1.5525   -0.4628   -1.0898 H   0  0  0  0  0  0  0  0  0  0  0  0
    0.0004   -0.9936   -1.7439 H   0  0  0  0  0  0  0  0  0  0  0  0
    0.3887    1.1059   -1.8915 C   0  0  0  0  0  0  0  0  0  0  0  0
   -0.6754    1.6465   -2.1377 O   0  0  0  0  0  0  0  0  0  0  0  0
    1.5020    1.6783   -2.2805 N   0  0  0  0  0  0  0  0  0  0  0  0
    1.4035    2.5620   -2.7485 H   0  0  0  0  0  0  0  0  0  0  0  0
    2.3908    1.2635   -2.0734 H   0  0  0  0  0  0  0  0  0  0  0  0
   -0.3126    1.2341    0.8050 C   0  0  0  0  0  0  0  0  0  0  0  0
   -1.2484    1.9199    0.3934 O   0  0  0  0  0  0  0  0  0  0  0  0
    0.5615    1.6875    1.7087 N   0  0  0  0  0  0  0  0  0  0  0  0
    1.3461    1.0849    1.9358 H   0  0  0  0  0  0  0  0  0  0  0  0
    0.5043    3.0121    2.3242 C   0  0  0  0  0  0  0  0  0  0  0  0
   -0.4649    3.1514    2.8080 H   0  0  0  0  0  0  0  0  0  0  0  0
    1.2959    3.1139    3.0678 H   0  0  0  0  0  0  0  0  0  0  0  0
    0.6273    3.7799    1.5584 H   0  0  0  0  0  0  0  0  0  0  0  0
  5  6  2  0  0  0  0
  5  7  1  0  0  0  0
  2  3  1  0  0  0  0
  2  4  1  0  0  0  0
  2  5  1  0  0  0  0
  1  2  1  0  0  0  0
 19 20  2  0  0  0  0
 19 21  1  0  0  0  0
 16 17  1  0  0  0  0
 16 18  1  0  0  0  0
 14 15  2  0  0  0  0
 14 16  1  0  0  0  0
 11 12  1  0  0  0  0
 11 13  1  0  0  0  0
 11 14  1  0  0  0  0
  9 10  1  0  0  0  0
  9 11  1  0  0  0  0
  9 19  1  0  0  0  0
  7  8  1  0  0  0  0
  7  9  1  0  0  0  0
 23 24  1  0  0  0  0
 23 25  1  0  0  0  0
 23 26  1  0  0  0  0
 21 22  1  0  0  0  0
 21 23  1  0  0  0  0
M  END
$$$$
default_name
  -OEChem-02102213163D

 26 25  0     1  0  0  0  0  0999 V2000
   -3.0232   -3.6924    1.0038 H   0  0  0  0  0  0  0  0  0  0  0  0
   -3.0082   -2.6684    0.6318 C   0  0  0  0  0  0  0  0  0  0  0  0
   -3.6332   -2.0414    1.2658 H   0  0  0  0  0  0  0  0  0  0  0  0
   -3.3762   -2.6444   -0.3912 H   0  0  0  0  0  0  0  0  0  0  0  0
   -1.5882   -2.1554    0.6658 C   0  0  0  0  0  0  0  0  0  0  0  0
   -0.6832   -2.8764    1.0638 O   0  0  0  0  0  0  0  0  0  0  0  0
   -1.3952   -0.9084    0.2428 N   0  0  0  0  0  0  0  0  0  0  0  0
   -2.1972   -0.3644   -0.0422 H   0  0  0  0  0  0  0  0  0  0  0  0
   -0.1122   -0.1994    0.2658 C   0  0  1  0  0  0  0  0  0  0  0  0
    0.5635   -0.7260    0.9446 H   0  0  0  0  0  0  0  0  0  0  0  0
    0.4924   -0.2204   -1.1558 C   0  0  0  0  0  0  0  0  0  0  0  0
    1.5525   -0.4628   -1.0898 H   0  0  0  0  0  0  0  0  0  0  0  0
    0.0004   -0.9936   -1.7439 H   0  0  0  0  0  0  0  0  0  0  0  0
    0.3887    1.1059   -1.8915 C   0  0  0  0  0  0  0  0  0  0  0  0
   -0.6286    1.7767   -1.9095 O   0  0  0  0  0  0  0  0  0  0  0  0
    1.4465    1.5307   -2.5388 N   0  0  0  0  0  0  0  0  0  0  0  0
    1.3541    2.4182   -3.0008 H   0  0  0  0  0  0  0  0  0  0  0  0
    2.3011    1.0068   -2.5236 H   0  0  0  0  0  0  0  0  0  0  0  0
   -0.3126    1.2341    0.8050 C   0  0  0  0  0  0  0  0  0  0  0  0
   -1.2484    1.9199    0.3934 O   0  0  0  0  0  0  0  0  0  0  0  0
    0.5615    1.6875    1.7087 N   0  0  0  0  0  0  0  0  0  0  0  0
    1.3461    1.0849    1.9358 H   0  0  0  0  0  0  0  0  0  0  0  0
    0.5043    3.0121    2.3242 C   0  0  0  0  0  0  0  0  0  0  0  0
   -0.4649    3.1514    2.8080 H   0  0  0  0  0  0  0  0  0  0  0  0
    1.2959    3.1139    3.0678 H   0  0  0  0  0  0  0  0  0  0  0  0
    0.6273    3.7799    1.5584 H   0  0  0  0  0  0  0  0  0  0  0  0
  5  6  2  0  0  0  0
  5  7  1  0  0  0  0
  2  3  1  0  0  0  0
  2  4  1  0  0  0  0
  2  5  1  0  0  0  0
  1  2  1  0  0  0  0
 19 20  2  0  0  0  0
 19 21  1  0  0  0  0
 16 17  1  0  0  0  0
 16 18  1  0  0  0  0
 14 15  2  0  0  0  0
 14 16  1  0  0  0  0
 11 12  1  0  0  0  0
 11 13  1  0  0  0  0
 11 14  1  0  0  0  0
  9 10  1  0  0  0  0
  9 11  1  0  0  0  0
  9 19  1  0  0  0  0
  7  8  1  0  0  0  0
  7  9  1  0  0  0  0
 23 24  1  0  0  0  0
 23 25  1  0  0  0  0
 23 26  1  0  0  0  0
 21 22  1  0  0  0  0
 21 23  1  0  0  0  0
M  END
$$$$
default_name
  -OEChem-02102213163D

 26 25  0     1  0  0  0  0  0999 V2000
   -3.0232   -3.6924    1.0038 H   0  0  0  0  0  0  0  0  0  0  0  0
   -3.0082   -2.6684    0.6318 C   0  0  0  0  0  0  0  0  0  0  0  0
   -3.6332   -2.0414    1.2658 H   0  0  0  0  0  0  0  0  0  0  0  0
   -3.3762   -2.6444   -0.3912 H   0  0  0  0  0  0  0  0  0  0  0  0
   -1.5882   -2.1554    0.6658 C   0  0  0  0  0  0  0  0  0  0  0  0
   -0.6832   -2.8764    1.0638 O   0  0  0  0  0  0  0  0  0  0  0  0
   -1.3952   -0.9084    0.2428 N   0  0  0  0  0  0  0  0  0  0  0  0
   -2.1972   -0.3644   -0.0422 H   0  0  0  0  0  0  0  0  0  0  0  0
   -0.1122   -0.1994    0.2658 C   0  0  1  0  0  0  0  0  0  0  0  0
    0.5635   -0.7260    0.9446 H   0  0  0  0  0  0  0  0  0  0  0  0
    0.4924   -0.2204   -1.1558 C   0  0  0  0  0  0  0  0  0  0  0  0
    1.5525   -0.4628   -1.0898 H   0  0  0  0  0  0  0  0  0  0  0  0
    0.0004   -0.9936   -1.7439 H   0  0  0  0  0  0  0  0  0  0  0  0
    0.3887    1.1059   -1.8915 C   0  0  0  0  0  0  0  0  0  0  0  0
   -0.5156    1.9006   -1.7020 O   0  0  0  0  0  0  0  0  0  0  0  0
    1.3160    1.3905   -2.7732 N   0  0  0  0  0  0  0  0  0  0  0  0
    1.2313    2.2810   -3.2308 H   0  0  0  0  0  0  0  0  0  0  0  0
    2.0806    0.7622   -2.9336 H   0  0  0  0  0  0  0  0  0  0  0  0
   -0.3126    1.2341    0.8050 C   0  0  0  0  0  0  0  0  0  0  0  0
   -1.2484    1.9199    0.3934 O   0  0  0  0  0  0  0  0  0  0  0  0
    0.5615    1.6875    1.7087 N   0  0  0  0  0  0  0  0  0  0  0  0
    1.3461    1.0849    1.9358 H   0  0  0  0  0  0  0  0  0  0  0  0
    0.5043    3.0121    2.3242 C   0  0  0  0  0  0  0  0  0  0  0  0
   -0.4649    3.1514    2.8080 H   0  0  0  0  0  0  0  0  0  0  0  0
    1.2959    3.1139    3.0678 H   0  0  0  0  0  0  0  0  0  0  0  0
    0.6273    3.7799    1.5584 H   0  0  0  0  0  0  0  0  0  0  0  0
  5  6  2  0  0  0  0
  5  7  1  0  0  0  0
  2  3  1  0  0  0  0
  2  4  1  0  0  0  0
  2  5  1  0  0  0  0
  1  2  1  0  0  0  0
 19 20  2  0  0  0  0
 19 21  1  0  0  0  0
 16 17  1  0  0  0  0
 16 18  1  0  0  0  0
 14 15  2  0  0  0  0
 14 16  1  0  0  0  0
 11 12  1  0  0  0  0
 11 13  1  0  0  0  0
 11 14  1  0  0  0  0
  9 10  1  0  0  0  0
  9 11  1  0  0  0  0
  9 19  1  0  0  0  0
  7  8  1  0  0  0  0
  7  9  1  0  0  0  0
 23 24  1  0  0  0  0
 23 25  1  0  0  0  0
 23 26  1  0  0  0  0
 21 22  1  0  0  0  0
 21 23  1  0  0  0  0
M  END
$$$$
default_name
  -OEChem-02102213163D

 26 25  0     1  0  0  0  0  0999 V2000
   -3.0232   -3.6924    1.0038 H   0  0  0  0  0  0  0  0  0  0  0  0
   -3.0082   -2.6684    0.6318 C   0  0  0  0  0  0  0  0  0  0  0  0
   -3.6332   -2.0414    1.2658 H   0  0  0  0  0  0  0  0  0  0  0  0
   -3.3762   -2.6444   -0.3912 H   0  0  0  0  0  0  0  0  0  0  0  0
   -1.5882   -2.1554    0.6658 C   0  0  0  0  0  0  0  0  0  0  0  0
   -0.6832   -2.8764    1.0638 O   0  0  0  0  0  0  0  0  0  0  0  0
   -1.3952   -0.9084    0.2428 N   0  0  0  0  0  0  0  0  0  0  0  0
   -2.1972   -0.3644   -0.0422 H   0  0  0  0  0  0  0  0  0  0  0  0
   -0.1122   -0.1994    0.2658 C   0  0  1  0  0  0  0  0  0  0  0  0
    0.5635   -0.7260    0.9446 H   0  0  0  0  0  0  0  0  0  0  0  0
    0.4924   -0.2204   -1.1558 C   0  0  0  0  0  0  0  0  0  0  0  0
    1.5525   -0.4628   -1.0898 H   0  0  0  0  0  0  0  0  0  0  0  0
    0.0004   -0.9936   -1.7439 H   0  0  0  0  0  0  0  0  0  0  0  0
    0.3887    1.1059   -1.8915 C   0  0  0  0  0  0  0  0  0  0  0  0
   -0.3440    2.0099   -1.5292 O   0  0  0  0  0  0  0  0  0  0  0  0
    1.1196    1.2673   -2.9676 N   0  0  0  0  0  0  0  0  0  0  0  0
    1.0435    2.1599   -3.4228 H   0  0  0  0  0  0  0  0  0  0  0  0
    1.7443    0.5462   -3.2755 H   0  0  0  0  0  0  0  0  0  0  0  0
   -0.3126    1.2341    0.8050 C   0  0  0  0  0  0  0  0  0  0  0  0
   -1.2484    1.9199    0.3934 O   0  0  0  0  0  0  0  0  0  0  0  0
    0.5615    1.6875    1.7087 N   0  0  0  0  0  0  0  0  0  0  0  0
    1.3461    1.0849    1.9358 H   0  0  0  0  0  0  0  0  0  0  0  0
    0.5043    3.0121    2.3242 C   0  0  0  0  0  0  0  0  0  0  0  0
   -0.4649    3.1514    2.8080 H   0  0  0  0  0  0  0  0  0  0  0  0
    1.2959    3.1139    3.0678 H   0  0  0  0  0  0  0  0  0  0  0  0
    0.6273    3.7799    1.5584 H   0  0  0  0  0  0  0  0  0  0  0  0
  5  6  2  0  0  0  0
  5  7  1  0  0  0  0
  2  3  1  0  0  0  0
  2  4  1  0  0  0  0
  2  5  1  0  0  0  0
  1  2  1  0  0  0  0
 19 20  2  0  0  0  0
 19 21  1  0  0  0  0
 16 17  1  0  0  0  0
 16 18  1  0  0  0  0
 14 15  2  0  0  0  0
 14 16  1  0  0  0  0
 11 12  1  0  0  0  0
 11 13  1  0  0  0  0
 11 14  1  0  0  0  0
  9 10  1  0  0  0  0
  9 11  1  0  0  0  0
  9 19  1  0  0  0  0
  7  8  1  0  0  0  0
  7  9  1  0  0  0  0
 23 24  1  0  0  0  0
 23 25  1  0  0  0  0
 23 26  1  0  0  0  0
 21 22  1  0  0  0  0
 21 23  1  0  0  0  0
M  END
$$$$
default_name
  -OEChem-02102213163D

 26 25  0     1  0  0  0  0  0999 V2000
   -3.0232   -3.6924    1.0038 H   0  0  0  0  0  0  0  0  0  0  0  0
   -3.0082   -2.6684    0.6318 C   0  0  0  0  0  0  0  0  0  0  0  0
   -3.6332   -2.0414    1.2658 H   0  0  0  0  0  0  0  0  0  0  0  0
   -3.3762   -2.6444   -0.3912 H   0  0  0  0  0  0  0  0  0  0  0  0
   -1.5882   -2.1554    0.6658 C   0  0  0  0  0  0  0  0  0  0  0  0
   -0.6832   -2.8764    1.0638 O   0  0  0  0  0  0  0  0  0  0  0  0
   -1.3952   -0.9084    0.2428 N   0  0  0  0  0  0  0  0  0  0  0  0
   -2.1972   -0.3644   -0.0422 H   0  0  0  0  0  0  0  0  0  0  0  0
   -0.1122   -0.1994    0.2658 C   0  0  1  0  0  0  0  0  0  0  0  0
    0.5635   -0.7260    0.9446 H   0  0  0  0  0  0  0  0  0  0  0  0
    0.4924   -0.2204   -1.1558 C   0  0  0  0  0  0  0  0  0  0  0  0
    1.5525   -0.4628   -1.0898 H   0  0  0  0  0  0  0  0  0  0  0  0
    0.0004   -0.9936   -1.7439 H   0  0  0  0  0  0  0  0  0  0  0  0
    0.3887    1.1059   -1.8915 C   0  0  0  0  0  0  0  0  0  0  0  0
   -0.1255    2.0970   -1.4030 O   0  0  0  0  0  0  0  0  0  0  0  0
    0.8704    1.1694   -3.1089 N   0  0  0  0  0  0  0  0  0  0  0  0
    0.8037    2.0629   -3.5638 H   0  0  0  0  0  0  0  0  0  0  0  0
    1.3153    0.3737   -3.5260 H   0  0  0  0  0  0  0  0  0  0  0  0
   -0.3126    1.2341    0.8050 C   0  0  0  0  0  0  0  0  0  0  0  0
   -1.2484    1.9199    0.3934 O   0  0  0  0  0  0  0  0  0  0  0  0
    0.5615    1.6875    1.7087 N   0  0  0  0  0  0  0  0  0  0  0  0
    1.3461    1.0849    1.9358 H   0  0  0  0  0  0  0  0  0  0  0  0
    0.5043    3.0121    2.3242 C   0  0  0  0  0  0  0  0  0  0  0  0
   -0.4649    3.1514    2.8080 H   0  0  0  0  0  0  0  0  0  0  0  0
    1.2959    3.1139    3.0678 H   0  0  0  0  0  0  0  0  0  0  0  0
    0.6273    3.7799    1.5584 H   0  0  0  0  0  0  0  0  0  0  0  0
  5  6  2  0  0  0  0
  5  7  1  0  0  0  0
  2  3  1  0  0  0  0
  2  4  1  0  0  0  0
  2  5  1  0  0  0  0
  1  2  1  0  0  0  0
 19 20  2  0  0  0  0
 19 21  1  0  0  0  0
 16 17  1  0  0  0  0
 16 18  1  0  0  0  0
 14 15  2  0  0  0  0
 14 16  1  0  0  0  0
 11 12  1  0  0  0  0
 11 13  1  0  0  0  0
 11 14  1  0  0  0  0
  9 10  1  0  0  0  0
  9 11  1  0  0  0  0
  9 19  1  0  0  0  0
  7  8  1  0  0  0  0
  7  9  1  0  0  0  0
 23 24  1  0  0  0  0
 23 25  1  0  0  0  0
 23 26  1  0  0  0  0
 21 22  1  0  0  0  0
 21 23  1  0  0  0  0
M  END
$$$$
default_name
  -OEChem-02102213163D

 26 25  0     1  0  0  0  0  0999 V2000
   -3.0232   -3.6924    1.0038 H   0  0  0  0  0  0  0  0  0  0  0  0
   -3.0082   -2.6684    0.6318 C   0  0  0  0  0  0  0  0  0  0  0  0
   -3.6332   -2.0414    1.2658 H   0  0  0  0  0  0  0  0  0  0  0  0
   -3.3762   -2.6444   -0.3912 H   0  0  0  0  0  0  0  0  0  0  0  0
   -1.5882   -2.1554    0.6658 C   0  0  0  0  0  0  0  0  0  0  0  0
   -0.6832   -2.8764    1.0638 O   0  0  0  0  0  0  0  0  0  0  0  0
   -1.3952   -0.9084    0.2428 N   0  0  0  0  0  0  0  0  0  0  0  0
   -2.1972   -0.3644   -0.0422 H   0  0  0  0  0  0  0  0  0  0  0  0
   -0.1122   -0.1994    0.2658 C   0  0  1  0  0  0  0  0  0  0  0  0
    0.5635   -0.7260    0.9446 H   0  0  0  0  0  0  0  0  0  0  0  0
    0.4924   -0.2204   -1.1558 C   0  0  0  0  0  0  0  0  0  0  0  0
    1.5525   -0.4628   -1.0898 H   0  0  0  0  0  0  0  0  0  0  0  0
    0.0004   -0.9936   -1.7439 H   0  0  0  0  0  0  0  0  0  0  0  0
    0.3887    1.1059   -1.8915 C   0  0  0  0  0  0  0  0  0  0  0  0
    0.1249    2.1559   -1.3320 O   0  0  0  0  0  0  0  0  0  0  0  0
    0.5856    1.1036   -3.1874 N   0  0  0  0  0  0  0  0  0  0  0  0
    0.5280    1.9969   -3.6440 H   0  0  0  0  0  0  0  0  0  0  0  0
    0.8227    0.2564   -3.6681 H   0  0  0  0  0  0  0  0  0  0  0  0
   -0.3126    1.2341    0.8050 C   0  0  0  0  0  0  0  0  0  0  0  0
   -1.2484    1.9199    0.3934 O   0  0  0  0  0  0  0  0  0  0  0  0
    0.5615    1.6875    1.7087 N   0  0  0  0  0  0  0  0  0  0  0  0
    1.3461    1.0849    1.9358 H   0  0  0  0  0  0  0  0  0  0  0  0
    0.5043    3.0121    2.3242 C   0  0  0  0  0  0  0  0  0  0  0  0
   -0.4649    3.1514    2.8080 H   0  0  0  0  0  0  0  0  0  0  0  0
    1.2959    3.1139    3.0678 H   0  0  0  0  0  0  0  0  0  0  0  0
    0.6273    3.7799    1.5584 H   0  0  0  0  0  0  0  0  0  0  0  0
  5  6  2  0  0  0  0
  5  7  1  0  0  0  0
  2  3  1  0  0  0  0
  2  4  1  0  0  0  0
  2  5  1  0  0  0  0
  1  2  1  0  0  0  0
 19 20  2  0  0  0  0
 19 21  1  0  0  0  0
 16 17  1  0  0  0  0
 16 18  1  0  0  0  0
 14 15  2  0  0  0  0
 14 16  1  0  0  0  0
 11 12  1  0  0  0  0
 11 13  1  0  0  0  0
 11 14  1  0  0  0  0
  9 10  1  0  0  0  0
  9 11  1  0  0  0  0
  9 19  1  0  0  0  0
  7  8  1  0  0  0  0
  7  9  1  0  0  0  0
 23 24  1  0  0  0  0
 23 25  1  0  0  0  0
 23 26  1  0  0  0  0
 21 22  1  0  0  0  0
 21 23  1  0  0  0  0
M  END
$$$$
default_name
  -OEChem-02102213163D

 26 25  0     1  0  0  0  0  0999 V2000
   -3.0232   -3.6924    1.0038 H   0  0  0  0  0  0  0  0  0  0  0  0
   -3.0082   -2.6684    0.6318 C   0  0  0  0  0  0  0  0  0  0  0  0
   -3.6332   -2.0414    1.2658 H   0  0  0  0  0  0  0  0  0  0  0  0
   -3.3762   -2.6444   -0.3912 H   0  0  0  0  0  0  0  0  0  0  0  0
   -1.5882   -2.1554    0.6658 C   0  0  0  0  0  0  0  0  0  0  0  0
   -0.6832   -2.8764    1.0638 O   0  0  0  0  0  0  0  0  0  0  0  0
   -1.3952   -0.9084    0.2428 N   0  0  0  0  0  0  0  0  0  0  0  0
   -2.1972   -0.3644   -0.0422 H   0  0  0  0  0  0  0  0  0  0  0  0
   -0.1122   -0.1994    0.2658 C   0  0  1  0  0  0  0  0  0  0  0  0
    0.5635   -0.7260    0.9446 H   0  0  0  0  0  0  0  0  0  0  0  0
    0.4924   -0.2204   -1.1558 C   0  0  0  0  0  0  0  0  0  0  0  0
    1.5525   -0.4628   -1.0898 H   0  0  0  0  0  0  0  0  0  0  0  0
    0.0004   -0.9936   -1.7439 H   0  0  0  0  0  0  0  0  0  0  0  0
    0.3887    1.1059   -1.8915 C   0  0  0  0  0  0  0  0  0  0  0  0
    0.3902    2.1828   -1.3210 O   0  0  0  0  0  0  0  0  0  0  0  0
    0.2846    1.0743   -3.1978 N   0  0  0  0  0  0  0  0  0  0  0  0
    0.2354    1.9661   -3.6582 H   0  0  0  0  0  0  0  0  0  0  0  0
    0.3002    0.2023   -3.6921 H   0  0  0  0  0  0  0  0  0  0  0  0
   -0.3126    1.2341    0.8050 C   0  0  0  0  0  0  0  0  0  0  0  0
   -1.2484    1.9199    0.3934 O   0  0  0  0  0  0  0  0  0  0  0  0
    0.5615    1.6875    1.7087 N   0  0  0  0  0  0  0  0  0  0  0  0
    1.3461    1.0849    1.9358 H   0  0  0  0  0  0  0  0  0  0  0  0
    0.5043    3.0121    2.3242 C   0  0  0  0  0  0  0  0  0  0  0  0
   -0.4649    3.1514    2.8080 H   0  0  0  0  0  0  0  0  0  0  0  0
    1.2959    3.1139    3.0678 H   0  0  0  0  0  0  0  0  0  0  0  0
    0.6273    3.7799    1.5584 H   0  0  0  0  0  0  0  0  0  0  0  0
  5  6  2  0  0  0  0
  5  7  1  0  0  0  0
  2  3  1  0  0  0  0
  2  4  1  0  0  0  0
  2  5  1  0  0  0  0
  1  2  1  0  0  0  0
 19 20  2  0  0  0  0
 19 21  1  0  0  0  0
 16 17  1  0  0  0  0
 16 18  1  0  0  0  0
 14 15  2  0  0  0  0
 14 16  1  0  0  0  0
 11 12  1  0  0  0  0
 11 13  1  0  0  0  0
 11 14  1  0  0  0  0
  9 10  1  0  0  0  0
  9 11  1  0  0  0  0
  9 19  1  0  0  0  0
  7  8  1  0  0  0  0
  7  9  1  0  0  0  0
 23 24  1  0  0  0  0
 23 25  1  0  0  0  0
 23 26  1  0  0  0  0
 21 22  1  0  0  0  0
 21 23  1  0  0  0  0
M  END
$$$$
default_name
  -OEChem-02102213163D

 26 25  0     1  0  0  0  0  0999 V2000
   -3.0232   -3.6924    1.0038 H   0  0  0  0  0  0  0  0  0  0  0  0
   -3.0082   -2.6684    0.6318 C   0  0  0  0  0  0  0  0  0  0  0  0
   -3.6332   -2.0414    1.2658 H   0  0  0  0  0  0  0  0  0  0  0  0
   -3.3762   -2.6444   -0.3912 H   0  0  0  0  0  0  0  0  0  0  0  0
   -1.5882   -2.1554    0.6658 C   0  0  0  0  0  0  0  0  0  0  0  0
   -0.6832   -2.8764    1.0638 O   0  0  0  0  0  0  0  0  0  0  0  0
   -1.3952   -0.9084    0.2428 N   0  0  0  0  0  0  0  0  0  0  0  0
   -2.1972   -0.3644   -0.0422 H   0  0  0  0  0  0  0  0  0  0  0  0
   -0.1122   -0.1994    0.2658 C   0  0  1  0  0  0  0  0  0  0  0  0
    0.5635   -0.7260    0.9446 H   0  0  0  0  0  0  0  0  0  0  0  0
    0.4924   -0.2204   -1.1558 C   0  0  0  0  0  0  0  0  0  0  0  0
    1.5525   -0.4628   -1.0898 H   0  0  0  0  0  0  0  0  0  0  0  0
    0.0004   -0.9936   -1.7439 H   0  0  0  0  0  0  0  0  0  0  0  0
    0.3887    1.1059   -1.8915 C   0  0  0  0  0  0  0  0  0  0  0  0
    0.6523    2.1757   -1.3707 O   0  0  0  0  0  0  0  0  0  0  0  0
   -0.0122    1.0836   -3.1393 N   0  0  0  0  0  0  0  0  0  0  0  0
   -0.0544    1.9729   -3.6052 H   0  0  0  0  0  0  0  0  0  0  0  0
   -0.2168    0.2150   -3.5962 H   0  0  0  0  0  0  0  0  0  0  0  0
   -0.3126    1.2341    0.8050 C   0  0  0  0  0  0  0  0  0  0  0  0
   -1.2484    1.9199    0.3934 O   0  0  0  0  0  0  0  0  0  0  0  0
    0.5615    1.6875    1.7087 N   0  0  0  0  0  0  0  0  0  0  0  0
    1.3461    1.0849    1.9358 H   0  0  0  0  0  0  0  0  0  0  0  0
    0.5043    3.0121    2.3242 C   0  0  0  0  0  0  0  0  0  0  0  0
   -0.4649    3.1514    2.8080 H   0  0  0  0  0  0  0  0  0  0  0  0
    1.2959    3.1139    3.0678 H   0  0  0  0  0  0  0  0  0  0  0  0
    0.6273    3.7799    1.5584 H   0  0  0  0  0  0  0  0  0  0  0  0
  5  6  2  0  0  0  0
  5  7  1  0  0  0  0
  2  3  1  0  0  0  0
  2  4  1  0  0  0  0
  2  5  1  0  0  0  0
  1  2  1  0  0  0  0
 19 20  2  0  0  0  0
 19 21  1  0  0  0  0
 16 17  1  0  0  0  0
 16 18  1  0  0  0  0
 14 15  2  0  0  0  0
 14 16  1  0  0  0  0
 11 12  1  0  0  0  0
 11 13  1  0  0  0  0
 11 14  1  0  0  0  0
  9 10  1  0  0  0  0
  9 11  1  0  0  0  0
  9 19  1  0  0  0  0
  7  8  1  0  0  0  0
  7  9  1  0  0  0  0
 23 24  1  0  0  0  0
 23 25  1  0  0  0  0
 23 26  1  0  0  0  0
 21 22  1  0  0  0  0
 21 23  1  0  0  0  0
M  END
$$$$
default_name
  -OEChem-02102213163D

 26 25  0     1  0  0  0  0  0999 V2000
   -3.0232   -3.6924    1.0038 H   0  0  0  0  0  0  0  0  0  0  0  0
   -3.0082   -2.6684    0.6318 C   0  0  0  0  0  0  0  0  0  0  0  0
   -3.6332   -2.0414    1.2658 H   0  0  0  0  0  0  0  0  0  0  0  0
   -3.3762   -2.6444   -0.3912 H   0  0  0  0  0  0  0  0  0  0  0  0
   -1.5882   -2.1554    0.6658 C   0  0  0  0  0  0  0  0  0  0  0  0
   -0.6832   -2.8764    1.0638 O   0  0  0  0  0  0  0  0  0  0  0  0
   -1.3952   -0.9084    0.2428 N   0  0  0  0  0  0  0  0  0  0  0  0
   -2.1972   -0.3644   -0.0422 H   0  0  0  0  0  0  0  0  0  0  0  0
   -0.1122   -0.1994    0.2658 C   0  0  1  0  0  0  0  0  0  0  0  0
    0.5635   -0.7260    0.9446 H   0  0  0  0  0  0  0  0  0  0  0  0
    0.4924   -0.2204   -1.1558 C   0  0  0  0  0  0  0  0  0  0  0  0
    1.5525   -0.4628   -1.0898 H   0  0  0  0  0  0  0  0  0  0  0  0
    0.0004   -0.9936   -1.7439 H   0  0  0  0  0  0  0  0  0  0  0  0
    0.3887    1.1059   -1.8915 C   0  0  0  0  0  0  0  0  0  0  0  0
    0.8933    2.1352   -1.4778 O   0  0  0  0  0  0  0  0  0  0  0  0
   -0.2845    1.1307   -3.0159 N   0  0  0  0  0  0  0  0  0  0  0  0
   -0.3214    2.0166   -3.4887 H   0  0  0  0  0  0  0  0  0  0  0  0
   -0.6929    0.2937   -3.3871 H   0  0  0  0  0  0  0  0  0  0  0  0
   -0.3126    1.2341    0.8050 C   0  0  0  0  0  0  0  0  0  0  0  0
   -1.2484    1.9199    0.3934 O   0  0  0  0  0  0  0  0  0  0  0  0
    0.5615    1.6875    1.7087 N   0  0  0  0  0  0  0  0  0  0  0  0
    1.3461    1.0849    1.9358 H   0  0  0  0  0  0  0  0  0  0  0  0
    0.5043    3.0121    2.3242 C   0  0  0  0  0  0  0  0  0  0  0  0
   -0.4649    3.1514    2.8080 H   0  0  0  0  0  0  0  0  0  0  0  0
    1.2959    3.1139    3.0678 H   0  0  0  0  0  0  0  0  0  0  0  0
    0.6273    3.7799    1.5584 H   0  0  0  0  0  0  0  0  0  0  0  0
  5  6  2  0  0  0  0
  5  7  1  0  0  0  0
  2  3  1  0  0  0  0
  2  4  1  0  0  0  0
  2  5  1  0  0  0  0
  1  2  1  0  0  0  0
 19 20  2  0  0  0  0
 19 21  1  0  0  0  0
 16 17  1  0  0  0  0
 16 18  1  0  0  0  0
 14 15  2  0  0  0  0
 14 16  1  0  0  0  0
 11 12  1  0  0  0  0
 11 13  1  0  0  0  0
 11 14  1  0  0  0  0
  9 10  1  0  0  0  0
  9 11  1  0  0  0  0
  9 19  1  0  0  0  0
  7  8  1  0  0  0  0
  7  9  1  0  0  0  0
 23 24  1  0  0  0  0
 23 25  1  0  0  0  0
 23 26  1  0  0  0  0
 21 22  1  0  0  0  0
 21 23  1  0  0  0  0
M  END
$$$$
default_name
  -OEChem-02102213163D

 26 25  0     1  0  0  0  0  0999 V2000
   -3.0232   -3.6924    1.0038 H   0  0  0  0  0  0  0  0  0  0  0  0
   -3.0082   -2.6684    0.6318 C   0  0  0  0  0  0  0  0  0  0  0  0
   -3.6332   -2.0414    1.2658 H   0  0  0  0  0  0  0  0  0  0  0  0
   -3.3762   -2.6444   -0.3912 H   0  0  0  0  0  0  0  0  0  0  0  0
   -1.5882   -2.1554    0.6658 C   0  0  0  0  0  0  0  0  0  0  0  0
   -0.6832   -2.8764    1.0638 O   0  0  0  0  0  0  0  0  0  0  0  0
   -1.3952   -0.9084    0.2428 N   0  0  0  0  0  0  0  0  0  0  0  0
   -2.1972   -0.3644   -0.0422 H   0  0  0  0  0  0  0  0  0  0  0  0
   -0.1122   -0.1994    0.2658 C   0  0  1  0  0  0  0  0  0  0  0  0
    0.5635   -0.7260    0.9446 H   0  0  0  0  0  0  0  0  0  0  0  0
    0.4924   -0.2204   -1.1558 C   0  0  0  0  0  0  0  0  0  0  0  0
    1.5525   -0.4628   -1.0898 H   0  0  0  0  0  0  0  0  0  0  0  0
    0.0004   -0.9936   -1.7439 H   0  0  0  0  0  0  0  0  0  0  0  0
    0.3887    1.1059   -1.8915 C   0  0  0  0  0  0  0  0  0  0  0  0
    1.0969    2.0639   -1.6349 O   0  0  0  0  0  0  0  0  0  0  0  0
   -0.5138    1.2125   -2.8361 N   0  0  0  0  0  0  0  0  0  0  0  0
   -0.5476    2.0943   -3.3166 H   0  0  0  0  0  0  0  0  0  0  0  0
   -1.0957    0.4331   -3.0791 H   0  0  0  0  0  0  0  0  0  0  0  0
   -0.3126    1.2341    0.8050 C   0  0  0  0  0  0  0  0  0  0  0  0
   -1.2484    1.9199    0.3934 O   0  0  0  0  0  0  0  0  0  0  0  0
    0.5615    1.6875    1.7087 N   0  0  0  0  0  0  0  0  0  0  0  0
    1.3461    1.0849    1.9358 H   0  0  0  0  0  0  0  0  0  0  0  0
    0.5043    3.0121    2.3242 C   0  0  0  0  0  0  0  0  0  0  0  0
   -0.4649    3.1514    2.8080 H   0  0  0  0  0  0  0  0  0  0  0  0
    1.2959    3.1139    3.0678 H   0  0  0  0  0  0  0  0  0  0  0  0
    0.6273    3.7799    1.5584 H   0  0  0  0  0  0  0  0  0  0  0  0
  5  6  2  0  0  0  0
  5  7  1  0  0  0  0
  2  3  1  0  0  0  0
  2  4  1  0  0  0  0
  2  5  1  0  0  0  0
  1  2  1  0  0  0  0
 19 20  2  0  0  0  0
 19 21  1  0  0  0  0
 16 17  1  0  0  0  0
 16 18  1  0  0  0  0
 14 15  2  0  0  0  0
 14 16  1  0  0  0  0
 11 12  1  0  0  0  0
 11 13  1  0  0  0  0
 11 14  1  0  0  0  0
  9 10  1  0  0  0  0
  9 11  1  0  0  0  0
  9 19  1  0  0  0  0
  7  8  1  0  0  0  0
  7  9  1  0  0  0  0
 23 24  1  0  0  0  0
 23 25  1  0  0  0  0
 23 26  1  0  0  0  0
 21 22  1  0  0  0  0
 21 23  1  0  0  0  0
M  END
$$$$
default_name
  -OEChem-02102213163D

 26 25  0     1  0  0  0  0  0999 V2000
   -3.0232   -3.6924    1.0038 H   0  0  0  0  0  0  0  0  0  0  0  0
   -3.0082   -2.6684    0.6318 C   0  0  0  0  0  0  0  0  0  0  0  0
   -3.6332   -2.0414    1.2658 H   0  0  0  0  0  0  0  0  0  0  0  0
   -3.3762   -2.6444   -0.3912 H   0  0  0  0  0  0  0  0  0  0  0  0
   -1.5882   -2.1554    0.6658 C   0  0  0  0  0  0  0  0  0  0  0  0
   -0.6832   -2.8764    1.0638 O   0  0  0  0  0  0  0  0  0  0  0  0
   -1.3952   -0.9084    0.2428 N   0  0  0  0  0  0  0  0  0  0  0  0
   -2.1972   -0.3644   -0.0422 H   0  0  0  0  0  0  0  0  0  0  0  0
   -0.1122   -0.1994    0.2658 C   0  0  1  0  0  0  0  0  0  0  0  0
    0.5635   -0.7260    0.9446 H   0  0  0  0  0  0  0  0  0  0  0  0
    0.4924   -0.2204   -1.1558 C   0  0  0  0  0  0  0  0  0  0  0  0
    1.5525   -0.4628   -1.0898 H   0  0  0  0  0  0  0  0  0  0  0  0
    0.0004   -0.9936   -1.7439 H   0  0  0  0  0  0  0  0  0  0  0  0
    0.3887    1.1059   -1.8915 C   0  0  0  0  0  0  0  0  0  0  0  0
    1.2492    1.9668   -1.8315 O   0  0  0  0  0  0  0  0  0  0  0  0
   -0.6845    1.3234   -2.6121 N   0  0  0  0  0  0  0  0  0  0  0  0
   -0.7174    2.2008   -3.1008 H   0  0  0  0  0  0  0  0  0  0  0  0
   -1.3977    0.6236   -2.6930 H   0  0  0  0  0  0  0  0  0  0  0  0
   -0.3126    1.2341    0.8050 C   0  0  0  0  0  0  0  0  0  0  0  0
   -1.2484    1.9199    0.3934 O   0  0  0  0  0  0  0  0  0  0  0  0
    0.5615    1.6875    1.7087 N   0  0  0  0  0  0  0  0  0  0  0  0
    1.3461    1.0849    1.9358 H   0  0  0  0  0  0  0  0  0  0  0  0
    0.5043    3.0121    2.3242 C   0  0  0  0  0  0  0  0  0  0  0  0
   -0.4649    3.1514    2.8080 H   0  0  0  0  0  0  0  0  0  0  0  0
    1.2959    3.1139    3.0678 H   0  0  0  0  0  0  0  0  0  0  0  0
    0.6273    3.7799    1.5584 H   0  0  0  0  0  0  0  0  0  0  0  0
  5  6  2  0  0  0  0
  5  7  1  0  0  0  0
  2  3  1  0  0  0  0
  2  4  1  0  0  0  0
  2  5  1  0  0  0  0
  1  2  1  0  0  0  0
 19 20  2  0  0  0  0
 19 21  1  0  0  0  0
 16 17  1  0  0  0  0
 16 18  1  0  0  0  0
 14 15  2  0  0  0  0
 14 16  1  0  0  0  0
 11 12  1  0  0  0  0
 11 13  1  0  0  0  0
 11 14  1  0  0  0  0
  9 10  1  0  0  0  0
  9 11  1  0  0  0  0
  9 19  1  0  0  0  0
  7  8  1  0  0  0  0
  7  9  1  0  0  0  0
 23 24  1  0  0  0  0
 23 25  1  0  0  0  0
 23 26  1  0  0  0  0
 21 22  1  0  0  0  0
 21 23  1  0  0  0  0
M  END
$$$$
default_name
  -OEChem-02102213163D

 26 25  0     1  0  0  0  0  0999 V2000
   -3.0232   -3.6924    1.0038 H   0  0  0  0  0  0  0  0  0  0  0  0
   -3.0082   -2.6684    0.6318 C   0  0  0  0  0  0  0  0  0  0  0  0
   -3.6332   -2.0414    1.2658 H   0  0  0  0  0  0  0  0  0  0  0  0
   -3.3762   -2.6444   -0.3912 H   0  0  0  0  0  0  0  0  0  0  0  0
   -1.5882   -2.1554    0.6658 C   0  0  0  0  0  0  0  0  0  0  0  0
   -0.6832   -2.8764    1.0638 O   0  0  0  0  0  0  0  0  0  0  0  0
   -1.3952   -0.9084    0.2428 N   0  0  0  0  0  0  0  0  0  0  0  0
   -2.1972   -0.3644   -0.0422 H   0  0  0  0  0  0  0  0  0  0  0  0
   -0.1122   -0.1994    0.2658 C   0  0  1  0  0  0  0  0  0  0  0  0
    0.5635   -0.7260    0.9446 H   0  0  0  0  0  0  0  0  0  0  0  0
    0.4924   -0.2204   -1.1558 C   0  0  0  0  0  0  0  0  0  0  0  0
    1.5525   -0.4628   -1.0898 H   0  0  0  0  0  0  0  0  0  0  0  0
    0.0004   -0.9936   -1.7439 H   0  0  0  0  0  0  0  0  0  0  0  0
    0.3887    1.1059   -1.8915 C   0  0  0  0  0  0  0  0  0  0  0  0
    1.3397    1.8505   -2.0539 O   0  0  0  0  0  0  0  0  0  0  0  0
   -0.7848    1.4559   -2.3592 N   0  0  0  0  0  0  0  0  0  0  0  0
   -0.8194    2.3287   -2.8558 H   0  0  0  0  0  0  0  0  0  0  0  0
   -1.5785    0.8523   -2.2552 H   0  0  0  0  0  0  0  0  0  0  0  0
   -0.3126    1.2341    0.8050 C   0  0  0  0  0  0  0  0  0  0  0  0
   -1.2484    1.9199    0.3934 O   0  0  0  0  0  0  0  0  0  0  0  0
    0.5615    1.6875    1.7087 N   0  0  0  0  0  0  0  0  0  0  0  0
    1.3461    1.0849    1.9358 H   0  0  0  0  0  0  0  0  0  0  0  0
    0.5043    3.0121    2.3242 C   0  0  0  0  0  0  0  0  0  0  0  0
   -0.4649    3.1514    2.8080 H   0  0  0  0  0  0  0  0  0  0  0  0
    1.2959    3.1139    3.0678 H   0  0  0  0  0  0  0  0  0  0  0  0
    0.6273    3.7799    1.5584 H   0  0  0  0  0  0  0  0  0  0  0  0
  5  6  2  0  0  0  0
  5  7  1  0  0  0  0
  2  3  1  0  0  0  0
  2  4  1  0  0  0  0
  2  5  1  0  0  0  0
  1  2  1  0  0  0  0
 19 20  2  0  0  0  0
 19 21  1  0  0  0  0
 16 17  1  0  0  0  0
 16 18  1  0  0  0  0
 14 15  2  0  0  0  0
 14 16  1  0  0  0  0
 11 12  1  0  0  0  0
 11 13  1  0  0  0  0
 11 14  1  0  0  0  0
  9 10  1  0  0  0  0
  9 11  1  0  0  0  0
  9 19  1  0  0  0  0
  7  8  1  0  0  0  0
  7  9  1  0  0  0  0
 23 24  1  0  0  0  0
 23 25  1  0  0  0  0
 23 26  1  0  0  0  0
 21 22  1  0  0  0  0
 21 23  1  0  0  0  0
M  END
$$$$
default_name
  -OEChem-02102213163D

 26 25  0     1  0  0  0  0  0999 V2000
   -3.0232   -3.6924    1.0038 H   0  0  0  0  0  0  0  0  0  0  0  0
   -3.0082   -2.6684    0.6318 C   0  0  0  0  0  0  0  0  0  0  0  0
   -3.6332   -2.0414    1.2658 H   0  0  0  0  0  0  0  0  0  0  0  0
   -3.3762   -2.6444   -0.3912 H   0  0  0  0  0  0  0  0  0  0  0  0
   -1.5882   -2.1554    0.6658 C   0  0  0  0  0  0  0  0  0  0  0  0
   -0.6832   -2.8764    1.0638 O   0  0  0  0  0  0  0  0  0  0  0  0
   -1.3952   -0.9084    0.2428 N   0  0  0  0  0  0  0  0  0  0  0  0
   -2.1972   -0.3644   -0.0422 H   0  0  0  0  0  0  0  0  0  0  0  0
   -0.1122   -0.1994    0.2658 C   0  0  1  0  0  0  0  0  0  0  0  0
    0.5635   -0.7260    0.9446 H   0  0  0  0  0  0  0  0  0  0  0  0
    0.4924   -0.2204   -1.1558 C   0  0  0  0  0  0  0  0  0  0  0  0
    1.5525   -0.4628   -1.0898 H   0  0  0  0  0  0  0  0  0  0  0  0
    0.0004   -0.9936   -1.7439 H   0  0  0  0  0  0  0  0  0  0  0  0
    0.3887    1.1059   -1.8915 C   0  0  0  0  0  0  0  0  0  0  0  0
    1.3623    1.7229   -2.2872 O   0  0  0  0  0  0  0  0  0  0  0  0
   -0.8080    1.6009   -2.0945 N   0  0  0  0  0  0  0  0  0  0  0  0
   -0.8466    2.4694   -2.5983 H   0  0  0  0  0  0  0  0  0  0  0  0
   -1.6256    1.1035   -1.7956 H   0  0  0  0  0  0  0  0  0  0  0  0
   -0.3126    1.2341    0.8050 C   0  0  0  0  0  0  0  0  0  0  0  0
   -1.2484    1.9199    0.3934 O   0  0  0  0  0  0  0  0  0  0  0  0
    0.5615    1.6875    1.7087 N   0  0  0  0  0  0  0  0  0  0  0  0
    1.3461    1.0849    1.9358 H   0  0  0  0  0  0  0  0  0  0  0  0
    0.5043    3.0121    2.3242 C   0  0  0  0  0  0  0  0  0  0  0  0
   -0.4649    3.1514    2.8080 H   0  0  0  0  0  0  0  0  0  0  0  0
    1.2959    3.1139    3.0678 H   0  0  0  0  0  0  0  0  0  0  0  0
    0.6273    3.7799    1.5584 H   0  0  0  0  0  0  0  0  0  0  0  0
  5  6  2  0  0  0  0
  5  7  1  0  0  0  0
  2  3  1  0  0  0  0
  2  4  1  0  0  0  0
  2  5  1  0  0  0  0
  1  2  1  0  0  0  0
 19 20  2  0  0  0  0
 19 21  1  0  0  0  0
 16 17  1  0  0  0  0
 16 18  1  0  0  0  0
 14 15  2  0  0  0  0
 14 16  1  0  0  0  0
 11 12  1  0  0  0  0
 11 13  1  0  0  0  0
 11 14  1  0  0  0  0
  9 10  1  0  0  0  0
  9 11  1  0  0  0  0
  9 19  1  0  0  0  0
  7  8  1  0  0  0  0
  7  9  1  0  0  0  0
 23 24  1  0  0  0  0
 23 25  1  0  0  0  0
 23 26  1  0  0  0  0
 21 22  1  0  0  0  0
 21 23  1  0  0  0  0
M  END
$$$$
default_name
  -OEChem-02102213163D

 26 25  0     1  0  0  0  0  0999 V2000
   -3.0232   -3.6924    1.0038 H   0  0  0  0  0  0  0  0  0  0  0  0
   -3.0082   -2.6684    0.6318 C   0  0  0  0  0  0  0  0  0  0  0  0
   -3.6332   -2.0414    1.2658 H   0  0  0  0  0  0  0  0  0  0  0  0
   -3.3762   -2.6444   -0.3912 H   0  0  0  0  0  0  0  0  0  0  0  0
   -1.5882   -2.1554    0.6658 C   0  0  0  0  0  0  0  0  0  0  0  0
   -0.6832   -2.8764    1.0638 O   0  0  0  0  0  0  0  0  0  0  0  0
   -1.3952   -0.9084    0.2428 N   0  0  0  0  0  0  0  0  0  0  0  0
   -2.1972   -0.3644   -0.0422 H   0  0  0  0  0  0  0  0  0  0  0  0
   -0.1122   -0.1994    0.2658 C   0  0  1  0  0  0  0  0  0  0  0  0
    0.5635   -0.7260    0.9446 H   0  0  0  0  0  0  0  0  0  0  0  0
    0.4924   -0.2204   -1.1558 C   0  0  0  0  0  0  0  0  0  0  0  0
    1.5525   -0.4628   -1.0898 H   0  0  0  0  0  0  0  0  0  0  0  0
    0.0004   -0.9936   -1.7439 H   0  0  0  0  0  0  0  0  0  0  0  0
    0.3887    1.1059   -1.8915 C   0  0  0  0  0  0  0  0  0  0  0  0
    1.3155    1.5927   -2.5154 O   0  0  0  0  0  0  0  0  0  0  0  0
   -0.7525    1.7485   -1.8362 N   0  0  0  0  0  0  0  0  0  0  0  0
   -0.7971    2.6132   -2.3460 H   0  0  0  0  0  0  0  0  0  0  0  0
   -1.5358    1.3602   -1.3455 H   0  0  0  0  0  0  0  0  0  0  0  0
   -0.3126    1.2341    0.8050 C   0  0  0  0  0  0  0  0  0  0  0  0
   -1.2484    1.9199    0.3934 O   0  0  0  0  0  0  0  0  0  0  0  0
    0.5615    1.6875    1.7087 N   0  0  0  0  0  0  0  0  0  0  0  0
    1.3461    1.0849    1.9358 H   0  0  0  0  0  0  0  0  0  0  0  0
    0.5043    3.0121    2.3242 C   0  0  0  0  0  0  0  0  0  0  0  0
   -0.4649    3.1514    2.8080 H   0  0  0  0  0  0  0  0  0  0  0  0
    1.2959    3.1139    3.0678 H   0  0  0  0  0  0  0  0  0  0  0  0
    0.6273    3.7799    1.5584 H   0  0  0  0  0  0  0  0  0  0  0  0
  5  6  2  0  0  0  0
  5  7  1  0  0  0  0
  2  3  1  0  0  0  0
  2  4  1  0  0  0  0
  2  5  1  0  0  0  0
  1  2  1  0  0  0  0
 19 20  2  0  0  0  0
 19 21  1  0  0  0  0
 16 17  1  0  0  0  0
 16 18  1  0  0  0  0
 14 15  2  0  0  0  0
 14 16  1  0  0  0  0
 11 12  1  0  0  0  0
 11 13  1  0  0  0  0
 11 14  1  0  0  0  0
  9 10  1  0  0  0  0
  9 11  1  0  0  0  0
  9 19  1  0  0  0  0
  7  8  1  0  0  0  0
  7  9  1  0  0  0  0
 23 24  1  0  0  0  0
 23 25  1  0  0  0  0
 23 26  1  0  0  0  0
 21 22  1  0  0  0  0
 21 23  1  0  0  0  0
M  END
$$$$
default_name
  -OEChem-02102213163D

 26 25  0     1  0  0  0  0  0999 V2000
   -3.0232   -3.6924    1.0038 H   0  0  0  0  0  0  0  0  0  0  0  0
   -3.0082   -2.6684    0.6318 C   0  0  0  0  0  0  0  0  0  0  0  0
   -3.6332   -2.0414    1.2658 H   0  0  0  0  0  0  0  0  0  0  0  0
   -3.3762   -2.6444   -0.3912 H   0  0  0  0  0  0  0  0  0  0  0  0
   -1.5882   -2.1554    0.6658 C   0  0  0  0  0  0  0  0  0  0  0  0
   -0.6832   -2.8764    1.0638 O   0  0  0  0  0  0  0  0  0  0  0  0
   -1.3952   -0.9084    0.2428 N   0  0  0  0  0  0  0  0  0  0  0  0
   -2.1972   -0.3644   -0.0422 H   0  0  0  0  0  0  0  0  0  0  0  0
   -0.1122   -0.1994    0.2658 C   0  0  1  0  0  0  0  0  0  0  0  0
    0.5635   -0.7260    0.9446 H   0  0  0  0  0  0  0  0  0  0  0  0
    0.4924   -0.2204   -1.1558 C   0  0  0  0  0  0  0  0  0  0  0  0
    1.5525   -0.4628   -1.0898 H   0  0  0  0  0  0  0  0  0  0  0  0
    0.0004   -0.9936   -1.7439 H   0  0  0  0  0  0  0  0  0  0  0  0
    0.3887    1.1059   -1.8915 C   0  0  0  0  0  0  0  0  0  0  0  0
    1.2025    1.4687   -2.7230 O   0  0  0  0  0  0  0  0  0  0  0  0
   -0.6221    1.8887   -1.6018 N   0  0  0  0  0  0  0  0  0  0  0  0
   -0.6743    2.7504   -2.1160 H   0  0  0  0  0  0  0  0  0  0  0  0
   -1.3153    1.6049   -0.9355 H   0  0  0  0  0  0  0  0  0  0  0  0
   -0.3126    1.2341    0.8050 C   0  0  0  0  0  0  0  0  0  0  0  0
   -1.2484    1.9199    0.3934 O   0  0  0  0  0  0  0  0  0  0  0  0
    0.5615    1.6875    1.7087 N   0  0  0  0  0  0  0  0  0  0  0  0
    1.3461    1.0849    1.9358 H   0  0  0  0  0  0  0  0  0  0  0  0
    0.5043    3.0121    2.3242 C   0  0  0  0  0  0  0  0  0  0  0  0
   -0.4649    3.1514    2.8080 H   0  0  0  0  0  0  0  0  0  0  0  0
    1.2959    3.1139    3.0678 H   0  0  0  0  0  0  0  0  0  0  0  0
    0.6273    3.7799    1.5584 H   0  0  0  0  0  0  0  0  0  0  0  0
  5  6  2  0  0  0  0
  5  7  1  0  0  0  0
  2  3  1  0  0  0  0
  2  4  1  0  0  0  0
  2  5  1  0  0  0  0
  1  2  1  0  0  0  0
 19 20  2  0  0  0  0
 19 21  1  0  0  0  0
 16 17  1  0  0  0  0
 16 18  1  0  0  0  0
 14 15  2  0  0  0  0
 14 16  1  0  0  0  0
 11 12  1  0  0  0  0
 11 13  1  0  0  0  0
 11 14  1  0  0  0  0
  9 10  1  0  0  0  0
  9 11  1  0  0  0  0
  9 19  1  0  0  0  0
  7  8  1  0  0  0  0
  7  9  1  0  0  0  0
 23 24  1  0  0  0  0
 23 25  1  0  0  0  0
 23 26  1  0  0  0  0
 21 22  1  0  0  0  0
 21 23  1  0  0  0  0
M  END
$$$$
default_name
  -OEChem-02102213163D

 26 25  0     1  0  0  0  0  0999 V2000
   -3.0232   -3.6924    1.0038 H   0  0  0  0  0  0  0  0  0  0  0  0
   -3.0082   -2.6684    0.6318 C   0  0  0  0  0  0  0  0  0  0  0  0
   -3.6332   -2.0414    1.2658 H   0  0  0  0  0  0  0  0  0  0  0  0
   -3.3762   -2.6444   -0.3912 H   0  0  0  0  0  0  0  0  0  0  0  0
   -1.5882   -2.1554    0.6658 C   0  0  0  0  0  0  0  0  0  0  0  0
   -0.6832   -2.8764    1.0638 O   0  0  0  0  0  0  0  0  0  0  0  0
   -1.3952   -0.9084    0.2428 N   0  0  0  0  0  0  0  0  0  0  0  0
   -2.1972   -0.3644   -0.0422 H   0  0  0  0  0  0  0  0  0  0  0  0
   -0.1122   -0.1994    0.2658 C   0  0  1  0  0  0  0  0  0  0  0  0
    0.5635   -0.7260    0.9446 H   0  0  0  0  0  0  0  0  0  0  0  0
    0.4924   -0.2204   -1.1558 C   0  0  0  0  0  0  0  0  0  0  0  0
    1.5525   -0.4628   -1.0898 H   0  0  0  0  0  0  0  0  0  0  0  0
    0.0004   -0.9936   -1.7439 H   0  0  0  0  0  0  0  0  0  0  0  0
    0.3887    1.1059   -1.8915 C   0  0  0  0  0  0  0  0  0  0  0  0
    1.0309    1.3595   -2.8957 O   0  0  0  0  0  0  0  0  0  0  0  0
   -0.4256    2.0119   -1.4073 N   0  0  0  0  0  0  0  0  0  0  0  0
   -0.4866    2.8715   -1.9240 H   0  0  0  0  0  0  0  0  0  0  0  0
   -0.9791    1.8208   -0.5936 H   0  0  0  0  0  0  0  0  0  0  0  0
   -0.3126    1.2341    0.8050 C   0  0  0  0  0  0  0  0  0  0  0  0
   -1.2484    1.9199    0.3934 O   0  0  0  0  0  0  0  0  0  0  0  0
    0.5615    1.6875    1.7087 N   0  0  0  0  0  0  0  0  0  0  0  0
    1.3461    1.0849    1.9358 H   0  0  0  0  0  0  0  0  0  0  0  0
    0.5043    3.0121    2.3242 C   0  0  0  0  0  0  0  0  0  0  0  0
   -0.4649    3.1514    2.8080 H   0  0  0  0  0  0  0  0  0  0  0  0
    1.2959    3.1139    3.0678 H   0  0  0  0  0  0  0  0  0  0  0  0
    0.6273    3.7799    1.5584 H   0  0  0  0  0  0  0  0  0  0  0  0
  5  6  2  0  0  0  0
  5  7  1  0  0  0  0
  2  3  1  0  0  0  0
  2  4  1  0  0  0  0
  2  5  1  0  0  0  0
  1  2  1  0  0  0  0
 19 20  2  0  0  0  0
 19 21  1  0  0  0  0
 16 17  1  0  0  0  0
 16 18  1  0  0  0  0
 14 15  2  0  0  0  0
 14 16  1  0  0  0  0
 11 12  1  0  0  0  0
 11 13  1  0  0  0  0
 11 14  1  0  0  0  0
  9 10  1  0  0  0  0
  9 11  1  0  0  0  0
  9 19  1  0  0  0  0
  7  8  1  0  0  0  0
  7  9  1  0  0  0  0
 23 24  1  0  0  0  0
 23 25  1  0  0  0  0
 23 26  1  0  0  0  0
 21 22  1  0  0  0  0
 21 23  1  0  0  0  0
M  END
$$$$
default_name
  -OEChem-02102213163D

 26 25  0     1  0  0  0  0  0999 V2000
   -3.0232   -3.6924    1.0038 H   0  0  0  0  0  0  0  0  0  0  0  0
   -3.0082   -2.6684    0.6318 C   0  0  0  0  0  0  0  0  0  0  0  0
   -3.6332   -2.0414    1.2658 H   0  0  0  0  0  0  0  0  0  0  0  0
   -3.3762   -2.6444   -0.3912 H   0  0  0  0  0  0  0  0  0  0  0  0
   -1.5882   -2.1554    0.6658 C   0  0  0  0  0  0  0  0  0  0  0  0
   -0.6832   -2.8764    1.0638 O   0  0  0  0  0  0  0  0  0  0  0  0
   -1.3952   -0.9084    0.2428 N   0  0  0  0  0  0  0  0  0  0  0  0
   -2.1972   -0.3644   -0.0422 H   0  0  0  0  0  0  0  0  0  0  0  0
   -0.1122   -0.1994    0.2658 C   0  0  1  0  0  0  0  0  0  0  0  0
    0.5635   -0.7260    0.9446 H   0  0  0  0  0  0  0  0  0  0  0  0
    0.4924   -0.2204   -1.1558 C   0  0  0  0  0  0  0  0  0  0  0  0
    1.4632   -0.7139   -1.1241 H   0  0  0  0  0  0  0  0  0  0  0  0
   -0.1601   -0.7907   -1.8152 H   0  0  0  0  0  0  0  0  0  0  0  0
    0.7189    1.1596   -1.7518 C   0  0  0  0  0  0  0  0  0  0  0  0
    1.1879    1.3335   -2.8632 O   0  0  0  0  0  0  0  0  0  0  0  0
    0.3991    2.2009   -1.0226 N   0  0  0  0  0  0  0  0  0  0  0  0
    0.5433    3.0993   -1.4490 H   0  0  0  0  0  0  0  0  0  0  0  0
   -0.0060    2.0844   -0.1130 H   0  0  0  0  0  0  0  0  0  0  0  0
   -0.3126    1.2341    0.8050 C   0  0  0  0  0  0  0  0  0  0  0  0
   -1.2484    1.9199    0.3934 O   0  0  0  0  0  0  0  0  0  0  0  0
    0.5615    1.6875    1.7087 N   0  0  0  0  0  0  0  0  0  0  0  0
    1.3461    1.0849    1.9358 H   0  0  0  0  0  0  0  0  0  0  0  0
    0.5043    3.0121    2.3242 C   0  0  0  0  0  0  0  0  0  0  0  0
   -0.4649    3.1514    2.8080 H   0  0  0  0  0  0  0  0  0  0  0  0
    1.2959    3.1139    3.0678 H   0  0  0  0  0  0  0  0  0  0  0  0
    0.6273    3.7799    1.5584 H   0  0  0  0  0  0  0  0  0  0  0  0
  5  6  2  0  0  0  0
  5  7  1  0  0  0  0
  2  3  1  0  0  0  0
  2  4  1  0  0  0  0
  2  5  1  0  0  0  0
  1  2  1  0  0  0  0
 19 20  2  0  0  0  0
 19 21  1  0  0  0  0
 16 17  1  0  0  0  0
 16 18  1  0  0  0  0
 14 15  2  0  0  0  0
 14 16  1  0  0  0  0
 11 12  1  0  0  0  0
 11 13  1  0  0  0  0
 11 14  1  0  0  0  0
  9 10  1  0  0  0  0
  9 11  1  0  0  0  0
  9 19  1  0  0  0  0
  7  8  1  0  0  0  0
  7  9  1  0  0  0  0
 23 24  1  0  0  0  0
 23 25  1  0  0  0  0
 23 26  1  0  0  0  0
 21 22  1  0  0  0  0
 21 23  1  0  0  0  0
M  END
$$$$
default_name
  -OEChem-02102213163D

 26 25  0     1  0  0  0  0  0999 V2000
   -3.0232   -3.6924    1.0038 H   0  0  0  0  0  0  0  0  0  0  0  0
   -3.0082   -2.6684    0.6318 C   0  0  0  0  0  0  0  0  0  0  0  0
   -3.6332   -2.0414    1.2658 H   0  0  0  0  0  0  0  0  0  0  0  0
   -3.3762   -2.6444   -0.3912 H   0  0  0  0  0  0  0  0  0  0  0  0
   -1.5882   -2.1554    0.6658 C   0  0  0  0  0  0  0  0  0  0  0  0
   -0.6832   -2.8764    1.0638 O   0  0  0  0  0  0  0  0  0  0  0  0
   -1.3952   -0.9084    0.2428 N   0  0  0  0  0  0  0  0  0  0  0  0
   -2.1972   -0.3644   -0.0422 H   0  0  0  0  0  0  0  0  0  0  0  0
   -0.1122   -0.1994    0.2658 C   0  0  1  0  0  0  0  0  0  0  0  0
    0.5635   -0.7260    0.9446 H   0  0  0  0  0  0  0  0  0  0  0  0
    0.4924   -0.2204   -1.1558 C   0  0  0  0  0  0  0  0  0  0  0  0
    1.4632   -0.7139   -1.1241 H   0  0  0  0  0  0  0  0  0  0  0  0
   -0.1601   -0.7907   -1.8152 H   0  0  0  0  0  0  0  0  0  0  0  0
    0.7189    1.1596   -1.7518 C   0  0  0  0  0  0  0  0  0  0  0  0
    0.9318    1.3433   -2.9376 O   0  0  0  0  0  0  0  0  0  0  0  0
    0.6901    2.1887   -0.9403 N   0  0  0  0  0  0  0  0  0  0  0  0
    0.8255    3.0893   -1.3648 H   0  0  0  0  0  0  0  0  0  0  0  0
    0.4981    2.0660    0.0360 H   0  0  0  0  0  0  0  0  0  0  0  0
   -0.3126    1.2341    0.8050 C   0  0  0  0  0  0  0  0  0  0  0  0
   -1.2484    1.9199    0.3934 O   0  0  0  0  0  0  0  0  0  0  0  0
    0.5615    1.6875    1.7087 N   0  0  0  0  0  0  0  0  0  0  0  0
    1.3461    1.0849    1.9358 H   0  0  0  0  0  0  0  0  0  0  0  0
    0.5043    3.0121    2.3242 C   0  0  0  0  0  0  0  0  0  0  0  0
   -0.4649    3.1514    2.8080 H   0  0  0  0  0  0  0  0  0  0  0  0
    1.2959    3.1139    3.0678 H   0  0  0  0  0  0  0  0  0  0  0  0
    0.6273    3.7799    1.5584 H   0  0  0  0  0  0  0  0  0  0  0  0
  5  6  2  0  0  0  0
  5  7  1  0  0  0  0
  2  3  1  0  0  0  0
  2  4  1  0  0  0  0
  2  5  1  0  0  0  0
  1  2  1  0  0  0  0
 19 20  2  0  0  0  0
 19 21  1  0  0  0  0
 16 17  1  0  0  0  0
 16 18  1  0  0  0  0
 14 15  2  0  0  0  0
 14 16  1  0  0  0  0
 11 12  1  0  0  0  0
 11 13  1  0  0  0  0
 11 14  1  0  0  0  0
  9 10  1  0  0  0  0
  9 11  1  0  0  0  0
  9 19  1  0  0  0  0
  7  8  1  0  0  0  0
  7  9  1  0  0  0  0
 23 24  1  0  0  0  0
 23 25  1  0  0  0  0
 23 26  1  0  0  0  0
 21 22  1  0  0  0  0
 21 23  1  0  0  0  0
M  END
$$$$
default_name
  -OEChem-02102213163D

 26 25  0     1  0  0  0  0  0999 V2000
   -3.0232   -3.6924    1.0038 H   0  0  0  0  0  0  0  0  0  0  0  0
   -3.0082   -2.6684    0.6318 C   0  0  0  0  0  0  0  0  0  0  0  0
   -3.6332   -2.0414    1.2658 H   0  0  0  0  0  0  0  0  0  0  0  0
   -3.3762   -2.6444   -0.3912 H   0  0  0  0  0  0  0  0  0  0  0  0
   -1.5882   -2.1554    0.6658 C   0  0  0  0  0  0  0  0  0  0  0  0
   -0.6832   -2.8764    1.0638 O   0  0  0  0  0  0  0  0  0  0  0  0
   -1.3952   -0.9084    0.2428 N   0  0  0  0  0  0  0  0  0  0  0  0
   -2.1972   -0.3644   -0.0422 H   0  0  0  0  0  0  0  0  0  0  0  0
   -0.1122   -0.1994    0.2658 C   0  0  1  0  0  0  0  0  0  0  0  0
    0.5635   -0.7260    0.9446 H   0  0  0  0  0  0  0  0  0  0  0  0
    0.4924   -0.2204   -1.1558 C   0  0  0  0  0  0  0  0  0  0  0  0
    1.4632   -0.7139   -1.1241 H   0  0  0  0  0  0  0  0  0  0  0  0
   -0.1601   -0.7907   -1.8152 H   0  0  0  0  0  0  0  0  0  0  0  0
    0.7189    1.1596   -1.7518 C   0  0  0  0  0  0  0  0  0  0  0  0
    0.6680    1.3817   -2.9490 O   0  0  0  0  0  0  0  0  0  0  0  0
    0.9892    2.1442   -0.9297 N   0  0  0  0  0  0  0  0  0  0  0  0
    1.1168    3.0478   -1.3502 H   0  0  0  0  0  0  0  0  0  0  0  0
    1.0181    1.9913    0.0607 H   0  0  0  0  0  0  0  0  0  0  0  0
   -0.3126    1.2341    0.8050 C   0  0  0  0  0  0  0  0  0  0  0  0
   -1.2484    1.9199    0.3934 O   0  0  0  0  0  0  0  0  0  0  0  0
    0.5615    1.6875    1.7087 N   0  0  0  0  0  0  0  0  0  0  0  0
    1.3461    1.0849    1.9358 H   0  0  0  0  0  0  0  0  0  0  0  0
    0.5043    3.0121    2.3242 C   0  0  0  0  0  0  0  0  0  0  0  0
   -0.4649    3.1514    2.8080 H   0  0  0  0  0  0  0  0  0  0  0  0
    1.2959    3.1139    3.0678 H   0  0  0  0  0  0  0  0  0  0  0  0
    0.6273    3.7799    1.5584 H   0  0  0  0  0  0  0  0  0  0  0  0
  5  6  2  0  0  0  0
  5  7  1  0  0  0  0
  2  3  1  0  0  0  0
  2  4  1  0  0  0  0
  2  5  1  0  0  0  0
  1  2  1  0  0  0  0
 19 20  2  0  0  0  0
 19 21  1  0  0  0  0
 16 17  1  0  0  0  0
 16 18  1  0  0  0  0
 14 15  2  0  0  0  0
 14 16  1  0  0  0  0
 11 12  1  0  0  0  0
 11 13  1  0  0  0  0
 11 14  1  0  0  0  0
  9 10  1  0  0  0  0
  9 11  1  0  0  0  0
  9 19  1  0  0  0  0
  7  8  1  0  0  0  0
  7  9  1  0  0  0  0
 23 24  1  0  0  0  0
 23 25  1  0  0  0  0
 23 26  1  0  0  0  0
 21 22  1  0  0  0  0
 21 23  1  0  0  0  0
M  END
$$$$
default_name
  -OEChem-02102213163D

 26 25  0     1  0  0  0  0  0999 V2000
   -3.0232   -3.6924    1.0038 H   0  0  0  0  0  0  0  0  0  0  0  0
   -3.0082   -2.6684    0.6318 C   0  0  0  0  0  0  0  0  0  0  0  0
   -3.6332   -2.0414    1.2658 H   0  0  0  0  0  0  0  0  0  0  0  0
   -3.3762   -2.6444   -0.3912 H   0  0  0  0  0  0  0  0  0  0  0  0
   -1.5882   -2.1554    0.6658 C   0  0  0  0  0  0  0  0  0  0  0  0
   -0.6832   -2.8764    1.0638 O   0  0  0  0  0  0  0  0  0  0  0  0
   -1.3952   -0.9084    0.2428 N   0  0  0  0  0  0  0  0  0  0  0  0
   -2.1972   -0.3644   -0.0422 H   0  0  0  0  0  0  0  0  0  0  0  0
   -0.1122   -0.1994    0.2658 C   0  0  1  0  0  0  0  0  0  0  0  0
    0.5635   -0.7260    0.9446 H   0  0  0  0  0  0  0  0  0  0  0  0
    0.4924   -0.2204   -1.1558 C   0  0  0  0  0  0  0  0  0  0  0  0
    1.4632   -0.7139   -1.1241 H   0  0  0  0  0  0  0  0  0  0  0  0
   -0.1601   -0.7907   -1.8152 H   0  0  0  0  0  0  0  0  0  0  0  0
    0.7189    1.1596   -1.7518 C   0  0  0  0  0  0  0  0  0  0  0  0
    0.4143    1.4460   -2.8965 O   0  0  0  0  0  0  0  0  0  0  0  0
    1.2762    2.0704   -0.9914 N   0  0  0  0  0  0  0  0  0  0  0  0
    1.3974    2.9776   -1.4061 H   0  0  0  0  0  0  0  0  0  0  0  0
    1.5186    1.8655   -0.0404 H   0  0  0  0  0  0  0  0  0  0  0  0
   -0.3126    1.2341    0.8050 C   0  0  0  0  0  0  0  0  0  0  0  0
   -1.2484    1.9199    0.3934 O   0  0  0  0  0  0  0  0  0  0  0  0
    0.5615    1.6875    1.7087 N   0  0  0  0  0  0  0  0  0  0  0  0
    1.3461    1.0849    1.9358 H   0  0  0  0  0  0  0  0  0  0  0  0
    0.5043    3.0121    2.3242 C   0  0  0  0  0  0  0  0  0  0  0  0
   -0.4649    3.1514    2.8080 H   0  0  0  0  0  0  0  0  0  0  0  0
    1.2959    3.1139    3.0678 H   0  0  0  0  0  0  0  0  0  0  0  0
    0.6273    3.7799    1.5584 H   0  0  0  0  0  0  0  0  0  0  0  0
  5  6  2  0  0  0  0
  5  7  1  0  0  0  0
  2  3  1  0  0  0  0
  2  4  1  0  0  0  0
  2  5  1  0  0  0  0
  1  2  1  0  0  0  0
 19 20  2  0  0  0  0
 19 21  1  0  0  0  0
 16 17  1  0  0  0  0
 16 18  1  0  0  0  0
 14 15  2  0  0  0  0
 14 16  1  0  0  0  0
 11 12  1  0  0  0  0
 11 13  1  0  0  0  0
 11 14  1  0  0  0  0
  9 10  1  0  0  0  0
  9 11  1  0  0  0  0
  9 19  1  0  0  0  0
  7  8  1  0  0  0  0
  7  9  1  0  0  0  0
 23 24  1  0  0  0  0
 23 25  1  0  0  0  0
 23 26  1  0  0  0  0
 21 22  1  0  0  0  0
 21 23  1  0  0  0  0
M  END
$$$$
default_name
  -OEChem-02102213163D

 26 25  0     1  0  0  0  0  0999 V2000
   -3.0232   -3.6924    1.0038 H   0  0  0  0  0  0  0  0  0  0  0  0
   -3.0082   -2.6684    0.6318 C   0  0  0  0  0  0  0  0  0  0  0  0
   -3.6332   -2.0414    1.2658 H   0  0  0  0  0  0  0  0  0  0  0  0
   -3.3762   -2.6444   -0.3912 H   0  0  0  0  0  0  0  0  0  0  0  0
   -1.5882   -2.1554    0.6658 C   0  0  0  0  0  0  0  0  0  0  0  0
   -0.6832   -2.8764    1.0638 O   0  0  0  0  0  0  0  0  0  0  0  0
   -1.3952   -0.9084    0.2428 N   0  0  0  0  0  0  0  0  0  0  0  0
   -2.1972   -0.3644   -0.0422 H   0  0  0  0  0  0  0  0  0  0  0  0
   -0.1122   -0.1994    0.2658 C   0  0  1  0  0  0  0  0  0  0  0  0
    0.5635   -0.7260    0.9446 H   0  0  0  0  0  0  0  0  0  0  0  0
    0.4924   -0.2204   -1.1558 C   0  0  0  0  0  0  0  0  0  0  0  0
    1.4632   -0.7139   -1.1241 H   0  0  0  0  0  0  0  0  0  0  0  0
   -0.1601   -0.7907   -1.8152 H   0  0  0  0  0  0  0  0  0  0  0  0
    0.7189    1.1596   -1.7518 C   0  0  0  0  0  0  0  0  0  0  0  0
    0.1882    1.5318   -2.7838 O   0  0  0  0  0  0  0  0  0  0  0  0
    1.5314    1.9724   -1.1213 N   0  0  0  0  0  0  0  0  0  0  0  0
    1.6482    2.8834   -1.5288 H   0  0  0  0  0  0  0  0  0  0  0  0
    1.9655    1.6971   -0.2606 H   0  0  0  0  0  0  0  0  0  0  0  0
   -0.3126    1.2341    0.8050 C   0  0  0  0  0  0  0  0  0  0  0  0
   -1.2484    1.9199    0.3934 O   0  0  0  0  0  0  0  0  0  0  0  0
    0.5615    1.6875    1.7087 N   0  0  0  0  0  0  0  0  0  0  0  0
    1.3461    1.0849    1.9358 H   0  0  0  0  0  0  0  0  0  0  0  0
    0.5043    3.0121    2.3242 C   0  0  0  0  0  0  0  0  0  0  0  0
   -0.4649    3.1514    2.8080 H   0  0  0  0  0  0  0  0  0  0  0  0
    1.2959    3.1139    3.0678 H   0  0  0  0  0  0  0  0  0  0  0  0
    0.6273    3.7799    1.5584 H   0  0  0  0  0  0  0  0  0  0  0  0
  5  6  2  0  0  0  0
  5  7  1  0  0  0  0
  2  3  1  0  0  0  0
  2  4  1  0  0  0  0
  2  5  1  0  0  0  0
  1  2  1  0  0  0  0
 19 20  2  0  0  0  0
 19 21  1  0  0  0  0
 16 17  1  0  0  0  0
 16 18  1  0  0  0  0
 14 15  2  0  0  0  0
 14 16  1  0  0  0  0
 11 12  1  0  0  0  0
 11 13  1  0  0  0  0
 11 14  1  0  0  0  0
  9 10  1  0  0  0  0
  9 11  1  0  0  0  0
  9 19  1  0  0  0  0
  7  8  1  0  0  0  0
  7  9  1  0  0  0  0
 23 24  1  0  0  0  0
 23 25  1  0  0  0  0
 23 26  1  0  0  0  0
 21 22  1  0  0  0  0
 21 23  1  0  0  0  0
M  END
$$$$
default_name
  -OEChem-02102213163D

 26 25  0     1  0  0  0  0  0999 V2000
   -3.0232   -3.6924    1.0038 H   0  0  0  0  0  0  0  0  0  0  0  0
   -3.0082   -2.6684    0.6318 C   0  0  0  0  0  0  0  0  0  0  0  0
   -3.6332   -2.0414    1.2658 H   0  0  0  0  0  0  0  0  0  0  0  0
   -3.3762   -2.6444   -0.3912 H   0  0  0  0  0  0  0  0  0  0  0  0
   -1.5882   -2.1554    0.6658 C   0  0  0  0  0  0  0  0  0  0  0  0
   -0.6832   -2.8764    1.0638 O   0  0  0  0  0  0  0  0  0  0  0  0
   -1.3952   -0.9084    0.2428 N   0  0  0  0  0  0  0  0  0  0  0  0
   -2.1972   -0.3644   -0.0422 H   0  0  0  0  0  0  0  0  0  0  0  0
   -0.1122   -0.1994    0.2658 C   0  0  1  0  0  0  0  0  0  0  0  0
    0.5635   -0.7260    0.9446 H   0  0  0  0  0  0  0  0  0  0  0  0
    0.4924   -0.2204   -1.1558 C   0  0  0  0  0  0  0  0  0  0  0  0
    1.4632   -0.7139   -1.1241 H   0  0  0  0  0  0  0  0  0  0  0  0
   -0.1601   -0.7907   -1.8152 H   0  0  0  0  0  0  0  0  0  0  0  0
    0.7189    1.1596   -1.7518 C   0  0  0  0  0  0  0  0  0  0  0  0
    0.0049    1.6333   -2.6184 O   0  0  0  0  0  0  0  0  0  0  0  0
    1.7375    1.8569   -1.3105 N   0  0  0  0  0  0  0  0  0  0  0  0
    1.8520    2.7718   -1.7098 H   0  0  0  0  0  0  0  0  0  0  0  0
    2.3284    1.4975   -0.5848 H   0  0  0  0  0  0  0  0  0  0  0  0
   -0.3126    1.2341    0.8050 C   0  0  0  0  0  0  0  0  0  0  0  0
   -1.2484    1.9199    0.3934 O   0  0  0  0  0  0  0  0  0  0  0  0
    0.5615    1.6875    1.7087 N   0  0  0  0  0  0  0  0  0  0  0  0
    1.3461    1.0849    1.9358 H   0  0  0  0  0  0  0  0  0  0  0  0
    0.5043    3.0121    2.3242 C   0  0  0  0  0  0  0  0  0  0  0  0
   -0.4649    3.1514    2.8080 H   0  0  0  0  0  0  0  0  0  0  0  0
    1.2959    3.1139    3.0678 H   0  0  0  0  0  0  0  0  0  0  0  0
    0.6273    3.7799    1.5584 H   0  0  0  0  0  0  0  0  0  0  0  0
  5  6  2  0  0  0  0
  5  7  1  0  0  0  0
  2  3  1  0  0  0  0
  2  4  1  0  0  0  0
  2  5  1  0  0  0  0
  1  2  1  0  0  0  0
 19 20  2  0  0  0  0
 19 21  1  0  0  0  0
 16 17  1  0  0  0  0
 16 18  1  0  0  0  0
 14 15  2  0  0  0  0
 14 16  1  0  0  0  0
 11 12  1  0  0  0  0
 11 13  1  0  0  0  0
 11 14  1  0  0  0  0
  9 10  1  0  0  0  0
  9 11  1  0  0  0  0
  9 19  1  0  0  0  0
  7  8  1  0  0  0  0
  7  9  1  0  0  0  0
 23 24  1  0  0  0  0
 23 25  1  0  0  0  0
 23 26  1  0  0  0  0
 21 22  1  0  0  0  0
 21 23  1  0  0  0  0
M  END
$$$$
default_name
  -OEChem-02102213163D

 26 25  0     1  0  0  0  0  0999 V2000
   -3.0232   -3.6924    1.0038 H   0  0  0  0  0  0  0  0  0  0  0  0
   -3.0082   -2.6684    0.6318 C   0  0  0  0  0  0  0  0  0  0  0  0
   -3.6332   -2.0414    1.2658 H   0  0  0  0  0  0  0  0  0  0  0  0
   -3.3762   -2.6444   -0.3912 H   0  0  0  0  0  0  0  0  0  0  0  0
   -1.5882   -2.1554    0.6658 C   0  0  0  0  0  0  0  0  0  0  0  0
   -0.6832   -2.8764    1.0638 O   0  0  0  0  0  0  0  0  0  0  0  0
   -1.3952   -0.9084    0.2428 N   0  0  0  0  0  0  0  0  0  0  0  0
   -2.1972   -0.3644   -0.0422 H   0  0  0  0  0  0  0  0  0  0  0  0
   -0.1122   -0.1994    0.2658 C   0  0  1  0  0  0  0  0  0  0  0  0
    0.5635   -0.7260    0.9446 H   0  0  0  0  0  0  0  0  0  0  0  0
    0.4924   -0.2204   -1.1558 C   0  0  0  0  0  0  0  0  0  0  0  0
    1.4632   -0.7139   -1.1241 H   0  0  0  0  0  0  0  0  0  0  0  0
   -0.1601   -0.7907   -1.8152 H   0  0  0  0  0  0  0  0  0  0  0  0
    0.7189    1.1596   -1.7518 C   0  0  0  0  0  0  0  0  0  0  0  0
   -0.1229    1.7436   -2.4117 O   0  0  0  0  0  0  0  0  0  0  0  0
    1.8803    1.7317   -1.5461 N   0  0  0  0  0  0  0  0  0  0  0  0
    1.9951    2.6503   -1.9369 H   0  0  0  0  0  0  0  0  0  0  0  0
    2.5825    1.2804   -0.9908 H   0  0  0  0  0  0  0  0  0  0  0  0
   -0.3126    1.2341    0.8050 C   0  0  0  0  0  0  0  0  0  0  0  0
   -1.2484    1.9199    0.3934 O   0  0  0  0  0  0  0  0  0  0  0  0
    0.5615    1.6875    1.7087 N   0  0  0  0  0  0  0  0  0  0  0  0
    1.3461    1.0849    1.9358 H   0  0  0  0  0  0  0  0  0  0  0  0
    0.5043    3.0121    2.3242 C   0  0  0  0  0  0  0  0  0  0  0  0
   -0.4649    3.1514    2.8080 H   0  0  0  0  0  0  0  0  0  0  0  0
    1.2959    3.1139    3.0678 H   0  0  0  0  0  0  0  0  0  0  0  0
    0.6273    3.7799    1.5584 H   0  0  0  0  0  0  0  0  0  0  0  0
  5  6  2  0  0  0  0
  5  7  1  0  0  0  0
  2  3  1  0  0  0  0
  2  4  1  0  0  0  0
  2  5  1  0  0  0  0
  1  2  1  0  0  0  0
 19 20  2  0  0  0  0
 19 21  1  0  0  0  0
 16 17  1  0  0  0  0
 16 18  1  0  0  0  0
 14 15  2  0  0  0  0
 14 16  1  0  0  0  0
 11 12  1  0  0  0  0
 11 13  1  0  0  0  0
 11 14  1  0  0  0  0
  9 10  1  0  0  0  0
  9 11  1  0  0  0  0
  9 19  1  0  0  0  0
  7  8  1  0  0  0  0
  7  9  1  0  0  0  0
 23 24  1  0  0  0  0
 23 25  1  0  0  0  0
 23 26  1  0  0  0  0
 21 22  1  0  0  0  0
 21 23  1  0  0  0  0
M  END
$$$$
default_name
  -OEChem-02102213163D

 26 25  0     1  0  0  0  0  0999 V2000
   -3.0232   -3.6924    1.0038 H   0  0  0  0  0  0  0  0  0  0  0  0
   -3.0082   -2.6684    0.6318 C   0  0  0  0  0  0  0  0  0  0  0  0
   -3.6332   -2.0414    1.2658 H   0  0  0  0  0  0  0  0  0  0  0  0
   -3.3762   -2.6444   -0.3912 H   0  0  0  0  0  0  0  0  0  0  0  0
   -1.5882   -2.1554    0.6658 C   0  0  0  0  0  0  0  0  0  0  0  0
   -0.6832   -2.8764    1.0638 O   0  0  0  0  0  0  0  0  0  0  0  0
   -1.3952   -0.9084    0.2428 N   0  0  0  0  0  0  0  0  0  0  0  0
   -2.1972   -0.3644   -0.0422 H   0  0  0  0  0  0  0  0  0  0  0  0
   -0.1122   -0.1994    0.2658 C   0  0  1  0  0  0  0  0  0  0  0  0
    0.5635   -0.7260    0.9446 H   0  0  0  0  0  0  0  0  0  0  0  0
    0.4924   -0.2204   -1.1558 C   0  0  0  0  0  0  0  0  0  0  0  0
    1.4632   -0.7139   -1.1241 H   0  0  0  0  0  0  0  0  0  0  0  0
   -0.1601   -0.7907   -1.8152 H   0  0  0  0  0  0  0  0  0  0  0  0
    0.7189    1.1596   -1.7518 C   0  0  0  0  0  0  0  0  0  0  0  0
   -0.1867    1.8551   -2.1778 O   0  0  0  0  0  0  0  0  0  0  0  0
    1.9502    1.6054   -1.8121 N   0  0  0  0  0  0  0  0  0  0  0  0
    2.0676    2.5271   -2.1945 H   0  0  0  0  0  0  0  0  0  0  0  0
    2.7105    1.0606   -1.4511 H   0  0  0  0  0  0  0  0  0  0  0  0
   -0.3126    1.2341    0.8050 C   0  0  0  0  0  0  0  0  0  0  0  0
   -1.2484    1.9199    0.3934 O   0  0  0  0  0  0  0  0  0  0  0  0
    0.5615    1.6875    1.7087 N   0  0  0  0  0  0  0  0  0  0  0  0
    1.3461    1.0849    1.9358 H   0  0  0  0  0  0  0  0  0  0  0  0
    0.5043    3.0121    2.3242 C   0  0  0  0  0  0  0  0  0  0  0  0
   -0.4649    3.1514    2.8080 H   0  0  0  0  0  0  0  0  0  0  0  0
    1.2959    3.1139    3.0678 H   0  0  0  0  0  0  0  0  0  0  0  0
    0.6273    3.7799    1.5584 H   0  0  0  0  0  0  0  0  0  0  0  0
  5  6  2  0  0  0  0
  5  7  1  0  0  0  0
  2  3  1  0  0  0  0
  2  4  1  0  0  0  0
  2  5  1  0  0  0  0
  1  2  1  0  0  0  0
 19 20  2  0  0  0  0
 19 21  1  0  0  0  0
 16 17  1  0  0  0  0
 16 18  1  0  0  0  0
 14 15  2  0  0  0  0
 14 16  1  0  0  0  0
 11 12  1  0  0  0  0
 11 13  1  0  0  0  0
 11 14  1  0  0  0  0
  9 10  1  0  0  0  0
  9 11  1  0  0  0  0
  9 19  1  0  0  0  0
  7  8  1  0  0  0  0
  7  9  1  0  0  0  0
 23 24  1  0  0  0  0
 23 25  1  0  0  0  0
 23 26  1  0  0  0  0
 21 22  1  0  0  0  0
 21 23  1  0  0  0  0
M  END
$$$$
default_name
  -OEChem-02102213163D

 26 25  0     1  0  0  0  0  0999 V2000
   -3.0232   -3.6924    1.0038 H   0  0  0  0  0  0  0  0  0  0  0  0
   -3.0082   -2.6684    0.6318 C   0  0  0  0  0  0  0  0  0  0  0  0
   -3.6332   -2.0414    1.2658 H   0  0  0  0  0  0  0  0  0  0  0  0
   -3.3762   -2.6444   -0.3912 H   0  0  0  0  0  0  0  0  0  0  0  0
   -1.5882   -2.1554    0.6658 C   0  0  0  0  0  0  0  0  0  0  0  0
   -0.6832   -2.8764    1.0638 O   0  0  0  0  0  0  0  0  0  0  0  0
   -1.3952   -0.9084    0.2428 N   0  0  0  0  0  0  0  0  0  0  0  0
   -2.1972   -0.3644   -0.0422 H   0  0  0  0  0  0  0  0  0  0  0  0
   -0.1122   -0.1994    0.2658 C   0  0  1  0  0  0  0  0  0  0  0  0
    0.5635   -0.7260    0.9446 H   0  0  0  0  0  0  0  0  0  0  0  0
    0.4924   -0.2204   -1.1558 C   0  0  0  0  0  0  0  0  0  0  0  0
    1.4632   -0.7139   -1.1241 H   0  0  0  0  0  0  0  0  0  0  0  0
   -0.1601   -0.7907   -1.8152 H   0  0  0  0  0  0  0  0  0  0  0  0
    0.7189    1.1596   -1.7518 C   0  0  0  0  0  0  0  0  0  0  0  0
   -0.1820    1.9602   -1.9325 O   0  0  0  0  0  0  0  0  0  0  0  0
    1.9424    1.4865   -2.0903 N   0  0  0  0  0  0  0  0  0  0  0  0
    2.0646    2.4107   -2.4651 H   0  0  0  0  0  0  0  0  0  0  0  0
    2.7037    0.8531   -1.9343 H   0  0  0  0  0  0  0  0  0  0  0  0
   -0.3126    1.2341    0.8050 C   0  0  0  0  0  0  0  0  0  0  0  0
   -1.2484    1.9199    0.3934 O   0  0  0  0  0  0  0  0  0  0  0  0
    0.5615    1.6875    1.7087 N   0  0  0  0  0  0  0  0  0  0  0  0
    1.3461    1.0849    1.9358 H   0  0  0  0  0  0  0  0  0  0  0  0
    0.5043    3.0121    2.3242 C   0  0  0  0  0  0  0  0  0  0  0  0
   -0.4649    3.1514    2.8080 H   0  0  0  0  0  0  0  0  0  0  0  0
    1.2959    3.1139    3.0678 H   0  0  0  0  0  0  0  0  0  0  0  0
    0.6273    3.7799    1.5584 H   0  0  0  0  0  0  0  0  0  0  0  0
  5  6  2  0  0  0  0
  5  7  1  0  0  0  0
  2  3  1  0  0  0  0
  2  4  1  0  0  0  0
  2  5  1  0  0  0  0
  1  2  1  0  0  0  0
 19 20  2  0  0  0  0
 19 21  1  0  0  0  0
 16 17  1  0  0  0  0
 16 18  1  0  0  0  0
 14 15  2  0  0  0  0
 14 16  1  0  0  0  0
 11 12  1  0  0  0  0
 11 13  1  0  0  0  0
 11 14  1  0  0  0  0
  9 10  1  0  0  0  0
  9 11  1  0  0  0  0
  9 19  1  0  0  0  0
  7  8  1  0  0  0  0
  7  9  1  0  0  0  0
 23 24  1  0  0  0  0
 23 25  1  0  0  0  0
 23 26  1  0  0  0  0
 21 22  1  0  0  0  0
 21 23  1  0  0  0  0
M  END
$$$$
default_name
  -OEChem-02102213163D

 26 25  0     1  0  0  0  0  0999 V2000
   -3.0232   -3.6924    1.0038 H   0  0  0  0  0  0  0  0  0  0  0  0
   -3.0082   -2.6684    0.6318 C   0  0  0  0  0  0  0  0  0  0  0  0
   -3.6332   -2.0414    1.2658 H   0  0  0  0  0  0  0  0  0  0  0  0
   -3.3762   -2.6444   -0.3912 H   0  0  0  0  0  0  0  0  0  0  0  0
   -1.5882   -2.1554    0.6658 C   0  0  0  0  0  0  0  0  0  0  0  0
   -0.6832   -2.8764    1.0638 O   0  0  0  0  0  0  0  0  0  0  0  0
   -1.3952   -0.9084    0.2428 N   0  0  0  0  0  0  0  0  0  0  0  0
   -2.1972   -0.3644   -0.0422 H   0  0  0  0  0  0  0  0  0  0  0  0
   -0.1122   -0.1994    0.2658 C   0  0  1  0  0  0  0  0  0  0  0  0
    0.5635   -0.7260    0.9446 H   0  0  0  0  0  0  0  0  0  0  0  0
    0.4924   -0.2204   -1.1558 C   0  0  0  0  0  0  0  0  0  0  0  0
    1.4632   -0.7139   -1.1241 H   0  0  0  0  0  0  0  0  0  0  0  0
   -0.1601   -0.7907   -1.8152 H   0  0  0  0  0  0  0  0  0  0  0  0
    0.7189    1.1596   -1.7518 C   0  0  0  0  0  0  0  0  0  0  0  0
   -0.1091    2.0518   -1.6927 O   0  0  0  0  0  0  0  0  0  0  0  0
    1.8575    1.3832   -2.3618 N   0  0  0  0  0  0  0  0  0  0  0  0
    1.9863    2.3091   -2.7303 H   0  0  0  0  0  0  0  0  0  0  0  0
    2.5625    0.6719   -2.4074 H   0  0  0  0  0  0  0  0  0  0  0  0
   -0.3126    1.2341    0.8050 C   0  0  0  0  0  0  0  0  0  0  0  0
   -1.2484    1.9199    0.3934 O   0  0  0  0  0  0  0  0  0  0  0  0
    0.5615    1.6875    1.7087 N   0  0  0  0  0  0  0  0  0  0  0  0
    1.3461    1.0849    1.9358 H   0  0  0  0  0  0  0  0  0  0  0  0
    0.5043    3.0121    2.3242 C   0  0  0  0  0  0  0  0  0  0  0  0
   -0.4649    3.1514    2.8080 H   0  0  0  0  0  0  0  0  0  0  0  0
    1.2959    3.1139    3.0678 H   0  0  0  0  0  0  0  0  0  0  0  0
    0.6273    3.7799    1.5584 H   0  0  0  0  0  0  0  0  0  0  0  0
  5  6  2  0  0  0  0
  5  7  1  0  0  0  0
  2  3  1  0  0  0  0
  2  4  1  0  0  0  0
  2  5  1  0  0  0  0
  1  2  1  0  0  0  0
 19 20  2  0  0  0  0
 19 21  1  0  0  0  0
 16 17  1  0  0  0  0
 16 18  1  0  0  0  0
 14 15  2  0  0  0  0
 14 16  1  0  0  0  0
 11 12  1  0  0  0  0
 11 13  1  0  0  0  0
 11 14  1  0  0  0  0
  9 10  1  0  0  0  0
  9 11  1  0  0  0  0
  9 19  1  0  0  0  0
  7  8  1  0  0  0  0
  7  9  1  0  0  0  0
 23 24  1  0  0  0  0
 23 25  1  0  0  0  0
 23 26  1  0  0  0  0
 21 22  1  0  0  0  0
 21 23  1  0  0  0  0
M  END
$$$$
default_name
  -OEChem-02102213163D

 26 25  0     1  0  0  0  0  0999 V2000
   -3.0232   -3.6924    1.0038 H   0  0  0  0  0  0  0  0  0  0  0  0
   -3.0082   -2.6684    0.6318 C   0  0  0  0  0  0  0  0  0  0  0  0
   -3.6332   -2.0414    1.2658 H   0  0  0  0  0  0  0  0  0  0  0  0
   -3.3762   -2.6444   -0.3912 H   0  0  0  0  0  0  0  0  0  0  0  0
   -1.5882   -2.1554    0.6658 C   0  0  0  0  0  0  0  0  0  0  0  0
   -0.6832   -2.8764    1.0638 O   0  0  0  0  0  0  0  0  0  0  0  0
   -1.3952   -0.9084    0.2428 N   0  0  0  0  0  0  0  0  0  0  0  0
   -2.1972   -0.3644   -0.0422 H   0  0  0  0  0  0  0  0  0  0  0  0
   -0.1122   -0.1994    0.2658 C   0  0  1  0  0  0  0  0  0  0  0  0
    0.5635   -0.7260    0.9446 H   0  0  0  0  0  0  0  0  0  0  0  0
    0.4924   -0.2204   -1.1558 C   0  0  0  0  0  0  0  0  0  0  0  0
    1.4632   -0.7139   -1.1241 H   0  0  0  0  0  0  0  0  0  0  0  0
   -0.1601   -0.7907   -1.8152 H   0  0  0  0  0  0  0  0  0  0  0  0
    0.7189    1.1596   -1.7518 C   0  0  0  0  0  0  0  0  0  0  0  0
    0.0269    2.1237   -1.4746 O   0  0  0  0  0  0  0  0  0  0  0  0
    1.7012    1.3025   -2.6081 N   0  0  0  0  0  0  0  0  0  0  0  0
    1.8380    2.2290   -2.9720 H   0  0  0  0  0  0  0  0  0  0  0  0
    2.2966    0.5295   -2.8382 H   0  0  0  0  0  0  0  0  0  0  0  0
   -0.3126    1.2341    0.8050 C   0  0  0  0  0  0  0  0  0  0  0  0
   -1.2484    1.9199    0.3934 O   0  0  0  0  0  0  0  0  0  0  0  0
    0.5615    1.6875    1.7087 N   0  0  0  0  0  0  0  0  0  0  0  0
    1.3461    1.0849    1.9358 H   0  0  0  0  0  0  0  0  0  0  0  0
    0.5043    3.0121    2.3242 C   0  0  0  0  0  0  0  0  0  0  0  0
   -0.4649    3.1514    2.8080 H   0  0  0  0  0  0  0  0  0  0  0  0
    1.2959    3.1139    3.0678 H   0  0  0  0  0  0  0  0  0  0  0  0
    0.6273    3.7799    1.5584 H   0  0  0  0  0  0  0  0  0  0  0  0
  5  6  2  0  0  0  0
  5  7  1  0  0  0  0
  2  3  1  0  0  0  0
  2  4  1  0  0  0  0
  2  5  1  0  0  0  0
  1  2  1  0  0  0  0
 19 20  2  0  0  0  0
 19 21  1  0  0  0  0
 16 17  1  0  0  0  0
 16 18  1  0  0  0  0
 14 15  2  0  0  0  0
 14 16  1  0  0  0  0
 11 12  1  0  0  0  0
 11 13  1  0  0  0  0
 11 14  1  0  0  0  0
  9 10  1  0  0  0  0
  9 11  1  0  0  0  0
  9 19  1  0  0  0  0
  7  8  1  0  0  0  0
  7  9  1  0  0  0  0
 23 24  1  0  0  0  0
 23 25  1  0  0  0  0
 23 26  1  0  0  0  0
 21 22  1  0  0  0  0
 21 23  1  0  0  0  0
M  END
$$$$
default_name
  -OEChem-02102213163D

 26 25  0     1  0  0  0  0  0999 V2000
   -3.0232   -3.6924    1.0038 H   0  0  0  0  0  0  0  0  0  0  0  0
   -3.0082   -2.6684    0.6318 C   0  0  0  0  0  0  0  0  0  0  0  0
   -3.6332   -2.0414    1.2658 H   0  0  0  0  0  0  0  0  0  0  0  0
   -3.3762   -2.6444   -0.3912 H   0  0  0  0  0  0  0  0  0  0  0  0
   -1.5882   -2.1554    0.6658 C   0  0  0  0  0  0  0  0  0  0  0  0
   -0.6832   -2.8764    1.0638 O   0  0  0  0  0  0  0  0  0  0  0  0
   -1.3952   -0.9084    0.2428 N   0  0  0  0  0  0  0  0  0  0  0  0
   -2.1972   -0.3644   -0.0422 H   0  0  0  0  0  0  0  0  0  0  0  0
   -0.1122   -0.1994    0.2658 C   0  0  1  0  0  0  0  0  0  0  0  0
    0.5635   -0.7260    0.9446 H   0  0  0  0  0  0  0  0  0  0  0  0
    0.4924   -0.2204   -1.1558 C   0  0  0  0  0  0  0  0  0  0  0  0
    1.4632   -0.7139   -1.1241 H   0  0  0  0  0  0  0  0  0  0  0  0
   -0.1601   -0.7907   -1.8152 H   0  0  0  0  0  0  0  0  0  0  0  0
    0.7189    1.1596   -1.7518 C   0  0  0  0  0  0  0  0  0  0  0  0
    0.2168    2.1709   -1.2931 O   0  0  0  0  0  0  0  0  0  0  0  0
    1.4841    1.2499   -2.8123 N   0  0  0  0  0  0  0  0  0  0  0  0
    1.6299    2.1761   -3.1737 H   0  0  0  0  0  0  0  0  0  0  0  0
    1.9241    0.4355   -3.1974 H   0  0  0  0  0  0  0  0  0  0  0  0
   -0.3126    1.2341    0.8050 C   0  0  0  0  0  0  0  0  0  0  0  0
   -1.2484    1.9199    0.3934 O   0  0  0  0  0  0  0  0  0  0  0  0
    0.5615    1.6875    1.7087 N   0  0  0  0  0  0  0  0  0  0  0  0
    1.3461    1.0849    1.9358 H   0  0  0  0  0  0  0  0  0  0  0  0
    0.5043    3.0121    2.3242 C   0  0  0  0  0  0  0  0  0  0  0  0
   -0.4649    3.1514    2.8080 H   0  0  0  0  0  0  0  0  0  0  0  0
    1.2959    3.1139    3.0678 H   0  0  0  0  0  0  0  0  0  0  0  0
    0.6273    3.7799    1.5584 H   0  0  0  0  0  0  0  0  0  0  0  0
  5  6  2  0  0  0  0
  5  7  1  0  0  0  0
  2  3  1  0  0  0  0
  2  4  1  0  0  0  0
  2  5  1  0  0  0  0
  1  2  1  0  0  0  0
 19 20  2  0  0  0  0
 19 21  1  0  0  0  0
 16 17  1  0  0  0  0
 16 18  1  0  0  0  0
 14 15  2  0  0  0  0
 14 16  1  0  0  0  0
 11 12  1  0  0  0  0
 11 13  1  0  0  0  0
 11 14  1  0  0  0  0
  9 10  1  0  0  0  0
  9 11  1  0  0  0  0
  9 19  1  0  0  0  0
  7  8  1  0  0  0  0
  7  9  1  0  0  0  0
 23 24  1  0  0  0  0
 23 25  1  0  0  0  0
 23 26  1  0  0  0  0
 21 22  1  0  0  0  0
 21 23  1  0  0  0  0
M  END
$$$$
default_name
  -OEChem-02102213163D

 26 25  0     1  0  0  0  0  0999 V2000
   -3.0232   -3.6924    1.0038 H   0  0  0  0  0  0  0  0  0  0  0  0
   -3.0082   -2.6684    0.6318 C   0  0  0  0  0  0  0  0  0  0  0  0
   -3.6332   -2.0414    1.2658 H   0  0  0  0  0  0  0  0  0  0  0  0
   -3.3762   -2.6444   -0.3912 H   0  0  0  0  0  0  0  0  0  0  0  0
   -1.5882   -2.1554    0.6658 C   0  0  0  0  0  0  0  0  0  0  0  0
   -0.6832   -2.8764    1.0638 O   0  0  0  0  0  0  0  0  0  0  0  0
   -1.3952   -0.9084    0.2428 N   0  0  0  0  0  0  0  0  0  0  0  0
   -2.1972   -0.3644   -0.0422 H   0  0  0  0  0  0  0  0  0  0  0  0
   -0.1122   -0.1994    0.2658 C   0  0  1  0  0  0  0  0  0  0  0  0
    0.5635   -0.7260    0.9446 H   0  0  0  0  0  0  0  0  0  0  0  0
    0.4924   -0.2204   -1.1558 C   0  0  0  0  0  0  0  0  0  0  0  0
    1.4632   -0.7139   -1.1241 H   0  0  0  0  0  0  0  0  0  0  0  0
   -0.1601   -0.7907   -1.8152 H   0  0  0  0  0  0  0  0  0  0  0  0
    0.7189    1.1596   -1.7518 C   0  0  0  0  0  0  0  0  0  0  0  0
    0.4477    2.1902   -1.1606 O   0  0  0  0  0  0  0  0  0  0  0  0
    1.2211    1.2290   -2.9607 N   0  0  0  0  0  0  0  0  0  0  0  0
    1.3761    2.1538   -3.3217 H   0  0  0  0  0  0  0  0  0  0  0  0
    1.4704    0.3964   -3.4604 H   0  0  0  0  0  0  0  0  0  0  0  0
   -0.3126    1.2341    0.8050 C   0  0  0  0  0  0  0  0  0  0  0  0
   -1.2484    1.9199    0.3934 O   0  0  0  0  0  0  0  0  0  0  0  0
    0.5615    1.6875    1.7087 N   0  0  0  0  0  0  0  0  0  0  0  0
    1.3461    1.0849    1.9358 H   0  0  0  0  0  0  0  0  0  0  0  0
    0.5043    3.0121    2.3242 C   0  0  0  0  0  0  0  0  0  0  0  0
   -0.4649    3.1514    2.8080 H   0  0  0  0  0  0  0  0  0  0  0  0
    1.2959    3.1139    3.0678 H   0  0  0  0  0  0  0  0  0  0  0  0
    0.6273    3.7799    1.5584 H   0  0  0  0  0  0  0  0  0  0  0  0
  5  6  2  0  0  0  0
  5  7  1  0  0  0  0
  2  3  1  0  0  0  0
  2  4  1  0  0  0  0
  2  5  1  0  0  0  0
  1  2  1  0  0  0  0
 19 20  2  0  0  0  0
 19 21  1  0  0  0  0
 16 17  1  0  0  0  0
 16 18  1  0  0  0  0
 14 15  2  0  0  0  0
 14 16  1  0  0  0  0
 11 12  1  0  0  0  0
 11 13  1  0  0  0  0
 11 14  1  0  0  0  0
  9 10  1  0  0  0  0
  9 11  1  0  0  0  0
  9 19  1  0  0  0  0
  7  8  1  0  0  0  0
  7  9  1  0  0  0  0
 23 24  1  0  0  0  0
 23 25  1  0  0  0  0
 23 26  1  0  0  0  0
 21 22  1  0  0  0  0
 21 23  1  0  0  0  0
M  END
$$$$
default_name
  -OEChem-02102213163D

 26 25  0     1  0  0  0  0  0999 V2000
   -3.0232   -3.6924    1.0038 H   0  0  0  0  0  0  0  0  0  0  0  0
   -3.0082   -2.6684    0.6318 C   0  0  0  0  0  0  0  0  0  0  0  0
   -3.6332   -2.0414    1.2658 H   0  0  0  0  0  0  0  0  0  0  0  0
   -3.3762   -2.6444   -0.3912 H   0  0  0  0  0  0  0  0  0  0  0  0
   -1.5882   -2.1554    0.6658 C   0  0  0  0  0  0  0  0  0  0  0  0
   -0.6832   -2.8764    1.0638 O   0  0  0  0  0  0  0  0  0  0  0  0
   -1.3952   -0.9084    0.2428 N   0  0  0  0  0  0  0  0  0  0  0  0
   -2.1972   -0.3644   -0.0422 H   0  0  0  0  0  0  0  0  0  0  0  0
   -0.1122   -0.1994    0.2658 C   0  0  1  0  0  0  0  0  0  0  0  0
    0.5635   -0.7260    0.9446 H   0  0  0  0  0  0  0  0  0  0  0  0
    0.4924   -0.2204   -1.1558 C   0  0  0  0  0  0  0  0  0  0  0  0
    1.4632   -0.7139   -1.1241 H   0  0  0  0  0  0  0  0  0  0  0  0
   -0.1601   -0.7907   -1.8152 H   0  0  0  0  0  0  0  0  0  0  0  0
    0.7189    1.1596   -1.7518 C   0  0  0  0  0  0  0  0  0  0  0  0
    0.7038    2.1804   -1.0862 O   0  0  0  0  0  0  0  0  0  0  0  0
    0.9301    1.2412   -3.0430 N   0  0  0  0  0  0  0  0  0  0  0  0
    1.0939    2.1638   -3.4058 H   0  0  0  0  0  0  0  0  0  0  0  0
    0.9664    0.4148   -3.6094 H   0  0  0  0  0  0  0  0  0  0  0  0
   -0.3126    1.2341    0.8050 C   0  0  0  0  0  0  0  0  0  0  0  0
   -1.2484    1.9199    0.3934 O   0  0  0  0  0  0  0  0  0  0  0  0
    0.5615    1.6875    1.7087 N   0  0  0  0  0  0  0  0  0  0  0  0
    1.3461    1.0849    1.9358 H   0  0  0  0  0  0  0  0  0  0  0  0
    0.5043    3.0121    2.3242 C   0  0  0  0  0  0  0  0  0  0  0  0
   -0.4649    3.1514    2.8080 H   0  0  0  0  0  0  0  0  0  0  0  0
    1.2959    3.1139    3.0678 H   0  0  0  0  0  0  0  0  0  0  0  0
    0.6273    3.7799    1.5584 H   0  0  0  0  0  0  0  0  0  0  0  0
  5  6  2  0  0  0  0
  5  7  1  0  0  0  0
  2  3  1  0  0  0  0
  2  4  1  0  0  0  0
  2  5  1  0  0  0  0
  1  2  1  0  0  0  0
 19 20  2  0  0  0  0
 19 21  1  0  0  0  0
 16 17  1  0  0  0  0
 16 18  1  0  0  0  0
 14 15  2  0  0  0  0
 14 16  1  0  0  0  0
 11 12  1  0  0  0  0
 11 13  1  0  0  0  0
 11 14  1  0  0  0  0
  9 10  1  0  0  0  0
  9 11  1  0  0  0  0
  9 19  1  0  0  0  0
  7  8  1  0  0  0  0
  7  9  1  0  0  0  0
 23 24  1  0  0  0  0
 23 25  1  0  0  0  0
 23 26  1  0  0  0  0
 21 22  1  0  0  0  0
 21 23  1  0  0  0  0
M  END
$$$$
default_name
  -OEChem-02102213163D

 26 25  0     1  0  0  0  0  0999 V2000
   -3.0232   -3.6924    1.0038 H   0  0  0  0  0  0  0  0  0  0  0  0
   -3.0082   -2.6684    0.6318 C   0  0  0  0  0  0  0  0  0  0  0  0
   -3.6332   -2.0414    1.2658 H   0  0  0  0  0  0  0  0  0  0  0  0
   -3.3762   -2.6444   -0.3912 H   0  0  0  0  0  0  0  0  0  0  0  0
   -1.5882   -2.1554    0.6658 C   0  0  0  0  0  0  0  0  0  0  0  0
   -0.6832   -2.8764    1.0638 O   0  0  0  0  0  0  0  0  0  0  0  0
   -1.3952   -0.9084    0.2428 N   0  0  0  0  0  0  0  0  0  0  0  0
   -2.1972   -0.3644   -0.0422 H   0  0  0  0  0  0  0  0  0  0  0  0
   -0.1122   -0.1994    0.2658 C   0  0  1  0  0  0  0  0  0  0  0  0
    0.5635   -0.7260    0.9446 H   0  0  0  0  0  0  0  0  0  0  0  0
    0.4924   -0.2204   -1.1558 C   0  0  0  0  0  0  0  0  0  0  0  0
    1.4632   -0.7139   -1.1241 H   0  0  0  0  0  0  0  0  0  0  0  0
   -0.1601   -0.7907   -1.8152 H   0  0  0  0  0  0  0  0  0  0  0  0
    0.7189    1.1596   -1.7518 C   0  0  0  0  0  0  0  0  0  0  0  0
    0.9676    2.1420   -1.0748 O   0  0  0  0  0  0  0  0  0  0  0  0
    0.6310    1.2857   -3.0536 N   0  0  0  0  0  0  0  0  0  0  0  0
    0.8026    2.2053   -3.4204 H   0  0  0  0  0  0  0  0  0  0  0  0
    0.4464    0.4895   -3.6341 H   0  0  0  0  0  0  0  0  0  0  0  0
   -0.3126    1.2341    0.8050 C   0  0  0  0  0  0  0  0  0  0  0  0
   -1.2484    1.9199    0.3934 O   0  0  0  0  0  0  0  0  0  0  0  0
    0.5615    1.6875    1.7087 N   0  0  0  0  0  0  0  0  0  0  0  0
    1.3461    1.0849    1.9358 H   0  0  0  0  0  0  0  0  0  0  0  0
    0.5043    3.0121    2.3242 C   0  0  0  0  0  0  0  0  0  0  0  0
   -0.4649    3.1514    2.8080 H   0  0  0  0  0  0  0  0  0  0  0  0
    1.2959    3.1139    3.0678 H   0  0  0  0  0  0  0  0  0  0  0  0
    0.6273    3.7799    1.5584 H   0  0  0  0  0  0  0  0  0  0  0  0
  5  6  2  0  0  0  0
  5  7  1  0  0  0  0
  2  3  1  0  0  0  0
  2  4  1  0  0  0  0
  2  5  1  0  0  0  0
  1  2  1  0  0  0  0
 19 20  2  0  0  0  0
 19 21  1  0  0  0  0
 16 17  1  0  0  0  0
 16 18  1  0  0  0  0
 14 15  2  0  0  0  0
 14 16  1  0  0  0  0
 11 12  1  0  0  0  0
 11 13  1  0  0  0  0
 11 14  1  0  0  0  0
  9 10  1  0  0  0  0
  9 11  1  0  0  0  0
  9 19  1  0  0  0  0
  7  8  1  0  0  0  0
  7  9  1  0  0  0  0
 23 24  1  0  0  0  0
 23 25  1  0  0  0  0
 23 26  1  0  0  0  0
 21 22  1  0  0  0  0
 21 23  1  0  0  0  0
M  END
$$$$
default_name
  -OEChem-02102213163D

 26 25  0     1  0  0  0  0  0999 V2000
   -3.0232   -3.6924    1.0038 H   0  0  0  0  0  0  0  0  0  0  0  0
   -3.0082   -2.6684    0.6318 C   0  0  0  0  0  0  0  0  0  0  0  0
   -3.6332   -2.0414    1.2658 H   0  0  0  0  0  0  0  0  0  0  0  0
   -3.3762   -2.6444   -0.3912 H   0  0  0  0  0  0  0  0  0  0  0  0
   -1.5882   -2.1554    0.6658 C   0  0  0  0  0  0  0  0  0  0  0  0
   -0.6832   -2.8764    1.0638 O   0  0  0  0  0  0  0  0  0  0  0  0
   -1.3952   -0.9084    0.2428 N   0  0  0  0  0  0  0  0  0  0  0  0
   -2.1972   -0.3644   -0.0422 H   0  0  0  0  0  0  0  0  0  0  0  0
   -0.1122   -0.1994    0.2658 C   0  0  1  0  0  0  0  0  0  0  0  0
    0.5635   -0.7260    0.9446 H   0  0  0  0  0  0  0  0  0  0  0  0
    0.4924   -0.2204   -1.1558 C   0  0  0  0  0  0  0  0  0  0  0  0
    1.4632   -0.7139   -1.1241 H   0  0  0  0  0  0  0  0  0  0  0  0
   -0.1601   -0.7907   -1.8152 H   0  0  0  0  0  0  0  0  0  0  0  0
    0.7189    1.1596   -1.7518 C   0  0  0  0  0  0  0  0  0  0  0  0
    1.2213    2.0777   -1.1272 O   0  0  0  0  0  0  0  0  0  0  0  0
    0.3440    1.3595   -2.9919 N   0  0  0  0  0  0  0  0  0  0  0  0
    0.5220    2.2755   -3.3645 H   0  0  0  0  0  0  0  0  0  0  0  0
   -0.0542    0.6153   -3.5330 H   0  0  0  0  0  0  0  0  0  0  0  0
   -0.3126    1.2341    0.8050 C   0  0  0  0  0  0  0  0  0  0  0  0
   -1.2484    1.9199    0.3934 O   0  0  0  0  0  0  0  0  0  0  0  0
    0.5615    1.6875    1.7087 N   0  0  0  0  0  0  0  0  0  0  0  0
    1.3461    1.0849    1.9358 H   0  0  0  0  0  0  0  0  0  0  0  0
    0.5043    3.0121    2.3242 C   0  0  0  0  0  0  0  0  0  0  0  0
   -0.4649    3.1514    2.8080 H   0  0  0  0  0  0  0  0  0  0  0  0
    1.2959    3.1139    3.0678 H   0  0  0  0  0  0  0  0  0  0  0  0
    0.6273    3.7799    1.5584 H   0  0  0  0  0  0  0  0  0  0  0  0
  5  6  2  0  0  0  0
  5  7  1  0  0  0  0
  2  3  1  0  0  0  0
  2  4  1  0  0  0  0
  2  5  1  0  0  0  0
  1  2  1  0  0  0  0
 19 20  2  0  0  0  0
 19 21  1  0  0  0  0
 16 17  1  0  0  0  0
 16 18  1  0  0  0  0
 14 15  2  0  0  0  0
 14 16  1  0  0  0  0
 11 12  1  0  0  0  0
 11 13  1  0  0  0  0
 11 14  1  0  0  0  0
  9 10  1  0  0  0  0
  9 11  1  0  0  0  0
  9 19  1  0  0  0  0
  7  8  1  0  0  0  0
  7  9  1  0  0  0  0
 23 24  1  0  0  0  0
 23 25  1  0  0  0  0
 23 26  1  0  0  0  0
 21 22  1  0  0  0  0
 21 23  1  0  0  0  0
M  END
$$$$
default_name
  -OEChem-02102213163D

 26 25  0     1  0  0  0  0  0999 V2000
   -3.0232   -3.6924    1.0038 H   0  0  0  0  0  0  0  0  0  0  0  0
   -3.0082   -2.6684    0.6318 C   0  0  0  0  0  0  0  0  0  0  0  0
   -3.6332   -2.0414    1.2658 H   0  0  0  0  0  0  0  0  0  0  0  0
   -3.3762   -2.6444   -0.3912 H   0  0  0  0  0  0  0  0  0  0  0  0
   -1.5882   -2.1554    0.6658 C   0  0  0  0  0  0  0  0  0  0  0  0
   -0.6832   -2.8764    1.0638 O   0  0  0  0  0  0  0  0  0  0  0  0
   -1.3952   -0.9084    0.2428 N   0  0  0  0  0  0  0  0  0  0  0  0
   -2.1972   -0.3644   -0.0422 H   0  0  0  0  0  0  0  0  0  0  0  0
   -0.1122   -0.1994    0.2658 C   0  0  1  0  0  0  0  0  0  0  0  0
    0.5635   -0.7260    0.9446 H   0  0  0  0  0  0  0  0  0  0  0  0
    0.4924   -0.2204   -1.1558 C   0  0  0  0  0  0  0  0  0  0  0  0
    1.4632   -0.7139   -1.1241 H   0  0  0  0  0  0  0  0  0  0  0  0
   -0.1601   -0.7907   -1.8152 H   0  0  0  0  0  0  0  0  0  0  0  0
    0.7189    1.1596   -1.7518 C   0  0  0  0  0  0  0  0  0  0  0  0
    1.4474    1.9919   -1.2400 O   0  0  0  0  0  0  0  0  0  0  0  0
    0.0888    1.4575   -2.8620 N   0  0  0  0  0  0  0  0  0  0  0  0
    0.2713    2.3696   -3.2419 H   0  0  0  0  0  0  0  0  0  0  0  0
   -0.5011    0.7838   -3.3128 H   0  0  0  0  0  0  0  0  0  0  0  0
   -0.3126    1.2341    0.8050 C   0  0  0  0  0  0  0  0  0  0  0  0
   -1.2484    1.9199    0.3934 O   0  0  0  0  0  0  0  0  0  0  0  0
    0.5615    1.6875    1.7087 N   0  0  0  0  0  0  0  0  0  0  0  0
    1.3461    1.0849    1.9358 H   0  0  0  0  0  0  0  0  0  0  0  0
    0.5043    3.0121    2.3242 C   0  0  0  0  0  0  0  0  0  0  0  0
   -0.4649    3.1514    2.8080 H   0  0  0  0  0  0  0  0  0  0  0  0
    1.2959    3.1139    3.0678 H   0  0  0  0  0  0  0  0  0  0  0  0
    0.6273    3.7799    1.5584 H   0  0  0  0  0  0  0  0  0  0  0  0
  5  6  2  0  0  0  0
  5  7  1  0  0  0  0
  2  3  1  0  0  0  0
  2  4  1  0  0  0  0
  2  5  1  0  0  0  0
  1  2  1  0  0  0  0
 19 20  2  0  0  0  0
 19 21  1  0  0  0  0
 16 17  1  0  0  0  0
 16 18  1  0  0  0  0
 14 15  2  0  0  0  0
 14 16  1  0  0  0  0
 11 12  1  0  0  0  0
 11 13  1  0  0  0  0
 11 14  1  0  0  0  0
  9 10  1  0  0  0  0
  9 11  1  0  0  0  0
  9 19  1  0  0  0  0
  7  8  1  0  0  0  0
  7  9  1  0  0  0  0
 23 24  1  0  0  0  0
 23 25  1  0  0  0  0
 23 26  1  0  0  0  0
 21 22  1  0  0  0  0
 21 23  1  0  0  0  0
M  END
$$$$
default_name
  -OEChem-02102213163D

 26 25  0     1  0  0  0  0  0999 V2000
   -3.0232   -3.6924    1.0038 H   0  0  0  0  0  0  0  0  0  0  0  0
   -3.0082   -2.6684    0.6318 C   0  0  0  0  0  0  0  0  0  0  0  0
   -3.6332   -2.0414    1.2658 H   0  0  0  0  0  0  0  0  0  0  0  0
   -3.3762   -2.6444   -0.3912 H   0  0  0  0  0  0  0  0  0  0  0  0
   -1.5882   -2.1554    0.6658 C   0  0  0  0  0  0  0  0  0  0  0  0
   -0.6832   -2.8764    1.0638 O   0  0  0  0  0  0  0  0  0  0  0  0
   -1.3952   -0.9084    0.2428 N   0  0  0  0  0  0  0  0  0  0  0  0
   -2.1972   -0.3644   -0.0422 H   0  0  0  0  0  0  0  0  0  0  0  0
   -0.1122   -0.1994    0.2658 C   0  0  1  0  0  0  0  0  0  0  0  0
    0.5635   -0.7260    0.9446 H   0  0  0  0  0  0  0  0  0  0  0  0
    0.4924   -0.2204   -1.1558 C   0  0  0  0  0  0  0  0  0  0  0  0
    1.4632   -0.7139   -1.1241 H   0  0  0  0  0  0  0  0  0  0  0  0
   -0.1601   -0.7907   -1.8152 H   0  0  0  0  0  0  0  0  0  0  0  0
    0.7189    1.1596   -1.7518 C   0  0  0  0  0  0  0  0  0  0  0  0
    1.6307    1.8904   -1.4054 O   0  0  0  0  0  0  0  0  0  0  0  0
   -0.1173    1.5730   -2.6728 N   0  0  0  0  0  0  0  0  0  0  0  0
    0.0674    2.4813   -3.0608 H   0  0  0  0  0  0  0  0  0  0  0  0
   -0.8640    0.9833   -2.9887 H   0  0  0  0  0  0  0  0  0  0  0  0
   -0.3126    1.2341    0.8050 C   0  0  0  0  0  0  0  0  0  0  0  0
   -1.2484    1.9199    0.3934 O   0  0  0  0  0  0  0  0  0  0  0  0
    0.5615    1.6875    1.7087 N   0  0  0  0  0  0  0  0  0  0  0  0
    1.3461    1.0849    1.9358 H   0  0  0  0  0  0  0  0  0  0  0  0
    0.5043    3.0121    2.3242 C   0  0  0  0  0  0  0  0  0  0  0  0
   -0.4649    3.1514    2.8080 H   0  0  0  0  0  0  0  0  0  0  0  0
    1.2959    3.1139    3.0678 H   0  0  0  0  0  0  0  0  0  0  0  0
    0.6273    3.7799    1.5584 H   0  0  0  0  0  0  0  0  0  0  0  0
  5  6  2  0  0  0  0
  5  7  1  0  0  0  0
  2  3  1  0  0  0  0
  2  4  1  0  0  0  0
  2  5  1  0  0  0  0
  1  2  1  0  0  0  0
 19 20  2  0  0  0  0
 19 21  1  0  0  0  0
 16 17  1  0  0  0  0
 16 18  1  0  0  0  0
 14 15  2  0  0  0  0
 14 16  1  0  0  0  0
 11 12  1  0  0  0  0
 11 13  1  0  0  0  0
 11 14  1  0  0  0  0
  9 10  1  0  0  0  0
  9 11  1  0  0  0  0
  9 19  1  0  0  0  0
  7  8  1  0  0  0  0
  7  9  1  0  0  0  0
 23 24  1  0  0  0  0
 23 25  1  0  0  0  0
 23 26  1  0  0  0  0
 21 22  1  0  0  0  0
 21 23  1  0  0  0  0
M  END
$$$$
default_name
  -OEChem-02102213163D

 26 25  0     1  0  0  0  0  0999 V2000
   -3.0232   -3.6924    1.0038 H   0  0  0  0  0  0  0  0  0  0  0  0
   -3.0082   -2.6684    0.6318 C   0  0  0  0  0  0  0  0  0  0  0  0
   -3.6332   -2.0414    1.2658 H   0  0  0  0  0  0  0  0  0  0  0  0
   -3.3762   -2.6444   -0.3912 H   0  0  0  0  0  0  0  0  0  0  0  0
   -1.5882   -2.1554    0.6658 C   0  0  0  0  0  0  0  0  0  0  0  0
   -0.6832   -2.8764    1.0638 O   0  0  0  0  0  0  0  0  0  0  0  0
   -1.3952   -0.9084    0.2428 N   0  0  0  0  0  0  0  0  0  0  0  0
   -2.1972   -0.3644   -0.0422 H   0  0  0  0  0  0  0  0  0  0  0  0
   -0.1122   -0.1994    0.2658 C   0  0  1  0  0  0  0  0  0  0  0  0
    0.5635   -0.7260    0.9446 H   0  0  0  0  0  0  0  0  0  0  0  0
    0.4924   -0.2204   -1.1558 C   0  0  0  0  0  0  0  0  0  0  0  0
    1.4632   -0.7139   -1.1241 H   0  0  0  0  0  0  0  0  0  0  0  0
   -0.1601   -0.7907   -1.8152 H   0  0  0  0  0  0  0  0  0  0  0  0
    0.7189    1.1596   -1.7518 C   0  0  0  0  0  0  0  0  0  0  0  0
    1.7585    1.7801   -1.6121 O   0  0  0  0  0  0  0  0  0  0  0  0
   -0.2601    1.6982   -2.4372 N   0  0  0  0  0  0  0  0  0  0  0  0
   -0.0756    2.6028   -2.8338 H   0  0  0  0  0  0  0  0  0  0  0  0
   -1.1181    1.2004   -2.5826 H   0  0  0  0  0  0  0  0  0  0  0  0
   -0.3126    1.2341    0.8050 C   0  0  0  0  0  0  0  0  0  0  0  0
   -1.2484    1.9199    0.3934 O   0  0  0  0  0  0  0  0  0  0  0  0
    0.5615    1.6875    1.7087 N   0  0  0  0  0  0  0  0  0  0  0  0
    1.3461    1.0849    1.9358 H   0  0  0  0  0  0  0  0  0  0  0  0
    0.5043    3.0121    2.3242 C   0  0  0  0  0  0  0  0  0  0  0  0
   -0.4649    3.1514    2.8080 H   0  0  0  0  0  0  0  0  0  0  0  0
    1.2959    3.1139    3.0678 H   0  0  0  0  0  0  0  0  0  0  0  0
    0.6273    3.7799    1.5584 H   0  0  0  0  0  0  0  0  0  0  0  0
  5  6  2  0  0  0  0
  5  7  1  0  0  0  0
  2  3  1  0  0  0  0
  2  4  1  0  0  0  0
  2  5  1  0  0  0  0
  1  2  1  0  0  0  0
 19 20  2  0  0  0  0
 19 21  1  0  0  0  0
 16 17  1  0  0  0  0
 16 18  1  0  0  0  0
 14 15  2  0  0  0  0
 14 16  1  0  0  0  0
 11 12  1  0  0  0  0
 11 13  1  0  0  0  0
 11 14  1  0  0  0  0
  9 10  1  0  0  0  0
  9 11  1  0  0  0  0
  9 19  1  0  0  0  0
  7  8  1  0  0  0  0
  7  9  1  0  0  0  0
 23 24  1  0  0  0  0
 23 25  1  0  0  0  0
 23 26  1  0  0  0  0
 21 22  1  0  0  0  0
 21 23  1  0  0  0  0
M  END
$$$$
default_name
  -OEChem-02102213163D

 26 25  0     1  0  0  0  0  0999 V2000
   -3.0232   -3.6924    1.0038 H   0  0  0  0  0  0  0  0  0  0  0  0
   -3.0082   -2.6684    0.6318 C   0  0  0  0  0  0  0  0  0  0  0  0
   -3.6332   -2.0414    1.2658 H   0  0  0  0  0  0  0  0  0  0  0  0
   -3.3762   -2.6444   -0.3912 H   0  0  0  0  0  0  0  0  0  0  0  0
   -1.5882   -2.1554    0.6658 C   0  0  0  0  0  0  0  0  0  0  0  0
   -0.6832   -2.8764    1.0638 O   0  0  0  0  0  0  0  0  0  0  0  0
   -1.3952   -0.9084    0.2428 N   0  0  0  0  0  0  0  0  0  0  0  0
   -2.1972   -0.3644   -0.0422 H   0  0  0  0  0  0  0  0  0  0  0  0
   -0.1122   -0.1994    0.2658 C   0  0  1  0  0  0  0  0  0  0  0  0
    0.5635   -0.7260    0.9446 H   0  0  0  0  0  0  0  0  0  0  0  0
    0.4924   -0.2204   -1.1558 C   0  0  0  0  0  0  0  0  0  0  0  0
    1.4632   -0.7139   -1.1241 H   0  0  0  0  0  0  0  0  0  0  0  0
   -0.1601   -0.7907   -1.8152 H   0  0  0  0  0  0  0  0  0  0  0  0
    0.7189    1.1596   -1.7518 C   0  0  0  0  0  0  0  0  0  0  0  0
    1.8223    1.6686   -1.8460 O   0  0  0  0  0  0  0  0  0  0  0  0
   -0.3300    1.8245   -2.1712 N   0  0  0  0  0  0  0  0  0  0  0  0
   -0.1481    2.7260   -2.5761 H   0  0  0  0  0  0  0  0  0  0  0  0
   -1.2461    1.4202   -2.1223 H   0  0  0  0  0  0  0  0  0  0  0  0
   -0.3126    1.2341    0.8050 C   0  0  0  0  0  0  0  0  0  0  0  0
   -1.2484    1.9199    0.3934 O   0  0  0  0  0  0  0  0  0  0  0  0
    0.5615    1.6875    1.7087 N   0  0  0  0  0  0  0  0  0  0  0  0
    1.3461    1.0849    1.9358 H   0  0  0  0  0  0  0  0  0  0  0  0
    0.5043    3.0121    2.3242 C   0  0  0  0  0  0  0  0  0  0  0  0
   -0.4649    3.1514    2.8080 H   0  0  0  0  0  0  0  0  0  0  0  0
    1.2959    3.1139    3.0678 H   0  0  0  0  0  0  0  0  0  0  0  0
    0.6273    3.7799    1.5584 H   0  0  0  0  0  0  0  0  0  0  0  0
  5  6  2  0  0  0  0
  5  7  1  0  0  0  0
  2  3  1  0  0  0  0
  2  4  1  0  0  0  0
  2  5  1  0  0  0  0
  1  2  1  0  0  0  0
 19 20  2  0  0  0  0
 19 21  1  0  0  0  0
 16 17  1  0  0  0  0
 16 18  1  0  0  0  0
 14 15  2  0  0  0  0
 14 16  1  0  0  0  0
 11 12  1  0  0  0  0
 11 13  1  0  0  0  0
 11 14  1  0  0  0  0
  9 10  1  0  0  0  0
  9 11  1  0  0  0  0
  9 19  1  0  0  0  0
  7  8  1  0  0  0  0
  7  9  1  0  0  0  0
 23 24  1  0  0  0  0
 23 25  1  0  0  0  0
 23 26  1  0  0  0  0
 21 22  1  0  0  0  0
 21 23  1  0  0  0  0
M  END
$$$$
default_name
  -OEChem-02102213163D

 26 25  0     1  0  0  0  0  0999 V2000
   -3.0232   -3.6924    1.0038 H   0  0  0  0  0  0  0  0  0  0  0  0
   -3.0082   -2.6684    0.6318 C   0  0  0  0  0  0  0  0  0  0  0  0
   -3.6332   -2.0414    1.2658 H   0  0  0  0  0  0  0  0  0  0  0  0
   -3.3762   -2.6444   -0.3912 H   0  0  0  0  0  0  0  0  0  0  0  0
   -1.5882   -2.1554    0.6658 C   0  0  0  0  0  0  0  0  0  0  0  0
   -0.6832   -2.8764    1.0638 O   0  0  0  0  0  0  0  0  0  0  0  0
   -1.3952   -0.9084    0.2428 N   0  0  0  0  0  0  0  0  0  0  0  0
   -2.1972   -0.3644   -0.0422 H   0  0  0  0  0  0  0  0  0  0  0  0
   -0.1122   -0.1994    0.2658 C   0  0  1  0  0  0  0  0  0  0  0  0
    0.5635   -0.7260    0.9446 H   0  0  0  0  0  0  0  0  0  0  0  0
    0.4924   -0.2204   -1.1558 C   0  0  0  0  0  0  0  0  0  0  0  0
    1.4632   -0.7139   -1.1241 H   0  0  0  0  0  0  0  0  0  0  0  0
   -0.1601   -0.7907   -1.8152 H   0  0  0  0  0  0  0  0  0  0  0  0
    0.7189    1.1596   -1.7518 C   0  0  0  0  0  0  0  0  0  0  0  0
    1.8175    1.5635   -2.0913 O   0  0  0  0  0  0  0  0  0  0  0  0
   -0.3222    1.9434   -1.8930 N   0  0  0  0  0  0  0  0  0  0  0  0
   -0.1451    2.8424   -2.3055 H   0  0  0  0  0  0  0  0  0  0  0  0
   -1.2393    1.6277   -1.6391 H   0  0  0  0  0  0  0  0  0  0  0  0
   -0.3126    1.2341    0.8050 C   0  0  0  0  0  0  0  0  0  0  0  0
   -1.2484    1.9199    0.3934 O   0  0  0  0  0  0  0  0  0  0  0  0
    0.5615    1.6875    1.7087 N   0  0  0  0  0  0  0  0  0  0  0  0
    1.3461    1.0849    1.9358 H   0  0  0  0  0  0  0  0  0  0  0  0
    0.5043    3.0121    2.3242 C   0  0  0  0  0  0  0  0  0  0  0  0
   -0.4649    3.1514    2.8080 H   0  0  0  0  0  0  0  0  0  0  0  0
    1.2959    3.1139    3.0678 H   0  0  0  0  0  0  0  0  0  0  0  0
    0.6273    3.7799    1.5584 H   0  0  0  0  0  0  0  0  0  0  0  0
  5  6  2  0  0  0  0
  5  7  1  0  0  0  0
  2  3  1  0  0  0  0
  2  4  1  0  0  0  0
  2  5  1  0  0  0  0
  1  2  1  0  0  0  0
 19 20  2  0  0  0  0
 19 21  1  0  0  0  0
 16 17  1  0  0  0  0
 16 18  1  0  0  0  0
 14 15  2  0  0  0  0
 14 16  1  0  0  0  0
 11 12  1  0  0  0  0
 11 13  1  0  0  0  0
 11 14  1  0  0  0  0
  9 10  1  0  0  0  0
  9 11  1  0  0  0  0
  9 19  1  0  0  0  0
  7  8  1  0  0  0  0
  7  9  1  0  0  0  0
 23 24  1  0  0  0  0
 23 25  1  0  0  0  0
 23 26  1  0  0  0  0
 21 22  1  0  0  0  0
 21 23  1  0  0  0  0
M  END
$$$$
default_name
  -OEChem-02102213163D

 26 25  0     1  0  0  0  0  0999 V2000
   -3.0232   -3.6924    1.0038 H   0  0  0  0  0  0  0  0  0  0  0  0
   -3.0082   -2.6684    0.6318 C   0  0  0  0  0  0  0  0  0  0  0  0
   -3.6332   -2.0414    1.2658 H   0  0  0  0  0  0  0  0  0  0  0  0
   -3.3762   -2.6444   -0.3912 H   0  0  0  0  0  0  0  0  0  0  0  0
   -1.5882   -2.1554    0.6658 C   0  0  0  0  0  0  0  0  0  0  0  0
   -0.6832   -2.8764    1.0638 O   0  0  0  0  0  0  0  0  0  0  0  0
   -1.3952   -0.9084    0.2428 N   0  0  0  0  0  0  0  0  0  0  0  0
   -2.1972   -0.3644   -0.0422 H   0  0  0  0  0  0  0  0  0  0  0  0
   -0.1122   -0.1994    0.2658 C   0  0  1  0  0  0  0  0  0  0  0  0
    0.5635   -0.7260    0.9446 H   0  0  0  0  0  0  0  0  0  0  0  0
    0.4924   -0.2204   -1.1558 C   0  0  0  0  0  0  0  0  0  0  0  0
    1.4632   -0.7139   -1.1241 H   0  0  0  0  0  0  0  0  0  0  0  0
   -0.1601   -0.7907   -1.8152 H   0  0  0  0  0  0  0  0  0  0  0  0
    0.7189    1.1596   -1.7518 C   0  0  0  0  0  0  0  0  0  0  0  0
    1.7447    1.4719   -2.3311 O   0  0  0  0  0  0  0  0  0  0  0  0
   -0.2373    2.0467   -1.6215 N   0  0  0  0  0  0  0  0  0  0  0  0
   -0.0668    2.9440   -2.0403 H   0  0  0  0  0  0  0  0  0  0  0  0
   -1.0981    1.8089   -1.1660 H   0  0  0  0  0  0  0  0  0  0  0  0
   -0.3126    1.2341    0.8050 C   0  0  0  0  0  0  0  0  0  0  0  0
   -1.2484    1.9199    0.3934 O   0  0  0  0  0  0  0  0  0  0  0  0
    0.5615    1.6875    1.7087 N   0  0  0  0  0  0  0  0  0  0  0  0
    1.3461    1.0849    1.9358 H   0  0  0  0  0  0  0  0  0  0  0  0
    0.5043    3.0121    2.3242 C   0  0  0  0  0  0  0  0  0  0  0  0
   -0.4649    3.1514    2.8080 H   0  0  0  0  0  0  0  0  0  0  0  0
    1.2959    3.1139    3.0678 H   0  0  0  0  0  0  0  0  0  0  0  0
    0.6273    3.7799    1.5584 H   0  0  0  0  0  0  0  0  0  0  0  0
  5  6  2  0  0  0  0
  5  7  1  0  0  0  0
  2  3  1  0  0  0  0
  2  4  1  0  0  0  0
  2  5  1  0  0  0  0
  1  2  1  0  0  0  0
 19 20  2  0  0  0  0
 19 21  1  0  0  0  0
 16 17  1  0  0  0  0
 16 18  1  0  0  0  0
 14 15  2  0  0  0  0
 14 16  1  0  0  0  0
 11 12  1  0  0  0  0
 11 13  1  0  0  0  0
 11 14  1  0  0  0  0
  9 10  1  0  0  0  0
  9 11  1  0  0  0  0
  9 19  1  0  0  0  0
  7  8  1  0  0  0  0
  7  9  1  0  0  0  0
 23 24  1  0  0  0  0
 23 25  1  0  0  0  0
 23 26  1  0  0  0  0
 21 22  1  0  0  0  0
 21 23  1  0  0  0  0
M  END
$$$$
default_name
  -OEChem-02102213163D

 26 25  0     1  0  0  0  0  0999 V2000
   -3.0232   -3.6924    1.0038 H   0  0  0  0  0  0  0  0  0  0  0  0
   -3.0082   -2.6684    0.6318 C   0  0  0  0  0  0  0  0  0  0  0  0
   -3.6332   -2.0414    1.2658 H   0  0  0  0  0  0  0  0  0  0  0  0
   -3.3762   -2.6444   -0.3912 H   0  0  0  0  0  0  0  0  0  0  0  0
   -1.5882   -2.1554    0.6658 C   0  0  0  0  0  0  0  0  0  0  0  0
   -0.6832   -2.8764    1.0638 O   0  0  0  0  0  0  0  0  0  0  0  0
   -1.3952   -0.9084    0.2428 N   0  0  0  0  0  0  0  0  0  0  0  0
   -2.1972   -0.3644   -0.0422 H   0  0  0  0  0  0  0  0  0  0  0  0
   -0.1122   -0.1994    0.2658 C   0  0  1  0  0  0  0  0  0  0  0  0
    0.5635   -0.7260    0.9446 H   0  0  0  0  0  0  0  0  0  0  0  0
    0.4924   -0.2204   -1.1558 C   0  0  0  0  0  0  0  0  0  0  0  0
    1.4632   -0.7139   -1.1241 H   0  0  0  0  0  0  0  0  0  0  0  0
   -0.1601   -0.7907   -1.8152 H   0  0  0  0  0  0  0  0  0  0  0  0
    0.7189    1.1596   -1.7518 C   0  0  0  0  0  0  0  0  0  0  0  0
    1.6087    1.4000   -2.5492 O   0  0  0  0  0  0  0  0  0  0  0  0
   -0.0810    2.1274   -1.3752 N   0  0  0  0  0  0  0  0  0  0  0  0
    0.0814    3.0241   -1.7986 H   0  0  0  0  0  0  0  0  0  0  0  0
   -0.8322    1.9513   -0.7352 H   0  0  0  0  0  0  0  0  0  0  0  0
   -0.3126    1.2341    0.8050 C   0  0  0  0  0  0  0  0  0  0  0  0
   -1.2484    1.9199    0.3934 O   0  0  0  0  0  0  0  0  0  0  0  0
    0.5615    1.6875    1.7087 N   0  0  0  0  0  0  0  0  0  0  0  0
    1.3461    1.0849    1.9358 H   0  0  0  0  0  0  0  0  0  0  0  0
    0.5043    3.0121    2.3242 C   0  0  0  0  0  0  0  0  0  0  0  0
   -0.4649    3.1514    2.8080 H   0  0  0  0  0  0  0  0  0  0  0  0
    1.2959    3.1139    3.0678 H   0  0  0  0  0  0  0  0  0  0  0  0
    0.6273    3.7799    1.5584 H   0  0  0  0  0  0  0  0  0  0  0  0
  5  6  2  0  0  0  0
  5  7  1  0  0  0  0
  2  3  1  0  0  0  0
  2  4  1  0  0  0  0
  2  5  1  0  0  0  0
  1  2  1  0  0  0  0
 19 20  2  0  0  0  0
 19 21  1  0  0  0  0
 16 17  1  0  0  0  0
 16 18  1  0  0  0  0
 14 15  2  0  0  0  0
 14 16  1  0  0  0  0
 11 12  1  0  0  0  0
 11 13  1  0  0  0  0
 11 14  1  0  0  0  0
  9 10  1  0  0  0  0
  9 11  1  0  0  0  0
  9 19  1  0  0  0  0
  7  8  1  0  0  0  0
  7  9  1  0  0  0  0
 23 24  1  0  0  0  0
 23 25  1  0  0  0  0
 23 26  1  0  0  0  0
 21 22  1  0  0  0  0
 21 23  1  0  0  0  0
M  END
$$$$
default_name
  -OEChem-02102213163D

 26 25  0     1  0  0  0  0  0999 V2000
   -3.0232   -3.6924    1.0038 H   0  0  0  0  0  0  0  0  0  0  0  0
   -3.0082   -2.6684    0.6318 C   0  0  0  0  0  0  0  0  0  0  0  0
   -3.6332   -2.0414    1.2658 H   0  0  0  0  0  0  0  0  0  0  0  0
   -3.3762   -2.6444   -0.3912 H   0  0  0  0  0  0  0  0  0  0  0  0
   -1.5882   -2.1554    0.6658 C   0  0  0  0  0  0  0  0  0  0  0  0
   -0.6832   -2.8764    1.0638 O   0  0  0  0  0  0  0  0  0  0  0  0
   -1.3952   -0.9084    0.2428 N   0  0  0  0  0  0  0  0  0  0  0  0
   -2.1972   -0.3644   -0.0422 H   0  0  0  0  0  0  0  0  0  0  0  0
   -0.1122   -0.1994    0.2658 C   0  0  1  0  0  0  0  0  0  0  0  0
    0.5635   -0.7260    0.9446 H   0  0  0  0  0  0  0  0  0  0  0  0
    0.4924   -0.2204   -1.1558 C   0  0  0  0  0  0  0  0  0  0  0  0
    1.4632   -0.7139   -1.1241 H   0  0  0  0  0  0  0  0  0  0  0  0
   -0.1601   -0.7907   -1.8152 H   0  0  0  0  0  0  0  0  0  0  0  0
    0.7189    1.1596   -1.7518 C   0  0  0  0  0  0  0  0  0  0  0  0
    1.4188    1.3528   -2.7307 O   0  0  0  0  0  0  0  0  0  0  0  0
    0.1361    2.1800   -1.1709 N   0  0  0  0  0  0  0  0  0  0  0  0
    0.2896    3.0770   -1.5969 H   0  0  0  0  0  0  0  0  0  0  0  0
   -0.4597    2.0453   -0.3760 H   0  0  0  0  0  0  0  0  0  0  0  0
   -0.3126    1.2341    0.8050 C   0  0  0  0  0  0  0  0  0  0  0  0
   -1.2484    1.9199    0.3934 O   0  0  0  0  0  0  0  0  0  0  0  0
    0.5615    1.6875    1.7087 N   0  0  0  0  0  0  0  0  0  0  0  0
    1.3461    1.0849    1.9358 H   0  0  0  0  0  0  0  0  0  0  0  0
    0.5043    3.0121    2.3242 C   0  0  0  0  0  0  0  0  0  0  0  0
   -0.4649    3.1514    2.8080 H   0  0  0  0  0  0  0  0  0  0  0  0
    1.2959    3.1139    3.0678 H   0  0  0  0  0  0  0  0  0  0  0  0
    0.6273    3.7799    1.5584 H   0  0  0  0  0  0  0  0  0  0  0  0
  5  6  2  0  0  0  0
  5  7  1  0  0  0  0
  2  3  1  0  0  0  0
  2  4  1  0  0  0  0
  2  5  1  0  0  0  0
  1  2  1  0  0  0  0
 19 20  2  0  0  0  0
 19 21  1  0  0  0  0
 16 17  1  0  0  0  0
 16 18  1  0  0  0  0
 14 15  2  0  0  0  0
 14 16  1  0  0  0  0
 11 12  1  0  0  0  0
 11 13  1  0  0  0  0
 11 14  1  0  0  0  0
  9 10  1  0  0  0  0
  9 11  1  0  0  0  0
  9 19  1  0  0  0  0
  7  8  1  0  0  0  0
  7  9  1  0  0  0  0
 23 24  1  0  0  0  0
 23 25  1  0  0  0  0
 23 26  1  0  0  0  0
 21 22  1  0  0  0  0
 21 23  1  0  0  0  0
M  END
$$$$
default_name
  -OEChem-02102213163D

 26 25  0     1  0  0  0  0  0999 V2000
   -3.0232   -3.6924    1.0038 H   0  0  0  0  0  0  0  0  0  0  0  0
   -3.0082   -2.6684    0.6318 C   0  0  0  0  0  0  0  0  0  0  0  0
   -3.6332   -2.0414    1.2658 H   0  0  0  0  0  0  0  0  0  0  0  0
   -3.3762   -2.6444   -0.3912 H   0  0  0  0  0  0  0  0  0  0  0  0
   -1.5882   -2.1554    0.6658 C   0  0  0  0  0  0  0  0  0  0  0  0
   -0.6832   -2.8764    1.0638 O   0  0  0  0  0  0  0  0  0  0  0  0
   -1.3952   -0.9084    0.2428 N   0  0  0  0  0  0  0  0  0  0  0  0
   -2.1972   -0.3644   -0.0422 H   0  0  0  0  0  0  0  0  0  0  0  0
   -0.1122   -0.1994    0.2658 C   0  0  1  0  0  0  0  0  0  0  0  0
    0.5635   -0.7260    0.9446 H   0  0  0  0  0  0  0  0  0  0  0  0
    0.4924   -0.2204   -1.1558 C   0  0  0  0  0  0  0  0  0  0  0  0
    1.3172   -0.9316   -1.1829 H   0  0  0  0  0  0  0  0  0  0  0  0
   -0.2666   -0.5492   -1.8641 H   0  0  0  0  0  0  0  0  0  0  0  0
    1.0502    1.1187   -1.6103 C   0  0  0  0  0  0  0  0  0  0  0  0
    1.5646    1.2870   -2.7023 O   0  0  0  0  0  0  0  0  0  0  0  0
    0.9759    2.1272   -0.7762 N   0  0  0  0  0  0  0  0  0  0  0  0
    1.3365    3.0036   -1.1102 H   0  0  0  0  0  0  0  0  0  0  0  0
    0.5404    2.0195    0.1203 H   0  0  0  0  0  0  0  0  0  0  0  0
   -0.3126    1.2341    0.8050 C   0  0  0  0  0  0  0  0  0  0  0  0
   -1.2484    1.9199    0.3934 O   0  0  0  0  0  0  0  0  0  0  0  0
    0.5615    1.6875    1.7087 N   0  0  0  0  0  0  0  0  0  0  0  0
    1.3461    1.0849    1.9358 H   0  0  0  0  0  0  0  0  0  0  0  0
    0.5043    3.0121    2.3242 C   0  0  0  0  0  0  0  0  0  0  0  0
   -0.4649    3.1514    2.8080 H   0  0  0  0  0  0  0  0  0  0  0  0
    1.2959    3.1139    3.0678 H   0  0  0  0  0  0  0  0  0  0  0  0
    0.6273    3.7799    1.5584 H   0  0  0  0  0  0  0  0  0  0  0  0
  5  6  2  0  0  0  0
  5  7  1  0  0  0  0
  2  3  1  0  0  0  0
  2  4  1  0  0  0  0
  2  5  1  0  0  0  0
  1  2  1  0  0  0  0
 19 20  2  0  0  0  0
 19 21  1  0  0  0  0
 16 17  1  0  0  0  0
 16 18  1  0  0  0  0
 14 15  2  0  0  0  0
 14 16  1  0  0  0  0
 11 12  1  0  0  0  0
 11 13  1  0  0  0  0
 11 14  1  0  0  0  0
  9 10  1  0  0  0  0
  9 11  1  0  0  0  0
  9 19  1  0  0  0  0
  7  8  1  0  0  0  0
  7  9  1  0  0  0  0
 23 24  1  0  0  0  0
 23 25  1  0  0  0  0
 23 26  1  0  0  0  0
 21 22  1  0  0  0  0
 21 23  1  0  0  0  0
M  END
$$$$
default_name
  -OEChem-02102213163D

 26 25  0     1  0  0  0  0  0999 V2000
   -3.0232   -3.6924    1.0038 H   0  0  0  0  0  0  0  0  0  0  0  0
   -3.0082   -2.6684    0.6318 C   0  0  0  0  0  0  0  0  0  0  0  0
   -3.6332   -2.0414    1.2658 H   0  0  0  0  0  0  0  0  0  0  0  0
   -3.3762   -2.6444   -0.3912 H   0  0  0  0  0  0  0  0  0  0  0  0
   -1.5882   -2.1554    0.6658 C   0  0  0  0  0  0  0  0  0  0  0  0
   -0.6832   -2.8764    1.0638 O   0  0  0  0  0  0  0  0  0  0  0  0
   -1.3952   -0.9084    0.2428 N   0  0  0  0  0  0  0  0  0  0  0  0
   -2.1972   -0.3644   -0.0422 H   0  0  0  0  0  0  0  0  0  0  0  0
   -0.1122   -0.1994    0.2658 C   0  0  1  0  0  0  0  0  0  0  0  0
    0.5635   -0.7260    0.9446 H   0  0  0  0  0  0  0  0  0  0  0  0
    0.4924   -0.2204   -1.1558 C   0  0  0  0  0  0  0  0  0  0  0  0
    1.3172   -0.9316   -1.1829 H   0  0  0  0  0  0  0  0  0  0  0  0
   -0.2666   -0.5492   -1.8641 H   0  0  0  0  0  0  0  0  0  0  0  0
    1.0502    1.1187   -1.6103 C   0  0  0  0  0  0  0  0  0  0  0  0
    1.3194    1.3651   -2.7731 O   0  0  0  0  0  0  0  0  0  0  0  0
    1.2542    2.0378   -0.6981 N   0  0  0  0  0  0  0  0  0  0  0  0
    1.6068    2.9182   -1.0300 H   0  0  0  0  0  0  0  0  0  0  0  0
    1.0232    1.8666    0.2623 H   0  0  0  0  0  0  0  0  0  0  0  0
   -0.3126    1.2341    0.8050 C   0  0  0  0  0  0  0  0  0  0  0  0
   -1.2484    1.9199    0.3934 O   0  0  0  0  0  0  0  0  0  0  0  0
    0.5615    1.6875    1.7087 N   0  0  0  0  0  0  0  0  0  0  0  0
    1.3461    1.0849    1.9358 H   0  0  0  0  0  0  0  0  0  0  0  0
    0.5043    3.0121    2.3242 C   0  0  0  0  0  0  0  0  0  0  0  0
   -0.4649    3.1514    2.8080 H   0  0  0  0  0  0  0  0  0  0  0  0
    1.2959    3.1139    3.0678 H   0  0  0  0  0  0  0  0  0  0  0  0
    0.6273    3.7799    1.5584 H   0  0  0  0  0  0  0  0  0  0  0  0
  5  6  2  0  0  0  0
  5  7  1  0  0  0  0
  2  3  1  0  0  0  0
  2  4  1  0  0  0  0
  2  5  1  0  0  0  0
  1  2  1  0  0  0  0
 19 20  2  0  0  0  0
 19 21  1  0  0  0  0
 16 17  1  0  0  0  0
 16 18  1  0  0  0  0
 14 15  2  0  0  0  0
 14 16  1  0  0  0  0
 11 12  1  0  0  0  0
 11 13  1  0  0  0  0
 11 14  1  0  0  0  0
  9 10  1  0  0  0  0
  9 11  1  0  0  0  0
  9 19  1  0  0  0  0
  7  8  1  0  0  0  0
  7  9  1  0  0  0  0
 23 24  1  0  0  0  0
 23 25  1  0  0  0  0
 23 26  1  0  0  0  0
 21 22  1  0  0  0  0
 21 23  1  0  0  0  0
M  END
$$$$
default_name
  -OEChem-02102213163D

 26 25  0     1  0  0  0  0  0999 V2000
   -3.0232   -3.6924    1.0038 H   0  0  0  0  0  0  0  0  0  0  0  0
   -3.0082   -2.6684    0.6318 C   0  0  0  0  0  0  0  0  0  0  0  0
   -3.6332   -2.0414    1.2658 H   0  0  0  0  0  0  0  0  0  0  0  0
   -3.3762   -2.6444   -0.3912 H   0  0  0  0  0  0  0  0  0  0  0  0
   -1.5882   -2.1554    0.6658 C   0  0  0  0  0  0  0  0  0  0  0  0
   -0.6832   -2.8764    1.0638 O   0  0  0  0  0  0  0  0  0  0  0  0
   -1.3952   -0.9084    0.2428 N   0  0  0  0  0  0  0  0  0  0  0  0
   -2.1972   -0.3644   -0.0422 H   0  0  0  0  0  0  0  0  0  0  0  0
   -0.1122   -0.1994    0.2658 C   0  0  1  0  0  0  0  0  0  0  0  0
    0.5635   -0.7260    0.9446 H   0  0  0  0  0  0  0  0  0  0  0  0
    0.4924   -0.2204   -1.1558 C   0  0  0  0  0  0  0  0  0  0  0  0
    1.3172   -0.9316   -1.1829 H   0  0  0  0  0  0  0  0  0  0  0  0
   -0.2666   -0.5492   -1.8641 H   0  0  0  0  0  0  0  0  0  0  0  0
    1.0502    1.1187   -1.6103 C   0  0  0  0  0  0  0  0  0  0  0  0
    1.0725    1.4662   -2.7782 O   0  0  0  0  0  0  0  0  0  0  0  0
    1.5340    1.9224   -0.6947 N   0  0  0  0  0  0  0  0  0  0  0  0
    1.8796    2.8072   -1.0222 H   0  0  0  0  0  0  0  0  0  0  0  0
    1.5100    1.6680    0.2747 H   0  0  0  0  0  0  0  0  0  0  0  0
   -0.3126    1.2341    0.8050 C   0  0  0  0  0  0  0  0  0  0  0  0
   -1.2484    1.9199    0.3934 O   0  0  0  0  0  0  0  0  0  0  0  0
    0.5615    1.6875    1.7087 N   0  0  0  0  0  0  0  0  0  0  0  0
    1.3461    1.0849    1.9358 H   0  0  0  0  0  0  0  0  0  0  0  0
    0.5043    3.0121    2.3242 C   0  0  0  0  0  0  0  0  0  0  0  0
   -0.4649    3.1514    2.8080 H   0  0  0  0  0  0  0  0  0  0  0  0
    1.2959    3.1139    3.0678 H   0  0  0  0  0  0  0  0  0  0  0  0
    0.6273    3.7799    1.5584 H   0  0  0  0  0  0  0  0  0  0  0  0
  5  6  2  0  0  0  0
  5  7  1  0  0  0  0
  2  3  1  0  0  0  0
  2  4  1  0  0  0  0
  2  5  1  0  0  0  0
  1  2  1  0  0  0  0
 19 20  2  0  0  0  0
 19 21  1  0  0  0  0
 16 17  1  0  0  0  0
 16 18  1  0  0  0  0
 14 15  2  0  0  0  0
 14 16  1  0  0  0  0
 11 12  1  0  0  0  0
 11 13  1  0  0  0  0
 11 14  1  0  0  0  0
  9 10  1  0  0  0  0
  9 11  1  0  0  0  0
  9 19  1  0  0  0  0
  7  8  1  0  0  0  0
  7  9  1  0  0  0  0
 23 24  1  0  0  0  0
 23 25  1  0  0  0  0
 23 26  1  0  0  0  0
 21 22  1  0  0  0  0
 21 23  1  0  0  0  0
M  END
$$$$
default_name
  -OEChem-02102213163D

 26 25  0     1  0  0  0  0  0999 V2000
   -3.0232   -3.6924    1.0038 H   0  0  0  0  0  0  0  0  0  0  0  0
   -3.0082   -2.6684    0.6318 C   0  0  0  0  0  0  0  0  0  0  0  0
   -3.6332   -2.0414    1.2658 H   0  0  0  0  0  0  0  0  0  0  0  0
   -3.3762   -2.6444   -0.3912 H   0  0  0  0  0  0  0  0  0  0  0  0
   -1.5882   -2.1554    0.6658 C   0  0  0  0  0  0  0  0  0  0  0  0
   -0.6832   -2.8764    1.0638 O   0  0  0  0  0  0  0  0  0  0  0  0
   -1.3952   -0.9084    0.2428 N   0  0  0  0  0  0  0  0  0  0  0  0
   -2.1972   -0.3644   -0.0422 H   0  0  0  0  0  0  0  0  0  0  0  0
   -0.1122   -0.1994    0.2658 C   0  0  1  0  0  0  0  0  0  0  0  0
    0.5635   -0.7260    0.9446 H   0  0  0  0  0  0  0  0  0  0  0  0
    0.4924   -0.2204   -1.1558 C   0  0  0  0  0  0  0  0  0  0  0  0
    1.3172   -0.9316   -1.1829 H   0  0  0  0  0  0  0  0  0  0  0  0
   -0.2666   -0.5492   -1.8641 H   0  0  0  0  0  0  0  0  0  0  0  0
    1.0502    1.1187   -1.6103 C   0  0  0  0  0  0  0  0  0  0  0  0
    0.8406    1.5834   -2.7173 O   0  0  0  0  0  0  0  0  0  0  0  0
    1.7961    1.7890   -0.7661 N   0  0  0  0  0  0  0  0  0  0  0  0
    2.1363    2.6782   -1.0875 H   0  0  0  0  0  0  0  0  0  0  0  0
    1.9677    1.4374    0.1569 H   0  0  0  0  0  0  0  0  0  0  0  0
   -0.3126    1.2341    0.8050 C   0  0  0  0  0  0  0  0  0  0  0  0
   -1.2484    1.9199    0.3934 O   0  0  0  0  0  0  0  0  0  0  0  0
    0.5615    1.6875    1.7087 N   0  0  0  0  0  0  0  0  0  0  0  0
    1.3461    1.0849    1.9358 H   0  0  0  0  0  0  0  0  0  0  0  0
    0.5043    3.0121    2.3242 C   0  0  0  0  0  0  0  0  0  0  0  0
   -0.4649    3.1514    2.8080 H   0  0  0  0  0  0  0  0  0  0  0  0
    1.2959    3.1139    3.0678 H   0  0  0  0  0  0  0  0  0  0  0  0
    0.6273    3.7799    1.5584 H   0  0  0  0  0  0  0  0  0  0  0  0
  5  6  2  0  0  0  0
  5  7  1  0  0  0  0
  2  3  1  0  0  0  0
  2  4  1  0  0  0  0
  2  5  1  0  0  0  0
  1  2  1  0  0  0  0
 19 20  2  0  0  0  0
 19 21  1  0  0  0  0
 16 17  1  0  0  0  0
 16 18  1  0  0  0  0
 14 15  2  0  0  0  0
 14 16  1  0  0  0  0
 11 12  1  0  0  0  0
 11 13  1  0  0  0  0
 11 14  1  0  0  0  0
  9 10  1  0  0  0  0
  9 11  1  0  0  0  0
  9 19  1  0  0  0  0
  7  8  1  0  0  0  0
  7  9  1  0  0  0  0
 23 24  1  0  0  0  0
 23 25  1  0  0  0  0
 23 26  1  0  0  0  0
 21 22  1  0  0  0  0
 21 23  1  0  0  0  0
M  END
$$$$
default_name
  -OEChem-02102213163D

 26 25  0     1  0  0  0  0  0999 V2000
   -3.0232   -3.6924    1.0038 H   0  0  0  0  0  0  0  0  0  0  0  0
   -3.0082   -2.6684    0.6318 C   0  0  0  0  0  0  0  0  0  0  0  0
   -3.6332   -2.0414    1.2658 H   0  0  0  0  0  0  0  0  0  0  0  0
   -3.3762   -2.6444   -0.3912 H   0  0  0  0  0  0  0  0  0  0  0  0
   -1.5882   -2.1554    0.6658 C   0  0  0  0  0  0  0  0  0  0  0  0
   -0.6832   -2.8764    1.0638 O   0  0  0  0  0  0  0  0  0  0  0  0
   -1.3952   -0.9084    0.2428 N   0  0  0  0  0  0  0  0  0  0  0  0
   -2.1972   -0.3644   -0.0422 H   0  0  0  0  0  0  0  0  0  0  0  0
   -0.1122   -0.1994    0.2658 C   0  0  1  0  0  0  0  0  0  0  0  0
    0.5635   -0.7260    0.9446 H   0  0  0  0  0  0  0  0  0  0  0  0
    0.4924   -0.2204   -1.1558 C   0  0  0  0  0  0  0  0  0  0  0  0
    1.3172   -0.9316   -1.1829 H   0  0  0  0  0  0  0  0  0  0  0  0
   -0.2666   -0.5492   -1.8641 H   0  0  0  0  0  0  0  0  0  0  0  0
    1.0502    1.1187   -1.6103 C   0  0  0  0  0  0  0  0  0  0  0  0
    0.6396    1.7089   -2.5944 O   0  0  0  0  0  0  0  0  0  0  0  0
    2.0227    1.6466   -0.9075 N   0  0  0  0  0  0  0  0  0  0  0  0
    2.3593    2.5399   -1.2212 H   0  0  0  0  0  0  0  0  0  0  0  0
    2.3651    1.1904   -0.0831 H   0  0  0  0  0  0  0  0  0  0  0  0
   -0.3126    1.2341    0.8050 C   0  0  0  0  0  0  0  0  0  0  0  0
   -1.2484    1.9199    0.3934 O   0  0  0  0  0  0  0  0  0  0  0  0
    0.5615    1.6875    1.7087 N   0  0  0  0  0  0  0  0  0  0  0  0
    1.3461    1.0849    1.9358 H   0  0  0  0  0  0  0  0  0  0  0  0
    0.5043    3.0121    2.3242 C   0  0  0  0  0  0  0  0  0  0  0  0
   -0.4649    3.1514    2.8080 H   0  0  0  0  0  0  0  0  0  0  0  0
    1.2959    3.1139    3.0678 H   0  0  0  0  0  0  0  0  0  0  0  0
    0.6273    3.7799    1.5584 H   0  0  0  0  0  0  0  0  0  0  0  0
  5  6  2  0  0  0  0
  5  7  1  0  0  0  0
  2  3  1  0  0  0  0
  2  4  1  0  0  0  0
  2  5  1  0  0  0  0
  1  2  1  0  0  0  0
 19 20  2  0  0  0  0
 19 21  1  0  0  0  0
 16 17  1  0  0  0  0
 16 18  1  0  0  0  0
 14 15  2  0  0  0  0
 14 16  1  0  0  0  0
 11 12  1  0  0  0  0
 11 13  1  0  0  0  0
 11 14  1  0  0  0  0
  9 10  1  0  0  0  0
  9 11  1  0  0  0  0
  9 19  1  0  0  0  0
  7  8  1  0  0  0  0
  7  9  1  0  0  0  0
 23 24  1  0  0  0  0
 23 25  1  0  0  0  0
 23 26  1  0  0  0  0
 21 22  1  0  0  0  0
 21 23  1  0  0  0  0
M  END
$$$$
default_name
  -OEChem-02102213163D

 26 25  0     1  0  0  0  0  0999 V2000
   -3.0232   -3.6924    1.0038 H   0  0  0  0  0  0  0  0  0  0  0  0
   -3.0082   -2.6684    0.6318 C   0  0  0  0  0  0  0  0  0  0  0  0
   -3.6332   -2.0414    1.2658 H   0  0  0  0  0  0  0  0  0  0  0  0
   -3.3762   -2.6444   -0.3912 H   0  0  0  0  0  0  0  0  0  0  0  0
   -1.5882   -2.1554    0.6658 C   0  0  0  0  0  0  0  0  0  0  0  0
   -0.6832   -2.8764    1.0638 O   0  0  0  0  0  0  0  0  0  0  0  0
   -1.3952   -0.9084    0.2428 N   0  0  0  0  0  0  0  0  0  0  0  0
   -2.1972   -0.3644   -0.0422 H   0  0  0  0  0  0  0  0  0  0  0  0
   -0.1122   -0.1994    0.2658 C   0  0  1  0  0  0  0  0  0  0  0  0
    0.5635   -0.7260    0.9446 H   0  0  0  0  0  0  0  0  0  0  0  0
    0.4924   -0.2204   -1.1558 C   0  0  0  0  0  0  0  0  0  0  0  0
    1.3172   -0.9316   -1.1829 H   0  0  0  0  0  0  0  0  0  0  0  0
   -0.2666   -0.5492   -1.8641 H   0  0  0  0  0  0  0  0  0  0  0  0
    1.0502    1.1187   -1.6103 C   0  0  0  0  0  0  0  0  0  0  0  0
    0.4832    1.8339   -2.4180 O   0  0  0  0  0  0  0  0  0  0  0  0
    2.1983    1.5050   -1.1093 N   0  0  0  0  0  0  0  0  0  0  0  0
    2.5336    2.4017   -1.4145 H   0  0  0  0  0  0  0  0  0  0  0  0
    2.6752    0.9438   -0.4291 H   0  0  0  0  0  0  0  0  0  0  0  0
   -0.3126    1.2341    0.8050 C   0  0  0  0  0  0  0  0  0  0  0  0
   -1.2484    1.9199    0.3934 O   0  0  0  0  0  0  0  0  0  0  0  0
    0.5615    1.6875    1.7087 N   0  0  0  0  0  0  0  0  0  0  0  0
    1.3461    1.0849    1.9358 H   0  0  0  0  0  0  0  0  0  0  0  0
    0.5043    3.0121    2.3242 C   0  0  0  0  0  0  0  0  0  0  0  0
   -0.4649    3.1514    2.8080 H   0  0  0  0  0  0  0  0  0  0  0  0
    1.2959    3.1139    3.0678 H   0  0  0  0  0  0  0  0  0  0  0  0
    0.6273    3.7799    1.5584 H   0  0  0  0  0  0  0  0  0  0  0  0
  5  6  2  0  0  0  0
  5  7  1  0  0  0  0
  2  3  1  0  0  0  0
  2  4  1  0  0  0  0
  2  5  1  0  0  0  0
  1  2  1  0  0  0  0
 19 20  2  0  0  0  0
 19 21  1  0  0  0  0
 16 17  1  0  0  0  0
 16 18  1  0  0  0  0
 14 15  2  0  0  0  0
 14 16  1  0  0  0  0
 11 12  1  0  0  0  0
 11 13  1  0  0  0  0
 11 14  1  0  0  0  0
  9 10  1  0  0  0  0
  9 11  1  0  0  0  0
  9 19  1  0  0  0  0
  7  8  1  0  0  0  0
  7  9  1  0  0  0  0
 23 24  1  0  0  0  0
 23 25  1  0  0  0  0
 23 26  1  0  0  0  0
 21 22  1  0  0  0  0
 21 23  1  0  0  0  0
M  END
$$$$
default_name
  -OEChem-02102213163D

 26 25  0     1  0  0  0  0  0999 V2000
   -3.0232   -3.6924    1.0038 H   0  0  0  0  0  0  0  0  0  0  0  0
   -3.0082   -2.6684    0.6318 C   0  0  0  0  0  0  0  0  0  0  0  0
   -3.6332   -2.0414    1.2658 H   0  0  0  0  0  0  0  0  0  0  0  0
   -3.3762   -2.6444   -0.3912 H   0  0  0  0  0  0  0  0  0  0  0  0
   -1.5882   -2.1554    0.6658 C   0  0  0  0  0  0  0  0  0  0  0  0
   -0.6832   -2.8764    1.0638 O   0  0  0  0  0  0  0  0  0  0  0  0
   -1.3952   -0.9084    0.2428 N   0  0  0  0  0  0  0  0  0  0  0  0
   -2.1972   -0.3644   -0.0422 H   0  0  0  0  0  0  0  0  0  0  0  0
   -0.1122   -0.1994    0.2658 C   0  0  1  0  0  0  0  0  0  0  0  0
    0.5635   -0.7260    0.9446 H   0  0  0  0  0  0  0  0  0  0  0  0
    0.4924   -0.2204   -1.1558 C   0  0  0  0  0  0  0  0  0  0  0  0
    1.3172   -0.9316   -1.1829 H   0  0  0  0  0  0  0  0  0  0  0  0
   -0.2666   -0.5492   -1.8641 H   0  0  0  0  0  0  0  0  0  0  0  0
    1.0502    1.1187   -1.6103 C   0  0  0  0  0  0  0  0  0  0  0  0
    0.3820    1.9500   -2.2000 O   0  0  0  0  0  0  0  0  0  0  0  0
    2.3110    1.3738   -1.3576 N   0  0  0  0  0  0  0  0  0  0  0  0
    2.6472    2.2731   -1.6540 H   0  0  0  0  0  0  0  0  0  0  0  0
    2.8767    0.7145   -0.8573 H   0  0  0  0  0  0  0  0  0  0  0  0
   -0.3126    1.2341    0.8050 C   0  0  0  0  0  0  0  0  0  0  0  0
   -1.2484    1.9199    0.3934 O   0  0  0  0  0  0  0  0  0  0  0  0
    0.5615    1.6875    1.7087 N   0  0  0  0  0  0  0  0  0  0  0  0
    1.3461    1.0849    1.9358 H   0  0  0  0  0  0  0  0  0  0  0  0
    0.5043    3.0121    2.3242 C   0  0  0  0  0  0  0  0  0  0  0  0
   -0.4649    3.1514    2.8080 H   0  0  0  0  0  0  0  0  0  0  0  0
    1.2959    3.1139    3.0678 H   0  0  0  0  0  0  0  0  0  0  0  0
    0.6273    3.7799    1.5584 H   0  0  0  0  0  0  0  0  0  0  0  0
  5  6  2  0  0  0  0
  5  7  1  0  0  0  0
  2  3  1  0  0  0  0
  2  4  1  0  0  0  0
  2  5  1  0  0  0  0
  1  2  1  0  0  0  0
 19 20  2  0  0  0  0
 19 21  1  0  0  0  0
 16 17  1  0  0  0  0
 16 18  1  0  0  0  0
 14 15  2  0  0  0  0
 14 16  1  0  0  0  0
 11 12  1  0  0  0  0
 11 13  1  0  0  0  0
 11 14  1  0  0  0  0
  9 10  1  0  0  0  0
  9 11  1  0  0  0  0
  9 19  1  0  0  0  0
  7  8  1  0  0  0  0
  7  9  1  0  0  0  0
 23 24  1  0  0  0  0
 23 25  1  0  0  0  0
 23 26  1  0  0  0  0
 21 22  1  0  0  0  0
 21 23  1  0  0  0  0
M  END
$$$$
default_name
  -OEChem-02102213163D

 26 25  0     1  0  0  0  0  0999 V2000
   -3.0232   -3.6924    1.0038 H   0  0  0  0  0  0  0  0  0  0  0  0
   -3.0082   -2.6684    0.6318 C   0  0  0  0  0  0  0  0  0  0  0  0
   -3.6332   -2.0414    1.2658 H   0  0  0  0  0  0  0  0  0  0  0  0
   -3.3762   -2.6444   -0.3912 H   0  0  0  0  0  0  0  0  0  0  0  0
   -1.5882   -2.1554    0.6658 C   0  0  0  0  0  0  0  0  0  0  0  0
   -0.6832   -2.8764    1.0638 O   0  0  0  0  0  0  0  0  0  0  0  0
   -1.3952   -0.9084    0.2428 N   0  0  0  0  0  0  0  0  0  0  0  0
   -2.1972   -0.3644   -0.0422 H   0  0  0  0  0  0  0  0  0  0  0  0
   -0.1122   -0.1994    0.2658 C   0  0  1  0  0  0  0  0  0  0  0  0
    0.5635   -0.7260    0.9446 H   0  0  0  0  0  0  0  0  0  0  0  0
    0.4924   -0.2204   -1.1558 C   0  0  0  0  0  0  0  0  0  0  0  0
    1.3172   -0.9316   -1.1829 H   0  0  0  0  0  0  0  0  0  0  0  0
   -0.2666   -0.5492   -1.8641 H   0  0  0  0  0  0  0  0  0  0  0  0
    1.0502    1.1187   -1.6103 C   0  0  0  0  0  0  0  0  0  0  0  0
    0.3430    2.0493   -1.9554 O   0  0  0  0  0  0  0  0  0  0  0  0
    2.3530    1.2619   -1.6357 N   0  0  0  0  0  0  0  0  0  0  0  0
    2.6923    2.1629   -1.9234 H   0  0  0  0  0  0  0  0  0  0  0  0
    2.9560    0.5181   -1.3387 H   0  0  0  0  0  0  0  0  0  0  0  0
   -0.3126    1.2341    0.8050 C   0  0  0  0  0  0  0  0  0  0  0  0
   -1.2484    1.9199    0.3934 O   0  0  0  0  0  0  0  0  0  0  0  0
    0.5615    1.6875    1.7087 N   0  0  0  0  0  0  0  0  0  0  0  0
    1.3461    1.0849    1.9358 H   0  0  0  0  0  0  0  0  0  0  0  0
    0.5043    3.0121    2.3242 C   0  0  0  0  0  0  0  0  0  0  0  0
   -0.4649    3.1514    2.8080 H   0  0  0  0  0  0  0  0  0  0  0  0
    1.2959    3.1139    3.0678 H   0  0  0  0  0  0  0  0  0  0  0  0
    0.6273    3.7799    1.5584 H   0  0  0  0  0  0  0  0  0  0  0  0
  5  6  2  0  0  0  0
  5  7  1  0  0  0  0
  2  3  1  0  0  0  0
  2  4  1  0  0  0  0
  2  5  1  0  0  0  0
  1  2  1  0  0  0  0
 19 20  2  0  0  0  0
 19 21  1  0  0  0  0
 16 17  1  0  0  0  0
 16 18  1  0  0  0  0
 14 15  2  0  0  0  0
 14 16  1  0  0  0  0
 11 12  1  0  0  0  0
 11 13  1  0  0  0  0
 11 14  1  0  0  0  0
  9 10  1  0  0  0  0
  9 11  1  0  0  0  0
  9 19  1  0  0  0  0
  7  8  1  0  0  0  0
  7  9  1  0  0  0  0
 23 24  1  0  0  0  0
 23 25  1  0  0  0  0
 23 26  1  0  0  0  0
 21 22  1  0  0  0  0
 21 23  1  0  0  0  0
M  END
$$$$
default_name
  -OEChem-02102213163D

 26 25  0     1  0  0  0  0  0999 V2000
   -3.0232   -3.6924    1.0038 H   0  0  0  0  0  0  0  0  0  0  0  0
   -3.0082   -2.6684    0.6318 C   0  0  0  0  0  0  0  0  0  0  0  0
   -3.6332   -2.0414    1.2658 H   0  0  0  0  0  0  0  0  0  0  0  0
   -3.3762   -2.6444   -0.3912 H   0  0  0  0  0  0  0  0  0  0  0  0
   -1.5882   -2.1554    0.6658 C   0  0  0  0  0  0  0  0  0  0  0  0
   -0.6832   -2.8764    1.0638 O   0  0  0  0  0  0  0  0  0  0  0  0
   -1.3952   -0.9084    0.2428 N   0  0  0  0  0  0  0  0  0  0  0  0
   -2.1972   -0.3644   -0.0422 H   0  0  0  0  0  0  0  0  0  0  0  0
   -0.1122   -0.1994    0.2658 C   0  0  1  0  0  0  0  0  0  0  0  0
    0.5635   -0.7260    0.9446 H   0  0  0  0  0  0  0  0  0  0  0  0
    0.4924   -0.2204   -1.1558 C   0  0  0  0  0  0  0  0  0  0  0  0
    1.3172   -0.9316   -1.1829 H   0  0  0  0  0  0  0  0  0  0  0  0
   -0.2666   -0.5492   -1.8641 H   0  0  0  0  0  0  0  0  0  0  0  0
    1.0502    1.1187   -1.6103 C   0  0  0  0  0  0  0  0  0  0  0  0
    0.3687    2.1250   -1.7008 O   0  0  0  0  0  0  0  0  0  0  0  0
    2.3215    1.1770   -1.9245 N   0  0  0  0  0  0  0  0  0  0  0  0
    2.6660    2.0785   -2.2044 H   0  0  0  0  0  0  0  0  0  0  0  0
    2.9076    0.3680   -1.8404 H   0  0  0  0  0  0  0  0  0  0  0  0
   -0.3126    1.2341    0.8050 C   0  0  0  0  0  0  0  0  0  0  0  0
   -1.2484    1.9199    0.3934 O   0  0  0  0  0  0  0  0  0  0  0  0
    0.5615    1.6875    1.7087 N   0  0  0  0  0  0  0  0  0  0  0  0
    1.3461    1.0849    1.9358 H   0  0  0  0  0  0  0  0  0  0  0  0
    0.5043    3.0121    2.3242 C   0  0  0  0  0  0  0  0  0  0  0  0
   -0.4649    3.1514    2.8080 H   0  0  0  0  0  0  0  0  0  0  0  0
    1.2959    3.1139    3.0678 H   0  0  0  0  0  0  0  0  0  0  0  0
    0.6273    3.7799    1.5584 H   0  0  0  0  0  0  0  0  0  0  0  0
  5  6  2  0  0  0  0
  5  7  1  0  0  0  0
  2  3  1  0  0  0  0
  2  4  1  0  0  0  0
  2  5  1  0  0  0  0
  1  2  1  0  0  0  0
 19 20  2  0  0  0  0
 19 21  1  0  0  0  0
 16 17  1  0  0  0  0
 16 18  1  0  0  0  0
 14 15  2  0  0  0  0
 14 16  1  0  0  0  0
 11 12  1  0  0  0  0
 11 13  1  0  0  0  0
 11 14  1  0  0  0  0
  9 10  1  0  0  0  0
  9 11  1  0  0  0  0
  9 19  1  0  0  0  0
  7  8  1  0  0  0  0
  7  9  1  0  0  0  0
 23 24  1  0  0  0  0
 23 25  1  0  0  0  0
 23 26  1  0  0  0  0
 21 22  1  0  0  0  0
 21 23  1  0  0  0  0
M  END
$$$$
default_name
  -OEChem-02102213163D

 26 25  0     1  0  0  0  0  0999 V2000
   -3.0232   -3.6924    1.0038 H   0  0  0  0  0  0  0  0  0  0  0  0
   -3.0082   -2.6684    0.6318 C   0  0  0  0  0  0  0  0  0  0  0  0
   -3.6332   -2.0414    1.2658 H   0  0  0  0  0  0  0  0  0  0  0  0
   -3.3762   -2.6444   -0.3912 H   0  0  0  0  0  0  0  0  0  0  0  0
   -1.5882   -2.1554    0.6658 C   0  0  0  0  0  0  0  0  0  0  0  0
   -0.6832   -2.8764    1.0638 O   0  0  0  0  0  0  0  0  0  0  0  0
   -1.3952   -0.9084    0.2428 N   0  0  0  0  0  0  0  0  0  0  0  0
   -2.1972   -0.3644   -0.0422 H   0  0  0  0  0  0  0  0  0  0  0  0
   -0.1122   -0.1994    0.2658 C   0  0  1  0  0  0  0  0  0  0  0  0
    0.5635   -0.7260    0.9446 H   0  0  0  0  0  0  0  0  0  0  0  0
    0.4924   -0.2204   -1.1558 C   0  0  0  0  0  0  0  0  0  0  0  0
    1.3172   -0.9316   -1.1829 H   0  0  0  0  0  0  0  0  0  0  0  0
   -0.2666   -0.5492   -1.8641 H   0  0  0  0  0  0  0  0  0  0  0  0
    1.0502    1.1187   -1.6103 C   0  0  0  0  0  0  0  0  0  0  0  0
    0.4575    2.1719   -1.4535 O   0  0  0  0  0  0  0  0  0  0  0  0
    2.2187    1.1248   -2.2043 N   0  0  0  0  0  0  0  0  0  0  0  0
    2.5700    2.0257   -2.4779 H   0  0  0  0  0  0  0  0  0  0  0  0
    2.7349    0.2744   -2.3282 H   0  0  0  0  0  0  0  0  0  0  0  0
   -0.3126    1.2341    0.8050 C   0  0  0  0  0  0  0  0  0  0  0  0
   -1.2484    1.9199    0.3934 O   0  0  0  0  0  0  0  0  0  0  0  0
    0.5615    1.6875    1.7087 N   0  0  0  0  0  0  0  0  0  0  0  0
    1.3461    1.0849    1.9358 H   0  0  0  0  0  0  0  0  0  0  0  0
    0.5043    3.0121    2.3242 C   0  0  0  0  0  0  0  0  0  0  0  0
   -0.4649    3.1514    2.8080 H   0  0  0  0  0  0  0  0  0  0  0  0
    1.2959    3.1139    3.0678 H   0  0  0  0  0  0  0  0  0  0  0  0
    0.6273    3.7799    1.5584 H   0  0  0  0  0  0  0  0  0  0  0  0
  5  6  2  0  0  0  0
  5  7  1  0  0  0  0
  2  3  1  0  0  0  0
  2  4  1  0  0  0  0
  2  5  1  0  0  0  0
  1  2  1  0  0  0  0
 19 20  2  0  0  0  0
 19 21  1  0  0  0  0
 16 17  1  0  0  0  0
 16 18  1  0  0  0  0
 14 15  2  0  0  0  0
 14 16  1  0  0  0  0
 11 12  1  0  0  0  0
 11 13  1  0  0  0  0
 11 14  1  0  0  0  0
  9 10  1  0  0  0  0
  9 11  1  0  0  0  0
  9 19  1  0  0  0  0
  7  8  1  0  0  0  0
  7  9  1  0  0  0  0
 23 24  1  0  0  0  0
 23 25  1  0  0  0  0
 23 26  1  0  0  0  0
 21 22  1  0  0  0  0
 21 23  1  0  0  0  0
M  END
$$$$
default_name
  -OEChem-02102213163D

 26 25  0     1  0  0  0  0  0999 V2000
   -3.0232   -3.6924    1.0038 H   0  0  0  0  0  0  0  0  0  0  0  0
   -3.0082   -2.6684    0.6318 C   0  0  0  0  0  0  0  0  0  0  0  0
   -3.6332   -2.0414    1.2658 H   0  0  0  0  0  0  0  0  0  0  0  0
   -3.3762   -2.6444   -0.3912 H   0  0  0  0  0  0  0  0  0  0  0  0
   -1.5882   -2.1554    0.6658 C   0  0  0  0  0  0  0  0  0  0  0  0
   -0.6832   -2.8764    1.0638 O   0  0  0  0  0  0  0  0  0  0  0  0
   -1.3952   -0.9084    0.2428 N   0  0  0  0  0  0  0  0  0  0  0  0
   -2.1972   -0.3644   -0.0422 H   0  0  0  0  0  0  0  0  0  0  0  0
   -0.1122   -0.1994    0.2658 C   0  0  1  0  0  0  0  0  0  0  0  0
    0.5635   -0.7260    0.9446 H   0  0  0  0  0  0  0  0  0  0  0  0
    0.4924   -0.2204   -1.1558 C   0  0  0  0  0  0  0  0  0  0  0  0
    1.3172   -0.9316   -1.1829 H   0  0  0  0  0  0  0  0  0  0  0  0
   -0.2666   -0.5492   -1.8641 H   0  0  0  0  0  0  0  0  0  0  0  0
    1.0502    1.1187   -1.6103 C   0  0  0  0  0  0  0  0  0  0  0  0
    0.6032    2.1869   -1.2304 O   0  0  0  0  0  0  0  0  0  0  0  0
    2.0516    1.1090   -2.4562 N   0  0  0  0  0  0  0  0  0  0  0  0
    2.4107    2.0081   -2.7252 H   0  0  0  0  0  0  0  0  0  0  0  0
    2.4496    0.2437   -2.7690 H   0  0  0  0  0  0  0  0  0  0  0  0
   -0.3126    1.2341    0.8050 C   0  0  0  0  0  0  0  0  0  0  0  0
   -1.2484    1.9199    0.3934 O   0  0  0  0  0  0  0  0  0  0  0  0
    0.5615    1.6875    1.7087 N   0  0  0  0  0  0  0  0  0  0  0  0
    1.3461    1.0849    1.9358 H   0  0  0  0  0  0  0  0  0  0  0  0
    0.5043    3.0121    2.3242 C   0  0  0  0  0  0  0  0  0  0  0  0
   -0.4649    3.1514    2.8080 H   0  0  0  0  0  0  0  0  0  0  0  0
    1.2959    3.1139    3.0678 H   0  0  0  0  0  0  0  0  0  0  0  0
    0.6273    3.7799    1.5584 H   0  0  0  0  0  0  0  0  0  0  0  0
  5  6  2  0  0  0  0
  5  7  1  0  0  0  0
  2  3  1  0  0  0  0
  2  4  1  0  0  0  0
  2  5  1  0  0  0  0
  1  2  1  0  0  0  0
 19 20  2  0  0  0  0
 19 21  1  0  0  0  0
 16 17  1  0  0  0  0
 16 18  1  0  0  0  0
 14 15  2  0  0  0  0
 14 16  1  0  0  0  0
 11 12  1  0  0  0  0
 11 13  1  0  0  0  0
 11 14  1  0  0  0  0
  9 10  1  0  0  0  0
  9 11  1  0  0  0  0
  9 19  1  0  0  0  0
  7  8  1  0  0  0  0
  7  9  1  0  0  0  0
 23 24  1  0  0  0  0
 23 25  1  0  0  0  0
 23 26  1  0  0  0  0
 21 22  1  0  0  0  0
 21 23  1  0  0  0  0
M  END
$$$$
default_name
  -OEChem-02102213163D

 26 25  0     1  0  0  0  0  0999 V2000
   -3.0232   -3.6924    1.0038 H   0  0  0  0  0  0  0  0  0  0  0  0
   -3.0082   -2.6684    0.6318 C   0  0  0  0  0  0  0  0  0  0  0  0
   -3.6332   -2.0414    1.2658 H   0  0  0  0  0  0  0  0  0  0  0  0
   -3.3762   -2.6444   -0.3912 H   0  0  0  0  0  0  0  0  0  0  0  0
   -1.5882   -2.1554    0.6658 C   0  0  0  0  0  0  0  0  0  0  0  0
   -0.6832   -2.8764    1.0638 O   0  0  0  0  0  0  0  0  0  0  0  0
   -1.3952   -0.9084    0.2428 N   0  0  0  0  0  0  0  0  0  0  0  0
   -2.1972   -0.3644   -0.0422 H   0  0  0  0  0  0  0  0  0  0  0  0
   -0.1122   -0.1994    0.2658 C   0  0  1  0  0  0  0  0  0  0  0  0
    0.5635   -0.7260    0.9446 H   0  0  0  0  0  0  0  0  0  0  0  0
    0.4924   -0.2204   -1.1558 C   0  0  0  0  0  0  0  0  0  0  0  0
    1.3172   -0.9316   -1.1829 H   0  0  0  0  0  0  0  0  0  0  0  0
   -0.2666   -0.5492   -1.8641 H   0  0  0  0  0  0  0  0  0  0  0  0
    1.0502    1.1187   -1.6103 C   0  0  0  0  0  0  0  0  0  0  0  0
    0.7960    2.1690   -1.0468 O   0  0  0  0  0  0  0  0  0  0  0  0
    1.8315    1.1305   -2.6628 N   0  0  0  0  0  0  0  0  0  0  0  0
    2.1992    2.0269   -2.9294 H   0  0  0  0  0  0  0  0  0  0  0  0
    2.0712    0.2779   -3.1325 H   0  0  0  0  0  0  0  0  0  0  0  0
   -0.3126    1.2341    0.8050 C   0  0  0  0  0  0  0  0  0  0  0  0
   -1.2484    1.9199    0.3934 O   0  0  0  0  0  0  0  0  0  0  0  0
    0.5615    1.6875    1.7087 N   0  0  0  0  0  0  0  0  0  0  0  0
    1.3461    1.0849    1.9358 H   0  0  0  0  0  0  0  0  0  0  0  0
    0.5043    3.0121    2.3242 C   0  0  0  0  0  0  0  0  0  0  0  0
   -0.4649    3.1514    2.8080 H   0  0  0  0  0  0  0  0  0  0  0  0
    1.2959    3.1139    3.0678 H   0  0  0  0  0  0  0  0  0  0  0  0
    0.6273    3.7799    1.5584 H   0  0  0  0  0  0  0  0  0  0  0  0
  5  6  2  0  0  0  0
  5  7  1  0  0  0  0
  2  3  1  0  0  0  0
  2  4  1  0  0  0  0
  2  5  1  0  0  0  0
  1  2  1  0  0  0  0
 19 20  2  0  0  0  0
 19 21  1  0  0  0  0
 16 17  1  0  0  0  0
 16 18  1  0  0  0  0
 14 15  2  0  0  0  0
 14 16  1  0  0  0  0
 11 12  1  0  0  0  0
 11 13  1  0  0  0  0
 11 14  1  0  0  0  0
  9 10  1  0  0  0  0
  9 11  1  0  0  0  0
  9 19  1  0  0  0  0
  7  8  1  0  0  0  0
  7  9  1  0  0  0  0
 23 24  1  0  0  0  0
 23 25  1  0  0  0  0
 23 26  1  0  0  0  0
 21 22  1  0  0  0  0
 21 23  1  0  0  0  0
M  END
$$$$
default_name
  -OEChem-02102213163D

 26 25  0     1  0  0  0  0  0999 V2000
   -3.0232   -3.6924    1.0038 H   0  0  0  0  0  0  0  0  0  0  0  0
   -3.0082   -2.6684    0.6318 C   0  0  0  0  0  0  0  0  0  0  0  0
   -3.6332   -2.0414    1.2658 H   0  0  0  0  0  0  0  0  0  0  0  0
   -3.3762   -2.6444   -0.3912 H   0  0  0  0  0  0  0  0  0  0  0  0
   -1.5882   -2.1554    0.6658 C   0  0  0  0  0  0  0  0  0  0  0  0
   -0.6832   -2.8764    1.0638 O   0  0  0  0  0  0  0  0  0  0  0  0
   -1.3952   -0.9084    0.2428 N   0  0  0  0  0  0  0  0  0  0  0  0
   -2.1972   -0.3644   -0.0422 H   0  0  0  0  0  0  0  0  0  0  0  0
   -0.1122   -0.1994    0.2658 C   0  0  1  0  0  0  0  0  0  0  0  0
    0.5635   -0.7260    0.9446 H   0  0  0  0  0  0  0  0  0  0  0  0
    0.4924   -0.2204   -1.1558 C   0  0  0  0  0  0  0  0  0  0  0  0
    1.3172   -0.9316   -1.1829 H   0  0  0  0  0  0  0  0  0  0  0  0
   -0.2666   -0.5492   -1.8641 H   0  0  0  0  0  0  0  0  0  0  0  0
    1.0502    1.1187   -1.6103 C   0  0  0  0  0  0  0  0  0  0  0  0
    1.0227    2.1193   -0.9150 O   0  0  0  0  0  0  0  0  0  0  0  0
    1.5735    1.1880   -2.8102 N   0  0  0  0  0  0  0  0  0  0  0  0
    1.9498    2.0808   -3.0766 H   0  0  0  0  0  0  0  0  0  0  0  0
    1.6254    0.3748   -3.3942 H   0  0  0  0  0  0  0  0  0  0  0  0
   -0.3126    1.2341    0.8050 C   0  0  0  0  0  0  0  0  0  0  0  0
   -1.2484    1.9199    0.3934 O   0  0  0  0  0  0  0  0  0  0  0  0
    0.5615    1.6875    1.7087 N   0  0  0  0  0  0  0  0  0  0  0  0
    1.3461    1.0849    1.9358 H   0  0  0  0  0  0  0  0  0  0  0  0
    0.5043    3.0121    2.3242 C   0  0  0  0  0  0  0  0  0  0  0  0
   -0.4649    3.1514    2.8080 H   0  0  0  0  0  0  0  0  0  0  0  0
    1.2959    3.1139    3.0678 H   0  0  0  0  0  0  0  0  0  0  0  0
    0.6273    3.7799    1.5584 H   0  0  0  0  0  0  0  0  0  0  0  0
  5  6  2  0  0  0  0
  5  7  1  0  0  0  0
  2  3  1  0  0  0  0
  2  4  1  0  0  0  0
  2  5  1  0  0  0  0
  1  2  1  0  0  0  0
 19 20  2  0  0  0  0
 19 21  1  0  0  0  0
 16 17  1  0  0  0  0
 16 18  1  0  0  0  0
 14 15  2  0  0  0  0
 14 16  1  0  0  0  0
 11 12  1  0  0  0  0
 11 13  1  0  0  0  0
 11 14  1  0  0  0  0
  9 10  1  0  0  0  0
  9 11  1  0  0  0  0
  9 19  1  0  0  0  0
  7  8  1  0  0  0  0
  7  9  1  0  0  0  0
 23 24  1  0  0  0  0
 23 25  1  0  0  0  0
 23 26  1  0  0  0  0
 21 22  1  0  0  0  0
 21 23  1  0  0  0  0
M  END
$$$$
default_name
  -OEChem-02102213163D

 26 25  0     1  0  0  0  0  0999 V2000
   -3.0232   -3.6924    1.0038 H   0  0  0  0  0  0  0  0  0  0  0  0
   -3.0082   -2.6684    0.6318 C   0  0  0  0  0  0  0  0  0  0  0  0
   -3.6332   -2.0414    1.2658 H   0  0  0  0  0  0  0  0  0  0  0  0
   -3.3762   -2.6444   -0.3912 H   0  0  0  0  0  0  0  0  0  0  0  0
   -1.5882   -2.1554    0.6658 C   0  0  0  0  0  0  0  0  0  0  0  0
   -0.6832   -2.8764    1.0638 O   0  0  0  0  0  0  0  0  0  0  0  0
   -1.3952   -0.9084    0.2428 N   0  0  0  0  0  0  0  0  0  0  0  0
   -2.1972   -0.3644   -0.0422 H   0  0  0  0  0  0  0  0  0  0  0  0
   -0.1122   -0.1994    0.2658 C   0  0  1  0  0  0  0  0  0  0  0  0
    0.5635   -0.7260    0.9446 H   0  0  0  0  0  0  0  0  0  0  0  0
    0.4924   -0.2204   -1.1558 C   0  0  0  0  0  0  0  0  0  0  0  0
    1.3172   -0.9316   -1.1829 H   0  0  0  0  0  0  0  0  0  0  0  0
   -0.2666   -0.5492   -1.8641 H   0  0  0  0  0  0  0  0  0  0  0  0
    1.0502    1.1187   -1.6103 C   0  0  0  0  0  0  0  0  0  0  0  0
    1.2679    2.0412   -0.8442 O   0  0  0  0  0  0  0  0  0  0  0  0
    1.2951    1.2774   -2.8883 N   0  0  0  0  0  0  0  0  0  0  0  0
    1.6795    2.1661   -3.1568 H   0  0  0  0  0  0  0  0  0  0  0  0
    1.1426    0.5277   -3.5361 H   0  0  0  0  0  0  0  0  0  0  0  0
   -0.3126    1.2341    0.8050 C   0  0  0  0  0  0  0  0  0  0  0  0
   -1.2484    1.9199    0.3934 O   0  0  0  0  0  0  0  0  0  0  0  0
    0.5615    1.6875    1.7087 N   0  0  0  0  0  0  0  0  0  0  0  0
    1.3461    1.0849    1.9358 H   0  0  0  0  0  0  0  0  0  0  0  0
    0.5043    3.0121    2.3242 C   0  0  0  0  0  0  0  0  0  0  0  0
   -0.4649    3.1514    2.8080 H   0  0  0  0  0  0  0  0  0  0  0  0
    1.2959    3.1139    3.0678 H   0  0  0  0  0  0  0  0  0  0  0  0
    0.6273    3.7799    1.5584 H   0  0  0  0  0  0  0  0  0  0  0  0
  5  6  2  0  0  0  0
  5  7  1  0  0  0  0
  2  3  1  0  0  0  0
  2  4  1  0  0  0  0
  2  5  1  0  0  0  0
  1  2  1  0  0  0  0
 19 20  2  0  0  0  0
 19 21  1  0  0  0  0
 16 17  1  0  0  0  0
 16 18  1  0  0  0  0
 14 15  2  0  0  0  0
 14 16  1  0  0  0  0
 11 12  1  0  0  0  0
 11 13  1  0  0  0  0
 11 14  1  0  0  0  0
  9 10  1  0  0  0  0
  9 11  1  0  0  0  0
  9 19  1  0  0  0  0
  7  8  1  0  0  0  0
  7  9  1  0  0  0  0
 23 24  1  0  0  0  0
 23 25  1  0  0  0  0
 23 26  1  0  0  0  0
 21 22  1  0  0  0  0
 21 23  1  0  0  0  0
M  END
$$$$
default_name
  -OEChem-02102213163D

 26 25  0     1  0  0  0  0  0999 V2000
   -3.0232   -3.6924    1.0038 H   0  0  0  0  0  0  0  0  0  0  0  0
   -3.0082   -2.6684    0.6318 C   0  0  0  0  0  0  0  0  0  0  0  0
   -3.6332   -2.0414    1.2658 H   0  0  0  0  0  0  0  0  0  0  0  0
   -3.3762   -2.6444   -0.3912 H   0  0  0  0  0  0  0  0  0  0  0  0
   -1.5882   -2.1554    0.6658 C   0  0  0  0  0  0  0  0  0  0  0  0
   -0.6832   -2.8764    1.0638 O   0  0  0  0  0  0  0  0  0  0  0  0
   -1.3952   -0.9084    0.2428 N   0  0  0  0  0  0  0  0  0  0  0  0
   -2.1972   -0.3644   -0.0422 H   0  0  0  0  0  0  0  0  0  0  0  0
   -0.1122   -0.1994    0.2658 C   0  0  1  0  0  0  0  0  0  0  0  0
    0.5635   -0.7260    0.9446 H   0  0  0  0  0  0  0  0  0  0  0  0
    0.4924   -0.2204   -1.1558 C   0  0  0  0  0  0  0  0  0  0  0  0
    1.3172   -0.9316   -1.1829 H   0  0  0  0  0  0  0  0  0  0  0  0
   -0.2666   -0.5492   -1.8641 H   0  0  0  0  0  0  0  0  0  0  0  0
    1.0502    1.1187   -1.6103 C   0  0  0  0  0  0  0  0  0  0  0  0
    1.5148    1.9401   -0.8391 O   0  0  0  0  0  0  0  0  0  0  0  0
    1.0153    1.3928   -2.8917 N   0  0  0  0  0  0  0  0  0  0  0  0
    1.4067    2.2771   -3.1646 H   0  0  0  0  0  0  0  0  0  0  0  0
    0.6558    0.7263   -3.5486 H   0  0  0  0  0  0  0  0  0  0  0  0
   -0.3126    1.2341    0.8050 C   0  0  0  0  0  0  0  0  0  0  0  0
   -1.2484    1.9199    0.3934 O   0  0  0  0  0  0  0  0  0  0  0  0
    0.5615    1.6875    1.7087 N   0  0  0  0  0  0  0  0  0  0  0  0
    1.3461    1.0849    1.9358 H   0  0  0  0  0  0  0  0  0  0  0  0
    0.5043    3.0121    2.3242 C   0  0  0  0  0  0  0  0  0  0  0  0
   -0.4649    3.1514    2.8080 H   0  0  0  0  0  0  0  0  0  0  0  0
    1.2959    3.1139    3.0678 H   0  0  0  0  0  0  0  0  0  0  0  0
    0.6273    3.7799    1.5584 H   0  0  0  0  0  0  0  0  0  0  0  0
  5  6  2  0  0  0  0
  5  7  1  0  0  0  0
  2  3  1  0  0  0  0
  2  4  1  0  0  0  0
  2  5  1  0  0  0  0
  1  2  1  0  0  0  0
 19 20  2  0  0  0  0
 19 21  1  0  0  0  0
 16 17  1  0  0  0  0
 16 18  1  0  0  0  0
 14 15  2  0  0  0  0
 14 16  1  0  0  0  0
 11 12  1  0  0  0  0
 11 13  1  0  0  0  0
 11 14  1  0  0  0  0
  9 10  1  0  0  0  0
  9 11  1  0  0  0  0
  9 19  1  0  0  0  0
  7  8  1  0  0  0  0
  7  9  1  0  0  0  0
 23 24  1  0  0  0  0
 23 25  1  0  0  0  0
 23 26  1  0  0  0  0
 21 22  1  0  0  0  0
 21 23  1  0  0  0  0
M  END
$$$$
default_name
  -OEChem-02102213163D

 26 25  0     1  0  0  0  0  0999 V2000
   -3.0232   -3.6924    1.0038 H   0  0  0  0  0  0  0  0  0  0  0  0
   -3.0082   -2.6684    0.6318 C   0  0  0  0  0  0  0  0  0  0  0  0
   -3.6332   -2.0414    1.2658 H   0  0  0  0  0  0  0  0  0  0  0  0
   -3.3762   -2.6444   -0.3912 H   0  0  0  0  0  0  0  0  0  0  0  0
   -1.5882   -2.1554    0.6658 C   0  0  0  0  0  0  0  0  0  0  0  0
   -0.6832   -2.8764    1.0638 O   0  0  0  0  0  0  0  0  0  0  0  0
   -1.3952   -0.9084    0.2428 N   0  0  0  0  0  0  0  0  0  0  0  0
   -2.1972   -0.3644   -0.0422 H   0  0  0  0  0  0  0  0  0  0  0  0
   -0.1122   -0.1994    0.2658 C   0  0  1  0  0  0  0  0  0  0  0  0
    0.5635   -0.7260    0.9446 H   0  0  0  0  0  0  0  0  0  0  0  0
    0.4924   -0.2204   -1.1558 C   0  0  0  0  0  0  0  0  0  0  0  0
    1.3172   -0.9316   -1.1829 H   0  0  0  0  0  0  0  0  0  0  0  0
   -0.2666   -0.5492   -1.8641 H   0  0  0  0  0  0  0  0  0  0  0  0
    1.0502    1.1187   -1.6103 C   0  0  0  0  0  0  0  0  0  0  0  0
    1.7467    1.8228   -0.9000 O   0  0  0  0  0  0  0  0  0  0  0  0
    0.7532    1.5262   -2.8203 N   0  0  0  0  0  0  0  0  0  0  0  0
    1.1500    2.4062   -3.0994 H   0  0  0  0  0  0  0  0  0  0  0  0
    0.1980    0.9569   -3.4308 H   0  0  0  0  0  0  0  0  0  0  0  0
   -0.3126    1.2341    0.8050 C   0  0  0  0  0  0  0  0  0  0  0  0
   -1.2484    1.9199    0.3934 O   0  0  0  0  0  0  0  0  0  0  0  0
    0.5615    1.6875    1.7087 N   0  0  0  0  0  0  0  0  0  0  0  0
    1.3461    1.0849    1.9358 H   0  0  0  0  0  0  0  0  0  0  0  0
    0.5043    3.0121    2.3242 C   0  0  0  0  0  0  0  0  0  0  0  0
   -0.4649    3.1514    2.8080 H   0  0  0  0  0  0  0  0  0  0  0  0
    1.2959    3.1139    3.0678 H   0  0  0  0  0  0  0  0  0  0  0  0
    0.6273    3.7799    1.5584 H   0  0  0  0  0  0  0  0  0  0  0  0
  5  6  2  0  0  0  0
  5  7  1  0  0  0  0
  2  3  1  0  0  0  0
  2  4  1  0  0  0  0
  2  5  1  0  0  0  0
  1  2  1  0  0  0  0
 19 20  2  0  0  0  0
 19 21  1  0  0  0  0
 16 17  1  0  0  0  0
 16 18  1  0  0  0  0
 14 15  2  0  0  0  0
 14 16  1  0  0  0  0
 11 12  1  0  0  0  0
 11 13  1  0  0  0  0
 11 14  1  0  0  0  0
  9 10  1  0  0  0  0
  9 11  1  0  0  0  0
  9 19  1  0  0  0  0
  7  8  1  0  0  0  0
  7  9  1  0  0  0  0
 23 24  1  0  0  0  0
 23 25  1  0  0  0  0
 23 26  1  0  0  0  0
 21 22  1  0  0  0  0
 21 23  1  0  0  0  0
M  END
$$$$
default_name
  -OEChem-02102213163D

 26 25  0     1  0  0  0  0  0999 V2000
   -3.0232   -3.6924    1.0038 H   0  0  0  0  0  0  0  0  0  0  0  0
   -3.0082   -2.6684    0.6318 C   0  0  0  0  0  0  0  0  0  0  0  0
   -3.6332   -2.0414    1.2658 H   0  0  0  0  0  0  0  0  0  0  0  0
   -3.3762   -2.6444   -0.3912 H   0  0  0  0  0  0  0  0  0  0  0  0
   -1.5882   -2.1554    0.6658 C   0  0  0  0  0  0  0  0  0  0  0  0
   -0.6832   -2.8764    1.0638 O   0  0  0  0  0  0  0  0  0  0  0  0
   -1.3952   -0.9084    0.2428 N   0  0  0  0  0  0  0  0  0  0  0  0
   -2.1972   -0.3644   -0.0422 H   0  0  0  0  0  0  0  0  0  0  0  0
   -0.1122   -0.1994    0.2658 C   0  0  1  0  0  0  0  0  0  0  0  0
    0.5635   -0.7260    0.9446 H   0  0  0  0  0  0  0  0  0  0  0  0
    0.4924   -0.2204   -1.1558 C   0  0  0  0  0  0  0  0  0  0  0  0
    1.3172   -0.9316   -1.1829 H   0  0  0  0  0  0  0  0  0  0  0  0
   -0.2666   -0.5492   -1.8641 H   0  0  0  0  0  0  0  0  0  0  0  0
    1.0502    1.1187   -1.6103 C   0  0  0  0  0  0  0  0  0  0  0  0
    1.9476    1.6974   -1.0229 O   0  0  0  0  0  0  0  0  0  0  0  0
    0.5267    1.6686   -2.6789 N   0  0  0  0  0  0  0  0  0  0  0  0
    0.9270    2.5445   -2.9656 H   0  0  0  0  0  0  0  0  0  0  0  0
   -0.1994    1.2039   -3.1907 H   0  0  0  0  0  0  0  0  0  0  0  0
   -0.3126    1.2341    0.8050 C   0  0  0  0  0  0  0  0  0  0  0  0
   -1.2484    1.9199    0.3934 O   0  0  0  0  0  0  0  0  0  0  0  0
    0.5615    1.6875    1.7087 N   0  0  0  0  0  0  0  0  0  0  0  0
    1.3461    1.0849    1.9358 H   0  0  0  0  0  0  0  0  0  0  0  0
    0.5043    3.0121    2.3242 C   0  0  0  0  0  0  0  0  0  0  0  0
   -0.4649    3.1514    2.8080 H   0  0  0  0  0  0  0  0  0  0  0  0
    1.2959    3.1139    3.0678 H   0  0  0  0  0  0  0  0  0  0  0  0
    0.6273    3.7799    1.5584 H   0  0  0  0  0  0  0  0  0  0  0  0
  5  6  2  0  0  0  0
  5  7  1  0  0  0  0
  2  3  1  0  0  0  0
  2  4  1  0  0  0  0
  2  5  1  0  0  0  0
  1  2  1  0  0  0  0
 19 20  2  0  0  0  0
 19 21  1  0  0  0  0
 16 17  1  0  0  0  0
 16 18  1  0  0  0  0
 14 15  2  0  0  0  0
 14 16  1  0  0  0  0
 11 12  1  0  0  0  0
 11 13  1  0  0  0  0
 11 14  1  0  0  0  0
  9 10  1  0  0  0  0
  9 11  1  0  0  0  0
  9 19  1  0  0  0  0
  7  8  1  0  0  0  0
  7  9  1  0  0  0  0
 23 24  1  0  0  0  0
 23 25  1  0  0  0  0
 23 26  1  0  0  0  0
 21 22  1  0  0  0  0
 21 23  1  0  0  0  0
M  END
$$$$
default_name
  -OEChem-02102213163D

 26 25  0     1  0  0  0  0  0999 V2000
   -3.0232   -3.6924    1.0038 H   0  0  0  0  0  0  0  0  0  0  0  0
   -3.0082   -2.6684    0.6318 C   0  0  0  0  0  0  0  0  0  0  0  0
   -3.6332   -2.0414    1.2658 H   0  0  0  0  0  0  0  0  0  0  0  0
   -3.3762   -2.6444   -0.3912 H   0  0  0  0  0  0  0  0  0  0  0  0
   -1.5882   -2.1554    0.6658 C   0  0  0  0  0  0  0  0  0  0  0  0
   -0.6832   -2.8764    1.0638 O   0  0  0  0  0  0  0  0  0  0  0  0
   -1.3952   -0.9084    0.2428 N   0  0  0  0  0  0  0  0  0  0  0  0
   -2.1972   -0.3644   -0.0422 H   0  0  0  0  0  0  0  0  0  0  0  0
   -0.1122   -0.1994    0.2658 C   0  0  1  0  0  0  0  0  0  0  0  0
    0.5635   -0.7260    0.9446 H   0  0  0  0  0  0  0  0  0  0  0  0
    0.4924   -0.2204   -1.1558 C   0  0  0  0  0  0  0  0  0  0  0  0
    1.3172   -0.9316   -1.1829 H   0  0  0  0  0  0  0  0  0  0  0  0
   -0.2666   -0.5492   -1.8641 H   0  0  0  0  0  0  0  0  0  0  0  0
    1.0502    1.1187   -1.6103 C   0  0  0  0  0  0  0  0  0  0  0  0
    2.1041    1.5723   -1.1993 O   0  0  0  0  0  0  0  0  0  0  0  0
    0.3511    1.8102   -2.4771 N   0  0  0  0  0  0  0  0  0  0  0  0
    0.7527    2.6827   -2.7724 H   0  0  0  0  0  0  0  0  0  0  0  0
   -0.5094    1.4504   -2.8448 H   0  0  0  0  0  0  0  0  0  0  0  0
   -0.3126    1.2341    0.8050 C   0  0  0  0  0  0  0  0  0  0  0  0
   -1.2484    1.9199    0.3934 O   0  0  0  0  0  0  0  0  0  0  0  0
    0.5615    1.6875    1.7087 N   0  0  0  0  0  0  0  0  0  0  0  0
    1.3461    1.0849    1.9358 H   0  0  0  0  0  0  0  0  0  0  0  0
    0.5043    3.0121    2.3242 C   0  0  0  0  0  0  0  0  0  0  0  0
   -0.4649    3.1514    2.8080 H   0  0  0  0  0  0  0  0  0  0  0  0
    1.2959    3.1139    3.0678 H   0  0  0  0  0  0  0  0  0  0  0  0
    0.6273    3.7799    1.5584 H   0  0  0  0  0  0  0  0  0  0  0  0
  5  6  2  0  0  0  0
  5  7  1  0  0  0  0
  2  3  1  0  0  0  0
  2  4  1  0  0  0  0
  2  5  1  0  0  0  0
  1  2  1  0  0  0  0
 19 20  2  0  0  0  0
 19 21  1  0  0  0  0
 16 17  1  0  0  0  0
 16 18  1  0  0  0  0
 14 15  2  0  0  0  0
 14 16  1  0  0  0  0
 11 12  1  0  0  0  0
 11 13  1  0  0  0  0
 11 14  1  0  0  0  0
  9 10  1  0  0  0  0
  9 11  1  0  0  0  0
  9 19  1  0  0  0  0
  7  8  1  0  0  0  0
  7  9  1  0  0  0  0
 23 24  1  0  0  0  0
 23 25  1  0  0  0  0
 23 26  1  0  0  0  0
 21 22  1  0  0  0  0
 21 23  1  0  0  0  0
M  END
$$$$
default_name
  -OEChem-02102213163D

 26 25  0     1  0  0  0  0  0999 V2000
   -3.0232   -3.6924    1.0038 H   0  0  0  0  0  0  0  0  0  0  0  0
   -3.0082   -2.6684    0.6318 C   0  0  0  0  0  0  0  0  0  0  0  0
   -3.6332   -2.0414    1.2658 H   0  0  0  0  0  0  0  0  0  0  0  0
   -3.3762   -2.6444   -0.3912 H   0  0  0  0  0  0  0  0  0  0  0  0
   -1.5882   -2.1554    0.6658 C   0  0  0  0  0  0  0  0  0  0  0  0
   -0.6832   -2.8764    1.0638 O   0  0  0  0  0  0  0  0  0  0  0  0
   -1.3952   -0.9084    0.2428 N   0  0  0  0  0  0  0  0  0  0  0  0
   -2.1972   -0.3644   -0.0422 H   0  0  0  0  0  0  0  0  0  0  0  0
   -0.1122   -0.1994    0.2658 C   0  0  1  0  0  0  0  0  0  0  0  0
    0.5635   -0.7260    0.9446 H   0  0  0  0  0  0  0  0  0  0  0  0
    0.4924   -0.2204   -1.1558 C   0  0  0  0  0  0  0  0  0  0  0  0
    1.3172   -0.9316   -1.1829 H   0  0  0  0  0  0  0  0  0  0  0  0
   -0.2666   -0.5492   -1.8641 H   0  0  0  0  0  0  0  0  0  0  0  0
    1.0502    1.1187   -1.6103 C   0  0  0  0  0  0  0  0  0  0  0  0
    2.2053    1.4562   -1.4173 O   0  0  0  0  0  0  0  0  0  0  0  0
    0.2384    1.9414   -2.2288 N   0  0  0  0  0  0  0  0  0  0  0  0
    0.6391    2.8113   -2.5329 H   0  0  0  0  0  0  0  0  0  0  0  0
   -0.7110    1.6797   -2.4165 H   0  0  0  0  0  0  0  0  0  0  0  0
   -0.3126    1.2341    0.8050 C   0  0  0  0  0  0  0  0  0  0  0  0
   -1.2484    1.9199    0.3934 O   0  0  0  0  0  0  0  0  0  0  0  0
    0.5615    1.6875    1.7087 N   0  0  0  0  0  0  0  0  0  0  0  0
    1.3461    1.0849    1.9358 H   0  0  0  0  0  0  0  0  0  0  0  0
    0.5043    3.0121    2.3242 C   0  0  0  0  0  0  0  0  0  0  0  0
   -0.4649    3.1514    2.8080 H   0  0  0  0  0  0  0  0  0  0  0  0
    1.2959    3.1139    3.0678 H   0  0  0  0  0  0  0  0  0  0  0  0
    0.6273    3.7799    1.5584 H   0  0  0  0  0  0  0  0  0  0  0  0
  5  6  2  0  0  0  0
  5  7  1  0  0  0  0
  2  3  1  0  0  0  0
  2  4  1  0  0  0  0
  2  5  1  0  0  0  0
  1  2  1  0  0  0  0
 19 20  2  0  0  0  0
 19 21  1  0  0  0  0
 16 17  1  0  0  0  0
 16 18  1  0  0  0  0
 14 15  2  0  0  0  0
 14 16  1  0  0  0  0
 11 12  1  0  0  0  0
 11 13  1  0  0  0  0
 11 14  1  0  0  0  0
  9 10  1  0  0  0  0
  9 11  1  0  0  0  0
  9 19  1  0  0  0  0
  7  8  1  0  0  0  0
  7  9  1  0  0  0  0
 23 24  1  0  0  0  0
 23 25  1  0  0  0  0
 23 26  1  0  0  0  0
 21 22  1  0  0  0  0
 21 23  1  0  0  0  0
M  END
$$$$
default_name
  -OEChem-02102213163D

 26 25  0     1  0  0  0  0  0999 V2000
   -3.0232   -3.6924    1.0038 H   0  0  0  0  0  0  0  0  0  0  0  0
   -3.0082   -2.6684    0.6318 C   0  0  0  0  0  0  0  0  0  0  0  0
   -3.6332   -2.0414    1.2658 H   0  0  0  0  0  0  0  0  0  0  0  0
   -3.3762   -2.6444   -0.3912 H   0  0  0  0  0  0  0  0  0  0  0  0
   -1.5882   -2.1554    0.6658 C   0  0  0  0  0  0  0  0  0  0  0  0
   -0.6832   -2.8764    1.0638 O   0  0  0  0  0  0  0  0  0  0  0  0
   -1.3952   -0.9084    0.2428 N   0  0  0  0  0  0  0  0  0  0  0  0
   -2.1972   -0.3644   -0.0422 H   0  0  0  0  0  0  0  0  0  0  0  0
   -0.1122   -0.1994    0.2658 C   0  0  1  0  0  0  0  0  0  0  0  0
    0.5635   -0.7260    0.9446 H   0  0  0  0  0  0  0  0  0  0  0  0
    0.4924   -0.2204   -1.1558 C   0  0  0  0  0  0  0  0  0  0  0  0
    1.3172   -0.9316   -1.1829 H   0  0  0  0  0  0  0  0  0  0  0  0
   -0.2666   -0.5492   -1.8641 H   0  0  0  0  0  0  0  0  0  0  0  0
    1.0502    1.1187   -1.6103 C   0  0  0  0  0  0  0  0  0  0  0  0
    2.2443    1.3569   -1.6619 O   0  0  0  0  0  0  0  0  0  0  0  0
    0.1964    2.0533   -1.9507 N   0  0  0  0  0  0  0  0  0  0  0  0
    0.5939    2.9215   -2.2634 H   0  0  0  0  0  0  0  0  0  0  0  0
   -0.7902    1.8761   -1.9352 H   0  0  0  0  0  0  0  0  0  0  0  0
   -0.3126    1.2341    0.8050 C   0  0  0  0  0  0  0  0  0  0  0  0
   -1.2484    1.9199    0.3934 O   0  0  0  0  0  0  0  0  0  0  0  0
    0.5615    1.6875    1.7087 N   0  0  0  0  0  0  0  0  0  0  0  0
    1.3461    1.0849    1.9358 H   0  0  0  0  0  0  0  0  0  0  0  0
    0.5043    3.0121    2.3242 C   0  0  0  0  0  0  0  0  0  0  0  0
   -0.4649    3.1514    2.8080 H   0  0  0  0  0  0  0  0  0  0  0  0
    1.2959    3.1139    3.0678 H   0  0  0  0  0  0  0  0  0  0  0  0
    0.6273    3.7799    1.5584 H   0  0  0  0  0  0  0  0  0  0  0  0
  5  6  2  0  0  0  0
  5  7  1  0  0  0  0
  2  3  1  0  0  0  0
  2  4  1  0  0  0  0
  2  5  1  0  0  0  0
  1  2  1  0  0  0  0
 19 20  2  0  0  0  0
 19 21  1  0  0  0  0
 16 17  1  0  0  0  0
 16 18  1  0  0  0  0
 14 15  2  0  0  0  0
 14 16  1  0  0  0  0
 11 12  1  0  0  0  0
 11 13  1  0  0  0  0
 11 14  1  0  0  0  0
  9 10  1  0  0  0  0
  9 11  1  0  0  0  0
  9 19  1  0  0  0  0
  7  8  1  0  0  0  0
  7  9  1  0  0  0  0
 23 24  1  0  0  0  0
 23 25  1  0  0  0  0
 23 26  1  0  0  0  0
 21 22  1  0  0  0  0
 21 23  1  0  0  0  0
M  END
$$$$
default_name
  -OEChem-02102213163D

 26 25  0     1  0  0  0  0  0999 V2000
   -3.0232   -3.6924    1.0038 H   0  0  0  0  0  0  0  0  0  0  0  0
   -3.0082   -2.6684    0.6318 C   0  0  0  0  0  0  0  0  0  0  0  0
   -3.6332   -2.0414    1.2658 H   0  0  0  0  0  0  0  0  0  0  0  0
   -3.3762   -2.6444   -0.3912 H   0  0  0  0  0  0  0  0  0  0  0  0
   -1.5882   -2.1554    0.6658 C   0  0  0  0  0  0  0  0  0  0  0  0
   -0.6832   -2.8764    1.0638 O   0  0  0  0  0  0  0  0  0  0  0  0
   -1.3952   -0.9084    0.2428 N   0  0  0  0  0  0  0  0  0  0  0  0
   -2.1972   -0.3644   -0.0422 H   0  0  0  0  0  0  0  0  0  0  0  0
   -0.1122   -0.1994    0.2658 C   0  0  1  0  0  0  0  0  0  0  0  0
    0.5635   -0.7260    0.9446 H   0  0  0  0  0  0  0  0  0  0  0  0
    0.4924   -0.2204   -1.1558 C   0  0  0  0  0  0  0  0  0  0  0  0
    1.3172   -0.9316   -1.1829 H   0  0  0  0  0  0  0  0  0  0  0  0
   -0.2666   -0.5492   -1.8641 H   0  0  0  0  0  0  0  0  0  0  0  0
    1.0502    1.1187   -1.6103 C   0  0  0  0  0  0  0  0  0  0  0  0
    2.2186    1.2812   -1.9165 O   0  0  0  0  0  0  0  0  0  0  0  0
    0.2278    2.1382   -1.6619 N   0  0  0  0  0  0  0  0  0  0  0  0
    0.6203    3.0059   -1.9824 H   0  0  0  0  0  0  0  0  0  0  0  0
   -0.7419    2.0262   -1.4335 H   0  0  0  0  0  0  0  0  0  0  0  0
   -0.3126    1.2341    0.8050 C   0  0  0  0  0  0  0  0  0  0  0  0
   -1.2484    1.9199    0.3934 O   0  0  0  0  0  0  0  0  0  0  0  0
    0.5615    1.6875    1.7087 N   0  0  0  0  0  0  0  0  0  0  0  0
    1.3461    1.0849    1.9358 H   0  0  0  0  0  0  0  0  0  0  0  0
    0.5043    3.0121    2.3242 C   0  0  0  0  0  0  0  0  0  0  0  0
   -0.4649    3.1514    2.8080 H   0  0  0  0  0  0  0  0  0  0  0  0
    1.2959    3.1139    3.0678 H   0  0  0  0  0  0  0  0  0  0  0  0
    0.6273    3.7799    1.5584 H   0  0  0  0  0  0  0  0  0  0  0  0
  5  6  2  0  0  0  0
  5  7  1  0  0  0  0
  2  3  1  0  0  0  0
  2  4  1  0  0  0  0
  2  5  1  0  0  0  0
  1  2  1  0  0  0  0
 19 20  2  0  0  0  0
 19 21  1  0  0  0  0
 16 17  1  0  0  0  0
 16 18  1  0  0  0  0
 14 15  2  0  0  0  0
 14 16  1  0  0  0  0
 11 12  1  0  0  0  0
 11 13  1  0  0  0  0
 11 14  1  0  0  0  0
  9 10  1  0  0  0  0
  9 11  1  0  0  0  0
  9 19  1  0  0  0  0
  7  8  1  0  0  0  0
  7  9  1  0  0  0  0
 23 24  1  0  0  0  0
 23 25  1  0  0  0  0
 23 26  1  0  0  0  0
 21 22  1  0  0  0  0
 21 23  1  0  0  0  0
M  END
$$$$
default_name
  -OEChem-02102213163D

 26 25  0     1  0  0  0  0  0999 V2000
   -3.0232   -3.6924    1.0038 H   0  0  0  0  0  0  0  0  0  0  0  0
   -3.0082   -2.6684    0.6318 C   0  0  0  0  0  0  0  0  0  0  0  0
   -3.6332   -2.0414    1.2658 H   0  0  0  0  0  0  0  0  0  0  0  0
   -3.3762   -2.6444   -0.3912 H   0  0  0  0  0  0  0  0  0  0  0  0
   -1.5882   -2.1554    0.6658 C   0  0  0  0  0  0  0  0  0  0  0  0
   -0.6832   -2.8764    1.0638 O   0  0  0  0  0  0  0  0  0  0  0  0
   -1.3952   -0.9084    0.2428 N   0  0  0  0  0  0  0  0  0  0  0  0
   -2.1972   -0.3644   -0.0422 H   0  0  0  0  0  0  0  0  0  0  0  0
   -0.1122   -0.1994    0.2658 C   0  0  1  0  0  0  0  0  0  0  0  0
    0.5635   -0.7260    0.9446 H   0  0  0  0  0  0  0  0  0  0  0  0
    0.4924   -0.2204   -1.1558 C   0  0  0  0  0  0  0  0  0  0  0  0
    1.3172   -0.9316   -1.1829 H   0  0  0  0  0  0  0  0  0  0  0  0
   -0.2666   -0.5492   -1.8641 H   0  0  0  0  0  0  0  0  0  0  0  0
    1.0502    1.1187   -1.6103 C   0  0  0  0  0  0  0  0  0  0  0  0
    2.1298    1.2343   -2.1638 O   0  0  0  0  0  0  0  0  0  0  0  0
    0.3306    2.1904   -1.3821 N   0  0  0  0  0  0  0  0  0  0  0  0
    0.7163    3.0587   -1.7089 H   0  0  0  0  0  0  0  0  0  0  0  0
   -0.5691    2.1199   -0.9456 H   0  0  0  0  0  0  0  0  0  0  0  0
   -0.3126    1.2341    0.8050 C   0  0  0  0  0  0  0  0  0  0  0  0
   -1.2484    1.9199    0.3934 O   0  0  0  0  0  0  0  0  0  0  0  0
    0.5615    1.6875    1.7087 N   0  0  0  0  0  0  0  0  0  0  0  0
    1.3461    1.0849    1.9358 H   0  0  0  0  0  0  0  0  0  0  0  0
    0.5043    3.0121    2.3242 C   0  0  0  0  0  0  0  0  0  0  0  0
   -0.4649    3.1514    2.8080 H   0  0  0  0  0  0  0  0  0  0  0  0
    1.2959    3.1139    3.0678 H   0  0  0  0  0  0  0  0  0  0  0  0
    0.6273    3.7799    1.5584 H   0  0  0  0  0  0  0  0  0  0  0  0
  5  6  2  0  0  0  0
  5  7  1  0  0  0  0
  2  3  1  0  0  0  0
  2  4  1  0  0  0  0
  2  5  1  0  0  0  0
  1  2  1  0  0  0  0
 19 20  2  0  0  0  0
 19 21  1  0  0  0  0
 16 17  1  0  0  0  0
 16 18  1  0  0  0  0
 14 15  2  0  0  0  0
 14 16  1  0  0  0  0
 11 12  1  0  0  0  0
 11 13  1  0  0  0  0
 11 14  1  0  0  0  0
  9 10  1  0  0  0  0
  9 11  1  0  0  0  0
  9 19  1  0  0  0  0
  7  8  1  0  0  0  0
  7  9  1  0  0  0  0
 23 24  1  0  0  0  0
 23 25  1  0  0  0  0
 23 26  1  0  0  0  0
 21 22  1  0  0  0  0
 21 23  1  0  0  0  0
M  END
$$$$
default_name
  -OEChem-02102213163D

 26 25  0     1  0  0  0  0  0999 V2000
   -3.0232   -3.6924    1.0038 H   0  0  0  0  0  0  0  0  0  0  0  0
   -3.0082   -2.6684    0.6318 C   0  0  0  0  0  0  0  0  0  0  0  0
   -3.6332   -2.0414    1.2658 H   0  0  0  0  0  0  0  0  0  0  0  0
   -3.3762   -2.6444   -0.3912 H   0  0  0  0  0  0  0  0  0  0  0  0
   -1.5882   -2.1554    0.6658 C   0  0  0  0  0  0  0  0  0  0  0  0
   -0.6832   -2.8764    1.0638 O   0  0  0  0  0  0  0  0  0  0  0  0
   -1.3952   -0.9084    0.2428 N   0  0  0  0  0  0  0  0  0  0  0  0
   -2.1972   -0.3644   -0.0422 H   0  0  0  0  0  0  0  0  0  0  0  0
   -0.1122   -0.1994    0.2658 C   0  0  1  0  0  0  0  0  0  0  0  0
    0.5635   -0.7260    0.9446 H   0  0  0  0  0  0  0  0  0  0  0  0
    0.4924   -0.2204   -1.1558 C   0  0  0  0  0  0  0  0  0  0  0  0
    1.3172   -0.9316   -1.1829 H   0  0  0  0  0  0  0  0  0  0  0  0
   -0.2666   -0.5492   -1.8641 H   0  0  0  0  0  0  0  0  0  0  0  0
    1.0502    1.1187   -1.6103 C   0  0  0  0  0  0  0  0  0  0  0  0
    1.9841    1.2193   -2.3869 O   0  0  0  0  0  0  0  0  0  0  0  0
    0.4978    2.2062   -1.1302 N   0  0  0  0  0  0  0  0  0  0  0  0
    0.8755    3.0763   -1.4617 H   0  0  0  0  0  0  0  0  0  0  0  0
   -0.2838    2.1506   -0.5049 H   0  0  0  0  0  0  0  0  0  0  0  0
   -0.3126    1.2341    0.8050 C   0  0  0  0  0  0  0  0  0  0  0  0
   -1.2484    1.9199    0.3934 O   0  0  0  0  0  0  0  0  0  0  0  0
    0.5615    1.6875    1.7087 N   0  0  0  0  0  0  0  0  0  0  0  0
    1.3461    1.0849    1.9358 H   0  0  0  0  0  0  0  0  0  0  0  0
    0.5043    3.0121    2.3242 C   0  0  0  0  0  0  0  0  0  0  0  0
   -0.4649    3.1514    2.8080 H   0  0  0  0  0  0  0  0  0  0  0  0
    1.2959    3.1139    3.0678 H   0  0  0  0  0  0  0  0  0  0  0  0
    0.6273    3.7799    1.5584 H   0  0  0  0  0  0  0  0  0  0  0  0
  5  6  2  0  0  0  0
  5  7  1  0  0  0  0
  2  3  1  0  0  0  0
  2  4  1  0  0  0  0
  2  5  1  0  0  0  0
  1  2  1  0  0  0  0
 19 20  2  0  0  0  0
 19 21  1  0  0  0  0
 16 17  1  0  0  0  0
 16 18  1  0  0  0  0
 14 15  2  0  0  0  0
 14 16  1  0  0  0  0
 11 12  1  0  0  0  0
 11 13  1  0  0  0  0
 11 14  1  0  0  0  0
  9 10  1  0  0  0  0
  9 11  1  0  0  0  0
  9 19  1  0  0  0  0
  7  8  1  0  0  0  0
  7  9  1  0  0  0  0
 23 24  1  0  0  0  0
 23 25  1  0  0  0  0
 23 26  1  0  0  0  0
 21 22  1  0  0  0  0
 21 23  1  0  0  0  0
M  END
$$$$
default_name
  -OEChem-02102213163D

 26 25  0     1  0  0  0  0  0999 V2000
   -3.0232   -3.6924    1.0038 H   0  0  0  0  0  0  0  0  0  0  0  0
   -3.0082   -2.6684    0.6318 C   0  0  0  0  0  0  0  0  0  0  0  0
   -3.6332   -2.0414    1.2658 H   0  0  0  0  0  0  0  0  0  0  0  0
   -3.3762   -2.6444   -0.3912 H   0  0  0  0  0  0  0  0  0  0  0  0
   -1.5882   -2.1554    0.6658 C   0  0  0  0  0  0  0  0  0  0  0  0
   -0.6832   -2.8764    1.0638 O   0  0  0  0  0  0  0  0  0  0  0  0
   -1.3952   -0.9084    0.2428 N   0  0  0  0  0  0  0  0  0  0  0  0
   -2.1972   -0.3644   -0.0422 H   0  0  0  0  0  0  0  0  0  0  0  0
   -0.1122   -0.1994    0.2658 C   0  0  1  0  0  0  0  0  0  0  0  0
    0.5635   -0.7260    0.9446 H   0  0  0  0  0  0  0  0  0  0  0  0
    0.4924   -0.2204   -1.1558 C   0  0  0  0  0  0  0  0  0  0  0  0
    1.3172   -0.9316   -1.1829 H   0  0  0  0  0  0  0  0  0  0  0  0
   -0.2666   -0.5492   -1.8641 H   0  0  0  0  0  0  0  0  0  0  0  0
    1.0502    1.1187   -1.6103 C   0  0  0  0  0  0  0  0  0  0  0  0
    1.7913    1.2373   -2.5705 O   0  0  0  0  0  0  0  0  0  0  0  0
    0.7178    2.1847   -0.9236 N   0  0  0  0  0  0  0  0  0  0  0  0
    1.0871    3.0575   -1.2575 H   0  0  0  0  0  0  0  0  0  0  0  0
    0.0946    2.1164   -0.1413 H   0  0  0  0  0  0  0  0  0  0  0  0
   -0.3126    1.2341    0.8050 C   0  0  0  0  0  0  0  0  0  0  0  0
   -1.2484    1.9199    0.3934 O   0  0  0  0  0  0  0  0  0  0  0  0
    0.5615    1.6875    1.7087 N   0  0  0  0  0  0  0  0  0  0  0  0
    1.3461    1.0849    1.9358 H   0  0  0  0  0  0  0  0  0  0  0  0
    0.5043    3.0121    2.3242 C   0  0  0  0  0  0  0  0  0  0  0  0
   -0.4649    3.1514    2.8080 H   0  0  0  0  0  0  0  0  0  0  0  0
    1.2959    3.1139    3.0678 H   0  0  0  0  0  0  0  0  0  0  0  0
    0.6273    3.7799    1.5584 H   0  0  0  0  0  0  0  0  0  0  0  0
  5  6  2  0  0  0  0
  5  7  1  0  0  0  0
  2  3  1  0  0  0  0
  2  4  1  0  0  0  0
  2  5  1  0  0  0  0
  1  2  1  0  0  0  0
 19 20  2  0  0  0  0
 19 21  1  0  0  0  0
 16 17  1  0  0  0  0
 16 18  1  0  0  0  0
 14 15  2  0  0  0  0
 14 16  1  0  0  0  0
 11 12  1  0  0  0  0
 11 13  1  0  0  0  0
 11 14  1  0  0  0  0
  9 10  1  0  0  0  0
  9 11  1  0  0  0  0
  9 19  1  0  0  0  0
  7  8  1  0  0  0  0
  7  9  1  0  0  0  0
 23 24  1  0  0  0  0
 23 25  1  0  0  0  0
 23 26  1  0  0  0  0
 21 22  1  0  0  0  0
 21 23  1  0  0  0  0
M  END
$$$$
default_name
  -OEChem-02102213163D

 26 25  0     1  0  0  0  0  0999 V2000
   -3.0232   -3.6924    1.0038 H   0  0  0  0  0  0  0  0  0  0  0  0
   -3.0082   -2.6684    0.6318 C   0  0  0  0  0  0  0  0  0  0  0  0
   -3.6332   -2.0414    1.2658 H   0  0  0  0  0  0  0  0  0  0  0  0
   -3.3762   -2.6444   -0.3912 H   0  0  0  0  0  0  0  0  0  0  0  0
   -1.5882   -2.1554    0.6658 C   0  0  0  0  0  0  0  0  0  0  0  0
   -0.6832   -2.8764    1.0638 O   0  0  0  0  0  0  0  0  0  0  0  0
   -1.3952   -0.9084    0.2428 N   0  0  0  0  0  0  0  0  0  0  0  0
   -2.1972   -0.3644   -0.0422 H   0  0  0  0  0  0  0  0  0  0  0  0
   -0.1122   -0.1994    0.2658 C   0  0  1  0  0  0  0  0  0  0  0  0
    0.5635   -0.7260    0.9446 H   0  0  0  0  0  0  0  0  0  0  0  0
    0.4924   -0.2204   -1.1558 C   0  0  0  0  0  0  0  0  0  0  0  0
    1.1246   -1.1012   -1.2623 H   0  0  0  0  0  0  0  0  0  0  0  0
   -0.3118   -0.2857   -1.8872 H   0  0  0  0  0  0  0  0  0  0  0  0
    1.3600    0.9860   -1.4766 C   0  0  0  0  0  0  0  0  0  0  0  0
    1.9168    1.1361   -2.5502 O   0  0  0  0  0  0  0  0  0  0  0  0
    1.5146    1.8937   -0.5436 N   0  0  0  0  0  0  0  0  0  0  0  0
    2.0786    2.6880   -0.7899 H   0  0  0  0  0  0  0  0  0  0  0  0
    1.0519    1.8030    0.3411 H   0  0  0  0  0  0  0  0  0  0  0  0
   -0.3126    1.2341    0.8050 C   0  0  0  0  0  0  0  0  0  0  0  0
   -1.2484    1.9199    0.3934 O   0  0  0  0  0  0  0  0  0  0  0  0
    0.5615    1.6875    1.7087 N   0  0  0  0  0  0  0  0  0  0  0  0
    1.3461    1.0849    1.9358 H   0  0  0  0  0  0  0  0  0  0  0  0
    0.5043    3.0121    2.3242 C   0  0  0  0  0  0  0  0  0  0  0  0
   -0.4649    3.1514    2.8080 H   0  0  0  0  0  0  0  0  0  0  0  0
    1.2959    3.1139    3.0678 H   0  0  0  0  0  0  0  0  0  0  0  0
    0.6273    3.7799    1.5584 H   0  0  0  0  0  0  0  0  0  0  0  0
  5  6  2  0  0  0  0
  5  7  1  0  0  0  0
  2  3  1  0  0  0  0
  2  4  1  0  0  0  0
  2  5  1  0  0  0  0
  1  2  1  0  0  0  0
 19 20  2  0  0  0  0
 19 21  1  0  0  0  0
 16 17  1  0  0  0  0
 16 18  1  0  0  0  0
 14 15  2  0  0  0  0
 14 16  1  0  0  0  0
 11 12  1  0  0  0  0
 11 13  1  0  0  0  0
 11 14  1  0  0  0  0
  9 10  1  0  0  0  0
  9 11  1  0  0  0  0
  9 19  1  0  0  0  0
  7  8  1  0  0  0  0
  7  9  1  0  0  0  0
 23 24  1  0  0  0  0
 23 25  1  0  0  0  0
 23 26  1  0  0  0  0
 21 22  1  0  0  0  0
 21 23  1  0  0  0  0
M  END
$$$$
default_name
  -OEChem-02102213163D

 26 25  0     1  0  0  0  0  0999 V2000
   -3.0232   -3.6924    1.0038 H   0  0  0  0  0  0  0  0  0  0  0  0
   -3.0082   -2.6684    0.6318 C   0  0  0  0  0  0  0  0  0  0  0  0
   -3.6332   -2.0414    1.2658 H   0  0  0  0  0  0  0  0  0  0  0  0
   -3.3762   -2.6444   -0.3912 H   0  0  0  0  0  0  0  0  0  0  0  0
   -1.5882   -2.1554    0.6658 C   0  0  0  0  0  0  0  0  0  0  0  0
   -0.6832   -2.8764    1.0638 O   0  0  0  0  0  0  0  0  0  0  0  0
   -1.3952   -0.9084    0.2428 N   0  0  0  0  0  0  0  0  0  0  0  0
   -2.1972   -0.3644   -0.0422 H   0  0  0  0  0  0  0  0  0  0  0  0
   -0.1122   -0.1994    0.2658 C   0  0  1  0  0  0  0  0  0  0  0  0
    0.5635   -0.7260    0.9446 H   0  0  0  0  0  0  0  0  0  0  0  0
    0.4924   -0.2204   -1.1558 C   0  0  0  0  0  0  0  0  0  0  0  0
    1.1246   -1.1012   -1.2623 H   0  0  0  0  0  0  0  0  0  0  0  0
   -0.3118   -0.2857   -1.8872 H   0  0  0  0  0  0  0  0  0  0  0  0
    1.3600    0.9860   -1.4766 C   0  0  0  0  0  0  0  0  0  0  0  0
    1.6984    1.2771   -2.6106 O   0  0  0  0  0  0  0  0  0  0  0  0
    1.7624    1.7331   -0.4775 N   0  0  0  0  0  0  0  0  0  0  0  0
    2.3196    2.5330   -0.7212 H   0  0  0  0  0  0  0  0  0  0  0  0
    1.4821    1.5259    0.4625 H   0  0  0  0  0  0  0  0  0  0  0  0
   -0.3126    1.2341    0.8050 C   0  0  0  0  0  0  0  0  0  0  0  0
   -1.2484    1.9199    0.3934 O   0  0  0  0  0  0  0  0  0  0  0  0
    0.5615    1.6875    1.7087 N   0  0  0  0  0  0  0  0  0  0  0  0
    1.3461    1.0849    1.9358 H   0  0  0  0  0  0  0  0  0  0  0  0
    0.5043    3.0121    2.3242 C   0  0  0  0  0  0  0  0  0  0  0  0
   -0.4649    3.1514    2.8080 H   0  0  0  0  0  0  0  0  0  0  0  0
    1.2959    3.1139    3.0678 H   0  0  0  0  0  0  0  0  0  0  0  0
    0.6273    3.7799    1.5584 H   0  0  0  0  0  0  0  0  0  0  0  0
  5  6  2  0  0  0  0
  5  7  1  0  0  0  0
  2  3  1  0  0  0  0
  2  4  1  0  0  0  0
  2  5  1  0  0  0  0
  1  2  1  0  0  0  0
 19 20  2  0  0  0  0
 19 21  1  0  0  0  0
 16 17  1  0  0  0  0
 16 18  1  0  0  0  0
 14 15  2  0  0  0  0
 14 16  1  0  0  0  0
 11 12  1  0  0  0  0
 11 13  1  0  0  0  0
 11 14  1  0  0  0  0
  9 10  1  0  0  0  0
  9 11  1  0  0  0  0
  9 19  1  0  0  0  0
  7  8  1  0  0  0  0
  7  9  1  0  0  0  0
 23 24  1  0  0  0  0
 23 25  1  0  0  0  0
 23 26  1  0  0  0  0
 21 22  1  0  0  0  0
 21 23  1  0  0  0  0
M  END
$$$$
default_name
  -OEChem-02102213163D

 26 25  0     1  0  0  0  0  0999 V2000
   -3.0232   -3.6924    1.0038 H   0  0  0  0  0  0  0  0  0  0  0  0
   -3.0082   -2.6684    0.6318 C   0  0  0  0  0  0  0  0  0  0  0  0
   -3.6332   -2.0414    1.2658 H   0  0  0  0  0  0  0  0  0  0  0  0
   -3.3762   -2.6444   -0.3912 H   0  0  0  0  0  0  0  0  0  0  0  0
   -1.5882   -2.1554    0.6658 C   0  0  0  0  0  0  0  0  0  0  0  0
   -0.6832   -2.8764    1.0638 O   0  0  0  0  0  0  0  0  0  0  0  0
   -1.3952   -0.9084    0.2428 N   0  0  0  0  0  0  0  0  0  0  0  0
   -2.1972   -0.3644   -0.0422 H   0  0  0  0  0  0  0  0  0  0  0  0
   -0.1122   -0.1994    0.2658 C   0  0  1  0  0  0  0  0  0  0  0  0
    0.5635   -0.7260    0.9446 H   0  0  0  0  0  0  0  0  0  0  0  0
    0.4924   -0.2204   -1.1558 C   0  0  0  0  0  0  0  0  0  0  0  0
    1.1246   -1.1012   -1.2623 H   0  0  0  0  0  0  0  0  0  0  0  0
   -0.3118   -0.2857   -1.8872 H   0  0  0  0  0  0  0  0  0  0  0  0
    1.3600    0.9860   -1.4766 C   0  0  0  0  0  0  0  0  0  0  0  0
    1.4827    1.4341   -2.6033 O   0  0  0  0  0  0  0  0  0  0  0  0
    2.0066    1.5546   -0.4882 N   0  0  0  0  0  0  0  0  0  0  0  0
    2.5579    2.3600   -0.7271 H   0  0  0  0  0  0  0  0  0  0  0  0
    1.9074    1.2169    0.4504 H   0  0  0  0  0  0  0  0  0  0  0  0
   -0.3126    1.2341    0.8050 C   0  0  0  0  0  0  0  0  0  0  0  0
   -1.2484    1.9199    0.3934 O   0  0  0  0  0  0  0  0  0  0  0  0
    0.5615    1.6875    1.7087 N   0  0  0  0  0  0  0  0  0  0  0  0
    1.3461    1.0849    1.9358 H   0  0  0  0  0  0  0  0  0  0  0  0
    0.5043    3.0121    2.3242 C   0  0  0  0  0  0  0  0  0  0  0  0
   -0.4649    3.1514    2.8080 H   0  0  0  0  0  0  0  0  0  0  0  0
    1.2959    3.1139    3.0678 H   0  0  0  0  0  0  0  0  0  0  0  0
    0.6273    3.7799    1.5584 H   0  0  0  0  0  0  0  0  0  0  0  0
  5  6  2  0  0  0  0
  5  7  1  0  0  0  0
  2  3  1  0  0  0  0
  2  4  1  0  0  0  0
  2  5  1  0  0  0  0
  1  2  1  0  0  0  0
 19 20  2  0  0  0  0
 19 21  1  0  0  0  0
 16 17  1  0  0  0  0
 16 18  1  0  0  0  0
 14 15  2  0  0  0  0
 14 16  1  0  0  0  0
 11 12  1  0  0  0  0
 11 13  1  0  0  0  0
 11 14  1  0  0  0  0
  9 10  1  0  0  0  0
  9 11  1  0  0  0  0
  9 19  1  0  0  0  0
  7  8  1  0  0  0  0
  7  9  1  0  0  0  0
 23 24  1  0  0  0  0
 23 25  1  0  0  0  0
 23 26  1  0  0  0  0
 21 22  1  0  0  0  0
 21 23  1  0  0  0  0
M  END
$$$$
default_name
  -OEChem-02102213163D

 26 25  0     1  0  0  0  0  0999 V2000
   -3.0232   -3.6924    1.0038 H   0  0  0  0  0  0  0  0  0  0  0  0
   -3.0082   -2.6684    0.6318 C   0  0  0  0  0  0  0  0  0  0  0  0
   -3.6332   -2.0414    1.2658 H   0  0  0  0  0  0  0  0  0  0  0  0
   -3.3762   -2.6444   -0.3912 H   0  0  0  0  0  0  0  0  0  0  0  0
   -1.5882   -2.1554    0.6658 C   0  0  0  0  0  0  0  0  0  0  0  0
   -0.6832   -2.8764    1.0638 O   0  0  0  0  0  0  0  0  0  0  0  0
   -1.3952   -0.9084    0.2428 N   0  0  0  0  0  0  0  0  0  0  0  0
   -2.1972   -0.3644   -0.0422 H   0  0  0  0  0  0  0  0  0  0  0  0
   -0.1122   -0.1994    0.2658 C   0  0  1  0  0  0  0  0  0  0  0  0
    0.5635   -0.7260    0.9446 H   0  0  0  0  0  0  0  0  0  0  0  0
    0.4924   -0.2204   -1.1558 C   0  0  0  0  0  0  0  0  0  0  0  0
    1.1246   -1.1012   -1.2623 H   0  0  0  0  0  0  0  0  0  0  0  0
   -0.3118   -0.2857   -1.8872 H   0  0  0  0  0  0  0  0  0  0  0  0
    1.3600    0.9860   -1.4766 C   0  0  0  0  0  0  0  0  0  0  0  0
    1.2845    1.5965   -2.5287 O   0  0  0  0  0  0  0  0  0  0  0  0
    2.2305    1.3705   -0.5751 N   0  0  0  0  0  0  0  0  0  0  0  0
    2.7775    2.1808   -0.8074 H   0  0  0  0  0  0  0  0  0  0  0  0
    2.2989    0.8969    0.3058 H   0  0  0  0  0  0  0  0  0  0  0  0
   -0.3126    1.2341    0.8050 C   0  0  0  0  0  0  0  0  0  0  0  0
   -1.2484    1.9199    0.3934 O   0  0  0  0  0  0  0  0  0  0  0  0
    0.5615    1.6875    1.7087 N   0  0  0  0  0  0  0  0  0  0  0  0
    1.3461    1.0849    1.9358 H   0  0  0  0  0  0  0  0  0  0  0  0
    0.5043    3.0121    2.3242 C   0  0  0  0  0  0  0  0  0  0  0  0
   -0.4649    3.1514    2.8080 H   0  0  0  0  0  0  0  0  0  0  0  0
    1.2959    3.1139    3.0678 H   0  0  0  0  0  0  0  0  0  0  0  0
    0.6273    3.7799    1.5584 H   0  0  0  0  0  0  0  0  0  0  0  0
  5  6  2  0  0  0  0
  5  7  1  0  0  0  0
  2  3  1  0  0  0  0
  2  4  1  0  0  0  0
  2  5  1  0  0  0  0
  1  2  1  0  0  0  0
 19 20  2  0  0  0  0
 19 21  1  0  0  0  0
 16 17  1  0  0  0  0
 16 18  1  0  0  0  0
 14 15  2  0  0  0  0
 14 16  1  0  0  0  0
 11 12  1  0  0  0  0
 11 13  1  0  0  0  0
 11 14  1  0  0  0  0
  9 10  1  0  0  0  0
  9 11  1  0  0  0  0
  9 19  1  0  0  0  0
  7  8  1  0  0  0  0
  7  9  1  0  0  0  0
 23 24  1  0  0  0  0
 23 25  1  0  0  0  0
 23 26  1  0  0  0  0
 21 22  1  0  0  0  0
 21 23  1  0  0  0  0
M  END
$$$$
default_name
  -OEChem-02102213163D

 26 25  0     1  0  0  0  0  0999 V2000
   -3.0232   -3.6924    1.0038 H   0  0  0  0  0  0  0  0  0  0  0  0
   -3.0082   -2.6684    0.6318 C   0  0  0  0  0  0  0  0  0  0  0  0
   -3.6332   -2.0414    1.2658 H   0  0  0  0  0  0  0  0  0  0  0  0
   -3.3762   -2.6444   -0.3912 H   0  0  0  0  0  0  0  0  0  0  0  0
   -1.5882   -2.1554    0.6658 C   0  0  0  0  0  0  0  0  0  0  0  0
   -0.6832   -2.8764    1.0638 O   0  0  0  0  0  0  0  0  0  0  0  0
   -1.3952   -0.9084    0.2428 N   0  0  0  0  0  0  0  0  0  0  0  0
   -2.1972   -0.3644   -0.0422 H   0  0  0  0  0  0  0  0  0  0  0  0
   -0.1122   -0.1994    0.2658 C   0  0  1  0  0  0  0  0  0  0  0  0
    0.5635   -0.7260    0.9446 H   0  0  0  0  0  0  0  0  0  0  0  0
    0.4924   -0.2204   -1.1558 C   0  0  0  0  0  0  0  0  0  0  0  0
    1.1246   -1.1012   -1.2623 H   0  0  0  0  0  0  0  0  0  0  0  0
   -0.3118   -0.2857   -1.8872 H   0  0  0  0  0  0  0  0  0  0  0  0
    1.3600    0.9860   -1.4766 C   0  0  0  0  0  0  0  0  0  0  0  0
    1.1172    1.7531   -2.3919 O   0  0  0  0  0  0  0  0  0  0  0  0
    2.4189    1.1933   -0.7323 N   0  0  0  0  0  0  0  0  0  0  0  0
    2.9634    2.0075   -0.9565 H   0  0  0  0  0  0  0  0  0  0  0  0
    2.6299    0.5878    0.0384 H   0  0  0  0  0  0  0  0  0  0  0  0
   -0.3126    1.2341    0.8050 C   0  0  0  0  0  0  0  0  0  0  0  0
   -1.2484    1.9199    0.3934 O   0  0  0  0  0  0  0  0  0  0  0  0
    0.5615    1.6875    1.7087 N   0  0  0  0  0  0  0  0  0  0  0  0
    1.3461    1.0849    1.9358 H   0  0  0  0  0  0  0  0  0  0  0  0
    0.5043    3.0121    2.3242 C   0  0  0  0  0  0  0  0  0  0  0  0
   -0.4649    3.1514    2.8080 H   0  0  0  0  0  0  0  0  0  0  0  0
    1.2959    3.1139    3.0678 H   0  0  0  0  0  0  0  0  0  0  0  0
    0.6273    3.7799    1.5584 H   0  0  0  0  0  0  0  0  0  0  0  0
  5  6  2  0  0  0  0
  5  7  1  0  0  0  0
  2  3  1  0  0  0  0
  2  4  1  0  0  0  0
  2  5  1  0  0  0  0
  1  2  1  0  0  0  0
 19 20  2  0  0  0  0
 19 21  1  0  0  0  0
 16 17  1  0  0  0  0
 16 18  1  0  0  0  0
 14 15  2  0  0  0  0
 14 16  1  0  0  0  0
 11 12  1  0  0  0  0
 11 13  1  0  0  0  0
 11 14  1  0  0  0  0
  9 10  1  0  0  0  0
  9 11  1  0  0  0  0
  9 19  1  0  0  0  0
  7  8  1  0  0  0  0
  7  9  1  0  0  0  0
 23 24  1  0  0  0  0
 23 25  1  0  0  0  0
 23 26  1  0  0  0  0
 21 22  1  0  0  0  0
 21 23  1  0  0  0  0
M  END
$$$$
default_name
  -OEChem-02102213163D

 26 25  0     1  0  0  0  0  0999 V2000
   -3.0232   -3.6924    1.0038 H   0  0  0  0  0  0  0  0  0  0  0  0
   -3.0082   -2.6684    0.6318 C   0  0  0  0  0  0  0  0  0  0  0  0
   -3.6332   -2.0414    1.2658 H   0  0  0  0  0  0  0  0  0  0  0  0
   -3.3762   -2.6444   -0.3912 H   0  0  0  0  0  0  0  0  0  0  0  0
   -1.5882   -2.1554    0.6658 C   0  0  0  0  0  0  0  0  0  0  0  0
   -0.6832   -2.8764    1.0638 O   0  0  0  0  0  0  0  0  0  0  0  0
   -1.3952   -0.9084    0.2428 N   0  0  0  0  0  0  0  0  0  0  0  0
   -2.1972   -0.3644   -0.0422 H   0  0  0  0  0  0  0  0  0  0  0  0
   -0.1122   -0.1994    0.2658 C   0  0  1  0  0  0  0  0  0  0  0  0
    0.5635   -0.7260    0.9446 H   0  0  0  0  0  0  0  0  0  0  0  0
    0.4924   -0.2204   -1.1558 C   0  0  0  0  0  0  0  0  0  0  0  0
    1.1246   -1.1012   -1.2623 H   0  0  0  0  0  0  0  0  0  0  0  0
   -0.3118   -0.2857   -1.8872 H   0  0  0  0  0  0  0  0  0  0  0  0
    1.3600    0.9860   -1.4766 C   0  0  0  0  0  0  0  0  0  0  0  0
    0.9923    1.8934   -2.2023 O   0  0  0  0  0  0  0  0  0  0  0  0
    2.5589    1.0350   -0.9489 N   0  0  0  0  0  0  0  0  0  0  0  0
    3.1028    1.8520   -1.1643 H   0  0  0  0  0  0  0  0  0  0  0  0
    2.8778    0.3106   -0.3335 H   0  0  0  0  0  0  0  0  0  0  0  0
   -0.3126    1.2341    0.8050 C   0  0  0  0  0  0  0  0  0  0  0  0
   -1.2484    1.9199    0.3934 O   0  0  0  0  0  0  0  0  0  0  0  0
    0.5615    1.6875    1.7087 N   0  0  0  0  0  0  0  0  0  0  0  0
    1.3461    1.0849    1.9358 H   0  0  0  0  0  0  0  0  0  0  0  0
    0.5043    3.0121    2.3242 C   0  0  0  0  0  0  0  0  0  0  0  0
   -0.4649    3.1514    2.8080 H   0  0  0  0  0  0  0  0  0  0  0  0
    1.2959    3.1139    3.0678 H   0  0  0  0  0  0  0  0  0  0  0  0
    0.6273    3.7799    1.5584 H   0  0  0  0  0  0  0  0  0  0  0  0
  5  6  2  0  0  0  0
  5  7  1  0  0  0  0
  2  3  1  0  0  0  0
  2  4  1  0  0  0  0
  2  5  1  0  0  0  0
  1  2  1  0  0  0  0
 19 20  2  0  0  0  0
 19 21  1  0  0  0  0
 16 17  1  0  0  0  0
 16 18  1  0  0  0  0
 14 15  2  0  0  0  0
 14 16  1  0  0  0  0
 11 12  1  0  0  0  0
 11 13  1  0  0  0  0
 11 14  1  0  0  0  0
  9 10  1  0  0  0  0
  9 11  1  0  0  0  0
  9 19  1  0  0  0  0
  7  8  1  0  0  0  0
  7  9  1  0  0  0  0
 23 24  1  0  0  0  0
 23 25  1  0  0  0  0
 23 26  1  0  0  0  0
 21 22  1  0  0  0  0
 21 23  1  0  0  0  0
M  END
$$$$
default_name
  -OEChem-02102213163D

 26 25  0     1  0  0  0  0  0999 V2000
   -3.0232   -3.6924    1.0038 H   0  0  0  0  0  0  0  0  0  0  0  0
   -3.0082   -2.6684    0.6318 C   0  0  0  0  0  0  0  0  0  0  0  0
   -3.6332   -2.0414    1.2658 H   0  0  0  0  0  0  0  0  0  0  0  0
   -3.3762   -2.6444   -0.3912 H   0  0  0  0  0  0  0  0  0  0  0  0
   -1.5882   -2.1554    0.6658 C   0  0  0  0  0  0  0  0  0  0  0  0
   -0.6832   -2.8764    1.0638 O   0  0  0  0  0  0  0  0  0  0  0  0
   -1.3952   -0.9084    0.2428 N   0  0  0  0  0  0  0  0  0  0  0  0
   -2.1972   -0.3644   -0.0422 H   0  0  0  0  0  0  0  0  0  0  0  0
   -0.1122   -0.1994    0.2658 C   0  0  1  0  0  0  0  0  0  0  0  0
    0.5635   -0.7260    0.9446 H   0  0  0  0  0  0  0  0  0  0  0  0
    0.4924   -0.2204   -1.1558 C   0  0  0  0  0  0  0  0  0  0  0  0
    1.1246   -1.1012   -1.2623 H   0  0  0  0  0  0  0  0  0  0  0  0
   -0.3118   -0.2857   -1.8872 H   0  0  0  0  0  0  0  0  0  0  0  0
    1.3600    0.9860   -1.4766 C   0  0  0  0  0  0  0  0  0  0  0  0
    0.9182    2.0077   -1.9728 O   0  0  0  0  0  0  0  0  0  0  0  0
    2.6410    0.9064   -1.2103 N   0  0  0  0  0  0  0  0  0  0  0  0
    3.1863    1.7249   -1.4166 H   0  0  0  0  0  0  0  0  0  0  0  0
    3.0257    0.0843   -0.7846 H   0  0  0  0  0  0  0  0  0  0  0  0
   -0.3126    1.2341    0.8050 C   0  0  0  0  0  0  0  0  0  0  0  0
   -1.2484    1.9199    0.3934 O   0  0  0  0  0  0  0  0  0  0  0  0
    0.5615    1.6875    1.7087 N   0  0  0  0  0  0  0  0  0  0  0  0
    1.3461    1.0849    1.9358 H   0  0  0  0  0  0  0  0  0  0  0  0
    0.5043    3.0121    2.3242 C   0  0  0  0  0  0  0  0  0  0  0  0
   -0.4649    3.1514    2.8080 H   0  0  0  0  0  0  0  0  0  0  0  0
    1.2959    3.1139    3.0678 H   0  0  0  0  0  0  0  0  0  0  0  0
    0.6273    3.7799    1.5584 H   0  0  0  0  0  0  0  0  0  0  0  0
  5  6  2  0  0  0  0
  5  7  1  0  0  0  0
  2  3  1  0  0  0  0
  2  4  1  0  0  0  0
  2  5  1  0  0  0  0
  1  2  1  0  0  0  0
 19 20  2  0  0  0  0
 19 21  1  0  0  0  0
 16 17  1  0  0  0  0
 16 18  1  0  0  0  0
 14 15  2  0  0  0  0
 14 16  1  0  0  0  0
 11 12  1  0  0  0  0
 11 13  1  0  0  0  0
 11 14  1  0  0  0  0
  9 10  1  0  0  0  0
  9 11  1  0  0  0  0
  9 19  1  0  0  0  0
  7  8  1  0  0  0  0
  7  9  1  0  0  0  0
 23 24  1  0  0  0  0
 23 25  1  0  0  0  0
 23 26  1  0  0  0  0
 21 22  1  0  0  0  0
 21 23  1  0  0  0  0
M  END
$$$$
default_name
  -OEChem-02102213163D

 26 25  0     1  0  0  0  0  0999 V2000
   -3.0232   -3.6924    1.0038 H   0  0  0  0  0  0  0  0  0  0  0  0
   -3.0082   -2.6684    0.6318 C   0  0  0  0  0  0  0  0  0  0  0  0
   -3.6332   -2.0414    1.2658 H   0  0  0  0  0  0  0  0  0  0  0  0
   -3.3762   -2.6444   -0.3912 H   0  0  0  0  0  0  0  0  0  0  0  0
   -1.5882   -2.1554    0.6658 C   0  0  0  0  0  0  0  0  0  0  0  0
   -0.6832   -2.8764    1.0638 O   0  0  0  0  0  0  0  0  0  0  0  0
   -1.3952   -0.9084    0.2428 N   0  0  0  0  0  0  0  0  0  0  0  0
   -2.1972   -0.3644   -0.0422 H   0  0  0  0  0  0  0  0  0  0  0  0
   -0.1122   -0.1994    0.2658 C   0  0  1  0  0  0  0  0  0  0  0  0
    0.5635   -0.7260    0.9446 H   0  0  0  0  0  0  0  0  0  0  0  0
    0.4924   -0.2204   -1.1558 C   0  0  0  0  0  0  0  0  0  0  0  0
    1.1246   -1.1012   -1.2623 H   0  0  0  0  0  0  0  0  0  0  0  0
   -0.3118   -0.2857   -1.8872 H   0  0  0  0  0  0  0  0  0  0  0  0
    1.3600    0.9860   -1.4766 C   0  0  0  0  0  0  0  0  0  0  0  0
    0.9000    2.0882   -1.7190 O   0  0  0  0  0  0  0  0  0  0  0  0
    2.6596    0.8164   -1.4987 N   0  0  0  0  0  0  0  0  0  0  0  0
    3.2081    1.6348   -1.6962 H   0  0  0  0  0  0  0  0  0  0  0  0
    3.0636   -0.0757   -1.2842 H   0  0  0  0  0  0  0  0  0  0  0  0
   -0.3126    1.2341    0.8050 C   0  0  0  0  0  0  0  0  0  0  0  0
   -1.2484    1.9199    0.3934 O   0  0  0  0  0  0  0  0  0  0  0  0
    0.5615    1.6875    1.7087 N   0  0  0  0  0  0  0  0  0  0  0  0
    1.3461    1.0849    1.9358 H   0  0  0  0  0  0  0  0  0  0  0  0
    0.5043    3.0121    2.3242 C   0  0  0  0  0  0  0  0  0  0  0  0
   -0.4649    3.1514    2.8080 H   0  0  0  0  0  0  0  0  0  0  0  0
    1.2959    3.1139    3.0678 H   0  0  0  0  0  0  0  0  0  0  0  0
    0.6273    3.7799    1.5584 H   0  0  0  0  0  0  0  0  0  0  0  0
  5  6  2  0  0  0  0
  5  7  1  0  0  0  0
  2  3  1  0  0  0  0
  2  4  1  0  0  0  0
  2  5  1  0  0  0  0
  1  2  1  0  0  0  0
 19 20  2  0  0  0  0
 19 21  1  0  0  0  0
 16 17  1  0  0  0  0
 16 18  1  0  0  0  0
 14 15  2  0  0  0  0
 14 16  1  0  0  0  0
 11 12  1  0  0  0  0
 11 13  1  0  0  0  0
 11 14  1  0  0  0  0
  9 10  1  0  0  0  0
  9 11  1  0  0  0  0
  9 19  1  0  0  0  0
  7  8  1  0  0  0  0
  7  9  1  0  0  0  0
 23 24  1  0  0  0  0
 23 25  1  0  0  0  0
 23 26  1  0  0  0  0
 21 22  1  0  0  0  0
 21 23  1  0  0  0  0
M  END
$$$$
default_name
  -OEChem-02102213163D

 26 25  0     1  0  0  0  0  0999 V2000
   -3.0232   -3.6924    1.0038 H   0  0  0  0  0  0  0  0  0  0  0  0
   -3.0082   -2.6684    0.6318 C   0  0  0  0  0  0  0  0  0  0  0  0
   -3.6332   -2.0414    1.2658 H   0  0  0  0  0  0  0  0  0  0  0  0
   -3.3762   -2.6444   -0.3912 H   0  0  0  0  0  0  0  0  0  0  0  0
   -1.5882   -2.1554    0.6658 C   0  0  0  0  0  0  0  0  0  0  0  0
   -0.6832   -2.8764    1.0638 O   0  0  0  0  0  0  0  0  0  0  0  0
   -1.3952   -0.9084    0.2428 N   0  0  0  0  0  0  0  0  0  0  0  0
   -2.1972   -0.3644   -0.0422 H   0  0  0  0  0  0  0  0  0  0  0  0
   -0.1122   -0.1994    0.2658 C   0  0  1  0  0  0  0  0  0  0  0  0
    0.5635   -0.7260    0.9446 H   0  0  0  0  0  0  0  0  0  0  0  0
    0.4924   -0.2204   -1.1558 C   0  0  0  0  0  0  0  0  0  0  0  0
    1.1246   -1.1012   -1.2623 H   0  0  0  0  0  0  0  0  0  0  0  0
   -0.3118   -0.2857   -1.8872 H   0  0  0  0  0  0  0  0  0  0  0  0
    1.3600    0.9860   -1.4766 C   0  0  0  0  0  0  0  0  0  0  0  0
    0.9390    2.1295   -1.4583 O   0  0  0  0  0  0  0  0  0  0  0  0
    2.6134    0.7710   -1.7943 N   0  0  0  0  0  0  0  0  0  0  0  0
    3.1669    1.5879   -1.9841 H   0  0  0  0  0  0  0  0  0  0  0  0
    2.9888   -0.1586   -1.7981 H   0  0  0  0  0  0  0  0  0  0  0  0
   -0.3126    1.2341    0.8050 C   0  0  0  0  0  0  0  0  0  0  0  0
   -1.2484    1.9199    0.3934 O   0  0  0  0  0  0  0  0  0  0  0  0
    0.5615    1.6875    1.7087 N   0  0  0  0  0  0  0  0  0  0  0  0
    1.3461    1.0849    1.9358 H   0  0  0  0  0  0  0  0  0  0  0  0
    0.5043    3.0121    2.3242 C   0  0  0  0  0  0  0  0  0  0  0  0
   -0.4649    3.1514    2.8080 H   0  0  0  0  0  0  0  0  0  0  0  0
    1.2959    3.1139    3.0678 H   0  0  0  0  0  0  0  0  0  0  0  0
    0.6273    3.7799    1.5584 H   0  0  0  0  0  0  0  0  0  0  0  0
  5  6  2  0  0  0  0
  5  7  1  0  0  0  0
  2  3  1  0  0  0  0
  2  4  1  0  0  0  0
  2  5  1  0  0  0  0
  1  2  1  0  0  0  0
 19 20  2  0  0  0  0
 19 21  1  0  0  0  0
 16 17  1  0  0  0  0
 16 18  1  0  0  0  0
 14 15  2  0  0  0  0
 14 16  1  0  0  0  0
 11 12  1  0  0  0  0
 11 13  1  0  0  0  0
 11 14  1  0  0  0  0
  9 10  1  0  0  0  0
  9 11  1  0  0  0  0
  9 19  1  0  0  0  0
  7  8  1  0  0  0  0
  7  9  1  0  0  0  0
 23 24  1  0  0  0  0
 23 25  1  0  0  0  0
 23 26  1  0  0  0  0
 21 22  1  0  0  0  0
 21 23  1  0  0  0  0
M  END
$$$$
default_name
  -OEChem-02102213163D

 26 25  0     1  0  0  0  0  0999 V2000
   -3.0232   -3.6924    1.0038 H   0  0  0  0  0  0  0  0  0  0  0  0
   -3.0082   -2.6684    0.6318 C   0  0  0  0  0  0  0  0  0  0  0  0
   -3.6332   -2.0414    1.2658 H   0  0  0  0  0  0  0  0  0  0  0  0
   -3.3762   -2.6444   -0.3912 H   0  0  0  0  0  0  0  0  0  0  0  0
   -1.5882   -2.1554    0.6658 C   0  0  0  0  0  0  0  0  0  0  0  0
   -0.6832   -2.8764    1.0638 O   0  0  0  0  0  0  0  0  0  0  0  0
   -1.3952   -0.9084    0.2428 N   0  0  0  0  0  0  0  0  0  0  0  0
   -2.1972   -0.3644   -0.0422 H   0  0  0  0  0  0  0  0  0  0  0  0
   -0.1122   -0.1994    0.2658 C   0  0  1  0  0  0  0  0  0  0  0  0
    0.5635   -0.7260    0.9446 H   0  0  0  0  0  0  0  0  0  0  0  0
    0.4924   -0.2204   -1.1558 C   0  0  0  0  0  0  0  0  0  0  0  0
    1.1246   -1.1012   -1.2623 H   0  0  0  0  0  0  0  0  0  0  0  0
   -0.3118   -0.2857   -1.8872 H   0  0  0  0  0  0  0  0  0  0  0  0
    1.3600    0.9860   -1.4766 C   0  0  0  0  0  0  0  0  0  0  0  0
    1.0325    2.1288   -1.2083 O   0  0  0  0  0  0  0  0  0  0  0  0
    2.5056    0.7733   -2.0771 N   0  0  0  0  0  0  0  0  0  0  0  0
    3.0654    1.5873   -2.2607 H   0  0  0  0  0  0  0  0  0  0  0  0
    2.8065   -0.1587   -2.2914 H   0  0  0  0  0  0  0  0  0  0  0  0
   -0.3126    1.2341    0.8050 C   0  0  0  0  0  0  0  0  0  0  0  0
   -1.2484    1.9199    0.3934 O   0  0  0  0  0  0  0  0  0  0  0  0
    0.5615    1.6875    1.7087 N   0  0  0  0  0  0  0  0  0  0  0  0
    1.3461    1.0849    1.9358 H   0  0  0  0  0  0  0  0  0  0  0  0
    0.5043    3.0121    2.3242 C   0  0  0  0  0  0  0  0  0  0  0  0
   -0.4649    3.1514    2.8080 H   0  0  0  0  0  0  0  0  0  0  0  0
    1.2959    3.1139    3.0678 H   0  0  0  0  0  0  0  0  0  0  0  0
    0.6273    3.7799    1.5584 H   0  0  0  0  0  0  0  0  0  0  0  0
  5  6  2  0  0  0  0
  5  7  1  0  0  0  0
  2  3  1  0  0  0  0
  2  4  1  0  0  0  0
  2  5  1  0  0  0  0
  1  2  1  0  0  0  0
 19 20  2  0  0  0  0
 19 21  1  0  0  0  0
 16 17  1  0  0  0  0
 16 18  1  0  0  0  0
 14 15  2  0  0  0  0
 14 16  1  0  0  0  0
 11 12  1  0  0  0  0
 11 13  1  0  0  0  0
 11 14  1  0  0  0  0
  9 10  1  0  0  0  0
  9 11  1  0  0  0  0
  9 19  1  0  0  0  0
  7  8  1  0  0  0  0
  7  9  1  0  0  0  0
 23 24  1  0  0  0  0
 23 25  1  0  0  0  0
 23 26  1  0  0  0  0
 21 22  1  0  0  0  0
 21 23  1  0  0  0  0
M  END
$$$$
default_name
  -OEChem-02102213163D

 26 25  0     1  0  0  0  0  0999 V2000
   -3.0232   -3.6924    1.0038 H   0  0  0  0  0  0  0  0  0  0  0  0
   -3.0082   -2.6684    0.6318 C   0  0  0  0  0  0  0  0  0  0  0  0
   -3.6332   -2.0414    1.2658 H   0  0  0  0  0  0  0  0  0  0  0  0
   -3.3762   -2.6444   -0.3912 H   0  0  0  0  0  0  0  0  0  0  0  0
   -1.5882   -2.1554    0.6658 C   0  0  0  0  0  0  0  0  0  0  0  0
   -0.6832   -2.8764    1.0638 O   0  0  0  0  0  0  0  0  0  0  0  0
   -1.3952   -0.9084    0.2428 N   0  0  0  0  0  0  0  0  0  0  0  0
   -2.1972   -0.3644   -0.0422 H   0  0  0  0  0  0  0  0  0  0  0  0
   -0.1122   -0.1994    0.2658 C   0  0  1  0  0  0  0  0  0  0  0  0
    0.5635   -0.7260    0.9446 H   0  0  0  0  0  0  0  0  0  0  0  0
    0.4924   -0.2204   -1.1558 C   0  0  0  0  0  0  0  0  0  0  0  0
    1.1246   -1.1012   -1.2623 H   0  0  0  0  0  0  0  0  0  0  0  0
   -0.3118   -0.2857   -1.8872 H   0  0  0  0  0  0  0  0  0  0  0  0
    1.3600    0.9860   -1.4766 C   0  0  0  0  0  0  0  0  0  0  0  0
    1.1741    2.0861   -0.9861 O   0  0  0  0  0  0  0  0  0  0  0  0
    2.3435    0.8232   -2.3278 N   0  0  0  0  0  0  0  0  0  0  0  0
    2.9105    1.6332   -2.5071 H   0  0  0  0  0  0  0  0  0  0  0  0
    2.5290   -0.0759   -2.7304 H   0  0  0  0  0  0  0  0  0  0  0  0
   -0.3126    1.2341    0.8050 C   0  0  0  0  0  0  0  0  0  0  0  0
   -1.2484    1.9199    0.3934 O   0  0  0  0  0  0  0  0  0  0  0  0
    0.5615    1.6875    1.7087 N   0  0  0  0  0  0  0  0  0  0  0  0
    1.3461    1.0849    1.9358 H   0  0  0  0  0  0  0  0  0  0  0  0
    0.5043    3.0121    2.3242 C   0  0  0  0  0  0  0  0  0  0  0  0
   -0.4649    3.1514    2.8080 H   0  0  0  0  0  0  0  0  0  0  0  0
    1.2959    3.1139    3.0678 H   0  0  0  0  0  0  0  0  0  0  0  0
    0.6273    3.7799    1.5584 H   0  0  0  0  0  0  0  0  0  0  0  0
  5  6  2  0  0  0  0
  5  7  1  0  0  0  0
  2  3  1  0  0  0  0
  2  4  1  0  0  0  0
  2  5  1  0  0  0  0
  1  2  1  0  0  0  0
 19 20  2  0  0  0  0
 19 21  1  0  0  0  0
 16 17  1  0  0  0  0
 16 18  1  0  0  0  0
 14 15  2  0  0  0  0
 14 16  1  0  0  0  0
 11 12  1  0  0  0  0
 11 13  1  0  0  0  0
 11 14  1  0  0  0  0
  9 10  1  0  0  0  0
  9 11  1  0  0  0  0
  9 19  1  0  0  0  0
  7  8  1  0  0  0  0
  7  9  1  0  0  0  0
 23 24  1  0  0  0  0
 23 25  1  0  0  0  0
 23 26  1  0  0  0  0
 21 22  1  0  0  0  0
 21 23  1  0  0  0  0
M  END
$$$$
default_name
  -OEChem-02102213163D

 26 25  0     1  0  0  0  0  0999 V2000
   -3.0232   -3.6924    1.0038 H   0  0  0  0  0  0  0  0  0  0  0  0
   -3.0082   -2.6684    0.6318 C   0  0  0  0  0  0  0  0  0  0  0  0
   -3.6332   -2.0414    1.2658 H   0  0  0  0  0  0  0  0  0  0  0  0
   -3.3762   -2.6444   -0.3912 H   0  0  0  0  0  0  0  0  0  0  0  0
   -1.5882   -2.1554    0.6658 C   0  0  0  0  0  0  0  0  0  0  0  0
   -0.6832   -2.8764    1.0638 O   0  0  0  0  0  0  0  0  0  0  0  0
   -1.3952   -0.9084    0.2428 N   0  0  0  0  0  0  0  0  0  0  0  0
   -2.1972   -0.3644   -0.0422 H   0  0  0  0  0  0  0  0  0  0  0  0
   -0.1122   -0.1994    0.2658 C   0  0  1  0  0  0  0  0  0  0  0  0
    0.5635   -0.7260    0.9446 H   0  0  0  0  0  0  0  0  0  0  0  0
    0.4924   -0.2204   -1.1558 C   0  0  0  0  0  0  0  0  0  0  0  0
    1.1246   -1.1012   -1.2623 H   0  0  0  0  0  0  0  0  0  0  0  0
   -0.3118   -0.2857   -1.8872 H   0  0  0  0  0  0  0  0  0  0  0  0
    1.3600    0.9860   -1.4766 C   0  0  0  0  0  0  0  0  0  0  0  0
    1.3541    2.0042   -0.8070 O   0  0  0  0  0  0  0  0  0  0  0  0
    2.1382    0.9173   -2.5292 N   0  0  0  0  0  0  0  0  0  0  0  0
    2.7128    1.7224   -2.7064 H   0  0  0  0  0  0  0  0  0  0  0  0
    2.1754    0.0840   -3.0853 H   0  0  0  0  0  0  0  0  0  0  0  0
   -0.3126    1.2341    0.8050 C   0  0  0  0  0  0  0  0  0  0  0  0
   -1.2484    1.9199    0.3934 O   0  0  0  0  0  0  0  0  0  0  0  0
    0.5615    1.6875    1.7087 N   0  0  0  0  0  0  0  0  0  0  0  0
    1.3461    1.0849    1.9358 H   0  0  0  0  0  0  0  0  0  0  0  0
    0.5043    3.0121    2.3242 C   0  0  0  0  0  0  0  0  0  0  0  0
   -0.4649    3.1514    2.8080 H   0  0  0  0  0  0  0  0  0  0  0  0
    1.2959    3.1139    3.0678 H   0  0  0  0  0  0  0  0  0  0  0  0
    0.6273    3.7799    1.5584 H   0  0  0  0  0  0  0  0  0  0  0  0
  5  6  2  0  0  0  0
  5  7  1  0  0  0  0
  2  3  1  0  0  0  0
  2  4  1  0  0  0  0
  2  5  1  0  0  0  0
  1  2  1  0  0  0  0
 19 20  2  0  0  0  0
 19 21  1  0  0  0  0
 16 17  1  0  0  0  0
 16 18  1  0  0  0  0
 14 15  2  0  0  0  0
 14 16  1  0  0  0  0
 11 12  1  0  0  0  0
 11 13  1  0  0  0  0
 11 14  1  0  0  0  0
  9 10  1  0  0  0  0
  9 11  1  0  0  0  0
  9 19  1  0  0  0  0
  7  8  1  0  0  0  0
  7  9  1  0  0  0  0
 23 24  1  0  0  0  0
 23 25  1  0  0  0  0
 23 26  1  0  0  0  0
 21 22  1  0  0  0  0
 21 23  1  0  0  0  0
M  END
$$$$
default_name
  -OEChem-02102213163D

 26 25  0     1  0  0  0  0  0999 V2000
   -3.0232   -3.6924    1.0038 H   0  0  0  0  0  0  0  0  0  0  0  0
   -3.0082   -2.6684    0.6318 C   0  0  0  0  0  0  0  0  0  0  0  0
   -3.6332   -2.0414    1.2658 H   0  0  0  0  0  0  0  0  0  0  0  0
   -3.3762   -2.6444   -0.3912 H   0  0  0  0  0  0  0  0  0  0  0  0
   -1.5882   -2.1554    0.6658 C   0  0  0  0  0  0  0  0  0  0  0  0
   -0.6832   -2.8764    1.0638 O   0  0  0  0  0  0  0  0  0  0  0  0
   -1.3952   -0.9084    0.2428 N   0  0  0  0  0  0  0  0  0  0  0  0
   -2.1972   -0.3644   -0.0422 H   0  0  0  0  0  0  0  0  0  0  0  0
   -0.1122   -0.1994    0.2658 C   0  0  1  0  0  0  0  0  0  0  0  0
    0.5635   -0.7260    0.9446 H   0  0  0  0  0  0  0  0  0  0  0  0
    0.4924   -0.2204   -1.1558 C   0  0  0  0  0  0  0  0  0  0  0  0
    1.1246   -1.1012   -1.2623 H   0  0  0  0  0  0  0  0  0  0  0  0
   -0.3118   -0.2857   -1.8872 H   0  0  0  0  0  0  0  0  0  0  0  0
    1.3600    0.9860   -1.4766 C   0  0  0  0  0  0  0  0  0  0  0  0
    1.5604    1.8889   -0.6829 O   0  0  0  0  0  0  0  0  0  0  0  0
    1.9036    1.0492   -2.6678 N   0  0  0  0  0  0  0  0  0  0  0  0
    2.4857    1.8488   -2.8453 H   0  0  0  0  0  0  0  0  0  0  0  0
    1.7697    0.3102   -3.3319 H   0  0  0  0  0  0  0  0  0  0  0  0
   -0.3126    1.2341    0.8050 C   0  0  0  0  0  0  0  0  0  0  0  0
   -1.2484    1.9199    0.3934 O   0  0  0  0  0  0  0  0  0  0  0  0
    0.5615    1.6875    1.7087 N   0  0  0  0  0  0  0  0  0  0  0  0
    1.3461    1.0849    1.9358 H   0  0  0  0  0  0  0  0  0  0  0  0
    0.5043    3.0121    2.3242 C   0  0  0  0  0  0  0  0  0  0  0  0
   -0.4649    3.1514    2.8080 H   0  0  0  0  0  0  0  0  0  0  0  0
    1.2959    3.1139    3.0678 H   0  0  0  0  0  0  0  0  0  0  0  0
    0.6273    3.7799    1.5584 H   0  0  0  0  0  0  0  0  0  0  0  0
  5  6  2  0  0  0  0
  5  7  1  0  0  0  0
  2  3  1  0  0  0  0
  2  4  1  0  0  0  0
  2  5  1  0  0  0  0
  1  2  1  0  0  0  0
 19 20  2  0  0  0  0
 19 21  1  0  0  0  0
 16 17  1  0  0  0  0
 16 18  1  0  0  0  0
 14 15  2  0  0  0  0
 14 16  1  0  0  0  0
 11 12  1  0  0  0  0
 11 13  1  0  0  0  0
 11 14  1  0  0  0  0
  9 10  1  0  0  0  0
  9 11  1  0  0  0  0
  9 19  1  0  0  0  0
  7  8  1  0  0  0  0
  7  9  1  0  0  0  0
 23 24  1  0  0  0  0
 23 25  1  0  0  0  0
 23 26  1  0  0  0  0
 21 22  1  0  0  0  0
 21 23  1  0  0  0  0
M  END
$$$$
default_name
  -OEChem-02102213163D

 26 25  0     1  0  0  0  0  0999 V2000
   -3.0232   -3.6924    1.0038 H   0  0  0  0  0  0  0  0  0  0  0  0
   -3.0082   -2.6684    0.6318 C   0  0  0  0  0  0  0  0  0  0  0  0
   -3.6332   -2.0414    1.2658 H   0  0  0  0  0  0  0  0  0  0  0  0
   -3.3762   -2.6444   -0.3912 H   0  0  0  0  0  0  0  0  0  0  0  0
   -1.5882   -2.1554    0.6658 C   0  0  0  0  0  0  0  0  0  0  0  0
   -0.6832   -2.8764    1.0638 O   0  0  0  0  0  0  0  0  0  0  0  0
   -1.3952   -0.9084    0.2428 N   0  0  0  0  0  0  0  0  0  0  0  0
   -2.1972   -0.3644   -0.0422 H   0  0  0  0  0  0  0  0  0  0  0  0
   -0.1122   -0.1994    0.2658 C   0  0  1  0  0  0  0  0  0  0  0  0
    0.5635   -0.7260    0.9446 H   0  0  0  0  0  0  0  0  0  0  0  0
    0.4924   -0.2204   -1.1558 C   0  0  0  0  0  0  0  0  0  0  0  0
    1.1246   -1.1012   -1.2623 H   0  0  0  0  0  0  0  0  0  0  0  0
   -0.3118   -0.2857   -1.8872 H   0  0  0  0  0  0  0  0  0  0  0  0
    1.3600    0.9860   -1.4766 C   0  0  0  0  0  0  0  0  0  0  0  0
    1.7788    1.7479   -0.6226 O   0  0  0  0  0  0  0  0  0  0  0  0
    1.6558    1.2098   -2.7339 N   0  0  0  0  0  0  0  0  0  0  0  0
    2.2448    2.0037   -2.9140 H   0  0  0  0  0  0  0  0  0  0  0  0
    1.3395    0.5873   -3.4532 H   0  0  0  0  0  0  0  0  0  0  0  0
   -0.3126    1.2341    0.8050 C   0  0  0  0  0  0  0  0  0  0  0  0
   -1.2484    1.9199    0.3934 O   0  0  0  0  0  0  0  0  0  0  0  0
    0.5615    1.6875    1.7087 N   0  0  0  0  0  0  0  0  0  0  0  0
    1.3461    1.0849    1.9358 H   0  0  0  0  0  0  0  0  0  0  0  0
    0.5043    3.0121    2.3242 C   0  0  0  0  0  0  0  0  0  0  0  0
   -0.4649    3.1514    2.8080 H   0  0  0  0  0  0  0  0  0  0  0  0
    1.2959    3.1139    3.0678 H   0  0  0  0  0  0  0  0  0  0  0  0
    0.6273    3.7799    1.5584 H   0  0  0  0  0  0  0  0  0  0  0  0
  5  6  2  0  0  0  0
  5  7  1  0  0  0  0
  2  3  1  0  0  0  0
  2  4  1  0  0  0  0
  2  5  1  0  0  0  0
  1  2  1  0  0  0  0
 19 20  2  0  0  0  0
 19 21  1  0  0  0  0
 16 17  1  0  0  0  0
 16 18  1  0  0  0  0
 14 15  2  0  0  0  0
 14 16  1  0  0  0  0
 11 12  1  0  0  0  0
 11 13  1  0  0  0  0
 11 14  1  0  0  0  0
  9 10  1  0  0  0  0
  9 11  1  0  0  0  0
  9 19  1  0  0  0  0
  7  8  1  0  0  0  0
  7  9  1  0  0  0  0
 23 24  1  0  0  0  0
 23 25  1  0  0  0  0
 23 26  1  0  0  0  0
 21 22  1  0  0  0  0
 21 23  1  0  0  0  0
M  END
$$$$
default_name
  -OEChem-02102213163D

 26 25  0     1  0  0  0  0  0999 V2000
   -3.0232   -3.6924    1.0038 H   0  0  0  0  0  0  0  0  0  0  0  0
   -3.0082   -2.6684    0.6318 C   0  0  0  0  0  0  0  0  0  0  0  0
   -3.6332   -2.0414    1.2658 H   0  0  0  0  0  0  0  0  0  0  0  0
   -3.3762   -2.6444   -0.3912 H   0  0  0  0  0  0  0  0  0  0  0  0
   -1.5882   -2.1554    0.6658 C   0  0  0  0  0  0  0  0  0  0  0  0
   -0.6832   -2.8764    1.0638 O   0  0  0  0  0  0  0  0  0  0  0  0
   -1.3952   -0.9084    0.2428 N   0  0  0  0  0  0  0  0  0  0  0  0
   -2.1972   -0.3644   -0.0422 H   0  0  0  0  0  0  0  0  0  0  0  0
   -0.1122   -0.1994    0.2658 C   0  0  1  0  0  0  0  0  0  0  0  0
    0.5635   -0.7260    0.9446 H   0  0  0  0  0  0  0  0  0  0  0  0
    0.4924   -0.2204   -1.1558 C   0  0  0  0  0  0  0  0  0  0  0  0
    1.1246   -1.1012   -1.2623 H   0  0  0  0  0  0  0  0  0  0  0  0
   -0.3118   -0.2857   -1.8872 H   0  0  0  0  0  0  0  0  0  0  0  0
    1.3600    0.9860   -1.4766 C   0  0  0  0  0  0  0  0  0  0  0  0
    1.9944    1.5908   -0.6299 O   0  0  0  0  0  0  0  0  0  0  0  0
    1.4116    1.3883   -2.7231 N   0  0  0  0  0  0  0  0  0  0  0  0
    2.0064    2.1767   -2.9081 H   0  0  0  0  0  0  0  0  0  0  0  0
    0.9141    0.8964   -3.4412 H   0  0  0  0  0  0  0  0  0  0  0  0
   -0.3126    1.2341    0.8050 C   0  0  0  0  0  0  0  0  0  0  0  0
   -1.2484    1.9199    0.3934 O   0  0  0  0  0  0  0  0  0  0  0  0
    0.5615    1.6875    1.7087 N   0  0  0  0  0  0  0  0  0  0  0  0
    1.3461    1.0849    1.9358 H   0  0  0  0  0  0  0  0  0  0  0  0
    0.5043    3.0121    2.3242 C   0  0  0  0  0  0  0  0  0  0  0  0
   -0.4649    3.1514    2.8080 H   0  0  0  0  0  0  0  0  0  0  0  0
    1.2959    3.1139    3.0678 H   0  0  0  0  0  0  0  0  0  0  0  0
    0.6273    3.7799    1.5584 H   0  0  0  0  0  0  0  0  0  0  0  0
  5  6  2  0  0  0  0
  5  7  1  0  0  0  0
  2  3  1  0  0  0  0
  2  4  1  0  0  0  0
  2  5  1  0  0  0  0
  1  2  1  0  0  0  0
 19 20  2  0  0  0  0
 19 21  1  0  0  0  0
 16 17  1  0  0  0  0
 16 18  1  0  0  0  0
 14 15  2  0  0  0  0
 14 16  1  0  0  0  0
 11 12  1  0  0  0  0
 11 13  1  0  0  0  0
 11 14  1  0  0  0  0
  9 10  1  0  0  0  0
  9 11  1  0  0  0  0
  9 19  1  0  0  0  0
  7  8  1  0  0  0  0
  7  9  1  0  0  0  0
 23 24  1  0  0  0  0
 23 25  1  0  0  0  0
 23 26  1  0  0  0  0
 21 22  1  0  0  0  0
 21 23  1  0  0  0  0
M  END
$$$$
default_name
  -OEChem-02102213163D

 26 25  0     1  0  0  0  0  0999 V2000
   -3.0232   -3.6924    1.0038 H   0  0  0  0  0  0  0  0  0  0  0  0
   -3.0082   -2.6684    0.6318 C   0  0  0  0  0  0  0  0  0  0  0  0
   -3.6332   -2.0414    1.2658 H   0  0  0  0  0  0  0  0  0  0  0  0
   -3.3762   -2.6444   -0.3912 H   0  0  0  0  0  0  0  0  0  0  0  0
   -1.5882   -2.1554    0.6658 C   0  0  0  0  0  0  0  0  0  0  0  0
   -0.6832   -2.8764    1.0638 O   0  0  0  0  0  0  0  0  0  0  0  0
   -1.3952   -0.9084    0.2428 N   0  0  0  0  0  0  0  0  0  0  0  0
   -2.1972   -0.3644   -0.0422 H   0  0  0  0  0  0  0  0  0  0  0  0
   -0.1122   -0.1994    0.2658 C   0  0  1  0  0  0  0  0  0  0  0  0
    0.5635   -0.7260    0.9446 H   0  0  0  0  0  0  0  0  0  0  0  0
    0.4924   -0.2204   -1.1558 C   0  0  0  0  0  0  0  0  0  0  0  0
    1.1246   -1.1012   -1.2623 H   0  0  0  0  0  0  0  0  0  0  0  0
   -0.3118   -0.2857   -1.8872 H   0  0  0  0  0  0  0  0  0  0  0  0
    1.3600    0.9860   -1.4766 C   0  0  0  0  0  0  0  0  0  0  0  0
    2.1927    1.4285   -0.7045 O   0  0  0  0  0  0  0  0  0  0  0  0
    1.1876    1.5724   -2.6362 N   0  0  0  0  0  0  0  0  0  0  0  0
    1.7868    2.3560   -2.8278 H   0  0  0  0  0  0  0  0  0  0  0  0
    0.5226    1.2164   -3.2966 H   0  0  0  0  0  0  0  0  0  0  0  0
   -0.3126    1.2341    0.8050 C   0  0  0  0  0  0  0  0  0  0  0  0
   -1.2484    1.9199    0.3934 O   0  0  0  0  0  0  0  0  0  0  0  0
    0.5615    1.6875    1.7087 N   0  0  0  0  0  0  0  0  0  0  0  0
    1.3461    1.0849    1.9358 H   0  0  0  0  0  0  0  0  0  0  0  0
    0.5043    3.0121    2.3242 C   0  0  0  0  0  0  0  0  0  0  0  0
   -0.4649    3.1514    2.8080 H   0  0  0  0  0  0  0  0  0  0  0  0
    1.2959    3.1139    3.0678 H   0  0  0  0  0  0  0  0  0  0  0  0
    0.6273    3.7799    1.5584 H   0  0  0  0  0  0  0  0  0  0  0  0
  5  6  2  0  0  0  0
  5  7  1  0  0  0  0
  2  3  1  0  0  0  0
  2  4  1  0  0  0  0
  2  5  1  0  0  0  0
  1  2  1  0  0  0  0
 19 20  2  0  0  0  0
 19 21  1  0  0  0  0
 16 17  1  0  0  0  0
 16 18  1  0  0  0  0
 14 15  2  0  0  0  0
 14 16  1  0  0  0  0
 11 12  1  0  0  0  0
 11 13  1  0  0  0  0
 11 14  1  0  0  0  0
  9 10  1  0  0  0  0
  9 11  1  0  0  0  0
  9 19  1  0  0  0  0
  7  8  1  0  0  0  0
  7  9  1  0  0  0  0
 23 24  1  0  0  0  0
 23 25  1  0  0  0  0
 23 26  1  0  0  0  0
 21 22  1  0  0  0  0
 21 23  1  0  0  0  0
M  END
$$$$
default_name
  -OEChem-02102213163D

 26 25  0     1  0  0  0  0  0999 V2000
   -3.0232   -3.6924    1.0038 H   0  0  0  0  0  0  0  0  0  0  0  0
   -3.0082   -2.6684    0.6318 C   0  0  0  0  0  0  0  0  0  0  0  0
   -3.6332   -2.0414    1.2658 H   0  0  0  0  0  0  0  0  0  0  0  0
   -3.3762   -2.6444   -0.3912 H   0  0  0  0  0  0  0  0  0  0  0  0
   -1.5882   -2.1554    0.6658 C   0  0  0  0  0  0  0  0  0  0  0  0
   -0.6832   -2.8764    1.0638 O   0  0  0  0  0  0  0  0  0  0  0  0
   -1.3952   -0.9084    0.2428 N   0  0  0  0  0  0  0  0  0  0  0  0
   -2.1972   -0.3644   -0.0422 H   0  0  0  0  0  0  0  0  0  0  0  0
   -0.1122   -0.1994    0.2658 C   0  0  1  0  0  0  0  0  0  0  0  0
    0.5635   -0.7260    0.9446 H   0  0  0  0  0  0  0  0  0  0  0  0
    0.4924   -0.2204   -1.1558 C   0  0  0  0  0  0  0  0  0  0  0  0
    1.1246   -1.1012   -1.2623 H   0  0  0  0  0  0  0  0  0  0  0  0
   -0.3118   -0.2857   -1.8872 H   0  0  0  0  0  0  0  0  0  0  0  0
    1.3600    0.9860   -1.4766 C   0  0  0  0  0  0  0  0  0  0  0  0
    2.3599    1.2718   -0.8413 O   0  0  0  0  0  0  0  0  0  0  0  0
    0.9993    1.7497   -2.4791 N   0  0  0  0  0  0  0  0  0  0  0  0
    1.6010    2.5293   -2.6787 H   0  0  0  0  0  0  0  0  0  0  0  0
    0.1917    1.5255   -3.0292 H   0  0  0  0  0  0  0  0  0  0  0  0
   -0.3126    1.2341    0.8050 C   0  0  0  0  0  0  0  0  0  0  0  0
   -1.2484    1.9199    0.3934 O   0  0  0  0  0  0  0  0  0  0  0  0
    0.5615    1.6875    1.7087 N   0  0  0  0  0  0  0  0  0  0  0  0
    1.3461    1.0849    1.9358 H   0  0  0  0  0  0  0  0  0  0  0  0
    0.5043    3.0121    2.3242 C   0  0  0  0  0  0  0  0  0  0  0  0
   -0.4649    3.1514    2.8080 H   0  0  0  0  0  0  0  0  0  0  0  0
    1.2959    3.1139    3.0678 H   0  0  0  0  0  0  0  0  0  0  0  0
    0.6273    3.7799    1.5584 H   0  0  0  0  0  0  0  0  0  0  0  0
  5  6  2  0  0  0  0
  5  7  1  0  0  0  0
  2  3  1  0  0  0  0
  2  4  1  0  0  0  0
  2  5  1  0  0  0  0
  1  2  1  0  0  0  0
 19 20  2  0  0  0  0
 19 21  1  0  0  0  0
 16 17  1  0  0  0  0
 16 18  1  0  0  0  0
 14 15  2  0  0  0  0
 14 16  1  0  0  0  0
 11 12  1  0  0  0  0
 11 13  1  0  0  0  0
 11 14  1  0  0  0  0
  9 10  1  0  0  0  0
  9 11  1  0  0  0  0
  9 19  1  0  0  0  0
  7  8  1  0  0  0  0
  7  9  1  0  0  0  0
 23 24  1  0  0  0  0
 23 25  1  0  0  0  0
 23 26  1  0  0  0  0
 21 22  1  0  0  0  0
 21 23  1  0  0  0  0
M  END
$$$$
default_name
  -OEChem-02102213163D

 26 25  0     1  0  0  0  0  0999 V2000
   -3.0232   -3.6924    1.0038 H   0  0  0  0  0  0  0  0  0  0  0  0
   -3.0082   -2.6684    0.6318 C   0  0  0  0  0  0  0  0  0  0  0  0
   -3.6332   -2.0414    1.2658 H   0  0  0  0  0  0  0  0  0  0  0  0
   -3.3762   -2.6444   -0.3912 H   0  0  0  0  0  0  0  0  0  0  0  0
   -1.5882   -2.1554    0.6658 C   0  0  0  0  0  0  0  0  0  0  0  0
   -0.6832   -2.8764    1.0638 O   0  0  0  0  0  0  0  0  0  0  0  0
   -1.3952   -0.9084    0.2428 N   0  0  0  0  0  0  0  0  0  0  0  0
   -2.1972   -0.3644   -0.0422 H   0  0  0  0  0  0  0  0  0  0  0  0
   -0.1122   -0.1994    0.2658 C   0  0  1  0  0  0  0  0  0  0  0  0
    0.5635   -0.7260    0.9446 H   0  0  0  0  0  0  0  0  0  0  0  0
    0.4924   -0.2204   -1.1558 C   0  0  0  0  0  0  0  0  0  0  0  0
    1.1246   -1.1012   -1.2623 H   0  0  0  0  0  0  0  0  0  0  0  0
   -0.3118   -0.2857   -1.8872 H   0  0  0  0  0  0  0  0  0  0  0  0
    1.3600    0.9860   -1.4766 C   0  0  0  0  0  0  0  0  0  0  0  0
    2.4849    1.1315   -1.0309 O   0  0  0  0  0  0  0  0  0  0  0  0
    0.8592    1.9080   -2.2625 N   0  0  0  0  0  0  0  0  0  0  0  0
    1.4616    2.6848   -2.4709 H   0  0  0  0  0  0  0  0  0  0  0  0
   -0.0562    1.8026   -2.6572 H   0  0  0  0  0  0  0  0  0  0  0  0
   -0.3126    1.2341    0.8050 C   0  0  0  0  0  0  0  0  0  0  0  0
   -1.2484    1.9199    0.3934 O   0  0  0  0  0  0  0  0  0  0  0  0
    0.5615    1.6875    1.7087 N   0  0  0  0  0  0  0  0  0  0  0  0
    1.3461    1.0849    1.9358 H   0  0  0  0  0  0  0  0  0  0  0  0
    0.5043    3.0121    2.3242 C   0  0  0  0  0  0  0  0  0  0  0  0
   -0.4649    3.1514    2.8080 H   0  0  0  0  0  0  0  0  0  0  0  0
    1.2959    3.1139    3.0678 H   0  0  0  0  0  0  0  0  0  0  0  0
    0.6273    3.7799    1.5584 H   0  0  0  0  0  0  0  0  0  0  0  0
  5  6  2  0  0  0  0
  5  7  1  0  0  0  0
  2  3  1  0  0  0  0
  2  4  1  0  0  0  0
  2  5  1  0  0  0  0
  1  2  1  0  0  0  0
 19 20  2  0  0  0  0
 19 21  1  0  0  0  0
 16 17  1  0  0  0  0
 16 18  1  0  0  0  0
 14 15  2  0  0  0  0
 14 16  1  0  0  0  0
 11 12  1  0  0  0  0
 11 13  1  0  0  0  0
 11 14  1  0  0  0  0
  9 10  1  0  0  0  0
  9 11  1  0  0  0  0
  9 19  1  0  0  0  0
  7  8  1  0  0  0  0
  7  9  1  0  0  0  0
 23 24  1  0  0  0  0
 23 25  1  0  0  0  0
 23 26  1  0  0  0  0
 21 22  1  0  0  0  0
 21 23  1  0  0  0  0
M  END
$$$$
default_name
  -OEChem-02102213163D

 26 25  0     1  0  0  0  0  0999 V2000
   -3.0232   -3.6924    1.0038 H   0  0  0  0  0  0  0  0  0  0  0  0
   -3.0082   -2.6684    0.6318 C   0  0  0  0  0  0  0  0  0  0  0  0
   -3.6332   -2.0414    1.2658 H   0  0  0  0  0  0  0  0  0  0  0  0
   -3.3762   -2.6444   -0.3912 H   0  0  0  0  0  0  0  0  0  0  0  0
   -1.5882   -2.1554    0.6658 C   0  0  0  0  0  0  0  0  0  0  0  0
   -0.6832   -2.8764    1.0638 O   0  0  0  0  0  0  0  0  0  0  0  0
   -1.3952   -0.9084    0.2428 N   0  0  0  0  0  0  0  0  0  0  0  0
   -2.1972   -0.3644   -0.0422 H   0  0  0  0  0  0  0  0  0  0  0  0
   -0.1122   -0.1994    0.2658 C   0  0  1  0  0  0  0  0  0  0  0  0
    0.5635   -0.7260    0.9446 H   0  0  0  0  0  0  0  0  0  0  0  0
    0.4924   -0.2204   -1.1558 C   0  0  0  0  0  0  0  0  0  0  0  0
    1.1246   -1.1012   -1.2623 H   0  0  0  0  0  0  0  0  0  0  0  0
   -0.3118   -0.2857   -1.8872 H   0  0  0  0  0  0  0  0  0  0  0  0
    1.3600    0.9860   -1.4766 C   0  0  0  0  0  0  0  0  0  0  0  0
    2.5589    1.0173   -1.2604 O   0  0  0  0  0  0  0  0  0  0  0  0
    0.7771    2.0365   -2.0010 N   0  0  0  0  0  0  0  0  0  0  0  0
    1.3781    2.8119   -2.2186 H   0  0  0  0  0  0  0  0  0  0  0  0
   -0.2041    2.0290   -2.2062 H   0  0  0  0  0  0  0  0  0  0  0  0
   -0.3126    1.2341    0.8050 C   0  0  0  0  0  0  0  0  0  0  0  0
   -1.2484    1.9199    0.3934 O   0  0  0  0  0  0  0  0  0  0  0  0
    0.5615    1.6875    1.7087 N   0  0  0  0  0  0  0  0  0  0  0  0
    1.3461    1.0849    1.9358 H   0  0  0  0  0  0  0  0  0  0  0  0
    0.5043    3.0121    2.3242 C   0  0  0  0  0  0  0  0  0  0  0  0
   -0.4649    3.1514    2.8080 H   0  0  0  0  0  0  0  0  0  0  0  0
    1.2959    3.1139    3.0678 H   0  0  0  0  0  0  0  0  0  0  0  0
    0.6273    3.7799    1.5584 H   0  0  0  0  0  0  0  0  0  0  0  0
  5  6  2  0  0  0  0
  5  7  1  0  0  0  0
  2  3  1  0  0  0  0
  2  4  1  0  0  0  0
  2  5  1  0  0  0  0
  1  2  1  0  0  0  0
 19 20  2  0  0  0  0
 19 21  1  0  0  0  0
 16 17  1  0  0  0  0
 16 18  1  0  0  0  0
 14 15  2  0  0  0  0
 14 16  1  0  0  0  0
 11 12  1  0  0  0  0
 11 13  1  0  0  0  0
 11 14  1  0  0  0  0
  9 10  1  0  0  0  0
  9 11  1  0  0  0  0
  9 19  1  0  0  0  0
  7  8  1  0  0  0  0
  7  9  1  0  0  0  0
 23 24  1  0  0  0  0
 23 25  1  0  0  0  0
 23 26  1  0  0  0  0
 21 22  1  0  0  0  0
 21 23  1  0  0  0  0
M  END
$$$$
default_name
  -OEChem-02102213163D

 26 25  0     1  0  0  0  0  0999 V2000
   -3.0232   -3.6924    1.0038 H   0  0  0  0  0  0  0  0  0  0  0  0
   -3.0082   -2.6684    0.6318 C   0  0  0  0  0  0  0  0  0  0  0  0
   -3.6332   -2.0414    1.2658 H   0  0  0  0  0  0  0  0  0  0  0  0
   -3.3762   -2.6444   -0.3912 H   0  0  0  0  0  0  0  0  0  0  0  0
   -1.5882   -2.1554    0.6658 C   0  0  0  0  0  0  0  0  0  0  0  0
   -0.6832   -2.8764    1.0638 O   0  0  0  0  0  0  0  0  0  0  0  0
   -1.3952   -0.9084    0.2428 N   0  0  0  0  0  0  0  0  0  0  0  0
   -2.1972   -0.3644   -0.0422 H   0  0  0  0  0  0  0  0  0  0  0  0
   -0.1122   -0.1994    0.2658 C   0  0  1  0  0  0  0  0  0  0  0  0
    0.5635   -0.7260    0.9446 H   0  0  0  0  0  0  0  0  0  0  0  0
    0.4924   -0.2204   -1.1558 C   0  0  0  0  0  0  0  0  0  0  0  0
    1.1246   -1.1012   -1.2623 H   0  0  0  0  0  0  0  0  0  0  0  0
   -0.3118   -0.2857   -1.8872 H   0  0  0  0  0  0  0  0  0  0  0  0
    1.3600    0.9860   -1.4766 C   0  0  0  0  0  0  0  0  0  0  0  0
    2.5771    0.9367   -1.5142 O   0  0  0  0  0  0  0  0  0  0  0  0
    0.7586    2.1266   -1.7127 N   0  0  0  0  0  0  0  0  0  0  0  0
    1.3562    2.9020   -1.9389 H   0  0  0  0  0  0  0  0  0  0  0  0
   -0.2420    2.1890   -1.7066 H   0  0  0  0  0  0  0  0  0  0  0  0
   -0.3126    1.2341    0.8050 C   0  0  0  0  0  0  0  0  0  0  0  0
   -1.2484    1.9199    0.3934 O   0  0  0  0  0  0  0  0  0  0  0  0
    0.5615    1.6875    1.7087 N   0  0  0  0  0  0  0  0  0  0  0  0
    1.3461    1.0849    1.9358 H   0  0  0  0  0  0  0  0  0  0  0  0
    0.5043    3.0121    2.3242 C   0  0  0  0  0  0  0  0  0  0  0  0
   -0.4649    3.1514    2.8080 H   0  0  0  0  0  0  0  0  0  0  0  0
    1.2959    3.1139    3.0678 H   0  0  0  0  0  0  0  0  0  0  0  0
    0.6273    3.7799    1.5584 H   0  0  0  0  0  0  0  0  0  0  0  0
  5  6  2  0  0  0  0
  5  7  1  0  0  0  0
  2  3  1  0  0  0  0
  2  4  1  0  0  0  0
  2  5  1  0  0  0  0
  1  2  1  0  0  0  0
 19 20  2  0  0  0  0
 19 21  1  0  0  0  0
 16 17  1  0  0  0  0
 16 18  1  0  0  0  0
 14 15  2  0  0  0  0
 14 16  1  0  0  0  0
 11 12  1  0  0  0  0
 11 13  1  0  0  0  0
 11 14  1  0  0  0  0
  9 10  1  0  0  0  0
  9 11  1  0  0  0  0
  9 19  1  0  0  0  0
  7  8  1  0  0  0  0
  7  9  1  0  0  0  0
 23 24  1  0  0  0  0
 23 25  1  0  0  0  0
 23 26  1  0  0  0  0
 21 22  1  0  0  0  0
 21 23  1  0  0  0  0
M  END
$$$$
default_name
  -OEChem-02102213163D

 26 25  0     1  0  0  0  0  0999 V2000
   -3.0232   -3.6924    1.0038 H   0  0  0  0  0  0  0  0  0  0  0  0
   -3.0082   -2.6684    0.6318 C   0  0  0  0  0  0  0  0  0  0  0  0
   -3.6332   -2.0414    1.2658 H   0  0  0  0  0  0  0  0  0  0  0  0
   -3.3762   -2.6444   -0.3912 H   0  0  0  0  0  0  0  0  0  0  0  0
   -1.5882   -2.1554    0.6658 C   0  0  0  0  0  0  0  0  0  0  0  0
   -0.6832   -2.8764    1.0638 O   0  0  0  0  0  0  0  0  0  0  0  0
   -1.3952   -0.9084    0.2428 N   0  0  0  0  0  0  0  0  0  0  0  0
   -2.1972   -0.3644   -0.0422 H   0  0  0  0  0  0  0  0  0  0  0  0
   -0.1122   -0.1994    0.2658 C   0  0  1  0  0  0  0  0  0  0  0  0
    0.5635   -0.7260    0.9446 H   0  0  0  0  0  0  0  0  0  0  0  0
    0.4924   -0.2204   -1.1558 C   0  0  0  0  0  0  0  0  0  0  0  0
    1.1246   -1.1012   -1.2623 H   0  0  0  0  0  0  0  0  0  0  0  0
   -0.3118   -0.2857   -1.8872 H   0  0  0  0  0  0  0  0  0  0  0  0
    1.3600    0.9860   -1.4766 C   0  0  0  0  0  0  0  0  0  0  0  0
    2.5381    0.8954   -1.7749 O   0  0  0  0  0  0  0  0  0  0  0  0
    0.8047    2.1720   -1.4170 N   0  0  0  0  0  0  0  0  0  0  0  0
    1.3974    2.9489   -1.6510 H   0  0  0  0  0  0  0  0  0  0  0  0
   -0.1672    2.2719   -1.1927 H   0  0  0  0  0  0  0  0  0  0  0  0
   -0.3126    1.2341    0.8050 C   0  0  0  0  0  0  0  0  0  0  0  0
   -1.2484    1.9199    0.3934 O   0  0  0  0  0  0  0  0  0  0  0  0
    0.5615    1.6875    1.7087 N   0  0  0  0  0  0  0  0  0  0  0  0
    1.3461    1.0849    1.9358 H   0  0  0  0  0  0  0  0  0  0  0  0
    0.5043    3.0121    2.3242 C   0  0  0  0  0  0  0  0  0  0  0  0
   -0.4649    3.1514    2.8080 H   0  0  0  0  0  0  0  0  0  0  0  0
    1.2959    3.1139    3.0678 H   0  0  0  0  0  0  0  0  0  0  0  0
    0.6273    3.7799    1.5584 H   0  0  0  0  0  0  0  0  0  0  0  0
  5  6  2  0  0  0  0
  5  7  1  0  0  0  0
  2  3  1  0  0  0  0
  2  4  1  0  0  0  0
  2  5  1  0  0  0  0
  1  2  1  0  0  0  0
 19 20  2  0  0  0  0
 19 21  1  0  0  0  0
 16 17  1  0  0  0  0
 16 18  1  0  0  0  0
 14 15  2  0  0  0  0
 14 16  1  0  0  0  0
 11 12  1  0  0  0  0
 11 13  1  0  0  0  0
 11 14  1  0  0  0  0
  9 10  1  0  0  0  0
  9 11  1  0  0  0  0
  9 19  1  0  0  0  0
  7  8  1  0  0  0  0
  7  9  1  0  0  0  0
 23 24  1  0  0  0  0
 23 25  1  0  0  0  0
 23 26  1  0  0  0  0
 21 22  1  0  0  0  0
 21 23  1  0  0  0  0
M  END
$$$$
default_name
  -OEChem-02102213163D

 26 25  0     1  0  0  0  0  0999 V2000
   -3.0232   -3.6924    1.0038 H   0  0  0  0  0  0  0  0  0  0  0  0
   -3.0082   -2.6684    0.6318 C   0  0  0  0  0  0  0  0  0  0  0  0
   -3.6332   -2.0414    1.2658 H   0  0  0  0  0  0  0  0  0  0  0  0
   -3.3762   -2.6444   -0.3912 H   0  0  0  0  0  0  0  0  0  0  0  0
   -1.5882   -2.1554    0.6658 C   0  0  0  0  0  0  0  0  0  0  0  0
   -0.6832   -2.8764    1.0638 O   0  0  0  0  0  0  0  0  0  0  0  0
   -1.3952   -0.9084    0.2428 N   0  0  0  0  0  0  0  0  0  0  0  0
   -2.1972   -0.3644   -0.0422 H   0  0  0  0  0  0  0  0  0  0  0  0
   -0.1122   -0.1994    0.2658 C   0  0  1  0  0  0  0  0  0  0  0  0
    0.5635   -0.7260    0.9446 H   0  0  0  0  0  0  0  0  0  0  0  0
    0.4924   -0.2204   -1.1558 C   0  0  0  0  0  0  0  0  0  0  0  0
    1.1246   -1.1012   -1.2623 H   0  0  0  0  0  0  0  0  0  0  0  0
   -0.3118   -0.2857   -1.8872 H   0  0  0  0  0  0  0  0  0  0  0  0
    1.3600    0.9860   -1.4766 C   0  0  0  0  0  0  0  0  0  0  0  0
    2.4447    0.8961   -2.0249 O   0  0  0  0  0  0  0  0  0  0  0  0
    0.9126    2.1696   -1.1343 N   0  0  0  0  0  0  0  0  0  0  0  0
    1.4989    2.9494   -1.3745 H   0  0  0  0  0  0  0  0  0  0  0  0
    0.0151    2.2719   -0.6994 H   0  0  0  0  0  0  0  0  0  0  0  0
   -0.3126    1.2341    0.8050 C   0  0  0  0  0  0  0  0  0  0  0  0
   -1.2484    1.9199    0.3934 O   0  0  0  0  0  0  0  0  0  0  0  0
    0.5615    1.6875    1.7087 N   0  0  0  0  0  0  0  0  0  0  0  0
    1.3461    1.0849    1.9358 H   0  0  0  0  0  0  0  0  0  0  0  0
    0.5043    3.0121    2.3242 C   0  0  0  0  0  0  0  0  0  0  0  0
   -0.4649    3.1514    2.8080 H   0  0  0  0  0  0  0  0  0  0  0  0
    1.2959    3.1139    3.0678 H   0  0  0  0  0  0  0  0  0  0  0  0
    0.6273    3.7799    1.5584 H   0  0  0  0  0  0  0  0  0  0  0  0
  5  6  2  0  0  0  0
  5  7  1  0  0  0  0
  2  3  1  0  0  0  0
  2  4  1  0  0  0  0
  2  5  1  0  0  0  0
  1  2  1  0  0  0  0
 19 20  2  0  0  0  0
 19 21  1  0  0  0  0
 16 17  1  0  0  0  0
 16 18  1  0  0  0  0
 14 15  2  0  0  0  0
 14 16  1  0  0  0  0
 11 12  1  0  0  0  0
 11 13  1  0  0  0  0
 11 14  1  0  0  0  0
  9 10  1  0  0  0  0
  9 11  1  0  0  0  0
  9 19  1  0  0  0  0
  7  8  1  0  0  0  0
  7  9  1  0  0  0  0
 23 24  1  0  0  0  0
 23 25  1  0  0  0  0
 23 26  1  0  0  0  0
 21 22  1  0  0  0  0
 21 23  1  0  0  0  0
M  END
$$$$
default_name
  -OEChem-02102213163D

 26 25  0     1  0  0  0  0  0999 V2000
   -3.0232   -3.6924    1.0038 H   0  0  0  0  0  0  0  0  0  0  0  0
   -3.0082   -2.6684    0.6318 C   0  0  0  0  0  0  0  0  0  0  0  0
   -3.6332   -2.0414    1.2658 H   0  0  0  0  0  0  0  0  0  0  0  0
   -3.3762   -2.6444   -0.3912 H   0  0  0  0  0  0  0  0  0  0  0  0
   -1.5882   -2.1554    0.6658 C   0  0  0  0  0  0  0  0  0  0  0  0
   -0.6832   -2.8764    1.0638 O   0  0  0  0  0  0  0  0  0  0  0  0
   -1.3952   -0.9084    0.2428 N   0  0  0  0  0  0  0  0  0  0  0  0
   -2.1972   -0.3644   -0.0422 H   0  0  0  0  0  0  0  0  0  0  0  0
   -0.1122   -0.1994    0.2658 C   0  0  1  0  0  0  0  0  0  0  0  0
    0.5635   -0.7260    0.9446 H   0  0  0  0  0  0  0  0  0  0  0  0
    0.4924   -0.2204   -1.1558 C   0  0  0  0  0  0  0  0  0  0  0  0
    1.1246   -1.1012   -1.2623 H   0  0  0  0  0  0  0  0  0  0  0  0
   -0.3118   -0.2857   -1.8872 H   0  0  0  0  0  0  0  0  0  0  0  0
    1.3600    0.9860   -1.4766 C   0  0  0  0  0  0  0  0  0  0  0  0
    2.3031    0.9389   -2.2470 O   0  0  0  0  0  0  0  0  0  0  0  0
    1.0747    2.1197   -0.8836 N   0  0  0  0  0  0  0  0  0  0  0  0
    1.6538    2.9035   -1.1281 H   0  0  0  0  0  0  0  0  0  0  0  0
    0.2925    2.1892   -0.2603 H   0  0  0  0  0  0  0  0  0  0  0  0
   -0.3126    1.2341    0.8050 C   0  0  0  0  0  0  0  0  0  0  0  0
   -1.2484    1.9199    0.3934 O   0  0  0  0  0  0  0  0  0  0  0  0
    0.5615    1.6875    1.7087 N   0  0  0  0  0  0  0  0  0  0  0  0
    1.3461    1.0849    1.9358 H   0  0  0  0  0  0  0  0  0  0  0  0
    0.5043    3.0121    2.3242 C   0  0  0  0  0  0  0  0  0  0  0  0
   -0.4649    3.1514    2.8080 H   0  0  0  0  0  0  0  0  0  0  0  0
    1.2959    3.1139    3.0678 H   0  0  0  0  0  0  0  0  0  0  0  0
    0.6273    3.7799    1.5584 H   0  0  0  0  0  0  0  0  0  0  0  0
  5  6  2  0  0  0  0
  5  7  1  0  0  0  0
  2  3  1  0  0  0  0
  2  4  1  0  0  0  0
  2  5  1  0  0  0  0
  1  2  1  0  0  0  0
 19 20  2  0  0  0  0
 19 21  1  0  0  0  0
 16 17  1  0  0  0  0
 16 18  1  0  0  0  0
 14 15  2  0  0  0  0
 14 16  1  0  0  0  0
 11 12  1  0  0  0  0
 11 13  1  0  0  0  0
 11 14  1  0  0  0  0
  9 10  1  0  0  0  0
  9 11  1  0  0  0  0
  9 19  1  0  0  0  0
  7  8  1  0  0  0  0
  7  9  1  0  0  0  0
 23 24  1  0  0  0  0
 23 25  1  0  0  0  0
 23 26  1  0  0  0  0
 21 22  1  0  0  0  0
 21 23  1  0  0  0  0
M  END
$$$$
default_name
  -OEChem-02102213163D

 26 25  0     1  0  0  0  0  0999 V2000
   -3.0232   -3.6924    1.0038 H   0  0  0  0  0  0  0  0  0  0  0  0
   -3.0082   -2.6684    0.6318 C   0  0  0  0  0  0  0  0  0  0  0  0
   -3.6332   -2.0414    1.2658 H   0  0  0  0  0  0  0  0  0  0  0  0
   -3.3762   -2.6444   -0.3912 H   0  0  0  0  0  0  0  0  0  0  0  0
   -1.5882   -2.1554    0.6658 C   0  0  0  0  0  0  0  0  0  0  0  0
   -0.6832   -2.8764    1.0638 O   0  0  0  0  0  0  0  0  0  0  0  0
   -1.3952   -0.9084    0.2428 N   0  0  0  0  0  0  0  0  0  0  0  0
   -2.1972   -0.3644   -0.0422 H   0  0  0  0  0  0  0  0  0  0  0  0
   -0.1122   -0.1994    0.2658 C   0  0  1  0  0  0  0  0  0  0  0  0
    0.5635   -0.7260    0.9446 H   0  0  0  0  0  0  0  0  0  0  0  0
    0.4924   -0.2204   -1.1558 C   0  0  0  0  0  0  0  0  0  0  0  0
    1.1246   -1.1012   -1.2623 H   0  0  0  0  0  0  0  0  0  0  0  0
   -0.3118   -0.2857   -1.8872 H   0  0  0  0  0  0  0  0  0  0  0  0
    1.3600    0.9860   -1.4766 C   0  0  0  0  0  0  0  0  0  0  0  0
    2.1230    1.0207   -2.4262 O   0  0  0  0  0  0  0  0  0  0  0  0
    1.2800    2.0256   -0.6821 N   0  0  0  0  0  0  0  0  0  0  0  0
    1.8516    2.8144   -0.9287 H   0  0  0  0  0  0  0  0  0  0  0  0
    0.6461    2.0292    0.0946 H   0  0  0  0  0  0  0  0  0  0  0  0
   -0.3126    1.2341    0.8050 C   0  0  0  0  0  0  0  0  0  0  0  0
   -1.2484    1.9199    0.3934 O   0  0  0  0  0  0  0  0  0  0  0  0
    0.5615    1.6875    1.7087 N   0  0  0  0  0  0  0  0  0  0  0  0
    1.3461    1.0849    1.9358 H   0  0  0  0  0  0  0  0  0  0  0  0
    0.5043    3.0121    2.3242 C   0  0  0  0  0  0  0  0  0  0  0  0
   -0.4649    3.1514    2.8080 H   0  0  0  0  0  0  0  0  0  0  0  0
    1.2959    3.1139    3.0678 H   0  0  0  0  0  0  0  0  0  0  0  0
    0.6273    3.7799    1.5584 H   0  0  0  0  0  0  0  0  0  0  0  0
  5  6  2  0  0  0  0
  5  7  1  0  0  0  0
  2  3  1  0  0  0  0
  2  4  1  0  0  0  0
  2  5  1  0  0  0  0
  1  2  1  0  0  0  0
 19 20  2  0  0  0  0
 19 21  1  0  0  0  0
 16 17  1  0  0  0  0
 16 18  1  0  0  0  0
 14 15  2  0  0  0  0
 14 16  1  0  0  0  0
 11 12  1  0  0  0  0
 11 13  1  0  0  0  0
 11 14  1  0  0  0  0
  9 10  1  0  0  0  0
  9 11  1  0  0  0  0
  9 19  1  0  0  0  0
  7  8  1  0  0  0  0
  7  9  1  0  0  0  0
 23 24  1  0  0  0  0
 23 25  1  0  0  0  0
 23 26  1  0  0  0  0
 21 22  1  0  0  0  0
 21 23  1  0  0  0  0
M  END
$$$$
default_name
  -OEChem-02102213163D

 26 25  0     1  0  0  0  0  0999 V2000
   -3.0232   -3.6924    1.0038 H   0  0  0  0  0  0  0  0  0  0  0  0
   -3.0082   -2.6684    0.6318 C   0  0  0  0  0  0  0  0  0  0  0  0
   -3.6332   -2.0414    1.2658 H   0  0  0  0  0  0  0  0  0  0  0  0
   -3.3762   -2.6444   -0.3912 H   0  0  0  0  0  0  0  0  0  0  0  0
   -1.5882   -2.1554    0.6658 C   0  0  0  0  0  0  0  0  0  0  0  0
   -0.6832   -2.8764    1.0638 O   0  0  0  0  0  0  0  0  0  0  0  0
   -1.3952   -0.9084    0.2428 N   0  0  0  0  0  0  0  0  0  0  0  0
   -2.1972   -0.3644   -0.0422 H   0  0  0  0  0  0  0  0  0  0  0  0
   -0.1122   -0.1994    0.2658 C   0  0  1  0  0  0  0  0  0  0  0  0
    0.5635   -0.7260    0.9446 H   0  0  0  0  0  0  0  0  0  0  0  0
    0.4924   -0.2204   -1.1558 C   0  0  0  0  0  0  0  0  0  0  0  0
    0.8984   -1.2112   -1.3569 H   0  0  0  0  0  0  0  0  0  0  0  0
   -0.2926   -0.0180   -1.8829 H   0  0  0  0  0  0  0  0  0  0  0  0
    1.6271    0.7705   -1.3598 C   0  0  0  0  0  0  0  0  0  0  0  0
    2.2205    0.8910   -2.4174 O   0  0  0  0  0  0  0  0  0  0  0  0
    1.9785    1.5164   -0.3407 N   0  0  0  0  0  0  0  0  0  0  0  0
    2.7192    2.1740   -0.5099 H   0  0  0  0  0  0  0  0  0  0  0  0
    1.4936    1.4498    0.5342 H   0  0  0  0  0  0  0  0  0  0  0  0
   -0.3126    1.2341    0.8050 C   0  0  0  0  0  0  0  0  0  0  0  0
   -1.2484    1.9199    0.3934 O   0  0  0  0  0  0  0  0  0  0  0  0
    0.5615    1.6875    1.7087 N   0  0  0  0  0  0  0  0  0  0  0  0
    1.3461    1.0849    1.9358 H   0  0  0  0  0  0  0  0  0  0  0  0
    0.5043    3.0121    2.3242 C   0  0  0  0  0  0  0  0  0  0  0  0
   -0.4649    3.1514    2.8080 H   0  0  0  0  0  0  0  0  0  0  0  0
    1.2959    3.1139    3.0678 H   0  0  0  0  0  0  0  0  0  0  0  0
    0.6273    3.7799    1.5584 H   0  0  0  0  0  0  0  0  0  0  0  0
  5  6  2  0  0  0  0
  5  7  1  0  0  0  0
  2  3  1  0  0  0  0
  2  4  1  0  0  0  0
  2  5  1  0  0  0  0
  1  2  1  0  0  0  0
 19 20  2  0  0  0  0
 19 21  1  0  0  0  0
 16 17  1  0  0  0  0
 16 18  1  0  0  0  0
 14 15  2  0  0  0  0
 14 16  1  0  0  0  0
 11 12  1  0  0  0  0
 11 13  1  0  0  0  0
 11 14  1  0  0  0  0
  9 10  1  0  0  0  0
  9 11  1  0  0  0  0
  9 19  1  0  0  0  0
  7  8  1  0  0  0  0
  7  9  1  0  0  0  0
 23 24  1  0  0  0  0
 23 25  1  0  0  0  0
 23 26  1  0  0  0  0
 21 22  1  0  0  0  0
 21 23  1  0  0  0  0
M  END
$$$$
default_name
  -OEChem-02102213163D

 26 25  0     1  0  0  0  0  0999 V2000
   -3.0232   -3.6924    1.0038 H   0  0  0  0  0  0  0  0  0  0  0  0
   -3.0082   -2.6684    0.6318 C   0  0  0  0  0  0  0  0  0  0  0  0
   -3.6332   -2.0414    1.2658 H   0  0  0  0  0  0  0  0  0  0  0  0
   -3.3762   -2.6444   -0.3912 H   0  0  0  0  0  0  0  0  0  0  0  0
   -1.5882   -2.1554    0.6658 C   0  0  0  0  0  0  0  0  0  0  0  0
   -0.6832   -2.8764    1.0638 O   0  0  0  0  0  0  0  0  0  0  0  0
   -1.3952   -0.9084    0.2428 N   0  0  0  0  0  0  0  0  0  0  0  0
   -2.1972   -0.3644   -0.0422 H   0  0  0  0  0  0  0  0  0  0  0  0
   -0.1122   -0.1994    0.2658 C   0  0  1  0  0  0  0  0  0  0  0  0
    0.5635   -0.7260    0.9446 H   0  0  0  0  0  0  0  0  0  0  0  0
    0.4924   -0.2204   -1.1558 C   0  0  0  0  0  0  0  0  0  0  0  0
    0.8984   -1.2112   -1.3569 H   0  0  0  0  0  0  0  0  0  0  0  0
   -0.2926   -0.0180   -1.8829 H   0  0  0  0  0  0  0  0  0  0  0  0
    1.6271    0.7705   -1.3598 C   0  0  0  0  0  0  0  0  0  0  0  0
    2.0429    1.0854   -2.4613 O   0  0  0  0  0  0  0  0  0  0  0  0
    2.1799    1.2955   -0.2934 N   0  0  0  0  0  0  0  0  0  0  0  0
    2.9152    1.9599   -0.4593 H   0  0  0  0  0  0  0  0  0  0  0  0
    1.8436    1.0674    0.6230 H   0  0  0  0  0  0  0  0  0  0  0  0
   -0.3126    1.2341    0.8050 C   0  0  0  0  0  0  0  0  0  0  0  0
   -1.2484    1.9199    0.3934 O   0  0  0  0  0  0  0  0  0  0  0  0
    0.5615    1.6875    1.7087 N   0  0  0  0  0  0  0  0  0  0  0  0
    1.3461    1.0849    1.9358 H   0  0  0  0  0  0  0  0  0  0  0  0
    0.5043    3.0121    2.3242 C   0  0  0  0  0  0  0  0  0  0  0  0
   -0.4649    3.1514    2.8080 H   0  0  0  0  0  0  0  0  0  0  0  0
    1.2959    3.1139    3.0678 H   0  0  0  0  0  0  0  0  0  0  0  0
    0.6273    3.7799    1.5584 H   0  0  0  0  0  0  0  0  0  0  0  0
  5  6  2  0  0  0  0
  5  7  1  0  0  0  0
  2  3  1  0  0  0  0
  2  4  1  0  0  0  0
  2  5  1  0  0  0  0
  1  2  1  0  0  0  0
 19 20  2  0  0  0  0
 19 21  1  0  0  0  0
 16 17  1  0  0  0  0
 16 18  1  0  0  0  0
 14 15  2  0  0  0  0
 14 16  1  0  0  0  0
 11 12  1  0  0  0  0
 11 13  1  0  0  0  0
 11 14  1  0  0  0  0
  9 10  1  0  0  0  0
  9 11  1  0  0  0  0
  9 19  1  0  0  0  0
  7  8  1  0  0  0  0
  7  9  1  0  0  0  0
 23 24  1  0  0  0  0
 23 25  1  0  0  0  0
 23 26  1  0  0  0  0
 21 22  1  0  0  0  0
 21 23  1  0  0  0  0
M  END
$$$$
default_name
  -OEChem-02102213163D

 26 25  0     1  0  0  0  0  0999 V2000
   -3.0232   -3.6924    1.0038 H   0  0  0  0  0  0  0  0  0  0  0  0
   -3.0082   -2.6684    0.6318 C   0  0  0  0  0  0  0  0  0  0  0  0
   -3.6332   -2.0414    1.2658 H   0  0  0  0  0  0  0  0  0  0  0  0
   -3.3762   -2.6444   -0.3912 H   0  0  0  0  0  0  0  0  0  0  0  0
   -1.5882   -2.1554    0.6658 C   0  0  0  0  0  0  0  0  0  0  0  0
   -0.6832   -2.8764    1.0638 O   0  0  0  0  0  0  0  0  0  0  0  0
   -1.3952   -0.9084    0.2428 N   0  0  0  0  0  0  0  0  0  0  0  0
   -2.1972   -0.3644   -0.0422 H   0  0  0  0  0  0  0  0  0  0  0  0
   -0.1122   -0.1994    0.2658 C   0  0  1  0  0  0  0  0  0  0  0  0
    0.5635   -0.7260    0.9446 H   0  0  0  0  0  0  0  0  0  0  0  0
    0.4924   -0.2204   -1.1558 C   0  0  0  0  0  0  0  0  0  0  0  0
    0.8984   -1.2112   -1.3569 H   0  0  0  0  0  0  0  0  0  0  0  0
   -0.2926   -0.0180   -1.8829 H   0  0  0  0  0  0  0  0  0  0  0  0
    1.6271    0.7705   -1.3598 C   0  0  0  0  0  0  0  0  0  0  0  0
    1.8707    1.2877   -2.4361 O   0  0  0  0  0  0  0  0  0  0  0  0
    2.3748    1.0660   -0.3244 N   0  0  0  0  0  0  0  0  0  0  0  0
    3.1056    1.7366   -0.4849 H   0  0  0  0  0  0  0  0  0  0  0  0
    2.1833    0.6687    0.5759 H   0  0  0  0  0  0  0  0  0  0  0  0
   -0.3126    1.2341    0.8050 C   0  0  0  0  0  0  0  0  0  0  0  0
   -1.2484    1.9199    0.3934 O   0  0  0  0  0  0  0  0  0  0  0  0
    0.5615    1.6875    1.7087 N   0  0  0  0  0  0  0  0  0  0  0  0
    1.3461    1.0849    1.9358 H   0  0  0  0  0  0  0  0  0  0  0  0
    0.5043    3.0121    2.3242 C   0  0  0  0  0  0  0  0  0  0  0  0
   -0.4649    3.1514    2.8080 H   0  0  0  0  0  0  0  0  0  0  0  0
    1.2959    3.1139    3.0678 H   0  0  0  0  0  0  0  0  0  0  0  0
    0.6273    3.7799    1.5584 H   0  0  0  0  0  0  0  0  0  0  0  0
  5  6  2  0  0  0  0
  5  7  1  0  0  0  0
  2  3  1  0  0  0  0
  2  4  1  0  0  0  0
  2  5  1  0  0  0  0
  1  2  1  0  0  0  0
 19 20  2  0  0  0  0
 19 21  1  0  0  0  0
 16 17  1  0  0  0  0
 16 18  1  0  0  0  0
 14 15  2  0  0  0  0
 14 16  1  0  0  0  0
 11 12  1  0  0  0  0
 11 13  1  0  0  0  0
 11 14  1  0  0  0  0
  9 10  1  0  0  0  0
  9 11  1  0  0  0  0
  9 19  1  0  0  0  0
  7  8  1  0  0  0  0
  7  9  1  0  0  0  0
 23 24  1  0  0  0  0
 23 25  1  0  0  0  0
 23 26  1  0  0  0  0
 21 22  1  0  0  0  0
 21 23  1  0  0  0  0
M  END
$$$$
default_name
  -OEChem-02102213163D

 26 25  0     1  0  0  0  0  0999 V2000
   -3.0232   -3.6924    1.0038 H   0  0  0  0  0  0  0  0  0  0  0  0
   -3.0082   -2.6684    0.6318 C   0  0  0  0  0  0  0  0  0  0  0  0
   -3.6332   -2.0414    1.2658 H   0  0  0  0  0  0  0  0  0  0  0  0
   -3.3762   -2.6444   -0.3912 H   0  0  0  0  0  0  0  0  0  0  0  0
   -1.5882   -2.1554    0.6658 C   0  0  0  0  0  0  0  0  0  0  0  0
   -0.6832   -2.8764    1.0638 O   0  0  0  0  0  0  0  0  0  0  0  0
   -1.3952   -0.9084    0.2428 N   0  0  0  0  0  0  0  0  0  0  0  0
   -2.1972   -0.3644   -0.0422 H   0  0  0  0  0  0  0  0  0  0  0  0
   -0.1122   -0.1994    0.2658 C   0  0  1  0  0  0  0  0  0  0  0  0
    0.5635   -0.7260    0.9446 H   0  0  0  0  0  0  0  0  0  0  0  0
    0.4924   -0.2204   -1.1558 C   0  0  0  0  0  0  0  0  0  0  0  0
    0.8984   -1.2112   -1.3569 H   0  0  0  0  0  0  0  0  0  0  0  0
   -0.2926   -0.0180   -1.8829 H   0  0  0  0  0  0  0  0  0  0  0  0
    1.6271    0.7705   -1.3598 C   0  0  0  0  0  0  0  0  0  0  0  0
    1.7157    1.4843   -2.3436 O   0  0  0  0  0  0  0  0  0  0  0  0
    2.5498    0.8435   -0.4316 N   0  0  0  0  0  0  0  0  0  0  0  0
    3.2775    1.5192   -0.5849 H   0  0  0  0  0  0  0  0  0  0  0  0
    2.4896    0.2808    0.3960 H   0  0  0  0  0  0  0  0  0  0  0  0
   -0.3126    1.2341    0.8050 C   0  0  0  0  0  0  0  0  0  0  0  0
   -1.2484    1.9199    0.3934 O   0  0  0  0  0  0  0  0  0  0  0  0
    0.5615    1.6875    1.7087 N   0  0  0  0  0  0  0  0  0  0  0  0
    1.3461    1.0849    1.9358 H   0  0  0  0  0  0  0  0  0  0  0  0
    0.5043    3.0121    2.3242 C   0  0  0  0  0  0  0  0  0  0  0  0
   -0.4649    3.1514    2.8080 H   0  0  0  0  0  0  0  0  0  0  0  0
    1.2959    3.1139    3.0678 H   0  0  0  0  0  0  0  0  0  0  0  0
    0.6273    3.7799    1.5584 H   0  0  0  0  0  0  0  0  0  0  0  0
  5  6  2  0  0  0  0
  5  7  1  0  0  0  0
  2  3  1  0  0  0  0
  2  4  1  0  0  0  0
  2  5  1  0  0  0  0
  1  2  1  0  0  0  0
 19 20  2  0  0  0  0
 19 21  1  0  0  0  0
 16 17  1  0  0  0  0
 16 18  1  0  0  0  0
 14 15  2  0  0  0  0
 14 16  1  0  0  0  0
 11 12  1  0  0  0  0
 11 13  1  0  0  0  0
 11 14  1  0  0  0  0
  9 10  1  0  0  0  0
  9 11  1  0  0  0  0
  9 19  1  0  0  0  0
  7  8  1  0  0  0  0
  7  9  1  0  0  0  0
 23 24  1  0  0  0  0
 23 25  1  0  0  0  0
 23 26  1  0  0  0  0
 21 22  1  0  0  0  0
 21 23  1  0  0  0  0
M  END
$$$$
default_name
  -OEChem-02102213163D

 26 25  0     1  0  0  0  0  0999 V2000
   -3.0232   -3.6924    1.0038 H   0  0  0  0  0  0  0  0  0  0  0  0
   -3.0082   -2.6684    0.6318 C   0  0  0  0  0  0  0  0  0  0  0  0
   -3.6332   -2.0414    1.2658 H   0  0  0  0  0  0  0  0  0  0  0  0
   -3.3762   -2.6444   -0.3912 H   0  0  0  0  0  0  0  0  0  0  0  0
   -1.5882   -2.1554    0.6658 C   0  0  0  0  0  0  0  0  0  0  0  0
   -0.6832   -2.8764    1.0638 O   0  0  0  0  0  0  0  0  0  0  0  0
   -1.3952   -0.9084    0.2428 N   0  0  0  0  0  0  0  0  0  0  0  0
   -2.1972   -0.3644   -0.0422 H   0  0  0  0  0  0  0  0  0  0  0  0
   -0.1122   -0.1994    0.2658 C   0  0  1  0  0  0  0  0  0  0  0  0
    0.5635   -0.7260    0.9446 H   0  0  0  0  0  0  0  0  0  0  0  0
    0.4924   -0.2204   -1.1558 C   0  0  0  0  0  0  0  0  0  0  0  0
    0.8984   -1.2112   -1.3569 H   0  0  0  0  0  0  0  0  0  0  0  0
   -0.2926   -0.0180   -1.8829 H   0  0  0  0  0  0  0  0  0  0  0  0
    1.6271    0.7705   -1.3598 C   0  0  0  0  0  0  0  0  0  0  0  0
    1.5884    1.6617   -2.1902 O   0  0  0  0  0  0  0  0  0  0  0  0
    2.6931    0.6432   -0.6075 N   0  0  0  0  0  0  0  0  0  0  0  0
    3.4191    1.3226   -0.7525 H   0  0  0  0  0  0  0  0  0  0  0  0
    2.7417   -0.0696    0.0957 H   0  0  0  0  0  0  0  0  0  0  0  0
   -0.3126    1.2341    0.8050 C   0  0  0  0  0  0  0  0  0  0  0  0
   -1.2484    1.9199    0.3934 O   0  0  0  0  0  0  0  0  0  0  0  0
    0.5615    1.6875    1.7087 N   0  0  0  0  0  0  0  0  0  0  0  0
    1.3461    1.0849    1.9358 H   0  0  0  0  0  0  0  0  0  0  0  0
    0.5043    3.0121    2.3242 C   0  0  0  0  0  0  0  0  0  0  0  0
   -0.4649    3.1514    2.8080 H   0  0  0  0  0  0  0  0  0  0  0  0
    1.2959    3.1139    3.0678 H   0  0  0  0  0  0  0  0  0  0  0  0
    0.6273    3.7799    1.5584 H   0  0  0  0  0  0  0  0  0  0  0  0
  5  6  2  0  0  0  0
  5  7  1  0  0  0  0
  2  3  1  0  0  0  0
  2  4  1  0  0  0  0
  2  5  1  0  0  0  0
  1  2  1  0  0  0  0
 19 20  2  0  0  0  0
 19 21  1  0  0  0  0
 16 17  1  0  0  0  0
 16 18  1  0  0  0  0
 14 15  2  0  0  0  0
 14 16  1  0  0  0  0
 11 12  1  0  0  0  0
 11 13  1  0  0  0  0
 11 14  1  0  0  0  0
  9 10  1  0  0  0  0
  9 11  1  0  0  0  0
  9 19  1  0  0  0  0
  7  8  1  0  0  0  0
  7  9  1  0  0  0  0
 23 24  1  0  0  0  0
 23 25  1  0  0  0  0
 23 26  1  0  0  0  0
 21 22  1  0  0  0  0
 21 23  1  0  0  0  0
M  END
$$$$
default_name
  -OEChem-02102213163D

 26 25  0     1  0  0  0  0  0999 V2000
   -3.0232   -3.6924    1.0038 H   0  0  0  0  0  0  0  0  0  0  0  0
   -3.0082   -2.6684    0.6318 C   0  0  0  0  0  0  0  0  0  0  0  0
   -3.6332   -2.0414    1.2658 H   0  0  0  0  0  0  0  0  0  0  0  0
   -3.3762   -2.6444   -0.3912 H   0  0  0  0  0  0  0  0  0  0  0  0
   -1.5882   -2.1554    0.6658 C   0  0  0  0  0  0  0  0  0  0  0  0
   -0.6832   -2.8764    1.0638 O   0  0  0  0  0  0  0  0  0  0  0  0
   -1.3952   -0.9084    0.2428 N   0  0  0  0  0  0  0  0  0  0  0  0
   -2.1972   -0.3644   -0.0422 H   0  0  0  0  0  0  0  0  0  0  0  0
   -0.1122   -0.1994    0.2658 C   0  0  1  0  0  0  0  0  0  0  0  0
    0.5635   -0.7260    0.9446 H   0  0  0  0  0  0  0  0  0  0  0  0
    0.4924   -0.2204   -1.1558 C   0  0  0  0  0  0  0  0  0  0  0  0
    0.8984   -1.2112   -1.3569 H   0  0  0  0  0  0  0  0  0  0  0  0
   -0.2926   -0.0180   -1.8829 H   0  0  0  0  0  0  0  0  0  0  0  0
    1.6271    0.7705   -1.3598 C   0  0  0  0  0  0  0  0  0  0  0  0
    1.4974    1.8078   -1.9862 O   0  0  0  0  0  0  0  0  0  0  0  0
    2.7948    0.4788   -0.8404 N   0  0  0  0  0  0  0  0  0  0  0  0
    3.5208    1.1601   -0.9763 H   0  0  0  0  0  0  0  0  0  0  0  0
    2.9223   -0.3589   -0.3047 H   0  0  0  0  0  0  0  0  0  0  0  0
   -0.3126    1.2341    0.8050 C   0  0  0  0  0  0  0  0  0  0  0  0
   -1.2484    1.9199    0.3934 O   0  0  0  0  0  0  0  0  0  0  0  0
    0.5615    1.6875    1.7087 N   0  0  0  0  0  0  0  0  0  0  0  0
    1.3461    1.0849    1.9358 H   0  0  0  0  0  0  0  0  0  0  0  0
    0.5043    3.0121    2.3242 C   0  0  0  0  0  0  0  0  0  0  0  0
   -0.4649    3.1514    2.8080 H   0  0  0  0  0  0  0  0  0  0  0  0
    1.2959    3.1139    3.0678 H   0  0  0  0  0  0  0  0  0  0  0  0
    0.6273    3.7799    1.5584 H   0  0  0  0  0  0  0  0  0  0  0  0
  5  6  2  0  0  0  0
  5  7  1  0  0  0  0
  2  3  1  0  0  0  0
  2  4  1  0  0  0  0
  2  5  1  0  0  0  0
  1  2  1  0  0  0  0
 19 20  2  0  0  0  0
 19 21  1  0  0  0  0
 16 17  1  0  0  0  0
 16 18  1  0  0  0  0
 14 15  2  0  0  0  0
 14 16  1  0  0  0  0
 11 12  1  0  0  0  0
 11 13  1  0  0  0  0
 11 14  1  0  0  0  0
  9 10  1  0  0  0  0
  9 11  1  0  0  0  0
  9 19  1  0  0  0  0
  7  8  1  0  0  0  0
  7  9  1  0  0  0  0
 23 24  1  0  0  0  0
 23 25  1  0  0  0  0
 23 26  1  0  0  0  0
 21 22  1  0  0  0  0
 21 23  1  0  0  0  0
M  END
$$$$
default_name
  -OEChem-02102213163D

 26 25  0     1  0  0  0  0  0999 V2000
   -3.0232   -3.6924    1.0038 H   0  0  0  0  0  0  0  0  0  0  0  0
   -3.0082   -2.6684    0.6318 C   0  0  0  0  0  0  0  0  0  0  0  0
   -3.6332   -2.0414    1.2658 H   0  0  0  0  0  0  0  0  0  0  0  0
   -3.3762   -2.6444   -0.3912 H   0  0  0  0  0  0  0  0  0  0  0  0
   -1.5882   -2.1554    0.6658 C   0  0  0  0  0  0  0  0  0  0  0  0
   -0.6832   -2.8764    1.0638 O   0  0  0  0  0  0  0  0  0  0  0  0
   -1.3952   -0.9084    0.2428 N   0  0  0  0  0  0  0  0  0  0  0  0
   -2.1972   -0.3644   -0.0422 H   0  0  0  0  0  0  0  0  0  0  0  0
   -0.1122   -0.1994    0.2658 C   0  0  1  0  0  0  0  0  0  0  0  0
    0.5635   -0.7260    0.9446 H   0  0  0  0  0  0  0  0  0  0  0  0
    0.4924   -0.2204   -1.1558 C   0  0  0  0  0  0  0  0  0  0  0  0
    0.8984   -1.2112   -1.3569 H   0  0  0  0  0  0  0  0  0  0  0  0
   -0.2926   -0.0180   -1.8829 H   0  0  0  0  0  0  0  0  0  0  0  0
    1.6271    0.7705   -1.3598 C   0  0  0  0  0  0  0  0  0  0  0  0
    1.4491    1.9127   -1.7457 O   0  0  0  0  0  0  0  0  0  0  0  0
    2.8481    0.3614   -1.1142 N   0  0  0  0  0  0  0  0  0  0  0  0
    3.5756    1.0429   -1.2409 H   0  0  0  0  0  0  0  0  0  0  0  0
    3.0192   -0.5673   -0.7777 H   0  0  0  0  0  0  0  0  0  0  0  0
   -0.3126    1.2341    0.8050 C   0  0  0  0  0  0  0  0  0  0  0  0
   -1.2484    1.9199    0.3934 O   0  0  0  0  0  0  0  0  0  0  0  0
    0.5615    1.6875    1.7087 N   0  0  0  0  0  0  0  0  0  0  0  0
    1.3461    1.0849    1.9358 H   0  0  0  0  0  0  0  0  0  0  0  0
    0.5043    3.0121    2.3242 C   0  0  0  0  0  0  0  0  0  0  0  0
   -0.4649    3.1514    2.8080 H   0  0  0  0  0  0  0  0  0  0  0  0
    1.2959    3.1139    3.0678 H   0  0  0  0  0  0  0  0  0  0  0  0
    0.6273    3.7799    1.5584 H   0  0  0  0  0  0  0  0  0  0  0  0
  5  6  2  0  0  0  0
  5  7  1  0  0  0  0
  2  3  1  0  0  0  0
  2  4  1  0  0  0  0
  2  5  1  0  0  0  0
  1  2  1  0  0  0  0
 19 20  2  0  0  0  0
 19 21  1  0  0  0  0
 16 17  1  0  0  0  0
 16 18  1  0  0  0  0
 14 15  2  0  0  0  0
 14 16  1  0  0  0  0
 11 12  1  0  0  0  0
 11 13  1  0  0  0  0
 11 14  1  0  0  0  0
  9 10  1  0  0  0  0
  9 11  1  0  0  0  0
  9 19  1  0  0  0  0
  7  8  1  0  0  0  0
  7  9  1  0  0  0  0
 23 24  1  0  0  0  0
 23 25  1  0  0  0  0
 23 26  1  0  0  0  0
 21 22  1  0  0  0  0
 21 23  1  0  0  0  0
M  END
$$$$
default_name
  -OEChem-02102213163D

 26 25  0     1  0  0  0  0  0999 V2000
   -3.0232   -3.6924    1.0038 H   0  0  0  0  0  0  0  0  0  0  0  0
   -3.0082   -2.6684    0.6318 C   0  0  0  0  0  0  0  0  0  0  0  0
   -3.6332   -2.0414    1.2658 H   0  0  0  0  0  0  0  0  0  0  0  0
   -3.3762   -2.6444   -0.3912 H   0  0  0  0  0  0  0  0  0  0  0  0
   -1.5882   -2.1554    0.6658 C   0  0  0  0  0  0  0  0  0  0  0  0
   -0.6832   -2.8764    1.0638 O   0  0  0  0  0  0  0  0  0  0  0  0
   -1.3952   -0.9084    0.2428 N   0  0  0  0  0  0  0  0  0  0  0  0
   -2.1972   -0.3644   -0.0422 H   0  0  0  0  0  0  0  0  0  0  0  0
   -0.1122   -0.1994    0.2658 C   0  0  1  0  0  0  0  0  0  0  0  0
    0.5635   -0.7260    0.9446 H   0  0  0  0  0  0  0  0  0  0  0  0
    0.4924   -0.2204   -1.1558 C   0  0  0  0  0  0  0  0  0  0  0  0
    0.8984   -1.2112   -1.3569 H   0  0  0  0  0  0  0  0  0  0  0  0
   -0.2926   -0.0180   -1.8829 H   0  0  0  0  0  0  0  0  0  0  0  0
    1.6271    0.7705   -1.3598 C   0  0  0  0  0  0  0  0  0  0  0  0
    1.4466    1.9692   -1.4848 O   0  0  0  0  0  0  0  0  0  0  0  0
    2.8492    0.2991   -1.4104 N   0  0  0  0  0  0  0  0  0  0  0  0
    3.5798    0.9788   -1.5285 H   0  0  0  0  0  0  0  0  0  0  0  0
    3.0258   -0.6805   -1.2913 H   0  0  0  0  0  0  0  0  0  0  0  0
   -0.3126    1.2341    0.8050 C   0  0  0  0  0  0  0  0  0  0  0  0
   -1.2484    1.9199    0.3934 O   0  0  0  0  0  0  0  0  0  0  0  0
    0.5615    1.6875    1.7087 N   0  0  0  0  0  0  0  0  0  0  0  0
    1.3461    1.0849    1.9358 H   0  0  0  0  0  0  0  0  0  0  0  0
    0.5043    3.0121    2.3242 C   0  0  0  0  0  0  0  0  0  0  0  0
   -0.4649    3.1514    2.8080 H   0  0  0  0  0  0  0  0  0  0  0  0
    1.2959    3.1139    3.0678 H   0  0  0  0  0  0  0  0  0  0  0  0
    0.6273    3.7799    1.5584 H   0  0  0  0  0  0  0  0  0  0  0  0
  5  6  2  0  0  0  0
  5  7  1  0  0  0  0
  2  3  1  0  0  0  0
  2  4  1  0  0  0  0
  2  5  1  0  0  0  0
  1  2  1  0  0  0  0
 19 20  2  0  0  0  0
 19 21  1  0  0  0  0
 16 17  1  0  0  0  0
 16 18  1  0  0  0  0
 14 15  2  0  0  0  0
 14 16  1  0  0  0  0
 11 12  1  0  0  0  0
 11 13  1  0  0  0  0
 11 14  1  0  0  0  0
  9 10  1  0  0  0  0
  9 11  1  0  0  0  0
  9 19  1  0  0  0  0
  7  8  1  0  0  0  0
  7  9  1  0  0  0  0
 23 24  1  0  0  0  0
 23 25  1  0  0  0  0
 23 26  1  0  0  0  0
 21 22  1  0  0  0  0
 21 23  1  0  0  0  0
M  END
$$$$
default_name
  -OEChem-02102213163D

 26 25  0     1  0  0  0  0  0999 V2000
   -3.0232   -3.6924    1.0038 H   0  0  0  0  0  0  0  0  0  0  0  0
   -3.0082   -2.6684    0.6318 C   0  0  0  0  0  0  0  0  0  0  0  0
   -3.6332   -2.0414    1.2658 H   0  0  0  0  0  0  0  0  0  0  0  0
   -3.3762   -2.6444   -0.3912 H   0  0  0  0  0  0  0  0  0  0  0  0
   -1.5882   -2.1554    0.6658 C   0  0  0  0  0  0  0  0  0  0  0  0
   -0.6832   -2.8764    1.0638 O   0  0  0  0  0  0  0  0  0  0  0  0
   -1.3952   -0.9084    0.2428 N   0  0  0  0  0  0  0  0  0  0  0  0
   -2.1972   -0.3644   -0.0422 H   0  0  0  0  0  0  0  0  0  0  0  0
   -0.1122   -0.1994    0.2658 C   0  0  1  0  0  0  0  0  0  0  0  0
    0.5635   -0.7260    0.9446 H   0  0  0  0  0  0  0  0  0  0  0  0
    0.4924   -0.2204   -1.1558 C   0  0  0  0  0  0  0  0  0  0  0  0
    0.8984   -1.2112   -1.3569 H   0  0  0  0  0  0  0  0  0  0  0  0
   -0.2926   -0.0180   -1.8829 H   0  0  0  0  0  0  0  0  0  0  0  0
    1.6271    0.7705   -1.3598 C   0  0  0  0  0  0  0  0  0  0  0  0
    1.4901    1.9736   -1.2216 O   0  0  0  0  0  0  0  0  0  0  0  0
    2.7982    0.2961   -1.7087 N   0  0  0  0  0  0  0  0  0  0  0  0
    3.5331    0.9724   -1.8193 H   0  0  0  0  0  0  0  0  0  0  0  0
    2.9416   -0.6909   -1.8103 H   0  0  0  0  0  0  0  0  0  0  0  0
   -0.3126    1.2341    0.8050 C   0  0  0  0  0  0  0  0  0  0  0  0
   -1.2484    1.9199    0.3934 O   0  0  0  0  0  0  0  0  0  0  0  0
    0.5615    1.6875    1.7087 N   0  0  0  0  0  0  0  0  0  0  0  0
    1.3461    1.0849    1.9358 H   0  0  0  0  0  0  0  0  0  0  0  0
    0.5043    3.0121    2.3242 C   0  0  0  0  0  0  0  0  0  0  0  0
   -0.4649    3.1514    2.8080 H   0  0  0  0  0  0  0  0  0  0  0  0
    1.2959    3.1139    3.0678 H   0  0  0  0  0  0  0  0  0  0  0  0
    0.6273    3.7799    1.5584 H   0  0  0  0  0  0  0  0  0  0  0  0
  5  6  2  0  0  0  0
  5  7  1  0  0  0  0
  2  3  1  0  0  0  0
  2  4  1  0  0  0  0
  2  5  1  0  0  0  0
  1  2  1  0  0  0  0
 19 20  2  0  0  0  0
 19 21  1  0  0  0  0
 16 17  1  0  0  0  0
 16 18  1  0  0  0  0
 14 15  2  0  0  0  0
 14 16  1  0  0  0  0
 11 12  1  0  0  0  0
 11 13  1  0  0  0  0
 11 14  1  0  0  0  0
  9 10  1  0  0  0  0
  9 11  1  0  0  0  0
  9 19  1  0  0  0  0
  7  8  1  0  0  0  0
  7  9  1  0  0  0  0
 23 24  1  0  0  0  0
 23 25  1  0  0  0  0
 23 26  1  0  0  0  0
 21 22  1  0  0  0  0
 21 23  1  0  0  0  0
M  END
$$$$
default_name
  -OEChem-02102213163D

 26 25  0     1  0  0  0  0  0999 V2000
   -3.0232   -3.6924    1.0038 H   0  0  0  0  0  0  0  0  0  0  0  0
   -3.0082   -2.6684    0.6318 C   0  0  0  0  0  0  0  0  0  0  0  0
   -3.6332   -2.0414    1.2658 H   0  0  0  0  0  0  0  0  0  0  0  0
   -3.3762   -2.6444   -0.3912 H   0  0  0  0  0  0  0  0  0  0  0  0
   -1.5882   -2.1554    0.6658 C   0  0  0  0  0  0  0  0  0  0  0  0
   -0.6832   -2.8764    1.0638 O   0  0  0  0  0  0  0  0  0  0  0  0
   -1.3952   -0.9084    0.2428 N   0  0  0  0  0  0  0  0  0  0  0  0
   -2.1972   -0.3644   -0.0422 H   0  0  0  0  0  0  0  0  0  0  0  0
   -0.1122   -0.1994    0.2658 C   0  0  1  0  0  0  0  0  0  0  0  0
    0.5635   -0.7260    0.9446 H   0  0  0  0  0  0  0  0  0  0  0  0
    0.4924   -0.2204   -1.1558 C   0  0  0  0  0  0  0  0  0  0  0  0
    0.8984   -1.2112   -1.3569 H   0  0  0  0  0  0  0  0  0  0  0  0
   -0.2926   -0.0180   -1.8829 H   0  0  0  0  0  0  0  0  0  0  0  0
    1.6271    0.7705   -1.3598 C   0  0  0  0  0  0  0  0  0  0  0  0
    1.5768    1.9253   -0.9738 O   0  0  0  0  0  0  0  0  0  0  0  0
    2.6986    0.3526   -1.9888 N   0  0  0  0  0  0  0  0  0  0  0  0
    3.4388    1.0240   -2.0936 H   0  0  0  0  0  0  0  0  0  0  0  0
    2.7723   -0.5978   -2.2994 H   0  0  0  0  0  0  0  0  0  0  0  0
   -0.3126    1.2341    0.8050 C   0  0  0  0  0  0  0  0  0  0  0  0
   -1.2484    1.9199    0.3934 O   0  0  0  0  0  0  0  0  0  0  0  0
    0.5615    1.6875    1.7087 N   0  0  0  0  0  0  0  0  0  0  0  0
    1.3461    1.0849    1.9358 H   0  0  0  0  0  0  0  0  0  0  0  0
    0.5043    3.0121    2.3242 C   0  0  0  0  0  0  0  0  0  0  0  0
   -0.4649    3.1514    2.8080 H   0  0  0  0  0  0  0  0  0  0  0  0
    1.2959    3.1139    3.0678 H   0  0  0  0  0  0  0  0  0  0  0  0
    0.6273    3.7799    1.5584 H   0  0  0  0  0  0  0  0  0  0  0  0
  5  6  2  0  0  0  0
  5  7  1  0  0  0  0
  2  3  1  0  0  0  0
  2  4  1  0  0  0  0
  2  5  1  0  0  0  0
  1  2  1  0  0  0  0
 19 20  2  0  0  0  0
 19 21  1  0  0  0  0
 16 17  1  0  0  0  0
 16 18  1  0  0  0  0
 14 15  2  0  0  0  0
 14 16  1  0  0  0  0
 11 12  1  0  0  0  0
 11 13  1  0  0  0  0
 11 14  1  0  0  0  0
  9 10  1  0  0  0  0
  9 11  1  0  0  0  0
  9 19  1  0  0  0  0
  7  8  1  0  0  0  0
  7  9  1  0  0  0  0
 23 24  1  0  0  0  0
 23 25  1  0  0  0  0
 23 26  1  0  0  0  0
 21 22  1  0  0  0  0
 21 23  1  0  0  0  0
M  END
$$$$
default_name
  -OEChem-02102213163D

 26 25  0     1  0  0  0  0  0999 V2000
   -3.0232   -3.6924    1.0038 H   0  0  0  0  0  0  0  0  0  0  0  0
   -3.0082   -2.6684    0.6318 C   0  0  0  0  0  0  0  0  0  0  0  0
   -3.6332   -2.0414    1.2658 H   0  0  0  0  0  0  0  0  0  0  0  0
   -3.3762   -2.6444   -0.3912 H   0  0  0  0  0  0  0  0  0  0  0  0
   -1.5882   -2.1554    0.6658 C   0  0  0  0  0  0  0  0  0  0  0  0
   -0.6832   -2.8764    1.0638 O   0  0  0  0  0  0  0  0  0  0  0  0
   -1.3952   -0.9084    0.2428 N   0  0  0  0  0  0  0  0  0  0  0  0
   -2.1972   -0.3644   -0.0422 H   0  0  0  0  0  0  0  0  0  0  0  0
   -0.1122   -0.1994    0.2658 C   0  0  1  0  0  0  0  0  0  0  0  0
    0.5635   -0.7260    0.9446 H   0  0  0  0  0  0  0  0  0  0  0  0
    0.4924   -0.2204   -1.1558 C   0  0  0  0  0  0  0  0  0  0  0  0
    0.8984   -1.2112   -1.3569 H   0  0  0  0  0  0  0  0  0  0  0  0
   -0.2926   -0.0180   -1.8829 H   0  0  0  0  0  0  0  0  0  0  0  0
    1.6271    0.7705   -1.3598 C   0  0  0  0  0  0  0  0  0  0  0  0
    1.7006    1.8279   -0.7584 O   0  0  0  0  0  0  0  0  0  0  0  0
    2.5570    0.4647   -2.2317 N   0  0  0  0  0  0  0  0  0  0  0  0
    3.3032    1.1301   -2.3326 H   0  0  0  0  0  0  0  0  0  0  0  0
    2.5295   -0.4074   -2.7253 H   0  0  0  0  0  0  0  0  0  0  0  0
   -0.3126    1.2341    0.8050 C   0  0  0  0  0  0  0  0  0  0  0  0
   -1.2484    1.9199    0.3934 O   0  0  0  0  0  0  0  0  0  0  0  0
    0.5615    1.6875    1.7087 N   0  0  0  0  0  0  0  0  0  0  0  0
    1.3461    1.0849    1.9358 H   0  0  0  0  0  0  0  0  0  0  0  0
    0.5043    3.0121    2.3242 C   0  0  0  0  0  0  0  0  0  0  0  0
   -0.4649    3.1514    2.8080 H   0  0  0  0  0  0  0  0  0  0  0  0
    1.2959    3.1139    3.0678 H   0  0  0  0  0  0  0  0  0  0  0  0
    0.6273    3.7799    1.5584 H   0  0  0  0  0  0  0  0  0  0  0  0
  5  6  2  0  0  0  0
  5  7  1  0  0  0  0
  2  3  1  0  0  0  0
  2  4  1  0  0  0  0
  2  5  1  0  0  0  0
  1  2  1  0  0  0  0
 19 20  2  0  0  0  0
 19 21  1  0  0  0  0
 16 17  1  0  0  0  0
 16 18  1  0  0  0  0
 14 15  2  0  0  0  0
 14 16  1  0  0  0  0
 11 12  1  0  0  0  0
 11 13  1  0  0  0  0
 11 14  1  0  0  0  0
  9 10  1  0  0  0  0
  9 11  1  0  0  0  0
  9 19  1  0  0  0  0
  7  8  1  0  0  0  0
  7  9  1  0  0  0  0
 23 24  1  0  0  0  0
 23 25  1  0  0  0  0
 23 26  1  0  0  0  0
 21 22  1  0  0  0  0
 21 23  1  0  0  0  0
M  END
$$$$
default_name
  -OEChem-02102213163D

 26 25  0     1  0  0  0  0  0999 V2000
   -3.0232   -3.6924    1.0038 H   0  0  0  0  0  0  0  0  0  0  0  0
   -3.0082   -2.6684    0.6318 C   0  0  0  0  0  0  0  0  0  0  0  0
   -3.6332   -2.0414    1.2658 H   0  0  0  0  0  0  0  0  0  0  0  0
   -3.3762   -2.6444   -0.3912 H   0  0  0  0  0  0  0  0  0  0  0  0
   -1.5882   -2.1554    0.6658 C   0  0  0  0  0  0  0  0  0  0  0  0
   -0.6832   -2.8764    1.0638 O   0  0  0  0  0  0  0  0  0  0  0  0
   -1.3952   -0.9084    0.2428 N   0  0  0  0  0  0  0  0  0  0  0  0
   -2.1972   -0.3644   -0.0422 H   0  0  0  0  0  0  0  0  0  0  0  0
   -0.1122   -0.1994    0.2658 C   0  0  1  0  0  0  0  0  0  0  0  0
    0.5635   -0.7260    0.9446 H   0  0  0  0  0  0  0  0  0  0  0  0
    0.4924   -0.2204   -1.1558 C   0  0  0  0  0  0  0  0  0  0  0  0
    0.8984   -1.2112   -1.3569 H   0  0  0  0  0  0  0  0  0  0  0  0
   -0.2926   -0.0180   -1.8829 H   0  0  0  0  0  0  0  0  0  0  0  0
    1.6271    0.7705   -1.3598 C   0  0  0  0  0  0  0  0  0  0  0  0
    1.8531    1.6879   -0.5900 O   0  0  0  0  0  0  0  0  0  0  0  0
    2.3831    0.6249   -2.4207 N   0  0  0  0  0  0  0  0  0  0  0  0
    3.1355    1.2834   -2.5202 H   0  0  0  0  0  0  0  0  0  0  0  0
    2.2298   -0.1329   -3.0590 H   0  0  0  0  0  0  0  0  0  0  0  0
   -0.3126    1.2341    0.8050 C   0  0  0  0  0  0  0  0  0  0  0  0
   -1.2484    1.9199    0.3934 O   0  0  0  0  0  0  0  0  0  0  0  0
    0.5615    1.6875    1.7087 N   0  0  0  0  0  0  0  0  0  0  0  0
    1.3461    1.0849    1.9358 H   0  0  0  0  0  0  0  0  0  0  0  0
    0.5043    3.0121    2.3242 C   0  0  0  0  0  0  0  0  0  0  0  0
   -0.4649    3.1514    2.8080 H   0  0  0  0  0  0  0  0  0  0  0  0
    1.2959    3.1139    3.0678 H   0  0  0  0  0  0  0  0  0  0  0  0
    0.6273    3.7799    1.5584 H   0  0  0  0  0  0  0  0  0  0  0  0
  5  6  2  0  0  0  0
  5  7  1  0  0  0  0
  2  3  1  0  0  0  0
  2  4  1  0  0  0  0
  2  5  1  0  0  0  0
  1  2  1  0  0  0  0
 19 20  2  0  0  0  0
 19 21  1  0  0  0  0
 16 17  1  0  0  0  0
 16 18  1  0  0  0  0
 14 15  2  0  0  0  0
 14 16  1  0  0  0  0
 11 12  1  0  0  0  0
 11 13  1  0  0  0  0
 11 14  1  0  0  0  0
  9 10  1  0  0  0  0
  9 11  1  0  0  0  0
  9 19  1  0  0  0  0
  7  8  1  0  0  0  0
  7  9  1  0  0  0  0
 23 24  1  0  0  0  0
 23 25  1  0  0  0  0
 23 26  1  0  0  0  0
 21 22  1  0  0  0  0
 21 23  1  0  0  0  0
M  END
$$$$
default_name
  -OEChem-02102213163D

 26 25  0     1  0  0  0  0  0999 V2000
   -3.0232   -3.6924    1.0038 H   0  0  0  0  0  0  0  0  0  0  0  0
   -3.0082   -2.6684    0.6318 C   0  0  0  0  0  0  0  0  0  0  0  0
   -3.6332   -2.0414    1.2658 H   0  0  0  0  0  0  0  0  0  0  0  0
   -3.3762   -2.6444   -0.3912 H   0  0  0  0  0  0  0  0  0  0  0  0
   -1.5882   -2.1554    0.6658 C   0  0  0  0  0  0  0  0  0  0  0  0
   -0.6832   -2.8764    1.0638 O   0  0  0  0  0  0  0  0  0  0  0  0
   -1.3952   -0.9084    0.2428 N   0  0  0  0  0  0  0  0  0  0  0  0
   -2.1972   -0.3644   -0.0422 H   0  0  0  0  0  0  0  0  0  0  0  0
   -0.1122   -0.1994    0.2658 C   0  0  1  0  0  0  0  0  0  0  0  0
    0.5635   -0.7260    0.9446 H   0  0  0  0  0  0  0  0  0  0  0  0
    0.4924   -0.2204   -1.1558 C   0  0  0  0  0  0  0  0  0  0  0  0
    0.8984   -1.2112   -1.3569 H   0  0  0  0  0  0  0  0  0  0  0  0
   -0.2926   -0.0180   -1.8829 H   0  0  0  0  0  0  0  0  0  0  0  0
    1.6271    0.7705   -1.3598 C   0  0  0  0  0  0  0  0  0  0  0  0
    2.0240    1.5148   -0.4802 O   0  0  0  0  0  0  0  0  0  0  0  0
    2.1889    0.8221   -2.5431 N   0  0  0  0  0  0  0  0  0  0  0  0
    2.9473    1.4736   -2.6434 H   0  0  0  0  0  0  0  0  0  0  0  0
    1.8935    0.2072   -3.2777 H   0  0  0  0  0  0  0  0  0  0  0  0
   -0.3126    1.2341    0.8050 C   0  0  0  0  0  0  0  0  0  0  0  0
   -1.2484    1.9199    0.3934 O   0  0  0  0  0  0  0  0  0  0  0  0
    0.5615    1.6875    1.7087 N   0  0  0  0  0  0  0  0  0  0  0  0
    1.3461    1.0849    1.9358 H   0  0  0  0  0  0  0  0  0  0  0  0
    0.5043    3.0121    2.3242 C   0  0  0  0  0  0  0  0  0  0  0  0
   -0.4649    3.1514    2.8080 H   0  0  0  0  0  0  0  0  0  0  0  0
    1.2959    3.1139    3.0678 H   0  0  0  0  0  0  0  0  0  0  0  0
    0.6273    3.7799    1.5584 H   0  0  0  0  0  0  0  0  0  0  0  0
  5  6  2  0  0  0  0
  5  7  1  0  0  0  0
  2  3  1  0  0  0  0
  2  4  1  0  0  0  0
  2  5  1  0  0  0  0
  1  2  1  0  0  0  0
 19 20  2  0  0  0  0
 19 21  1  0  0  0  0
 16 17  1  0  0  0  0
 16 18  1  0  0  0  0
 14 15  2  0  0  0  0
 14 16  1  0  0  0  0
 11 12  1  0  0  0  0
 11 13  1  0  0  0  0
 11 14  1  0  0  0  0
  9 10  1  0  0  0  0
  9 11  1  0  0  0  0
  9 19  1  0  0  0  0
  7  8  1  0  0  0  0
  7  9  1  0  0  0  0
 23 24  1  0  0  0  0
 23 25  1  0  0  0  0
 23 26  1  0  0  0  0
 21 22  1  0  0  0  0
 21 23  1  0  0  0  0
M  END
$$$$
default_name
  -OEChem-02102213163D

 26 25  0     1  0  0  0  0  0999 V2000
   -3.0232   -3.6924    1.0038 H   0  0  0  0  0  0  0  0  0  0  0  0
   -3.0082   -2.6684    0.6318 C   0  0  0  0  0  0  0  0  0  0  0  0
   -3.6332   -2.0414    1.2658 H   0  0  0  0  0  0  0  0  0  0  0  0
   -3.3762   -2.6444   -0.3912 H   0  0  0  0  0  0  0  0  0  0  0  0
   -1.5882   -2.1554    0.6658 C   0  0  0  0  0  0  0  0  0  0  0  0
   -0.6832   -2.8764    1.0638 O   0  0  0  0  0  0  0  0  0  0  0  0
   -1.3952   -0.9084    0.2428 N   0  0  0  0  0  0  0  0  0  0  0  0
   -2.1972   -0.3644   -0.0422 H   0  0  0  0  0  0  0  0  0  0  0  0
   -0.1122   -0.1994    0.2658 C   0  0  1  0  0  0  0  0  0  0  0  0
    0.5635   -0.7260    0.9446 H   0  0  0  0  0  0  0  0  0  0  0  0
    0.4924   -0.2204   -1.1558 C   0  0  0  0  0  0  0  0  0  0  0  0
    0.8984   -1.2112   -1.3569 H   0  0  0  0  0  0  0  0  0  0  0  0
   -0.2926   -0.0180   -1.8829 H   0  0  0  0  0  0  0  0  0  0  0  0
    1.6271    0.7705   -1.3598 C   0  0  0  0  0  0  0  0  0  0  0  0
    2.2016    1.3205   -0.4364 O   0  0  0  0  0  0  0  0  0  0  0  0
    1.9875    1.0430   -2.5903 N   0  0  0  0  0  0  0  0  0  0  0  0
    2.7513    1.6877   -2.6939 H   0  0  0  0  0  0  0  0  0  0  0  0
    1.5435    0.5897   -3.3665 H   0  0  0  0  0  0  0  0  0  0  0  0
   -0.3126    1.2341    0.8050 C   0  0  0  0  0  0  0  0  0  0  0  0
   -1.2484    1.9199    0.3934 O   0  0  0  0  0  0  0  0  0  0  0  0
    0.5615    1.6875    1.7087 N   0  0  0  0  0  0  0  0  0  0  0  0
    1.3461    1.0849    1.9358 H   0  0  0  0  0  0  0  0  0  0  0  0
    0.5043    3.0121    2.3242 C   0  0  0  0  0  0  0  0  0  0  0  0
   -0.4649    3.1514    2.8080 H   0  0  0  0  0  0  0  0  0  0  0  0
    1.2959    3.1139    3.0678 H   0  0  0  0  0  0  0  0  0  0  0  0
    0.6273    3.7799    1.5584 H   0  0  0  0  0  0  0  0  0  0  0  0
  5  6  2  0  0  0  0
  5  7  1  0  0  0  0
  2  3  1  0  0  0  0
  2  4  1  0  0  0  0
  2  5  1  0  0  0  0
  1  2  1  0  0  0  0
 19 20  2  0  0  0  0
 19 21  1  0  0  0  0
 16 17  1  0  0  0  0
 16 18  1  0  0  0  0
 14 15  2  0  0  0  0
 14 16  1  0  0  0  0
 11 12  1  0  0  0  0
 11 13  1  0  0  0  0
 11 14  1  0  0  0  0
  9 10  1  0  0  0  0
  9 11  1  0  0  0  0
  9 19  1  0  0  0  0
  7  8  1  0  0  0  0
  7  9  1  0  0  0  0
 23 24  1  0  0  0  0
 23 25  1  0  0  0  0
 23 26  1  0  0  0  0
 21 22  1  0  0  0  0
 21 23  1  0  0  0  0
M  END
$$$$
default_name
  -OEChem-02102213163D

 26 25  0     1  0  0  0  0  0999 V2000
   -3.0232   -3.6924    1.0038 H   0  0  0  0  0  0  0  0  0  0  0  0
   -3.0082   -2.6684    0.6318 C   0  0  0  0  0  0  0  0  0  0  0  0
   -3.6332   -2.0414    1.2658 H   0  0  0  0  0  0  0  0  0  0  0  0
   -3.3762   -2.6444   -0.3912 H   0  0  0  0  0  0  0  0  0  0  0  0
   -1.5882   -2.1554    0.6658 C   0  0  0  0  0  0  0  0  0  0  0  0
   -0.6832   -2.8764    1.0638 O   0  0  0  0  0  0  0  0  0  0  0  0
   -1.3952   -0.9084    0.2428 N   0  0  0  0  0  0  0  0  0  0  0  0
   -2.1972   -0.3644   -0.0422 H   0  0  0  0  0  0  0  0  0  0  0  0
   -0.1122   -0.1994    0.2658 C   0  0  1  0  0  0  0  0  0  0  0  0
    0.5635   -0.7260    0.9446 H   0  0  0  0  0  0  0  0  0  0  0  0
    0.4924   -0.2204   -1.1558 C   0  0  0  0  0  0  0  0  0  0  0  0
    0.8984   -1.2112   -1.3569 H   0  0  0  0  0  0  0  0  0  0  0  0
   -0.2926   -0.0180   -1.8829 H   0  0  0  0  0  0  0  0  0  0  0  0
    1.6271    0.7705   -1.3598 C   0  0  0  0  0  0  0  0  0  0  0  0
    2.3738    1.1181   -0.4616 O   0  0  0  0  0  0  0  0  0  0  0  0
    1.7926    1.2725   -2.5594 N   0  0  0  0  0  0  0  0  0  0  0  0
    2.5608    1.9110   -2.6683 H   0  0  0  0  0  0  0  0  0  0  0  0
    1.2038    0.9883   -3.3194 H   0  0  0  0  0  0  0  0  0  0  0  0
   -0.3126    1.2341    0.8050 C   0  0  0  0  0  0  0  0  0  0  0  0
   -1.2484    1.9199    0.3934 O   0  0  0  0  0  0  0  0  0  0  0  0
    0.5615    1.6875    1.7087 N   0  0  0  0  0  0  0  0  0  0  0  0
    1.3461    1.0849    1.9358 H   0  0  0  0  0  0  0  0  0  0  0  0
    0.5043    3.0121    2.3242 C   0  0  0  0  0  0  0  0  0  0  0  0
   -0.4649    3.1514    2.8080 H   0  0  0  0  0  0  0  0  0  0  0  0
    1.2959    3.1139    3.0678 H   0  0  0  0  0  0  0  0  0  0  0  0
    0.6273    3.7799    1.5584 H   0  0  0  0  0  0  0  0  0  0  0  0
  5  6  2  0  0  0  0
  5  7  1  0  0  0  0
  2  3  1  0  0  0  0
  2  4  1  0  0  0  0
  2  5  1  0  0  0  0
  1  2  1  0  0  0  0
 19 20  2  0  0  0  0
 19 21  1  0  0  0  0
 16 17  1  0  0  0  0
 16 18  1  0  0  0  0
 14 15  2  0  0  0  0
 14 16  1  0  0  0  0
 11 12  1  0  0  0  0
 11 13  1  0  0  0  0
 11 14  1  0  0  0  0
  9 10  1  0  0  0  0
  9 11  1  0  0  0  0
  9 19  1  0  0  0  0
  7  8  1  0  0  0  0
  7  9  1  0  0  0  0
 23 24  1  0  0  0  0
 23 25  1  0  0  0  0
 23 26  1  0  0  0  0
 21 22  1  0  0  0  0
 21 23  1  0  0  0  0
M  END
$$$$
default_name
  -OEChem-02102213163D

 26 25  0     1  0  0  0  0  0999 V2000
   -3.0232   -3.6924    1.0038 H   0  0  0  0  0  0  0  0  0  0  0  0
   -3.0082   -2.6684    0.6318 C   0  0  0  0  0  0  0  0  0  0  0  0
   -3.6332   -2.0414    1.2658 H   0  0  0  0  0  0  0  0  0  0  0  0
   -3.3762   -2.6444   -0.3912 H   0  0  0  0  0  0  0  0  0  0  0  0
   -1.5882   -2.1554    0.6658 C   0  0  0  0  0  0  0  0  0  0  0  0
   -0.6832   -2.8764    1.0638 O   0  0  0  0  0  0  0  0  0  0  0  0
   -1.3952   -0.9084    0.2428 N   0  0  0  0  0  0  0  0  0  0  0  0
   -2.1972   -0.3644   -0.0422 H   0  0  0  0  0  0  0  0  0  0  0  0
   -0.1122   -0.1994    0.2658 C   0  0  1  0  0  0  0  0  0  0  0  0
    0.5635   -0.7260    0.9446 H   0  0  0  0  0  0  0  0  0  0  0  0
    0.4924   -0.2204   -1.1558 C   0  0  0  0  0  0  0  0  0  0  0  0
    0.8984   -1.2112   -1.3569 H   0  0  0  0  0  0  0  0  0  0  0  0
   -0.2926   -0.0180   -1.8829 H   0  0  0  0  0  0  0  0  0  0  0  0
    1.6271    0.7705   -1.3598 C   0  0  0  0  0  0  0  0  0  0  0  0
    2.5288    0.9215   -0.5540 O   0  0  0  0  0  0  0  0  0  0  0  0
    1.6176    1.4950   -2.4522 N   0  0  0  0  0  0  0  0  0  0  0  0
    2.3890    2.1284   -2.5683 H   0  0  0  0  0  0  0  0  0  0  0  0
    0.8975    1.3762   -3.1395 H   0  0  0  0  0  0  0  0  0  0  0  0
   -0.3126    1.2341    0.8050 C   0  0  0  0  0  0  0  0  0  0  0  0
   -1.2484    1.9199    0.3934 O   0  0  0  0  0  0  0  0  0  0  0  0
    0.5615    1.6875    1.7087 N   0  0  0  0  0  0  0  0  0  0  0  0
    1.3461    1.0849    1.9358 H   0  0  0  0  0  0  0  0  0  0  0  0
    0.5043    3.0121    2.3242 C   0  0  0  0  0  0  0  0  0  0  0  0
   -0.4649    3.1514    2.8080 H   0  0  0  0  0  0  0  0  0  0  0  0
    1.2959    3.1139    3.0678 H   0  0  0  0  0  0  0  0  0  0  0  0
    0.6273    3.7799    1.5584 H   0  0  0  0  0  0  0  0  0  0  0  0
  5  6  2  0  0  0  0
  5  7  1  0  0  0  0
  2  3  1  0  0  0  0
  2  4  1  0  0  0  0
  2  5  1  0  0  0  0
  1  2  1  0  0  0  0
 19 20  2  0  0  0  0
 19 21  1  0  0  0  0
 16 17  1  0  0  0  0
 16 18  1  0  0  0  0
 14 15  2  0  0  0  0
 14 16  1  0  0  0  0
 11 12  1  0  0  0  0
 11 13  1  0  0  0  0
 11 14  1  0  0  0  0
  9 10  1  0  0  0  0
  9 11  1  0  0  0  0
  9 19  1  0  0  0  0
  7  8  1  0  0  0  0
  7  9  1  0  0  0  0
 23 24  1  0  0  0  0
 23 25  1  0  0  0  0
 23 26  1  0  0  0  0
 21 22  1  0  0  0  0
 21 23  1  0  0  0  0
M  END
$$$$
default_name
  -OEChem-02102213163D

 26 25  0     1  0  0  0  0  0999 V2000
   -3.0232   -3.6924    1.0038 H   0  0  0  0  0  0  0  0  0  0  0  0
   -3.0082   -2.6684    0.6318 C   0  0  0  0  0  0  0  0  0  0  0  0
   -3.6332   -2.0414    1.2658 H   0  0  0  0  0  0  0  0  0  0  0  0
   -3.3762   -2.6444   -0.3912 H   0  0  0  0  0  0  0  0  0  0  0  0
   -1.5882   -2.1554    0.6658 C   0  0  0  0  0  0  0  0  0  0  0  0
   -0.6832   -2.8764    1.0638 O   0  0  0  0  0  0  0  0  0  0  0  0
   -1.3952   -0.9084    0.2428 N   0  0  0  0  0  0  0  0  0  0  0  0
   -2.1972   -0.3644   -0.0422 H   0  0  0  0  0  0  0  0  0  0  0  0
   -0.1122   -0.1994    0.2658 C   0  0  1  0  0  0  0  0  0  0  0  0
    0.5635   -0.7260    0.9446 H   0  0  0  0  0  0  0  0  0  0  0  0
    0.4924   -0.2204   -1.1558 C   0  0  0  0  0  0  0  0  0  0  0  0
    0.8984   -1.2112   -1.3569 H   0  0  0  0  0  0  0  0  0  0  0  0
   -0.2926   -0.0180   -1.8829 H   0  0  0  0  0  0  0  0  0  0  0  0
    1.6271    0.7705   -1.3598 C   0  0  0  0  0  0  0  0  0  0  0  0
    2.6562    0.7442   -0.7075 O   0  0  0  0  0  0  0  0  0  0  0  0
    1.4744    1.6952   -2.2762 N   0  0  0  0  0  0  0  0  0  0  0  0
    2.2474    2.3250   -2.4008 H   0  0  0  0  0  0  0  0  0  0  0  0
    0.6454    1.7266   -2.8392 H   0  0  0  0  0  0  0  0  0  0  0  0
   -0.3126    1.2341    0.8050 C   0  0  0  0  0  0  0  0  0  0  0  0
   -1.2484    1.9199    0.3934 O   0  0  0  0  0  0  0  0  0  0  0  0
    0.5615    1.6875    1.7087 N   0  0  0  0  0  0  0  0  0  0  0  0
    1.3461    1.0849    1.9358 H   0  0  0  0  0  0  0  0  0  0  0  0
    0.5043    3.0121    2.3242 C   0  0  0  0  0  0  0  0  0  0  0  0
   -0.4649    3.1514    2.8080 H   0  0  0  0  0  0  0  0  0  0  0  0
    1.2959    3.1139    3.0678 H   0  0  0  0  0  0  0  0  0  0  0  0
    0.6273    3.7799    1.5584 H   0  0  0  0  0  0  0  0  0  0  0  0
  5  6  2  0  0  0  0
  5  7  1  0  0  0  0
  2  3  1  0  0  0  0
  2  4  1  0  0  0  0
  2  5  1  0  0  0  0
  1  2  1  0  0  0  0
 19 20  2  0  0  0  0
 19 21  1  0  0  0  0
 16 17  1  0  0  0  0
 16 18  1  0  0  0  0
 14 15  2  0  0  0  0
 14 16  1  0  0  0  0
 11 12  1  0  0  0  0
 11 13  1  0  0  0  0
 11 14  1  0  0  0  0
  9 10  1  0  0  0  0
  9 11  1  0  0  0  0
  9 19  1  0  0  0  0
  7  8  1  0  0  0  0
  7  9  1  0  0  0  0
 23 24  1  0  0  0  0
 23 25  1  0  0  0  0
 23 26  1  0  0  0  0
 21 22  1  0  0  0  0
 21 23  1  0  0  0  0
M  END
$$$$
default_name
  -OEChem-02102213163D

 26 25  0     1  0  0  0  0  0999 V2000
   -3.0232   -3.6924    1.0038 H   0  0  0  0  0  0  0  0  0  0  0  0
   -3.0082   -2.6684    0.6318 C   0  0  0  0  0  0  0  0  0  0  0  0
   -3.6332   -2.0414    1.2658 H   0  0  0  0  0  0  0  0  0  0  0  0
   -3.3762   -2.6444   -0.3912 H   0  0  0  0  0  0  0  0  0  0  0  0
   -1.5882   -2.1554    0.6658 C   0  0  0  0  0  0  0  0  0  0  0  0
   -0.6832   -2.8764    1.0638 O   0  0  0  0  0  0  0  0  0  0  0  0
   -1.3952   -0.9084    0.2428 N   0  0  0  0  0  0  0  0  0  0  0  0
   -2.1972   -0.3644   -0.0422 H   0  0  0  0  0  0  0  0  0  0  0  0
   -0.1122   -0.1994    0.2658 C   0  0  1  0  0  0  0  0  0  0  0  0
    0.5635   -0.7260    0.9446 H   0  0  0  0  0  0  0  0  0  0  0  0
    0.4924   -0.2204   -1.1558 C   0  0  0  0  0  0  0  0  0  0  0  0
    0.8984   -1.2112   -1.3569 H   0  0  0  0  0  0  0  0  0  0  0  0
   -0.2926   -0.0180   -1.8829 H   0  0  0  0  0  0  0  0  0  0  0  0
    1.6271    0.7705   -1.3598 C   0  0  0  0  0  0  0  0  0  0  0  0
    2.7471    0.5980   -0.9114 O   0  0  0  0  0  0  0  0  0  0  0  0
    1.3726    1.8597   -2.0434 N   0  0  0  0  0  0  0  0  0  0  0  0
    2.1457    2.4875   -2.1770 H   0  0  0  0  0  0  0  0  0  0  0  0
    0.4647    2.0159   -2.4388 H   0  0  0  0  0  0  0  0  0  0  0  0
   -0.3126    1.2341    0.8050 C   0  0  0  0  0  0  0  0  0  0  0  0
   -1.2484    1.9199    0.3934 O   0  0  0  0  0  0  0  0  0  0  0  0
    0.5615    1.6875    1.7087 N   0  0  0  0  0  0  0  0  0  0  0  0
    1.3461    1.0849    1.9358 H   0  0  0  0  0  0  0  0  0  0  0  0
    0.5043    3.0121    2.3242 C   0  0  0  0  0  0  0  0  0  0  0  0
   -0.4649    3.1514    2.8080 H   0  0  0  0  0  0  0  0  0  0  0  0
    1.2959    3.1139    3.0678 H   0  0  0  0  0  0  0  0  0  0  0  0
    0.6273    3.7799    1.5584 H   0  0  0  0  0  0  0  0  0  0  0  0
  5  6  2  0  0  0  0
  5  7  1  0  0  0  0
  2  3  1  0  0  0  0
  2  4  1  0  0  0  0
  2  5  1  0  0  0  0
  1  2  1  0  0  0  0
 19 20  2  0  0  0  0
 19 21  1  0  0  0  0
 16 17  1  0  0  0  0
 16 18  1  0  0  0  0
 14 15  2  0  0  0  0
 14 16  1  0  0  0  0
 11 12  1  0  0  0  0
 11 13  1  0  0  0  0
 11 14  1  0  0  0  0
  9 10  1  0  0  0  0
  9 11  1  0  0  0  0
  9 19  1  0  0  0  0
  7  8  1  0  0  0  0
  7  9  1  0  0  0  0
 23 24  1  0  0  0  0
 23 25  1  0  0  0  0
 23 26  1  0  0  0  0
 21 22  1  0  0  0  0
 21 23  1  0  0  0  0
M  END
$$$$
default_name
  -OEChem-02102213163D

 26 25  0     1  0  0  0  0  0999 V2000
   -3.0232   -3.6924    1.0038 H   0  0  0  0  0  0  0  0  0  0  0  0
   -3.0082   -2.6684    0.6318 C   0  0  0  0  0  0  0  0  0  0  0  0
   -3.6332   -2.0414    1.2658 H   0  0  0  0  0  0  0  0  0  0  0  0
   -3.3762   -2.6444   -0.3912 H   0  0  0  0  0  0  0  0  0  0  0  0
   -1.5882   -2.1554    0.6658 C   0  0  0  0  0  0  0  0  0  0  0  0
   -0.6832   -2.8764    1.0638 O   0  0  0  0  0  0  0  0  0  0  0  0
   -1.3952   -0.9084    0.2428 N   0  0  0  0  0  0  0  0  0  0  0  0
   -2.1972   -0.3644   -0.0422 H   0  0  0  0  0  0  0  0  0  0  0  0
   -0.1122   -0.1994    0.2658 C   0  0  1  0  0  0  0  0  0  0  0  0
    0.5635   -0.7260    0.9446 H   0  0  0  0  0  0  0  0  0  0  0  0
    0.4924   -0.2204   -1.1558 C   0  0  0  0  0  0  0  0  0  0  0  0
    0.8984   -1.2112   -1.3569 H   0  0  0  0  0  0  0  0  0  0  0  0
   -0.2926   -0.0180   -1.8829 H   0  0  0  0  0  0  0  0  0  0  0  0
    1.6271    0.7705   -1.3598 C   0  0  0  0  0  0  0  0  0  0  0  0
    2.7955    0.4931   -1.1520 O   0  0  0  0  0  0  0  0  0  0  0  0
    1.3194    1.9770   -1.7696 N   0  0  0  0  0  0  0  0  0  0  0  0
    2.0909    2.6047   -1.9124 H   0  0  0  0  0  0  0  0  0  0  0  0
    0.3678    2.2243   -1.9658 H   0  0  0  0  0  0  0  0  0  0  0  0
   -0.3126    1.2341    0.8050 C   0  0  0  0  0  0  0  0  0  0  0  0
   -1.2484    1.9199    0.3934 O   0  0  0  0  0  0  0  0  0  0  0  0
    0.5615    1.6875    1.7087 N   0  0  0  0  0  0  0  0  0  0  0  0
    1.3461    1.0849    1.9358 H   0  0  0  0  0  0  0  0  0  0  0  0
    0.5043    3.0121    2.3242 C   0  0  0  0  0  0  0  0  0  0  0  0
   -0.4649    3.1514    2.8080 H   0  0  0  0  0  0  0  0  0  0  0  0
    1.2959    3.1139    3.0678 H   0  0  0  0  0  0  0  0  0  0  0  0
    0.6273    3.7799    1.5584 H   0  0  0  0  0  0  0  0  0  0  0  0
  5  6  2  0  0  0  0
  5  7  1  0  0  0  0
  2  3  1  0  0  0  0
  2  4  1  0  0  0  0
  2  5  1  0  0  0  0
  1  2  1  0  0  0  0
 19 20  2  0  0  0  0
 19 21  1  0  0  0  0
 16 17  1  0  0  0  0
 16 18  1  0  0  0  0
 14 15  2  0  0  0  0
 14 16  1  0  0  0  0
 11 12  1  0  0  0  0
 11 13  1  0  0  0  0
 11 14  1  0  0  0  0
  9 10  1  0  0  0  0
  9 11  1  0  0  0  0
  9 19  1  0  0  0  0
  7  8  1  0  0  0  0
  7  9  1  0  0  0  0
 23 24  1  0  0  0  0
 23 25  1  0  0  0  0
 23 26  1  0  0  0  0
 21 22  1  0  0  0  0
 21 23  1  0  0  0  0
M  END
$$$$
default_name
  -OEChem-02102213163D

 26 25  0     1  0  0  0  0  0999 V2000
   -3.0232   -3.6924    1.0038 H   0  0  0  0  0  0  0  0  0  0  0  0
   -3.0082   -2.6684    0.6318 C   0  0  0  0  0  0  0  0  0  0  0  0
   -3.6332   -2.0414    1.2658 H   0  0  0  0  0  0  0  0  0  0  0  0
   -3.3762   -2.6444   -0.3912 H   0  0  0  0  0  0  0  0  0  0  0  0
   -1.5882   -2.1554    0.6658 C   0  0  0  0  0  0  0  0  0  0  0  0
   -0.6832   -2.8764    1.0638 O   0  0  0  0  0  0  0  0  0  0  0  0
   -1.3952   -0.9084    0.2428 N   0  0  0  0  0  0  0  0  0  0  0  0
   -2.1972   -0.3644   -0.0422 H   0  0  0  0  0  0  0  0  0  0  0  0
   -0.1122   -0.1994    0.2658 C   0  0  1  0  0  0  0  0  0  0  0  0
    0.5635   -0.7260    0.9446 H   0  0  0  0  0  0  0  0  0  0  0  0
    0.4924   -0.2204   -1.1558 C   0  0  0  0  0  0  0  0  0  0  0  0
    0.8984   -1.2112   -1.3569 H   0  0  0  0  0  0  0  0  0  0  0  0
   -0.2926   -0.0180   -1.8829 H   0  0  0  0  0  0  0  0  0  0  0  0
    1.6271    0.7705   -1.3598 C   0  0  0  0  0  0  0  0  0  0  0  0
    2.7980    0.4366   -1.4128 O   0  0  0  0  0  0  0  0  0  0  0  0
    1.3182    2.0394   -1.4734 N   0  0  0  0  0  0  0  0  0  0  0  0
    2.0867    2.6687   -1.6248 H   0  0  0  0  0  0  0  0  0  0  0  0
    0.3613    2.3375   -1.4523 H   0  0  0  0  0  0  0  0  0  0  0  0
   -0.3126    1.2341    0.8050 C   0  0  0  0  0  0  0  0  0  0  0  0
   -1.2484    1.9199    0.3934 O   0  0  0  0  0  0  0  0  0  0  0  0
    0.5615    1.6875    1.7087 N   0  0  0  0  0  0  0  0  0  0  0  0
    1.3461    1.0849    1.9358 H   0  0  0  0  0  0  0  0  0  0  0  0
    0.5043    3.0121    2.3242 C   0  0  0  0  0  0  0  0  0  0  0  0
   -0.4649    3.1514    2.8080 H   0  0  0  0  0  0  0  0  0  0  0  0
    1.2959    3.1139    3.0678 H   0  0  0  0  0  0  0  0  0  0  0  0
    0.6273    3.7799    1.5584 H   0  0  0  0  0  0  0  0  0  0  0  0
  5  6  2  0  0  0  0
  5  7  1  0  0  0  0
  2  3  1  0  0  0  0
  2  4  1  0  0  0  0
  2  5  1  0  0  0  0
  1  2  1  0  0  0  0
 19 20  2  0  0  0  0
 19 21  1  0  0  0  0
 16 17  1  0  0  0  0
 16 18  1  0  0  0  0
 14 15  2  0  0  0  0
 14 16  1  0  0  0  0
 11 12  1  0  0  0  0
 11 13  1  0  0  0  0
 11 14  1  0  0  0  0
  9 10  1  0  0  0  0
  9 11  1  0  0  0  0
  9 19  1  0  0  0  0
  7  8  1  0  0  0  0
  7  9  1  0  0  0  0
 23 24  1  0  0  0  0
 23 25  1  0  0  0  0
 23 26  1  0  0  0  0
 21 22  1  0  0  0  0
 21 23  1  0  0  0  0
M  END
$$$$
default_name
  -OEChem-02102213163D

 26 25  0     1  0  0  0  0  0999 V2000
   -3.0232   -3.6924    1.0038 H   0  0  0  0  0  0  0  0  0  0  0  0
   -3.0082   -2.6684    0.6318 C   0  0  0  0  0  0  0  0  0  0  0  0
   -3.6332   -2.0414    1.2658 H   0  0  0  0  0  0  0  0  0  0  0  0
   -3.3762   -2.6444   -0.3912 H   0  0  0  0  0  0  0  0  0  0  0  0
   -1.5882   -2.1554    0.6658 C   0  0  0  0  0  0  0  0  0  0  0  0
   -0.6832   -2.8764    1.0638 O   0  0  0  0  0  0  0  0  0  0  0  0
   -1.3952   -0.9084    0.2428 N   0  0  0  0  0  0  0  0  0  0  0  0
   -2.1972   -0.3644   -0.0422 H   0  0  0  0  0  0  0  0  0  0  0  0
   -0.1122   -0.1994    0.2658 C   0  0  1  0  0  0  0  0  0  0  0  0
    0.5635   -0.7260    0.9446 H   0  0  0  0  0  0  0  0  0  0  0  0
    0.4924   -0.2204   -1.1558 C   0  0  0  0  0  0  0  0  0  0  0  0
    0.8984   -1.2112   -1.3569 H   0  0  0  0  0  0  0  0  0  0  0  0
   -0.2926   -0.0180   -1.8829 H   0  0  0  0  0  0  0  0  0  0  0  0
    1.6271    0.7705   -1.3598 C   0  0  0  0  0  0  0  0  0  0  0  0
    2.7544    0.4323   -1.6761 O   0  0  0  0  0  0  0  0  0  0  0  0
    1.3692    2.0424   -1.1751 N   0  0  0  0  0  0  0  0  0  0  0  0
    2.1333    2.6752   -1.3340 H   0  0  0  0  0  0  0  0  0  0  0  0
    0.4455    2.3479   -0.9332 H   0  0  0  0  0  0  0  0  0  0  0  0
   -0.3126    1.2341    0.8050 C   0  0  0  0  0  0  0  0  0  0  0  0
   -1.2484    1.9199    0.3934 O   0  0  0  0  0  0  0  0  0  0  0  0
    0.5615    1.6875    1.7087 N   0  0  0  0  0  0  0  0  0  0  0  0
    1.3461    1.0849    1.9358 H   0  0  0  0  0  0  0  0  0  0  0  0
    0.5043    3.0121    2.3242 C   0  0  0  0  0  0  0  0  0  0  0  0
   -0.4649    3.1514    2.8080 H   0  0  0  0  0  0  0  0  0  0  0  0
    1.2959    3.1139    3.0678 H   0  0  0  0  0  0  0  0  0  0  0  0
    0.6273    3.7799    1.5584 H   0  0  0  0  0  0  0  0  0  0  0  0
  5  6  2  0  0  0  0
  5  7  1  0  0  0  0
  2  3  1  0  0  0  0
  2  4  1  0  0  0  0
  2  5  1  0  0  0  0
  1  2  1  0  0  0  0
 19 20  2  0  0  0  0
 19 21  1  0  0  0  0
 16 17  1  0  0  0  0
 16 18  1  0  0  0  0
 14 15  2  0  0  0  0
 14 16  1  0  0  0  0
 11 12  1  0  0  0  0
 11 13  1  0  0  0  0
 11 14  1  0  0  0  0
  9 10  1  0  0  0  0
  9 11  1  0  0  0  0
  9 19  1  0  0  0  0
  7  8  1  0  0  0  0
  7  9  1  0  0  0  0
 23 24  1  0  0  0  0
 23 25  1  0  0  0  0
 23 26  1  0  0  0  0
 21 22  1  0  0  0  0
 21 23  1  0  0  0  0
M  END
$$$$
default_name
  -OEChem-02102213163D

 26 25  0     1  0  0  0  0  0999 V2000
   -3.0232   -3.6924    1.0038 H   0  0  0  0  0  0  0  0  0  0  0  0
   -3.0082   -2.6684    0.6318 C   0  0  0  0  0  0  0  0  0  0  0  0
   -3.6332   -2.0414    1.2658 H   0  0  0  0  0  0  0  0  0  0  0  0
   -3.3762   -2.6444   -0.3912 H   0  0  0  0  0  0  0  0  0  0  0  0
   -1.5882   -2.1554    0.6658 C   0  0  0  0  0  0  0  0  0  0  0  0
   -0.6832   -2.8764    1.0638 O   0  0  0  0  0  0  0  0  0  0  0  0
   -1.3952   -0.9084    0.2428 N   0  0  0  0  0  0  0  0  0  0  0  0
   -2.1972   -0.3644   -0.0422 H   0  0  0  0  0  0  0  0  0  0  0  0
   -0.1122   -0.1994    0.2658 C   0  0  1  0  0  0  0  0  0  0  0  0
    0.5635   -0.7260    0.9446 H   0  0  0  0  0  0  0  0  0  0  0  0
    0.4924   -0.2204   -1.1558 C   0  0  0  0  0  0  0  0  0  0  0  0
    0.8984   -1.2112   -1.3569 H   0  0  0  0  0  0  0  0  0  0  0  0
   -0.2926   -0.0180   -1.8829 H   0  0  0  0  0  0  0  0  0  0  0  0
    1.6271    0.7705   -1.3598 C   0  0  0  0  0  0  0  0  0  0  0  0
    2.6678    0.4805   -1.9239 O   0  0  0  0  0  0  0  0  0  0  0  0
    1.4689    1.9859   -0.8949 N   0  0  0  0  0  0  0  0  0  0  0  0
    2.2277    2.6236   -1.0597 H   0  0  0  0  0  0  0  0  0  0  0  0
    0.6148    2.2548   -0.4441 H   0  0  0  0  0  0  0  0  0  0  0  0
   -0.3126    1.2341    0.8050 C   0  0  0  0  0  0  0  0  0  0  0  0
   -1.2484    1.9199    0.3934 O   0  0  0  0  0  0  0  0  0  0  0  0
    0.5615    1.6875    1.7087 N   0  0  0  0  0  0  0  0  0  0  0  0
    1.3461    1.0849    1.9358 H   0  0  0  0  0  0  0  0  0  0  0  0
    0.5043    3.0121    2.3242 C   0  0  0  0  0  0  0  0  0  0  0  0
   -0.4649    3.1514    2.8080 H   0  0  0  0  0  0  0  0  0  0  0  0
    1.2959    3.1139    3.0678 H   0  0  0  0  0  0  0  0  0  0  0  0
    0.6273    3.7799    1.5584 H   0  0  0  0  0  0  0  0  0  0  0  0
  5  6  2  0  0  0  0
  5  7  1  0  0  0  0
  2  3  1  0  0  0  0
  2  4  1  0  0  0  0
  2  5  1  0  0  0  0
  1  2  1  0  0  0  0
 19 20  2  0  0  0  0
 19 21  1  0  0  0  0
 16 17  1  0  0  0  0
 16 18  1  0  0  0  0
 14 15  2  0  0  0  0
 14 16  1  0  0  0  0
 11 12  1  0  0  0  0
 11 13  1  0  0  0  0
 11 14  1  0  0  0  0
  9 10  1  0  0  0  0
  9 11  1  0  0  0  0
  9 19  1  0  0  0  0
  7  8  1  0  0  0  0
  7  9  1  0  0  0  0
 23 24  1  0  0  0  0
 23 25  1  0  0  0  0
 23 26  1  0  0  0  0
 21 22  1  0  0  0  0
 21 23  1  0  0  0  0
M  END
$$$$
default_name
  -OEChem-02102213163D

 26 25  0     1  0  0  0  0  0999 V2000
   -3.0232   -3.6924    1.0038 H   0  0  0  0  0  0  0  0  0  0  0  0
   -3.0082   -2.6684    0.6318 C   0  0  0  0  0  0  0  0  0  0  0  0
   -3.6332   -2.0414    1.2658 H   0  0  0  0  0  0  0  0  0  0  0  0
   -3.3762   -2.6444   -0.3912 H   0  0  0  0  0  0  0  0  0  0  0  0
   -1.5882   -2.1554    0.6658 C   0  0  0  0  0  0  0  0  0  0  0  0
   -0.6832   -2.8764    1.0638 O   0  0  0  0  0  0  0  0  0  0  0  0
   -1.3952   -0.9084    0.2428 N   0  0  0  0  0  0  0  0  0  0  0  0
   -2.1972   -0.3644   -0.0422 H   0  0  0  0  0  0  0  0  0  0  0  0
   -0.1122   -0.1994    0.2658 C   0  0  1  0  0  0  0  0  0  0  0  0
    0.5635   -0.7260    0.9446 H   0  0  0  0  0  0  0  0  0  0  0  0
    0.4924   -0.2204   -1.1558 C   0  0  0  0  0  0  0  0  0  0  0  0
    0.8984   -1.2112   -1.3569 H   0  0  0  0  0  0  0  0  0  0  0  0
   -0.2926   -0.0180   -1.8829 H   0  0  0  0  0  0  0  0  0  0  0  0
    1.6271    0.7705   -1.3598 C   0  0  0  0  0  0  0  0  0  0  0  0
    2.5440    0.5779   -2.1393 O   0  0  0  0  0  0  0  0  0  0  0  0
    1.6104    1.8738   -0.6521 N   0  0  0  0  0  0  0  0  0  0  0  0
    2.3633    2.5175   -0.8207 H   0  0  0  0  0  0  0  0  0  0  0  0
    0.8576    2.0644   -0.0182 H   0  0  0  0  0  0  0  0  0  0  0  0
   -0.3126    1.2341    0.8050 C   0  0  0  0  0  0  0  0  0  0  0  0
   -1.2484    1.9199    0.3934 O   0  0  0  0  0  0  0  0  0  0  0  0
    0.5615    1.6875    1.7087 N   0  0  0  0  0  0  0  0  0  0  0  0
    1.3461    1.0849    1.9358 H   0  0  0  0  0  0  0  0  0  0  0  0
    0.5043    3.0121    2.3242 C   0  0  0  0  0  0  0  0  0  0  0  0
   -0.4649    3.1514    2.8080 H   0  0  0  0  0  0  0  0  0  0  0  0
    1.2959    3.1139    3.0678 H   0  0  0  0  0  0  0  0  0  0  0  0
    0.6273    3.7799    1.5584 H   0  0  0  0  0  0  0  0  0  0  0  0
  5  6  2  0  0  0  0
  5  7  1  0  0  0  0
  2  3  1  0  0  0  0
  2  4  1  0  0  0  0
  2  5  1  0  0  0  0
  1  2  1  0  0  0  0
 19 20  2  0  0  0  0
 19 21  1  0  0  0  0
 16 17  1  0  0  0  0
 16 18  1  0  0  0  0
 14 15  2  0  0  0  0
 14 16  1  0  0  0  0
 11 12  1  0  0  0  0
 11 13  1  0  0  0  0
 11 14  1  0  0  0  0
  9 10  1  0  0  0  0
  9 11  1  0  0  0  0
  9 19  1  0  0  0  0
  7  8  1  0  0  0  0
  7  9  1  0  0  0  0
 23 24  1  0  0  0  0
 23 25  1  0  0  0  0
 23 26  1  0  0  0  0
 21 22  1  0  0  0  0
 21 23  1  0  0  0  0
M  END
$$$$
default_name
  -OEChem-02102213163D

 26 25  0     1  0  0  0  0  0999 V2000
   -3.0232   -3.6924    1.0038 H   0  0  0  0  0  0  0  0  0  0  0  0
   -3.0082   -2.6684    0.6318 C   0  0  0  0  0  0  0  0  0  0  0  0
   -3.6332   -2.0414    1.2658 H   0  0  0  0  0  0  0  0  0  0  0  0
   -3.3762   -2.6444   -0.3912 H   0  0  0  0  0  0  0  0  0  0  0  0
   -1.5882   -2.1554    0.6658 C   0  0  0  0  0  0  0  0  0  0  0  0
   -0.6832   -2.8764    1.0638 O   0  0  0  0  0  0  0  0  0  0  0  0
   -1.3952   -0.9084    0.2428 N   0  0  0  0  0  0  0  0  0  0  0  0
   -2.1972   -0.3644   -0.0422 H   0  0  0  0  0  0  0  0  0  0  0  0
   -0.1122   -0.1994    0.2658 C   0  0  1  0  0  0  0  0  0  0  0  0
    0.5635   -0.7260    0.9446 H   0  0  0  0  0  0  0  0  0  0  0  0
    0.4924   -0.2204   -1.1558 C   0  0  0  0  0  0  0  0  0  0  0  0
    0.8984   -1.2112   -1.3569 H   0  0  0  0  0  0  0  0  0  0  0  0
   -0.2926   -0.0180   -1.8829 H   0  0  0  0  0  0  0  0  0  0  0  0
    1.6271    0.7705   -1.3598 C   0  0  0  0  0  0  0  0  0  0  0  0
    2.3914    0.7179   -2.3076 O   0  0  0  0  0  0  0  0  0  0  0  0
    1.7843    1.7136   -0.4631 N   0  0  0  0  0  0  0  0  0  0  0  0
    2.5309    2.3642   -0.6331 H   0  0  0  0  0  0  0  0  0  0  0  0
    1.1573    1.7899    0.3155 H   0  0  0  0  0  0  0  0  0  0  0  0
   -0.3126    1.2341    0.8050 C   0  0  0  0  0  0  0  0  0  0  0  0
   -1.2484    1.9199    0.3934 O   0  0  0  0  0  0  0  0  0  0  0  0
    0.5615    1.6875    1.7087 N   0  0  0  0  0  0  0  0  0  0  0  0
    1.3461    1.0849    1.9358 H   0  0  0  0  0  0  0  0  0  0  0  0
    0.5043    3.0121    2.3242 C   0  0  0  0  0  0  0  0  0  0  0  0
   -0.4649    3.1514    2.8080 H   0  0  0  0  0  0  0  0  0  0  0  0
    1.2959    3.1139    3.0678 H   0  0  0  0  0  0  0  0  0  0  0  0
    0.6273    3.7799    1.5584 H   0  0  0  0  0  0  0  0  0  0  0  0
  5  6  2  0  0  0  0
  5  7  1  0  0  0  0
  2  3  1  0  0  0  0
  2  4  1  0  0  0  0
  2  5  1  0  0  0  0
  1  2  1  0  0  0  0
 19 20  2  0  0  0  0
 19 21  1  0  0  0  0
 16 17  1  0  0  0  0
 16 18  1  0  0  0  0
 14 15  2  0  0  0  0
 14 16  1  0  0  0  0
 11 12  1  0  0  0  0
 11 13  1  0  0  0  0
 11 14  1  0  0  0  0
  9 10  1  0  0  0  0
  9 11  1  0  0  0  0
  9 19  1  0  0  0  0
  7  8  1  0  0  0  0
  7  9  1  0  0  0  0
 23 24  1  0  0  0  0
 23 25  1  0  0  0  0
 23 26  1  0  0  0  0
 21 22  1  0  0  0  0
 21 23  1  0  0  0  0
M  END
$$$$
