default_name
  -OEChem-02102213163D

 26 25  0     1  0  0  0  0  0999 V2000
   -3.0232   -3.6924    1.0038 H   0  0  0  0  0  0  0  0  0  0  0  0
   -3.0082   -2.6684    0.6318 C   0  0  0  0  0  0  0  0  0  0  0  0
   -3.6332   -2.0414    1.2658 H   0  0  0  0  0  0  0  0  0  0  0  0
   -3.3762   -2.6444   -0.3912 H   0  0  0  0  0  0  0  0  0  0  0  0
   -1.5882   -2.1554    0.6658 C   0  0  0  0  0  0  0  0  0  0  0  0
   -0.6832   -2.8764    1.0638 O   0  0  0  0  0  0  0  0  0  0  0  0
   -1.3952   -0.9084    0.2428 N   0  0  0  0  0  0  0  0  0  0  0  0
   -2.1972   -0.3644   -0.0422 H   0  0  0  0  0  0  0  0  0  0  0  0
   -0.1122   -0.1994    0.2658 C   0  0  1  0  0  0  0  0  0  0  0  0
    0.6131   -0.7748   -0.3153 H   0  0  0  0  0  0  0  0  0  0  0  0
   -0.2973    1.1841   -0.3966 C   0  0  0  0  0  0  0  0  0  0  0  0
   -0.6175    1.0462   -1.4287 H   0  0  0  0  0  0  0  0  0  0  0  0
   -1.0741    1.7344    0.1322 H   0  0  0  0  0  0  0  0  0  0  0  0
    0.9686    2.0248   -0.4365 C   0  0  0  0  0  0  0  0  0  0  0  0
    1.0080    3.1421   -0.9217 O   0  0  0  0  0  0  0  0  0  0  0  0
    2.0621    1.5085    0.0696 N   0  0  0  0  0  0  0  0  0  0  0  0
    2.8786    2.0935    0.0450 H   0  0  0  0  0  0  0  0  0  0  0  0
    2.0515    0.5992    0.4916 H   0  0  0  0  0  0  0  0  0  0  0  0
    0.4075   -0.0985    1.7169 C   0  0  0  0  0  0  0  0  0  0  0  0
    1.5860   -0.3526    1.9662 O   0  0  0  0  0  0  0  0  0  0  0  0
   -0.4625    0.2583    2.6666 N   0  0  0  0  0  0  0  0  0  0  0  0
   -1.4309    0.3754    2.3860 H   0  0  0  0  0  0  0  0  0  0  0  0
   -0.1275    0.4111    4.0813 C   0  0  0  0  0  0  0  0  0  0  0  0
    0.6862    1.1312    4.1910 H   0  0  0  0  0  0  0  0  0  0  0  0
   -0.9980    0.7641    4.6360 H   0  0  0  0  0  0  0  0  0  0  0  0
    0.1959   -0.5481    4.4891 H   0  0  0  0  0  0  0  0  0  0  0  0
  5  6  2  0  0  0  0
  5  7  1  0  0  0  0
  2  3  1  0  0  0  0
  2  4  1  0  0  0  0
  2  5  1  0  0  0  0
  1  2  1  0  0  0  0
 19 20  2  0  0  0  0
 19 21  1  0  0  0  0
 16 17  1  0  0  0  0
 16 18  1  0  0  0  0
 14 15  2  0  0  0  0
 14 16  1  0  0  0  0
 11 12  1  0  0  0  0
 11 13  1  0  0  0  0
 11 14  1  0  0  0  0
  9 10  1  0  0  0  0
  9 11  1  0  0  0  0
  9 19  1  0  0  0  0
  7  8  1  0  0  0  0
  7  9  1  0  0  0  0
 23 24  1  0  0  0  0
 23 25  1  0  0  0  0
 23 26  1  0  0  0  0
 21 22  1  0  0  0  0
 21 23  1  0  0  0  0
M  END
$$$$
default_name
  -OEChem-02102213163D

 26 25  0     1  0  0  0  0  0999 V2000
   -3.0232   -3.6924    1.0038 H   0  0  0  0  0  0  0  0  0  0  0  0
   -3.0082   -2.6684    0.6318 C   0  0  0  0  0  0  0  0  0  0  0  0
   -3.6332   -2.0414    1.2658 H   0  0  0  0  0  0  0  0  0  0  0  0
   -3.3762   -2.6444   -0.3912 H   0  0  0  0  0  0  0  0  0  0  0  0
   -1.5882   -2.1554    0.6658 C   0  0  0  0  0  0  0  0  0  0  0  0
   -0.6832   -2.8764    1.0638 O   0  0  0  0  0  0  0  0  0  0  0  0
   -1.3952   -0.9084    0.2428 N   0  0  0  0  0  0  0  0  0  0  0  0
   -2.1972   -0.3644   -0.0422 H   0  0  0  0  0  0  0  0  0  0  0  0
   -0.1122   -0.1994    0.2658 C   0  0  1  0  0  0  0  0  0  0  0  0
    0.6131   -0.7748   -0.3153 H   0  0  0  0  0  0  0  0  0  0  0  0
   -0.2973    1.1841   -0.3966 C   0  0  0  0  0  0  0  0  0  0  0  0
   -0.6175    1.0462   -1.4287 H   0  0  0  0  0  0  0  0  0  0  0  0
   -1.0741    1.7344    0.1322 H   0  0  0  0  0  0  0  0  0  0  0  0
    0.9686    2.0248   -0.4365 C   0  0  0  0  0  0  0  0  0  0  0  0
    0.9636    3.2208   -0.6706 O   0  0  0  0  0  0  0  0  0  0  0  0
    2.1111    1.4211   -0.2160 N   0  0  0  0  0  0  0  0  0  0  0  0
    2.9288    2.0049   -0.2314 H   0  0  0  0  0  0  0  0  0  0  0  0
    2.1403    0.4421   -0.0024 H   0  0  0  0  0  0  0  0  0  0  0  0
    0.4075   -0.0985    1.7169 C   0  0  0  0  0  0  0  0  0  0  0  0
    1.5860   -0.3526    1.9662 O   0  0  0  0  0  0  0  0  0  0  0  0
   -0.4625    0.2583    2.6666 N   0  0  0  0  0  0  0  0  0  0  0  0
   -1.4309    0.3754    2.3860 H   0  0  0  0  0  0  0  0  0  0  0  0
   -0.1275    0.4111    4.0813 C   0  0  0  0  0  0  0  0  0  0  0  0
    0.6862    1.1312    4.1910 H   0  0  0  0  0  0  0  0  0  0  0  0
   -0.9980    0.7641    4.6360 H   0  0  0  0  0  0  0  0  0  0  0  0
    0.1959   -0.5481    4.4891 H   0  0  0  0  0  0  0  0  0  0  0  0
  5  6  2  0  0  0  0
  5  7  1  0  0  0  0
  2  3  1  0  0  0  0
  2  4  1  0  0  0  0
  2  5  1  0  0  0  0
  1  2  1  0  0  0  0
 19 20  2  0  0  0  0
 19 21  1  0  0  0  0
 16 17  1  0  0  0  0
 16 18  1  0  0  0  0
 14 15  2  0  0  0  0
 14 16  1  0  0  0  0
 11 12  1  0  0  0  0
 11 13  1  0  0  0  0
 11 14  1  0  0  0  0
  9 10  1  0  0  0  0
  9 11  1  0  0  0  0
  9 19  1  0  0  0  0
  7  8  1  0  0  0  0
  7  9  1  0  0  0  0
 23 24  1  0  0  0  0
 23 25  1  0  0  0  0
 23 26  1  0  0  0  0
 21 22  1  0  0  0  0
 21 23  1  0  0  0  0
M  END
$$$$
default_name
  -OEChem-02102213163D

 26 25  0     1  0  0  0  0  0999 V2000
   -3.0232   -3.6924    1.0038 H   0  0  0  0  0  0  0  0  0  0  0  0
   -3.0082   -2.6684    0.6318 C   0  0  0  0  0  0  0  0  0  0  0  0
   -3.6332   -2.0414    1.2658 H   0  0  0  0  0  0  0  0  0  0  0  0
   -3.3762   -2.6444   -0.3912 H   0  0  0  0  0  0  0  0  0  0  0  0
   -1.5882   -2.1554    0.6658 C   0  0  0  0  0  0  0  0  0  0  0  0
   -0.6832   -2.8764    1.0638 O   0  0  0  0  0  0  0  0  0  0  0  0
   -1.3952   -0.9084    0.2428 N   0  0  0  0  0  0  0  0  0  0  0  0
   -2.1972   -0.3644   -0.0422 H   0  0  0  0  0  0  0  0  0  0  0  0
   -0.1122   -0.1994    0.2658 C   0  0  1  0  0  0  0  0  0  0  0  0
    0.6131   -0.7748   -0.3153 H   0  0  0  0  0  0  0  0  0  0  0  0
   -0.2973    1.1841   -0.3966 C   0  0  0  0  0  0  0  0  0  0  0  0
   -0.6175    1.0462   -1.4287 H   0  0  0  0  0  0  0  0  0  0  0  0
   -1.0741    1.7344    0.1322 H   0  0  0  0  0  0  0  0  0  0  0  0
    0.9686    2.0248   -0.4365 C   0  0  0  0  0  0  0  0  0  0  0  0
    0.9572    3.2431   -0.4048 O   0  0  0  0  0  0  0  0  0  0  0  0
    2.1170    1.3979   -0.5177 N   0  0  0  0  0  0  0  0  0  0  0  0
    2.9371    1.9785   -0.5247 H   0  0  0  0  0  0  0  0  0  0  0  0
    2.1543    0.3961   -0.5261 H   0  0  0  0  0  0  0  0  0  0  0  0
    0.4075   -0.0985    1.7169 C   0  0  0  0  0  0  0  0  0  0  0  0
    1.5860   -0.3526    1.9662 O   0  0  0  0  0  0  0  0  0  0  0  0
   -0.4625    0.2583    2.6666 N   0  0  0  0  0  0  0  0  0  0  0  0
   -1.4309    0.3754    2.3860 H   0  0  0  0  0  0  0  0  0  0  0  0
   -0.1275    0.4111    4.0813 C   0  0  0  0  0  0  0  0  0  0  0  0
    0.6862    1.1312    4.1910 H   0  0  0  0  0  0  0  0  0  0  0  0
   -0.9980    0.7641    4.6360 H   0  0  0  0  0  0  0  0  0  0  0  0
    0.1959   -0.5481    4.4891 H   0  0  0  0  0  0  0  0  0  0  0  0
  5  6  2  0  0  0  0
  5  7  1  0  0  0  0
  2  3  1  0  0  0  0
  2  4  1  0  0  0  0
  2  5  1  0  0  0  0
  1  2  1  0  0  0  0
 19 20  2  0  0  0  0
 19 21  1  0  0  0  0
 16 17  1  0  0  0  0
 16 18  1  0  0  0  0
 14 15  2  0  0  0  0
 14 16  1  0  0  0  0
 11 12  1  0  0  0  0
 11 13  1  0  0  0  0
 11 14  1  0  0  0  0
  9 10  1  0  0  0  0
  9 11  1  0  0  0  0
  9 19  1  0  0  0  0
  7  8  1  0  0  0  0
  7  9  1  0  0  0  0
 23 24  1  0  0  0  0
 23 25  1  0  0  0  0
 23 26  1  0  0  0  0
 21 22  1  0  0  0  0
 21 23  1  0  0  0  0
M  END
$$$$
default_name
  -OEChem-02102213163D

 26 25  0     1  0  0  0  0  0999 V2000
   -3.0232   -3.6924    1.0038 H   0  0  0  0  0  0  0  0  0  0  0  0
   -3.0082   -2.6684    0.6318 C   0  0  0  0  0  0  0  0  0  0  0  0
   -3.6332   -2.0414    1.2658 H   0  0  0  0  0  0  0  0  0  0  0  0
   -3.3762   -2.6444   -0.3912 H   0  0  0  0  0  0  0  0  0  0  0  0
   -1.5882   -2.1554    0.6658 C   0  0  0  0  0  0  0  0  0  0  0  0
   -0.6832   -2.8764    1.0638 O   0  0  0  0  0  0  0  0  0  0  0  0
   -1.3952   -0.9084    0.2428 N   0  0  0  0  0  0  0  0  0  0  0  0
   -2.1972   -0.3644   -0.0422 H   0  0  0  0  0  0  0  0  0  0  0  0
   -0.1122   -0.1994    0.2658 C   0  0  1  0  0  0  0  0  0  0  0  0
    0.6131   -0.7748   -0.3153 H   0  0  0  0  0  0  0  0  0  0  0  0
   -0.2973    1.1841   -0.3966 C   0  0  0  0  0  0  0  0  0  0  0  0
   -0.6175    1.0462   -1.4287 H   0  0  0  0  0  0  0  0  0  0  0  0
   -1.0741    1.7344    0.1322 H   0  0  0  0  0  0  0  0  0  0  0  0
    0.9686    2.0248   -0.4365 C   0  0  0  0  0  0  0  0  0  0  0  0
    0.9892    3.2073   -0.1422 O   0  0  0  0  0  0  0  0  0  0  0  0
    2.0793    1.4405   -0.8150 N   0  0  0  0  0  0  0  0  0  0  0  0
    2.9029    2.0162   -0.8149 H   0  0  0  0  0  0  0  0  0  0  0  0
    2.0925    0.4646   -1.0439 H   0  0  0  0  0  0  0  0  0  0  0  0
    0.4075   -0.0985    1.7169 C   0  0  0  0  0  0  0  0  0  0  0  0
    1.5860   -0.3526    1.9662 O   0  0  0  0  0  0  0  0  0  0  0  0
   -0.4625    0.2583    2.6666 N   0  0  0  0  0  0  0  0  0  0  0  0
   -1.4309    0.3754    2.3860 H   0  0  0  0  0  0  0  0  0  0  0  0
   -0.1275    0.4111    4.0813 C   0  0  0  0  0  0  0  0  0  0  0  0
    0.6862    1.1312    4.1910 H   0  0  0  0  0  0  0  0  0  0  0  0
   -0.9980    0.7641    4.6360 H   0  0  0  0  0  0  0  0  0  0  0  0
    0.1959   -0.5481    4.4891 H   0  0  0  0  0  0  0  0  0  0  0  0
  5  6  2  0  0  0  0
  5  7  1  0  0  0  0
  2  3  1  0  0  0  0
  2  4  1  0  0  0  0
  2  5  1  0  0  0  0
  1  2  1  0  0  0  0
 19 20  2  0  0  0  0
 19 21  1  0  0  0  0
 16 17  1  0  0  0  0
 16 18  1  0  0  0  0
 14 15  2  0  0  0  0
 14 16  1  0  0  0  0
 11 12  1  0  0  0  0
 11 13  1  0  0  0  0
 11 14  1  0  0  0  0
  9 10  1  0  0  0  0
  9 11  1  0  0  0  0
  9 19  1  0  0  0  0
  7  8  1  0  0  0  0
  7  9  1  0  0  0  0
 23 24  1  0  0  0  0
 23 25  1  0  0  0  0
 23 26  1  0  0  0  0
 21 22  1  0  0  0  0
 21 23  1  0  0  0  0
M  END
$$$$
default_name
  -OEChem-02102213163D

 26 25  0     1  0  0  0  0  0999 V2000
   -3.0232   -3.6924    1.0038 H   0  0  0  0  0  0  0  0  0  0  0  0
   -3.0082   -2.6684    0.6318 C   0  0  0  0  0  0  0  0  0  0  0  0
   -3.6332   -2.0414    1.2658 H   0  0  0  0  0  0  0  0  0  0  0  0
   -3.3762   -2.6444   -0.3912 H   0  0  0  0  0  0  0  0  0  0  0  0
   -1.5882   -2.1554    0.6658 C   0  0  0  0  0  0  0  0  0  0  0  0
   -0.6832   -2.8764    1.0638 O   0  0  0  0  0  0  0  0  0  0  0  0
   -1.3952   -0.9084    0.2428 N   0  0  0  0  0  0  0  0  0  0  0  0
   -2.1972   -0.3644   -0.0422 H   0  0  0  0  0  0  0  0  0  0  0  0
   -0.1122   -0.1994    0.2658 C   0  0  1  0  0  0  0  0  0  0  0  0
    0.6131   -0.7748   -0.3153 H   0  0  0  0  0  0  0  0  0  0  0  0
   -0.2973    1.1841   -0.3966 C   0  0  0  0  0  0  0  0  0  0  0  0
   -0.6175    1.0462   -1.4287 H   0  0  0  0  0  0  0  0  0  0  0  0
   -1.0741    1.7344    0.1322 H   0  0  0  0  0  0  0  0  0  0  0  0
    0.9686    2.0248   -0.4365 C   0  0  0  0  0  0  0  0  0  0  0  0
    1.0575    3.1159    0.0990 O   0  0  0  0  0  0  0  0  0  0  0  0
    2.0007    1.5460   -1.0876 N   0  0  0  0  0  0  0  0  0  0  0  0
    2.8286    2.1153   -1.0822 H   0  0  0  0  0  0  0  0  0  0  0  0
    1.9592    0.6427   -1.5204 H   0  0  0  0  0  0  0  0  0  0  0  0
    0.4075   -0.0985    1.7169 C   0  0  0  0  0  0  0  0  0  0  0  0
    1.5860   -0.3526    1.9662 O   0  0  0  0  0  0  0  0  0  0  0  0
   -0.4625    0.2583    2.6666 N   0  0  0  0  0  0  0  0  0  0  0  0
   -1.4309    0.3754    2.3860 H   0  0  0  0  0  0  0  0  0  0  0  0
   -0.1275    0.4111    4.0813 C   0  0  0  0  0  0  0  0  0  0  0  0
    0.6862    1.1312    4.1910 H   0  0  0  0  0  0  0  0  0  0  0  0
   -0.9980    0.7641    4.6360 H   0  0  0  0  0  0  0  0  0  0  0  0
    0.1959   -0.5481    4.4891 H   0  0  0  0  0  0  0  0  0  0  0  0
  5  6  2  0  0  0  0
  5  7  1  0  0  0  0
  2  3  1  0  0  0  0
  2  4  1  0  0  0  0
  2  5  1  0  0  0  0
  1  2  1  0  0  0  0
 19 20  2  0  0  0  0
 19 21  1  0  0  0  0
 16 17  1  0  0  0  0
 16 18  1  0  0  0  0
 14 15  2  0  0  0  0
 14 16  1  0  0  0  0
 11 12  1  0  0  0  0
 11 13  1  0  0  0  0
 11 14  1  0  0  0  0
  9 10  1  0  0  0  0
  9 11  1  0  0  0  0
  9 19  1  0  0  0  0
  7  8  1  0  0  0  0
  7  9  1  0  0  0  0
 23 24  1  0  0  0  0
 23 25  1  0  0  0  0
 23 26  1  0  0  0  0
 21 22  1  0  0  0  0
 21 23  1  0  0  0  0
M  END
$$$$
default_name
  -OEChem-02102213163D

 26 25  0     1  0  0  0  0  0999 V2000
   -3.0232   -3.6924    1.0038 H   0  0  0  0  0  0  0  0  0  0  0  0
   -3.0082   -2.6684    0.6318 C   0  0  0  0  0  0  0  0  0  0  0  0
   -3.6332   -2.0414    1.2658 H   0  0  0  0  0  0  0  0  0  0  0  0
   -3.3762   -2.6444   -0.3912 H   0  0  0  0  0  0  0  0  0  0  0  0
   -1.5882   -2.1554    0.6658 C   0  0  0  0  0  0  0  0  0  0  0  0
   -0.6832   -2.8764    1.0638 O   0  0  0  0  0  0  0  0  0  0  0  0
   -1.3952   -0.9084    0.2428 N   0  0  0  0  0  0  0  0  0  0  0  0
   -2.1972   -0.3644   -0.0422 H   0  0  0  0  0  0  0  0  0  0  0  0
   -0.1122   -0.1994    0.2658 C   0  0  1  0  0  0  0  0  0  0  0  0
    0.6131   -0.7748   -0.3153 H   0  0  0  0  0  0  0  0  0  0  0  0
   -0.2973    1.1841   -0.3966 C   0  0  0  0  0  0  0  0  0  0  0  0
   -0.6175    1.0462   -1.4287 H   0  0  0  0  0  0  0  0  0  0  0  0
   -1.0741    1.7344    0.1322 H   0  0  0  0  0  0  0  0  0  0  0  0
    0.9686    2.0248   -0.4365 C   0  0  0  0  0  0  0  0  0  0  0  0
    1.1574    2.9752    0.3026 O   0  0  0  0  0  0  0  0  0  0  0  0
    1.8864    1.7071   -1.3169 N   0  0  0  0  0  0  0  0  0  0  0  0
    2.7193    2.2692   -1.3084 H   0  0  0  0  0  0  0  0  0  0  0  0
    1.7634    0.9183   -1.9232 H   0  0  0  0  0  0  0  0  0  0  0  0
    0.4075   -0.0985    1.7169 C   0  0  0  0  0  0  0  0  0  0  0  0
    1.5860   -0.3526    1.9662 O   0  0  0  0  0  0  0  0  0  0  0  0
   -0.4625    0.2583    2.6666 N   0  0  0  0  0  0  0  0  0  0  0  0
   -1.4309    0.3754    2.3860 H   0  0  0  0  0  0  0  0  0  0  0  0
   -0.1275    0.4111    4.0813 C   0  0  0  0  0  0  0  0  0  0  0  0
    0.6862    1.1312    4.1910 H   0  0  0  0  0  0  0  0  0  0  0  0
   -0.9980    0.7641    4.6360 H   0  0  0  0  0  0  0  0  0  0  0  0
    0.1959   -0.5481    4.4891 H   0  0  0  0  0  0  0  0  0  0  0  0
  5  6  2  0  0  0  0
  5  7  1  0  0  0  0
  2  3  1  0  0  0  0
  2  4  1  0  0  0  0
  2  5  1  0  0  0  0
  1  2  1  0  0  0  0
 19 20  2  0  0  0  0
 19 21  1  0  0  0  0
 16 17  1  0  0  0  0
 16 18  1  0  0  0  0
 14 15  2  0  0  0  0
 14 16  1  0  0  0  0
 11 12  1  0  0  0  0
 11 13  1  0  0  0  0
 11 14  1  0  0  0  0
  9 10  1  0  0  0  0
  9 11  1  0  0  0  0
  9 19  1  0  0  0  0
  7  8  1  0  0  0  0
  7  9  1  0  0  0  0
 23 24  1  0  0  0  0
 23 25  1  0  0  0  0
 23 26  1  0  0  0  0
 21 22  1  0  0  0  0
 21 23  1  0  0  0  0
M  END
$$$$
default_name
  -OEChem-02102213163D

 26 25  0     1  0  0  0  0  0999 V2000
   -3.0232   -3.6924    1.0038 H   0  0  0  0  0  0  0  0  0  0  0  0
   -3.0082   -2.6684    0.6318 C   0  0  0  0  0  0  0  0  0  0  0  0
   -3.6332   -2.0414    1.2658 H   0  0  0  0  0  0  0  0  0  0  0  0
   -3.3762   -2.6444   -0.3912 H   0  0  0  0  0  0  0  0  0  0  0  0
   -1.5882   -2.1554    0.6658 C   0  0  0  0  0  0  0  0  0  0  0  0
   -0.6832   -2.8764    1.0638 O   0  0  0  0  0  0  0  0  0  0  0  0
   -1.3952   -0.9084    0.2428 N   0  0  0  0  0  0  0  0  0  0  0  0
   -2.1972   -0.3644   -0.0422 H   0  0  0  0  0  0  0  0  0  0  0  0
   -0.1122   -0.1994    0.2658 C   0  0  1  0  0  0  0  0  0  0  0  0
    0.6131   -0.7748   -0.3153 H   0  0  0  0  0  0  0  0  0  0  0  0
   -0.2973    1.1841   -0.3966 C   0  0  0  0  0  0  0  0  0  0  0  0
   -0.6175    1.0462   -1.4287 H   0  0  0  0  0  0  0  0  0  0  0  0
   -1.0741    1.7344    0.1322 H   0  0  0  0  0  0  0  0  0  0  0  0
    0.9686    2.0248   -0.4365 C   0  0  0  0  0  0  0  0  0  0  0  0
    1.2820    2.7948    0.4547 O   0  0  0  0  0  0  0  0  0  0  0  0
    1.7443    1.9130   -1.4873 N   0  0  0  0  0  0  0  0  0  0  0  0
    2.5824    2.4673   -1.4780 H   0  0  0  0  0  0  0  0  0  0  0  0
    1.5185    1.2728   -2.2249 H   0  0  0  0  0  0  0  0  0  0  0  0
    0.4075   -0.0985    1.7169 C   0  0  0  0  0  0  0  0  0  0  0  0
    1.5860   -0.3526    1.9662 O   0  0  0  0  0  0  0  0  0  0  0  0
   -0.4625    0.2583    2.6666 N   0  0  0  0  0  0  0  0  0  0  0  0
   -1.4309    0.3754    2.3860 H   0  0  0  0  0  0  0  0  0  0  0  0
   -0.1275    0.4111    4.0813 C   0  0  0  0  0  0  0  0  0  0  0  0
    0.6862    1.1312    4.1910 H   0  0  0  0  0  0  0  0  0  0  0  0
   -0.9980    0.7641    4.6360 H   0  0  0  0  0  0  0  0  0  0  0  0
    0.1959   -0.5481    4.4891 H   0  0  0  0  0  0  0  0  0  0  0  0
  5  6  2  0  0  0  0
  5  7  1  0  0  0  0
  2  3  1  0  0  0  0
  2  4  1  0  0  0  0
  2  5  1  0  0  0  0
  1  2  1  0  0  0  0
 19 20  2  0  0  0  0
 19 21  1  0  0  0  0
 16 17  1  0  0  0  0
 16 18  1  0  0  0  0
 14 15  2  0  0  0  0
 14 16  1  0  0  0  0
 11 12  1  0  0  0  0
 11 13  1  0  0  0  0
 11 14  1  0  0  0  0
  9 10  1  0  0  0  0
  9 11  1  0  0  0  0
  9 19  1  0  0  0  0
  7  8  1  0  0  0  0
  7  9  1  0  0  0  0
 23 24  1  0  0  0  0
 23 25  1  0  0  0  0
 23 26  1  0  0  0  0
 21 22  1  0  0  0  0
 21 23  1  0  0  0  0
M  END
$$$$
default_name
  -OEChem-02102213163D

 26 25  0     1  0  0  0  0  0999 V2000
   -3.0232   -3.6924    1.0038 H   0  0  0  0  0  0  0  0  0  0  0  0
   -3.0082   -2.6684    0.6318 C   0  0  0  0  0  0  0  0  0  0  0  0
   -3.6332   -2.0414    1.2658 H   0  0  0  0  0  0  0  0  0  0  0  0
   -3.3762   -2.6444   -0.3912 H   0  0  0  0  0  0  0  0  0  0  0  0
   -1.5882   -2.1554    0.6658 C   0  0  0  0  0  0  0  0  0  0  0  0
   -0.6832   -2.8764    1.0638 O   0  0  0  0  0  0  0  0  0  0  0  0
   -1.3952   -0.9084    0.2428 N   0  0  0  0  0  0  0  0  0  0  0  0
   -2.1972   -0.3644   -0.0422 H   0  0  0  0  0  0  0  0  0  0  0  0
   -0.1122   -0.1994    0.2658 C   0  0  1  0  0  0  0  0  0  0  0  0
    0.6131   -0.7748   -0.3153 H   0  0  0  0  0  0  0  0  0  0  0  0
   -0.2973    1.1841   -0.3966 C   0  0  0  0  0  0  0  0  0  0  0  0
   -0.6175    1.0462   -1.4287 H   0  0  0  0  0  0  0  0  0  0  0  0
   -1.0741    1.7344    0.1322 H   0  0  0  0  0  0  0  0  0  0  0  0
    0.9686    2.0248   -0.4365 C   0  0  0  0  0  0  0  0  0  0  0  0
    1.4230    2.5868    0.5448 O   0  0  0  0  0  0  0  0  0  0  0  0
    1.5841    2.1495   -1.5871 N   0  0  0  0  0  0  0  0  0  0  0  0
    2.4271    2.6962   -1.5796 H   0  0  0  0  0  0  0  0  0  0  0  0
    1.2412    1.6818   -2.4049 H   0  0  0  0  0  0  0  0  0  0  0  0
    0.4075   -0.0985    1.7169 C   0  0  0  0  0  0  0  0  0  0  0  0
    1.5860   -0.3526    1.9662 O   0  0  0  0  0  0  0  0  0  0  0  0
   -0.4625    0.2583    2.6666 N   0  0  0  0  0  0  0  0  0  0  0  0
   -1.4309    0.3754    2.3860 H   0  0  0  0  0  0  0  0  0  0  0  0
   -0.1275    0.4111    4.0813 C   0  0  0  0  0  0  0  0  0  0  0  0
    0.6862    1.1312    4.1910 H   0  0  0  0  0  0  0  0  0  0  0  0
   -0.9980    0.7641    4.6360 H   0  0  0  0  0  0  0  0  0  0  0  0
    0.1959   -0.5481    4.4891 H   0  0  0  0  0  0  0  0  0  0  0  0
  5  6  2  0  0  0  0
  5  7  1  0  0  0  0
  2  3  1  0  0  0  0
  2  4  1  0  0  0  0
  2  5  1  0  0  0  0
  1  2  1  0  0  0  0
 19 20  2  0  0  0  0
 19 21  1  0  0  0  0
 16 17  1  0  0  0  0
 16 18  1  0  0  0  0
 14 15  2  0  0  0  0
 14 16  1  0  0  0  0
 11 12  1  0  0  0  0
 11 13  1  0  0  0  0
 11 14  1  0  0  0  0
  9 10  1  0  0  0  0
  9 11  1  0  0  0  0
  9 19  1  0  0  0  0
  7  8  1  0  0  0  0
  7  9  1  0  0  0  0
 23 24  1  0  0  0  0
 23 25  1  0  0  0  0
 23 26  1  0  0  0  0
 21 22  1  0  0  0  0
 21 23  1  0  0  0  0
M  END
$$$$
default_name
  -OEChem-02102213163D

 26 25  0     1  0  0  0  0  0999 V2000
   -3.0232   -3.6924    1.0038 H   0  0  0  0  0  0  0  0  0  0  0  0
   -3.0082   -2.6684    0.6318 C   0  0  0  0  0  0  0  0  0  0  0  0
   -3.6332   -2.0414    1.2658 H   0  0  0  0  0  0  0  0  0  0  0  0
   -3.3762   -2.6444   -0.3912 H   0  0  0  0  0  0  0  0  0  0  0  0
   -1.5882   -2.1554    0.6658 C   0  0  0  0  0  0  0  0  0  0  0  0
   -0.6832   -2.8764    1.0638 O   0  0  0  0  0  0  0  0  0  0  0  0
   -1.3952   -0.9084    0.2428 N   0  0  0  0  0  0  0  0  0  0  0  0
   -2.1972   -0.3644   -0.0422 H   0  0  0  0  0  0  0  0  0  0  0  0
   -0.1122   -0.1994    0.2658 C   0  0  1  0  0  0  0  0  0  0  0  0
    0.6131   -0.7748   -0.3153 H   0  0  0  0  0  0  0  0  0  0  0  0
   -0.2973    1.1841   -0.3966 C   0  0  0  0  0  0  0  0  0  0  0  0
   -0.6175    1.0462   -1.4287 H   0  0  0  0  0  0  0  0  0  0  0  0
   -1.0741    1.7344    0.1322 H   0  0  0  0  0  0  0  0  0  0  0  0
    0.9686    2.0248   -0.4365 C   0  0  0  0  0  0  0  0  0  0  0  0
    1.5706    2.3656    0.5669 O   0  0  0  0  0  0  0  0  0  0  0  0
    1.4166    2.4006   -1.6097 N   0  0  0  0  0  0  0  0  0  0  0  0
    2.2642    2.9402   -1.6062 H   0  0  0  0  0  0  0  0  0  0  0  0
    0.9504    2.1175   -2.4508 H   0  0  0  0  0  0  0  0  0  0  0  0
    0.4075   -0.0985    1.7169 C   0  0  0  0  0  0  0  0  0  0  0  0
    1.5860   -0.3526    1.9662 O   0  0  0  0  0  0  0  0  0  0  0  0
   -0.4625    0.2583    2.6666 N   0  0  0  0  0  0  0  0  0  0  0  0
   -1.4309    0.3754    2.3860 H   0  0  0  0  0  0  0  0  0  0  0  0
   -0.1275    0.4111    4.0813 C   0  0  0  0  0  0  0  0  0  0  0  0
    0.6862    1.1312    4.1910 H   0  0  0  0  0  0  0  0  0  0  0  0
   -0.9980    0.7641    4.6360 H   0  0  0  0  0  0  0  0  0  0  0  0
    0.1959   -0.5481    4.4891 H   0  0  0  0  0  0  0  0  0  0  0  0
  5  6  2  0  0  0  0
  5  7  1  0  0  0  0
  2  3  1  0  0  0  0
  2  4  1  0  0  0  0
  2  5  1  0  0  0  0
  1  2  1  0  0  0  0
 19 20  2  0  0  0  0
 19 21  1  0  0  0  0
 16 17  1  0  0  0  0
 16 18  1  0  0  0  0
 14 15  2  0  0  0  0
 14 16  1  0  0  0  0
 11 12  1  0  0  0  0
 11 13  1  0  0  0  0
 11 14  1  0  0  0  0
  9 10  1  0  0  0  0
  9 11  1  0  0  0  0
  9 19  1  0  0  0  0
  7  8  1  0  0  0  0
  7  9  1  0  0  0  0
 23 24  1  0  0  0  0
 23 25  1  0  0  0  0
 23 26  1  0  0  0  0
 21 22  1  0  0  0  0
 21 23  1  0  0  0  0
M  END
$$$$
default_name
  -OEChem-02102213163D

 26 25  0     1  0  0  0  0  0999 V2000
   -3.0232   -3.6924    1.0038 H   0  0  0  0  0  0  0  0  0  0  0  0
   -3.0082   -2.6684    0.6318 C   0  0  0  0  0  0  0  0  0  0  0  0
   -3.6332   -2.0414    1.2658 H   0  0  0  0  0  0  0  0  0  0  0  0
   -3.3762   -2.6444   -0.3912 H   0  0  0  0  0  0  0  0  0  0  0  0
   -1.5882   -2.1554    0.6658 C   0  0  0  0  0  0  0  0  0  0  0  0
   -0.6832   -2.8764    1.0638 O   0  0  0  0  0  0  0  0  0  0  0  0
   -1.3952   -0.9084    0.2428 N   0  0  0  0  0  0  0  0  0  0  0  0
   -2.1972   -0.3644   -0.0422 H   0  0  0  0  0  0  0  0  0  0  0  0
   -0.1122   -0.1994    0.2658 C   0  0  1  0  0  0  0  0  0  0  0  0
    0.6131   -0.7748   -0.3153 H   0  0  0  0  0  0  0  0  0  0  0  0
   -0.2973    1.1841   -0.3966 C   0  0  0  0  0  0  0  0  0  0  0  0
   -0.6175    1.0462   -1.4287 H   0  0  0  0  0  0  0  0  0  0  0  0
   -1.0741    1.7344    0.1322 H   0  0  0  0  0  0  0  0  0  0  0  0
    0.9686    2.0248   -0.4365 C   0  0  0  0  0  0  0  0  0  0  0  0
    1.7148    2.1461    0.5194 O   0  0  0  0  0  0  0  0  0  0  0  0
    1.2533    2.6492   -1.5534 N   0  0  0  0  0  0  0  0  0  0  0  0
    2.1047    3.1828   -1.5559 H   0  0  0  0  0  0  0  0  0  0  0  0
    0.6658    2.5503   -2.3597 H   0  0  0  0  0  0  0  0  0  0  0  0
    0.4075   -0.0985    1.7169 C   0  0  0  0  0  0  0  0  0  0  0  0
    1.5860   -0.3526    1.9662 O   0  0  0  0  0  0  0  0  0  0  0  0
   -0.4625    0.2583    2.6666 N   0  0  0  0  0  0  0  0  0  0  0  0
   -1.4309    0.3754    2.3860 H   0  0  0  0  0  0  0  0  0  0  0  0
   -0.1275    0.4111    4.0813 C   0  0  0  0  0  0  0  0  0  0  0  0
    0.6862    1.1312    4.1910 H   0  0  0  0  0  0  0  0  0  0  0  0
   -0.9980    0.7641    4.6360 H   0  0  0  0  0  0  0  0  0  0  0  0
    0.1959   -0.5481    4.4891 H   0  0  0  0  0  0  0  0  0  0  0  0
  5  6  2  0  0  0  0
  5  7  1  0  0  0  0
  2  3  1  0  0  0  0
  2  4  1  0  0  0  0
  2  5  1  0  0  0  0
  1  2  1  0  0  0  0
 19 20  2  0  0  0  0
 19 21  1  0  0  0  0
 16 17  1  0  0  0  0
 16 18  1  0  0  0  0
 14 15  2  0  0  0  0
 14 16  1  0  0  0  0
 11 12  1  0  0  0  0
 11 13  1  0  0  0  0
 11 14  1  0  0  0  0
  9 10  1  0  0  0  0
  9 11  1  0  0  0  0
  9 19  1  0  0  0  0
  7  8  1  0  0  0  0
  7  9  1  0  0  0  0
 23 24  1  0  0  0  0
 23 25  1  0  0  0  0
 23 26  1  0  0  0  0
 21 22  1  0  0  0  0
 21 23  1  0  0  0  0
M  END
$$$$
default_name
  -OEChem-02102213163D

 26 25  0     1  0  0  0  0  0999 V2000
   -3.0232   -3.6924    1.0038 H   0  0  0  0  0  0  0  0  0  0  0  0
   -3.0082   -2.6684    0.6318 C   0  0  0  0  0  0  0  0  0  0  0  0
   -3.6332   -2.0414    1.2658 H   0  0  0  0  0  0  0  0  0  0  0  0
   -3.3762   -2.6444   -0.3912 H   0  0  0  0  0  0  0  0  0  0  0  0
   -1.5882   -2.1554    0.6658 C   0  0  0  0  0  0  0  0  0  0  0  0
   -0.6832   -2.8764    1.0638 O   0  0  0  0  0  0  0  0  0  0  0  0
   -1.3952   -0.9084    0.2428 N   0  0  0  0  0  0  0  0  0  0  0  0
   -2.1972   -0.3644   -0.0422 H   0  0  0  0  0  0  0  0  0  0  0  0
   -0.1122   -0.1994    0.2658 C   0  0  1  0  0  0  0  0  0  0  0  0
    0.6131   -0.7748   -0.3153 H   0  0  0  0  0  0  0  0  0  0  0  0
   -0.2973    1.1841   -0.3966 C   0  0  0  0  0  0  0  0  0  0  0  0
   -0.6175    1.0462   -1.4287 H   0  0  0  0  0  0  0  0  0  0  0  0
   -1.0741    1.7344    0.1322 H   0  0  0  0  0  0  0  0  0  0  0  0
    0.9686    2.0248   -0.4365 C   0  0  0  0  0  0  0  0  0  0  0  0
    1.8459    1.9434    0.4055 O   0  0  0  0  0  0  0  0  0  0  0  0
    1.1054    2.8782   -1.4221 N   0  0  0  0  0  0  0  0  0  0  0  0
    1.9595    3.4073   -1.4323 H   0  0  0  0  0  0  0  0  0  0  0  0
    0.4070    2.9506   -2.1376 H   0  0  0  0  0  0  0  0  0  0  0  0
    0.4075   -0.0985    1.7169 C   0  0  0  0  0  0  0  0  0  0  0  0
    1.5860   -0.3526    1.9662 O   0  0  0  0  0  0  0  0  0  0  0  0
   -0.4625    0.2583    2.6666 N   0  0  0  0  0  0  0  0  0  0  0  0
   -1.4309    0.3754    2.3860 H   0  0  0  0  0  0  0  0  0  0  0  0
   -0.1275    0.4111    4.0813 C   0  0  0  0  0  0  0  0  0  0  0  0
    0.6862    1.1312    4.1910 H   0  0  0  0  0  0  0  0  0  0  0  0
   -0.9980    0.7641    4.6360 H   0  0  0  0  0  0  0  0  0  0  0  0
    0.1959   -0.5481    4.4891 H   0  0  0  0  0  0  0  0  0  0  0  0
  5  6  2  0  0  0  0
  5  7  1  0  0  0  0
  2  3  1  0  0  0  0
  2  4  1  0  0  0  0
  2  5  1  0  0  0  0
  1  2  1  0  0  0  0
 19 20  2  0  0  0  0
 19 21  1  0  0  0  0
 16 17  1  0  0  0  0
 16 18  1  0  0  0  0
 14 15  2  0  0  0  0
 14 16  1  0  0  0  0
 11 12  1  0  0  0  0
 11 13  1  0  0  0  0
 11 14  1  0  0  0  0
  9 10  1  0  0  0  0
  9 11  1  0  0  0  0
  9 19  1  0  0  0  0
  7  8  1  0  0  0  0
  7  9  1  0  0  0  0
 23 24  1  0  0  0  0
 23 25  1  0  0  0  0
 23 26  1  0  0  0  0
 21 22  1  0  0  0  0
 21 23  1  0  0  0  0
M  END
$$$$
default_name
  -OEChem-02102213163D

 26 25  0     1  0  0  0  0  0999 V2000
   -3.0232   -3.6924    1.0038 H   0  0  0  0  0  0  0  0  0  0  0  0
   -3.0082   -2.6684    0.6318 C   0  0  0  0  0  0  0  0  0  0  0  0
   -3.6332   -2.0414    1.2658 H   0  0  0  0  0  0  0  0  0  0  0  0
   -3.3762   -2.6444   -0.3912 H   0  0  0  0  0  0  0  0  0  0  0  0
   -1.5882   -2.1554    0.6658 C   0  0  0  0  0  0  0  0  0  0  0  0
   -0.6832   -2.8764    1.0638 O   0  0  0  0  0  0  0  0  0  0  0  0
   -1.3952   -0.9084    0.2428 N   0  0  0  0  0  0  0  0  0  0  0  0
   -2.1972   -0.3644   -0.0422 H   0  0  0  0  0  0  0  0  0  0  0  0
   -0.1122   -0.1994    0.2658 C   0  0  1  0  0  0  0  0  0  0  0  0
    0.6131   -0.7748   -0.3153 H   0  0  0  0  0  0  0  0  0  0  0  0
   -0.2973    1.1841   -0.3966 C   0  0  0  0  0  0  0  0  0  0  0  0
   -0.6175    1.0462   -1.4287 H   0  0  0  0  0  0  0  0  0  0  0  0
   -1.0741    1.7344    0.1322 H   0  0  0  0  0  0  0  0  0  0  0  0
    0.9686    2.0248   -0.4365 C   0  0  0  0  0  0  0  0  0  0  0  0
    1.9548    1.7712    0.2331 O   0  0  0  0  0  0  0  0  0  0  0  0
    0.9828    3.0722   -1.2247 N   0  0  0  0  0  0  0  0  0  0  0  0
    1.8385    3.5986   -1.2436 H   0  0  0  0  0  0  0  0  0  0  0  0
    0.1914    3.2912   -1.7998 H   0  0  0  0  0  0  0  0  0  0  0  0
    0.4075   -0.0985    1.7169 C   0  0  0  0  0  0  0  0  0  0  0  0
    1.5860   -0.3526    1.9662 O   0  0  0  0  0  0  0  0  0  0  0  0
   -0.4625    0.2583    2.6666 N   0  0  0  0  0  0  0  0  0  0  0  0
   -1.4309    0.3754    2.3860 H   0  0  0  0  0  0  0  0  0  0  0  0
   -0.1275    0.4111    4.0813 C   0  0  0  0  0  0  0  0  0  0  0  0
    0.6862    1.1312    4.1910 H   0  0  0  0  0  0  0  0  0  0  0  0
   -0.9980    0.7641    4.6360 H   0  0  0  0  0  0  0  0  0  0  0  0
    0.1959   -0.5481    4.4891 H   0  0  0  0  0  0  0  0  0  0  0  0
  5  6  2  0  0  0  0
  5  7  1  0  0  0  0
  2  3  1  0  0  0  0
  2  4  1  0  0  0  0
  2  5  1  0  0  0  0
  1  2  1  0  0  0  0
 19 20  2  0  0  0  0
 19 21  1  0  0  0  0
 16 17  1  0  0  0  0
 16 18  1  0  0  0  0
 14 15  2  0  0  0  0
 14 16  1  0  0  0  0
 11 12  1  0  0  0  0
 11 13  1  0  0  0  0
 11 14  1  0  0  0  0
  9 10  1  0  0  0  0
  9 11  1  0  0  0  0
  9 19  1  0  0  0  0
  7  8  1  0  0  0  0
  7  9  1  0  0  0  0
 23 24  1  0  0  0  0
 23 25  1  0  0  0  0
 23 26  1  0  0  0  0
 21 22  1  0  0  0  0
 21 23  1  0  0  0  0
M  END
$$$$
default_name
  -OEChem-02102213163D

 26 25  0     1  0  0  0  0  0999 V2000
   -3.0232   -3.6924    1.0038 H   0  0  0  0  0  0  0  0  0  0  0  0
   -3.0082   -2.6684    0.6318 C   0  0  0  0  0  0  0  0  0  0  0  0
   -3.6332   -2.0414    1.2658 H   0  0  0  0  0  0  0  0  0  0  0  0
   -3.3762   -2.6444   -0.3912 H   0  0  0  0  0  0  0  0  0  0  0  0
   -1.5882   -2.1554    0.6658 C   0  0  0  0  0  0  0  0  0  0  0  0
   -0.6832   -2.8764    1.0638 O   0  0  0  0  0  0  0  0  0  0  0  0
   -1.3952   -0.9084    0.2428 N   0  0  0  0  0  0  0  0  0  0  0  0
   -2.1972   -0.3644   -0.0422 H   0  0  0  0  0  0  0  0  0  0  0  0
   -0.1122   -0.1994    0.2658 C   0  0  1  0  0  0  0  0  0  0  0  0
    0.6131   -0.7748   -0.3153 H   0  0  0  0  0  0  0  0  0  0  0  0
   -0.2973    1.1841   -0.3966 C   0  0  0  0  0  0  0  0  0  0  0  0
   -0.6175    1.0462   -1.4287 H   0  0  0  0  0  0  0  0  0  0  0  0
   -1.0741    1.7344    0.1322 H   0  0  0  0  0  0  0  0  0  0  0  0
    0.9686    2.0248   -0.4365 C   0  0  0  0  0  0  0  0  0  0  0  0
    2.0341    1.6414    0.0139 O   0  0  0  0  0  0  0  0  0  0  0  0
    0.8940    3.2178   -0.9747 N   0  0  0  0  0  0  0  0  0  0  0  0
    1.7499    3.7434   -1.0029 H   0  0  0  0  0  0  0  0  0  0  0  0
    0.0339    3.5489   -1.3693 H   0  0  0  0  0  0  0  0  0  0  0  0
    0.4075   -0.0985    1.7169 C   0  0  0  0  0  0  0  0  0  0  0  0
    1.5860   -0.3526    1.9662 O   0  0  0  0  0  0  0  0  0  0  0  0
   -0.4625    0.2583    2.6666 N   0  0  0  0  0  0  0  0  0  0  0  0
   -1.4309    0.3754    2.3860 H   0  0  0  0  0  0  0  0  0  0  0  0
   -0.1275    0.4111    4.0813 C   0  0  0  0  0  0  0  0  0  0  0  0
    0.6862    1.1312    4.1910 H   0  0  0  0  0  0  0  0  0  0  0  0
   -0.9980    0.7641    4.6360 H   0  0  0  0  0  0  0  0  0  0  0  0
    0.1959   -0.5481    4.4891 H   0  0  0  0  0  0  0  0  0  0  0  0
  5  6  2  0  0  0  0
  5  7  1  0  0  0  0
  2  3  1  0  0  0  0
  2  4  1  0  0  0  0
  2  5  1  0  0  0  0
  1  2  1  0  0  0  0
 19 20  2  0  0  0  0
 19 21  1  0  0  0  0
 16 17  1  0  0  0  0
 16 18  1  0  0  0  0
 14 15  2  0  0  0  0
 14 16  1  0  0  0  0
 11 12  1  0  0  0  0
 11 13  1  0  0  0  0
 11 14  1  0  0  0  0
  9 10  1  0  0  0  0
  9 11  1  0  0  0  0
  9 19  1  0  0  0  0
  7  8  1  0  0  0  0
  7  9  1  0  0  0  0
 23 24  1  0  0  0  0
 23 25  1  0  0  0  0
 23 26  1  0  0  0  0
 21 22  1  0  0  0  0
 21 23  1  0  0  0  0
M  END
$$$$
default_name
  -OEChem-02102213163D

 26 25  0     1  0  0  0  0  0999 V2000
   -3.0232   -3.6924    1.0038 H   0  0  0  0  0  0  0  0  0  0  0  0
   -3.0082   -2.6684    0.6318 C   0  0  0  0  0  0  0  0  0  0  0  0
   -3.6332   -2.0414    1.2658 H   0  0  0  0  0  0  0  0  0  0  0  0
   -3.3762   -2.6444   -0.3912 H   0  0  0  0  0  0  0  0  0  0  0  0
   -1.5882   -2.1554    0.6658 C   0  0  0  0  0  0  0  0  0  0  0  0
   -0.6832   -2.8764    1.0638 O   0  0  0  0  0  0  0  0  0  0  0  0
   -1.3952   -0.9084    0.2428 N   0  0  0  0  0  0  0  0  0  0  0  0
   -2.1972   -0.3644   -0.0422 H   0  0  0  0  0  0  0  0  0  0  0  0
   -0.1122   -0.1994    0.2658 C   0  0  1  0  0  0  0  0  0  0  0  0
    0.6131   -0.7748   -0.3153 H   0  0  0  0  0  0  0  0  0  0  0  0
   -0.2973    1.1841   -0.3966 C   0  0  0  0  0  0  0  0  0  0  0  0
   -0.6175    1.0462   -1.4287 H   0  0  0  0  0  0  0  0  0  0  0  0
   -1.0741    1.7344    0.1322 H   0  0  0  0  0  0  0  0  0  0  0  0
    0.9686    2.0248   -0.4365 C   0  0  0  0  0  0  0  0  0  0  0  0
    2.0785    1.5626   -0.2372 O   0  0  0  0  0  0  0  0  0  0  0  0
    0.8449    3.3052   -0.6891 N   0  0  0  0  0  0  0  0  0  0  0  0
    1.6997    3.8321   -0.7265 H   0  0  0  0  0  0  0  0  0  0  0  0
   -0.0549    3.7060   -0.8753 H   0  0  0  0  0  0  0  0  0  0  0  0
    0.4075   -0.0985    1.7169 C   0  0  0  0  0  0  0  0  0  0  0  0
    1.5860   -0.3526    1.9662 O   0  0  0  0  0  0  0  0  0  0  0  0
   -0.4625    0.2583    2.6666 N   0  0  0  0  0  0  0  0  0  0  0  0
   -1.4309    0.3754    2.3860 H   0  0  0  0  0  0  0  0  0  0  0  0
   -0.1275    0.4111    4.0813 C   0  0  0  0  0  0  0  0  0  0  0  0
    0.6862    1.1312    4.1910 H   0  0  0  0  0  0  0  0  0  0  0  0
   -0.9980    0.7641    4.6360 H   0  0  0  0  0  0  0  0  0  0  0  0
    0.1959   -0.5481    4.4891 H   0  0  0  0  0  0  0  0  0  0  0  0
  5  6  2  0  0  0  0
  5  7  1  0  0  0  0
  2  3  1  0  0  0  0
  2  4  1  0  0  0  0
  2  5  1  0  0  0  0
  1  2  1  0  0  0  0
 19 20  2  0  0  0  0
 19 21  1  0  0  0  0
 16 17  1  0  0  0  0
 16 18  1  0  0  0  0
 14 15  2  0  0  0  0
 14 16  1  0  0  0  0
 11 12  1  0  0  0  0
 11 13  1  0  0  0  0
 11 14  1  0  0  0  0
  9 10  1  0  0  0  0
  9 11  1  0  0  0  0
  9 19  1  0  0  0  0
  7  8  1  0  0  0  0
  7  9  1  0  0  0  0
 23 24  1  0  0  0  0
 23 25  1  0  0  0  0
 23 26  1  0  0  0  0
 21 22  1  0  0  0  0
 21 23  1  0  0  0  0
M  END
$$$$
default_name
  -OEChem-02102213163D

 26 25  0     1  0  0  0  0  0999 V2000
   -3.0232   -3.6924    1.0038 H   0  0  0  0  0  0  0  0  0  0  0  0
   -3.0082   -2.6684    0.6318 C   0  0  0  0  0  0  0  0  0  0  0  0
   -3.6332   -2.0414    1.2658 H   0  0  0  0  0  0  0  0  0  0  0  0
   -3.3762   -2.6444   -0.3912 H   0  0  0  0  0  0  0  0  0  0  0  0
   -1.5882   -2.1554    0.6658 C   0  0  0  0  0  0  0  0  0  0  0  0
   -0.6832   -2.8764    1.0638 O   0  0  0  0  0  0  0  0  0  0  0  0
   -1.3952   -0.9084    0.2428 N   0  0  0  0  0  0  0  0  0  0  0  0
   -2.1972   -0.3644   -0.0422 H   0  0  0  0  0  0  0  0  0  0  0  0
   -0.1122   -0.1994    0.2658 C   0  0  1  0  0  0  0  0  0  0  0  0
    0.6131   -0.7748   -0.3153 H   0  0  0  0  0  0  0  0  0  0  0  0
   -0.2973    1.1841   -0.3966 C   0  0  0  0  0  0  0  0  0  0  0  0
   -0.6175    1.0462   -1.4287 H   0  0  0  0  0  0  0  0  0  0  0  0
   -1.0741    1.7344    0.1322 H   0  0  0  0  0  0  0  0  0  0  0  0
    0.9686    2.0248   -0.4365 C   0  0  0  0  0  0  0  0  0  0  0  0
    2.0849    1.5404   -0.5031 O   0  0  0  0  0  0  0  0  0  0  0  0
    0.8391    3.3283   -0.3874 N   0  0  0  0  0  0  0  0  0  0  0  0
    1.6914    3.8585   -0.4332 H   0  0  0  0  0  0  0  0  0  0  0  0
   -0.0689    3.7519   -0.3516 H   0  0  0  0  0  0  0  0  0  0  0  0
    0.4075   -0.0985    1.7169 C   0  0  0  0  0  0  0  0  0  0  0  0
    1.5860   -0.3526    1.9662 O   0  0  0  0  0  0  0  0  0  0  0  0
   -0.4625    0.2583    2.6666 N   0  0  0  0  0  0  0  0  0  0  0  0
   -1.4309    0.3754    2.3860 H   0  0  0  0  0  0  0  0  0  0  0  0
   -0.1275    0.4111    4.0813 C   0  0  0  0  0  0  0  0  0  0  0  0
    0.6862    1.1312    4.1910 H   0  0  0  0  0  0  0  0  0  0  0  0
   -0.9980    0.7641    4.6360 H   0  0  0  0  0  0  0  0  0  0  0  0
    0.1959   -0.5481    4.4891 H   0  0  0  0  0  0  0  0  0  0  0  0
  5  6  2  0  0  0  0
  5  7  1  0  0  0  0
  2  3  1  0  0  0  0
  2  4  1  0  0  0  0
  2  5  1  0  0  0  0
  1  2  1  0  0  0  0
 19 20  2  0  0  0  0
 19 21  1  0  0  0  0
 16 17  1  0  0  0  0
 16 18  1  0  0  0  0
 14 15  2  0  0  0  0
 14 16  1  0  0  0  0
 11 12  1  0  0  0  0
 11 13  1  0  0  0  0
 11 14  1  0  0  0  0
  9 10  1  0  0  0  0
  9 11  1  0  0  0  0
  9 19  1  0  0  0  0
  7  8  1  0  0  0  0
  7  9  1  0  0  0  0
 23 24  1  0  0  0  0
 23 25  1  0  0  0  0
 23 26  1  0  0  0  0
 21 22  1  0  0  0  0
 21 23  1  0  0  0  0
M  END
$$$$
default_name
  -OEChem-02102213163D

 26 25  0     1  0  0  0  0  0999 V2000
   -3.0232   -3.6924    1.0038 H   0  0  0  0  0  0  0  0  0  0  0  0
   -3.0082   -2.6684    0.6318 C   0  0  0  0  0  0  0  0  0  0  0  0
   -3.6332   -2.0414    1.2658 H   0  0  0  0  0  0  0  0  0  0  0  0
   -3.3762   -2.6444   -0.3912 H   0  0  0  0  0  0  0  0  0  0  0  0
   -1.5882   -2.1554    0.6658 C   0  0  0  0  0  0  0  0  0  0  0  0
   -0.6832   -2.8764    1.0638 O   0  0  0  0  0  0  0  0  0  0  0  0
   -1.3952   -0.9084    0.2428 N   0  0  0  0  0  0  0  0  0  0  0  0
   -2.1972   -0.3644   -0.0422 H   0  0  0  0  0  0  0  0  0  0  0  0
   -0.1122   -0.1994    0.2658 C   0  0  1  0  0  0  0  0  0  0  0  0
    0.6131   -0.7748   -0.3153 H   0  0  0  0  0  0  0  0  0  0  0  0
   -0.2973    1.1841   -0.3966 C   0  0  0  0  0  0  0  0  0  0  0  0
   -0.6175    1.0462   -1.4287 H   0  0  0  0  0  0  0  0  0  0  0  0
   -1.0741    1.7344    0.1322 H   0  0  0  0  0  0  0  0  0  0  0  0
    0.9686    2.0248   -0.4365 C   0  0  0  0  0  0  0  0  0  0  0  0
    2.0529    1.5761   -0.7656 O   0  0  0  0  0  0  0  0  0  0  0  0
    0.8767    3.2857   -0.0901 N   0  0  0  0  0  0  0  0  0  0  0  0
    1.7256    3.8208   -0.1430 H   0  0  0  0  0  0  0  0  0  0  0  0
   -0.0071    3.6835    0.1662 H   0  0  0  0  0  0  0  0  0  0  0  0
    0.4075   -0.0985    1.7169 C   0  0  0  0  0  0  0  0  0  0  0  0
    1.5860   -0.3526    1.9662 O   0  0  0  0  0  0  0  0  0  0  0  0
   -0.4625    0.2583    2.6666 N   0  0  0  0  0  0  0  0  0  0  0  0
   -1.4309    0.3754    2.3860 H   0  0  0  0  0  0  0  0  0  0  0  0
   -0.1275    0.4111    4.0813 C   0  0  0  0  0  0  0  0  0  0  0  0
    0.6862    1.1312    4.1910 H   0  0  0  0  0  0  0  0  0  0  0  0
   -0.9980    0.7641    4.6360 H   0  0  0  0  0  0  0  0  0  0  0  0
    0.1959   -0.5481    4.4891 H   0  0  0  0  0  0  0  0  0  0  0  0
  5  6  2  0  0  0  0
  5  7  1  0  0  0  0
  2  3  1  0  0  0  0
  2  4  1  0  0  0  0
  2  5  1  0  0  0  0
  1  2  1  0  0  0  0
 19 20  2  0  0  0  0
 19 21  1  0  0  0  0
 16 17  1  0  0  0  0
 16 18  1  0  0  0  0
 14 15  2  0  0  0  0
 14 16  1  0  0  0  0
 11 12  1  0  0  0  0
 11 13  1  0  0  0  0
 11 14  1  0  0  0  0
  9 10  1  0  0  0  0
  9 11  1  0  0  0  0
  9 19  1  0  0  0  0
  7  8  1  0  0  0  0
  7  9  1  0  0  0  0
 23 24  1  0  0  0  0
 23 25  1  0  0  0  0
 23 26  1  0  0  0  0
 21 22  1  0  0  0  0
 21 23  1  0  0  0  0
M  END
$$$$
default_name
  -OEChem-02102213163D

 26 25  0     1  0  0  0  0  0999 V2000
   -3.0232   -3.6924    1.0038 H   0  0  0  0  0  0  0  0  0  0  0  0
   -3.0082   -2.6684    0.6318 C   0  0  0  0  0  0  0  0  0  0  0  0
   -3.6332   -2.0414    1.2658 H   0  0  0  0  0  0  0  0  0  0  0  0
   -3.3762   -2.6444   -0.3912 H   0  0  0  0  0  0  0  0  0  0  0  0
   -1.5882   -2.1554    0.6658 C   0  0  0  0  0  0  0  0  0  0  0  0
   -0.6832   -2.8764    1.0638 O   0  0  0  0  0  0  0  0  0  0  0  0
   -1.3952   -0.9084    0.2428 N   0  0  0  0  0  0  0  0  0  0  0  0
   -2.1972   -0.3644   -0.0422 H   0  0  0  0  0  0  0  0  0  0  0  0
   -0.1122   -0.1994    0.2658 C   0  0  1  0  0  0  0  0  0  0  0  0
    0.6131   -0.7748   -0.3153 H   0  0  0  0  0  0  0  0  0  0  0  0
   -0.2973    1.1841   -0.3966 C   0  0  0  0  0  0  0  0  0  0  0  0
   -0.6175    1.0462   -1.4287 H   0  0  0  0  0  0  0  0  0  0  0  0
   -1.0741    1.7344    0.1322 H   0  0  0  0  0  0  0  0  0  0  0  0
    0.9686    2.0248   -0.4365 C   0  0  0  0  0  0  0  0  0  0  0  0
    1.9846    1.6675   -1.0069 O   0  0  0  0  0  0  0  0  0  0  0  0
    0.9554    3.1803    0.1824 N   0  0  0  0  0  0  0  0  0  0  0  0
    1.7999    3.7217    0.1243 H   0  0  0  0  0  0  0  0  0  0  0  0
    0.1262    3.5054    0.6427 H   0  0  0  0  0  0  0  0  0  0  0  0
    0.4075   -0.0985    1.7169 C   0  0  0  0  0  0  0  0  0  0  0  0
    1.5860   -0.3526    1.9662 O   0  0  0  0  0  0  0  0  0  0  0  0
   -0.4625    0.2583    2.6666 N   0  0  0  0  0  0  0  0  0  0  0  0
   -1.4309    0.3754    2.3860 H   0  0  0  0  0  0  0  0  0  0  0  0
   -0.1275    0.4111    4.0813 C   0  0  0  0  0  0  0  0  0  0  0  0
    0.6862    1.1312    4.1910 H   0  0  0  0  0  0  0  0  0  0  0  0
   -0.9980    0.7641    4.6360 H   0  0  0  0  0  0  0  0  0  0  0  0
    0.1959   -0.5481    4.4891 H   0  0  0  0  0  0  0  0  0  0  0  0
  5  6  2  0  0  0  0
  5  7  1  0  0  0  0
  2  3  1  0  0  0  0
  2  4  1  0  0  0  0
  2  5  1  0  0  0  0
  1  2  1  0  0  0  0
 19 20  2  0  0  0  0
 19 21  1  0  0  0  0
 16 17  1  0  0  0  0
 16 18  1  0  0  0  0
 14 15  2  0  0  0  0
 14 16  1  0  0  0  0
 11 12  1  0  0  0  0
 11 13  1  0  0  0  0
 11 14  1  0  0  0  0
  9 10  1  0  0  0  0
  9 11  1  0  0  0  0
  9 19  1  0  0  0  0
  7  8  1  0  0  0  0
  7  9  1  0  0  0  0
 23 24  1  0  0  0  0
 23 25  1  0  0  0  0
 23 26  1  0  0  0  0
 21 22  1  0  0  0  0
 21 23  1  0  0  0  0
M  END
$$$$
default_name
  -OEChem-02102213163D

 26 25  0     1  0  0  0  0  0999 V2000
   -3.0232   -3.6924    1.0038 H   0  0  0  0  0  0  0  0  0  0  0  0
   -3.0082   -2.6684    0.6318 C   0  0  0  0  0  0  0  0  0  0  0  0
   -3.6332   -2.0414    1.2658 H   0  0  0  0  0  0  0  0  0  0  0  0
   -3.3762   -2.6444   -0.3912 H   0  0  0  0  0  0  0  0  0  0  0  0
   -1.5882   -2.1554    0.6658 C   0  0  0  0  0  0  0  0  0  0  0  0
   -0.6832   -2.8764    1.0638 O   0  0  0  0  0  0  0  0  0  0  0  0
   -1.3952   -0.9084    0.2428 N   0  0  0  0  0  0  0  0  0  0  0  0
   -2.1972   -0.3644   -0.0422 H   0  0  0  0  0  0  0  0  0  0  0  0
   -0.1122   -0.1994    0.2658 C   0  0  1  0  0  0  0  0  0  0  0  0
    0.6131   -0.7748   -0.3153 H   0  0  0  0  0  0  0  0  0  0  0  0
   -0.2973    1.1841   -0.3966 C   0  0  0  0  0  0  0  0  0  0  0  0
   -0.6175    1.0462   -1.4287 H   0  0  0  0  0  0  0  0  0  0  0  0
   -1.0741    1.7344    0.1322 H   0  0  0  0  0  0  0  0  0  0  0  0
    0.9686    2.0248   -0.4365 C   0  0  0  0  0  0  0  0  0  0  0  0
    1.8847    1.8082   -1.2105 O   0  0  0  0  0  0  0  0  0  0  0  0
    1.0696    3.0191    0.4117 N   0  0  0  0  0  0  0  0  0  0  0  0
    1.9092    3.5678    0.3505 H   0  0  0  0  0  0  0  0  0  0  0  0
    0.3220    3.2298    1.0456 H   0  0  0  0  0  0  0  0  0  0  0  0
    0.4075   -0.0985    1.7169 C   0  0  0  0  0  0  0  0  0  0  0  0
    1.5860   -0.3526    1.9662 O   0  0  0  0  0  0  0  0  0  0  0  0
   -0.4625    0.2583    2.6666 N   0  0  0  0  0  0  0  0  0  0  0  0
   -1.4309    0.3754    2.3860 H   0  0  0  0  0  0  0  0  0  0  0  0
   -0.1275    0.4111    4.0813 C   0  0  0  0  0  0  0  0  0  0  0  0
    0.6862    1.1312    4.1910 H   0  0  0  0  0  0  0  0  0  0  0  0
   -0.9980    0.7641    4.6360 H   0  0  0  0  0  0  0  0  0  0  0  0
    0.1959   -0.5481    4.4891 H   0  0  0  0  0  0  0  0  0  0  0  0
  5  6  2  0  0  0  0
  5  7  1  0  0  0  0
  2  3  1  0  0  0  0
  2  4  1  0  0  0  0
  2  5  1  0  0  0  0
  1  2  1  0  0  0  0
 19 20  2  0  0  0  0
 19 21  1  0  0  0  0
 16 17  1  0  0  0  0
 16 18  1  0  0  0  0
 14 15  2  0  0  0  0
 14 16  1  0  0  0  0
 11 12  1  0  0  0  0
 11 13  1  0  0  0  0
 11 14  1  0  0  0  0
  9 10  1  0  0  0  0
  9 11  1  0  0  0  0
  9 19  1  0  0  0  0
  7  8  1  0  0  0  0
  7  9  1  0  0  0  0
 23 24  1  0  0  0  0
 23 25  1  0  0  0  0
 23 26  1  0  0  0  0
 21 22  1  0  0  0  0
 21 23  1  0  0  0  0
M  END
$$$$
default_name
  -OEChem-02102213163D

 26 25  0     1  0  0  0  0  0999 V2000
   -3.0232   -3.6924    1.0038 H   0  0  0  0  0  0  0  0  0  0  0  0
   -3.0082   -2.6684    0.6318 C   0  0  0  0  0  0  0  0  0  0  0  0
   -3.6332   -2.0414    1.2658 H   0  0  0  0  0  0  0  0  0  0  0  0
   -3.3762   -2.6444   -0.3912 H   0  0  0  0  0  0  0  0  0  0  0  0
   -1.5882   -2.1554    0.6658 C   0  0  0  0  0  0  0  0  0  0  0  0
   -0.6832   -2.8764    1.0638 O   0  0  0  0  0  0  0  0  0  0  0  0
   -1.3952   -0.9084    0.2428 N   0  0  0  0  0  0  0  0  0  0  0  0
   -2.1972   -0.3644   -0.0422 H   0  0  0  0  0  0  0  0  0  0  0  0
   -0.1122   -0.1994    0.2658 C   0  0  1  0  0  0  0  0  0  0  0  0
    0.6131   -0.7748   -0.3153 H   0  0  0  0  0  0  0  0  0  0  0  0
   -0.2973    1.1841   -0.3966 C   0  0  0  0  0  0  0  0  0  0  0  0
   -0.6175    1.0462   -1.4287 H   0  0  0  0  0  0  0  0  0  0  0  0
   -1.0741    1.7344    0.1322 H   0  0  0  0  0  0  0  0  0  0  0  0
    0.9686    2.0248   -0.4365 C   0  0  0  0  0  0  0  0  0  0  0  0
    1.7601    1.9887   -1.3625 O   0  0  0  0  0  0  0  0  0  0  0  0
    1.2117    2.8133    0.5821 N   0  0  0  0  0  0  0  0  0  0  0  0
    2.0461    3.3696    0.5201 H   0  0  0  0  0  0  0  0  0  0  0  0
    0.5669    2.8753    1.3472 H   0  0  0  0  0  0  0  0  0  0  0  0
    0.4075   -0.0985    1.7169 C   0  0  0  0  0  0  0  0  0  0  0  0
    1.5860   -0.3526    1.9662 O   0  0  0  0  0  0  0  0  0  0  0  0
   -0.4625    0.2583    2.6666 N   0  0  0  0  0  0  0  0  0  0  0  0
   -1.4309    0.3754    2.3860 H   0  0  0  0  0  0  0  0  0  0  0  0
   -0.1275    0.4111    4.0813 C   0  0  0  0  0  0  0  0  0  0  0  0
    0.6862    1.1312    4.1910 H   0  0  0  0  0  0  0  0  0  0  0  0
   -0.9980    0.7641    4.6360 H   0  0  0  0  0  0  0  0  0  0  0  0
    0.1959   -0.5481    4.4891 H   0  0  0  0  0  0  0  0  0  0  0  0
  5  6  2  0  0  0  0
  5  7  1  0  0  0  0
  2  3  1  0  0  0  0
  2  4  1  0  0  0  0
  2  5  1  0  0  0  0
  1  2  1  0  0  0  0
 19 20  2  0  0  0  0
 19 21  1  0  0  0  0
 16 17  1  0  0  0  0
 16 18  1  0  0  0  0
 14 15  2  0  0  0  0
 14 16  1  0  0  0  0
 11 12  1  0  0  0  0
 11 13  1  0  0  0  0
 11 14  1  0  0  0  0
  9 10  1  0  0  0  0
  9 11  1  0  0  0  0
  9 19  1  0  0  0  0
  7  8  1  0  0  0  0
  7  9  1  0  0  0  0
 23 24  1  0  0  0  0
 23 25  1  0  0  0  0
 23 26  1  0  0  0  0
 21 22  1  0  0  0  0
 21 23  1  0  0  0  0
M  END
$$$$
default_name
  -OEChem-02102213163D

 26 25  0     1  0  0  0  0  0999 V2000
   -3.0232   -3.6924    1.0038 H   0  0  0  0  0  0  0  0  0  0  0  0
   -3.0082   -2.6684    0.6318 C   0  0  0  0  0  0  0  0  0  0  0  0
   -3.6332   -2.0414    1.2658 H   0  0  0  0  0  0  0  0  0  0  0  0
   -3.3762   -2.6444   -0.3912 H   0  0  0  0  0  0  0  0  0  0  0  0
   -1.5882   -2.1554    0.6658 C   0  0  0  0  0  0  0  0  0  0  0  0
   -0.6832   -2.8764    1.0638 O   0  0  0  0  0  0  0  0  0  0  0  0
   -1.3952   -0.9084    0.2428 N   0  0  0  0  0  0  0  0  0  0  0  0
   -2.1972   -0.3644   -0.0422 H   0  0  0  0  0  0  0  0  0  0  0  0
   -0.1122   -0.1994    0.2658 C   0  0  1  0  0  0  0  0  0  0  0  0
    0.6131   -0.7748   -0.3153 H   0  0  0  0  0  0  0  0  0  0  0  0
   -0.2973    1.1841   -0.3966 C   0  0  0  0  0  0  0  0  0  0  0  0
   -0.6175    1.0462   -1.4287 H   0  0  0  0  0  0  0  0  0  0  0  0
   -1.0741    1.7344    0.1322 H   0  0  0  0  0  0  0  0  0  0  0  0
    0.9686    2.0248   -0.4365 C   0  0  0  0  0  0  0  0  0  0  0  0
    1.6191    2.1966   -1.4527 O   0  0  0  0  0  0  0  0  0  0  0  0
    1.3719    2.5767    0.6820 N   0  0  0  0  0  0  0  0  0  0  0  0
    2.2013    3.1408    0.6217 H   0  0  0  0  0  0  0  0  0  0  0  0
    0.8442    2.4663    1.5272 H   0  0  0  0  0  0  0  0  0  0  0  0
    0.4075   -0.0985    1.7169 C   0  0  0  0  0  0  0  0  0  0  0  0
    1.5860   -0.3526    1.9662 O   0  0  0  0  0  0  0  0  0  0  0  0
   -0.4625    0.2583    2.6666 N   0  0  0  0  0  0  0  0  0  0  0  0
   -1.4309    0.3754    2.3860 H   0  0  0  0  0  0  0  0  0  0  0  0
   -0.1275    0.4111    4.0813 C   0  0  0  0  0  0  0  0  0  0  0  0
    0.6862    1.1312    4.1910 H   0  0  0  0  0  0  0  0  0  0  0  0
   -0.9980    0.7641    4.6360 H   0  0  0  0  0  0  0  0  0  0  0  0
    0.1959   -0.5481    4.4891 H   0  0  0  0  0  0  0  0  0  0  0  0
  5  6  2  0  0  0  0
  5  7  1  0  0  0  0
  2  3  1  0  0  0  0
  2  4  1  0  0  0  0
  2  5  1  0  0  0  0
  1  2  1  0  0  0  0
 19 20  2  0  0  0  0
 19 21  1  0  0  0  0
 16 17  1  0  0  0  0
 16 18  1  0  0  0  0
 14 15  2  0  0  0  0
 14 16  1  0  0  0  0
 11 12  1  0  0  0  0
 11 13  1  0  0  0  0
 11 14  1  0  0  0  0
  9 10  1  0  0  0  0
  9 11  1  0  0  0  0
  9 19  1  0  0  0  0
  7  8  1  0  0  0  0
  7  9  1  0  0  0  0
 23 24  1  0  0  0  0
 23 25  1  0  0  0  0
 23 26  1  0  0  0  0
 21 22  1  0  0  0  0
 21 23  1  0  0  0  0
M  END
$$$$
default_name
  -OEChem-02102213163D

 26 25  0     1  0  0  0  0  0999 V2000
   -3.0232   -3.6924    1.0038 H   0  0  0  0  0  0  0  0  0  0  0  0
   -3.0082   -2.6684    0.6318 C   0  0  0  0  0  0  0  0  0  0  0  0
   -3.6332   -2.0414    1.2658 H   0  0  0  0  0  0  0  0  0  0  0  0
   -3.3762   -2.6444   -0.3912 H   0  0  0  0  0  0  0  0  0  0  0  0
   -1.5882   -2.1554    0.6658 C   0  0  0  0  0  0  0  0  0  0  0  0
   -0.6832   -2.8764    1.0638 O   0  0  0  0  0  0  0  0  0  0  0  0
   -1.3952   -0.9084    0.2428 N   0  0  0  0  0  0  0  0  0  0  0  0
   -2.1972   -0.3644   -0.0422 H   0  0  0  0  0  0  0  0  0  0  0  0
   -0.1122   -0.1994    0.2658 C   0  0  1  0  0  0  0  0  0  0  0  0
    0.6131   -0.7748   -0.3153 H   0  0  0  0  0  0  0  0  0  0  0  0
   -0.2973    1.1841   -0.3966 C   0  0  0  0  0  0  0  0  0  0  0  0
   -0.6175    1.0462   -1.4287 H   0  0  0  0  0  0  0  0  0  0  0  0
   -1.0741    1.7344    0.1322 H   0  0  0  0  0  0  0  0  0  0  0  0
    0.9686    2.0248   -0.4365 C   0  0  0  0  0  0  0  0  0  0  0  0
    1.4715    2.4178   -1.4747 O   0  0  0  0  0  0  0  0  0  0  0  0
    1.5394    2.3256    0.7046 N   0  0  0  0  0  0  0  0  0  0  0  0
    2.3642    2.8967    0.6483 H   0  0  0  0  0  0  0  0  0  0  0  0
    1.1350    2.0306    1.5732 H   0  0  0  0  0  0  0  0  0  0  0  0
    0.4075   -0.0985    1.7169 C   0  0  0  0  0  0  0  0  0  0  0  0
    1.5860   -0.3526    1.9662 O   0  0  0  0  0  0  0  0  0  0  0  0
   -0.4625    0.2583    2.6666 N   0  0  0  0  0  0  0  0  0  0  0  0
   -1.4309    0.3754    2.3860 H   0  0  0  0  0  0  0  0  0  0  0  0
   -0.1275    0.4111    4.0813 C   0  0  0  0  0  0  0  0  0  0  0  0
    0.6862    1.1312    4.1910 H   0  0  0  0  0  0  0  0  0  0  0  0
   -0.9980    0.7641    4.6360 H   0  0  0  0  0  0  0  0  0  0  0  0
    0.1959   -0.5481    4.4891 H   0  0  0  0  0  0  0  0  0  0  0  0
  5  6  2  0  0  0  0
  5  7  1  0  0  0  0
  2  3  1  0  0  0  0
  2  4  1  0  0  0  0
  2  5  1  0  0  0  0
  1  2  1  0  0  0  0
 19 20  2  0  0  0  0
 19 21  1  0  0  0  0
 16 17  1  0  0  0  0
 16 18  1  0  0  0  0
 14 15  2  0  0  0  0
 14 16  1  0  0  0  0
 11 12  1  0  0  0  0
 11 13  1  0  0  0  0
 11 14  1  0  0  0  0
  9 10  1  0  0  0  0
  9 11  1  0  0  0  0
  9 19  1  0  0  0  0
  7  8  1  0  0  0  0
  7  9  1  0  0  0  0
 23 24  1  0  0  0  0
 23 25  1  0  0  0  0
 23 26  1  0  0  0  0
 21 22  1  0  0  0  0
 21 23  1  0  0  0  0
M  END
$$$$
default_name
  -OEChem-02102213163D

 26 25  0     1  0  0  0  0  0999 V2000
   -3.0232   -3.6924    1.0038 H   0  0  0  0  0  0  0  0  0  0  0  0
   -3.0082   -2.6684    0.6318 C   0  0  0  0  0  0  0  0  0  0  0  0
   -3.6332   -2.0414    1.2658 H   0  0  0  0  0  0  0  0  0  0  0  0
   -3.3762   -2.6444   -0.3912 H   0  0  0  0  0  0  0  0  0  0  0  0
   -1.5882   -2.1554    0.6658 C   0  0  0  0  0  0  0  0  0  0  0  0
   -0.6832   -2.8764    1.0638 O   0  0  0  0  0  0  0  0  0  0  0  0
   -1.3952   -0.9084    0.2428 N   0  0  0  0  0  0  0  0  0  0  0  0
   -2.1972   -0.3644   -0.0422 H   0  0  0  0  0  0  0  0  0  0  0  0
   -0.1122   -0.1994    0.2658 C   0  0  1  0  0  0  0  0  0  0  0  0
    0.6131   -0.7748   -0.3153 H   0  0  0  0  0  0  0  0  0  0  0  0
   -0.2973    1.1841   -0.3966 C   0  0  0  0  0  0  0  0  0  0  0  0
   -0.6175    1.0462   -1.4287 H   0  0  0  0  0  0  0  0  0  0  0  0
   -1.0741    1.7344    0.1322 H   0  0  0  0  0  0  0  0  0  0  0  0
    0.9686    2.0248   -0.4365 C   0  0  0  0  0  0  0  0  0  0  0  0
    1.3272    2.6373   -1.4272 O   0  0  0  0  0  0  0  0  0  0  0  0
    1.7027    2.0771    0.6483 N   0  0  0  0  0  0  0  0  0  0  0  0
    2.5237    2.6542    0.5980 H   0  0  0  0  0  0  0  0  0  0  0  0
    1.4196    1.5978    1.4820 H   0  0  0  0  0  0  0  0  0  0  0  0
    0.4075   -0.0985    1.7169 C   0  0  0  0  0  0  0  0  0  0  0  0
    1.5860   -0.3526    1.9662 O   0  0  0  0  0  0  0  0  0  0  0  0
   -0.4625    0.2583    2.6666 N   0  0  0  0  0  0  0  0  0  0  0  0
   -1.4309    0.3754    2.3860 H   0  0  0  0  0  0  0  0  0  0  0  0
   -0.1275    0.4111    4.0813 C   0  0  0  0  0  0  0  0  0  0  0  0
    0.6862    1.1312    4.1910 H   0  0  0  0  0  0  0  0  0  0  0  0
   -0.9980    0.7641    4.6360 H   0  0  0  0  0  0  0  0  0  0  0  0
    0.1959   -0.5481    4.4891 H   0  0  0  0  0  0  0  0  0  0  0  0
  5  6  2  0  0  0  0
  5  7  1  0  0  0  0
  2  3  1  0  0  0  0
  2  4  1  0  0  0  0
  2  5  1  0  0  0  0
  1  2  1  0  0  0  0
 19 20  2  0  0  0  0
 19 21  1  0  0  0  0
 16 17  1  0  0  0  0
 16 18  1  0  0  0  0
 14 15  2  0  0  0  0
 14 16  1  0  0  0  0
 11 12  1  0  0  0  0
 11 13  1  0  0  0  0
 11 14  1  0  0  0  0
  9 10  1  0  0  0  0
  9 11  1  0  0  0  0
  9 19  1  0  0  0  0
  7  8  1  0  0  0  0
  7  9  1  0  0  0  0
 23 24  1  0  0  0  0
 23 25  1  0  0  0  0
 23 26  1  0  0  0  0
 21 22  1  0  0  0  0
 21 23  1  0  0  0  0
M  END
$$$$
default_name
  -OEChem-02102213163D

 26 25  0     1  0  0  0  0  0999 V2000
   -3.0232   -3.6924    1.0038 H   0  0  0  0  0  0  0  0  0  0  0  0
   -3.0082   -2.6684    0.6318 C   0  0  0  0  0  0  0  0  0  0  0  0
   -3.6332   -2.0414    1.2658 H   0  0  0  0  0  0  0  0  0  0  0  0
   -3.3762   -2.6444   -0.3912 H   0  0  0  0  0  0  0  0  0  0  0  0
   -1.5882   -2.1554    0.6658 C   0  0  0  0  0  0  0  0  0  0  0  0
   -0.6832   -2.8764    1.0638 O   0  0  0  0  0  0  0  0  0  0  0  0
   -1.3952   -0.9084    0.2428 N   0  0  0  0  0  0  0  0  0  0  0  0
   -2.1972   -0.3644   -0.0422 H   0  0  0  0  0  0  0  0  0  0  0  0
   -0.1122   -0.1994    0.2658 C   0  0  1  0  0  0  0  0  0  0  0  0
    0.6131   -0.7748   -0.3153 H   0  0  0  0  0  0  0  0  0  0  0  0
   -0.2973    1.1841   -0.3966 C   0  0  0  0  0  0  0  0  0  0  0  0
   -0.6175    1.0462   -1.4287 H   0  0  0  0  0  0  0  0  0  0  0  0
   -1.0741    1.7344    0.1322 H   0  0  0  0  0  0  0  0  0  0  0  0
    0.9686    2.0248   -0.4365 C   0  0  0  0  0  0  0  0  0  0  0  0
    1.1962    2.8400   -1.3134 O   0  0  0  0  0  0  0  0  0  0  0  0
    1.8507    1.8481    0.5169 N   0  0  0  0  0  0  0  0  0  0  0  0
    2.6690    2.4296    0.4744 H   0  0  0  0  0  0  0  0  0  0  0  0
    1.6785    1.1974    1.2600 H   0  0  0  0  0  0  0  0  0  0  0  0
    0.4075   -0.0985    1.7169 C   0  0  0  0  0  0  0  0  0  0  0  0
    1.5860   -0.3526    1.9662 O   0  0  0  0  0  0  0  0  0  0  0  0
   -0.4625    0.2583    2.6666 N   0  0  0  0  0  0  0  0  0  0  0  0
   -1.4309    0.3754    2.3860 H   0  0  0  0  0  0  0  0  0  0  0  0
   -0.1275    0.4111    4.0813 C   0  0  0  0  0  0  0  0  0  0  0  0
    0.6862    1.1312    4.1910 H   0  0  0  0  0  0  0  0  0  0  0  0
   -0.9980    0.7641    4.6360 H   0  0  0  0  0  0  0  0  0  0  0  0
    0.1959   -0.5481    4.4891 H   0  0  0  0  0  0  0  0  0  0  0  0
  5  6  2  0  0  0  0
  5  7  1  0  0  0  0
  2  3  1  0  0  0  0
  2  4  1  0  0  0  0
  2  5  1  0  0  0  0
  1  2  1  0  0  0  0
 19 20  2  0  0  0  0
 19 21  1  0  0  0  0
 16 17  1  0  0  0  0
 16 18  1  0  0  0  0
 14 15  2  0  0  0  0
 14 16  1  0  0  0  0
 11 12  1  0  0  0  0
 11 13  1  0  0  0  0
 11 14  1  0  0  0  0
  9 10  1  0  0  0  0
  9 11  1  0  0  0  0
  9 19  1  0  0  0  0
  7  8  1  0  0  0  0
  7  9  1  0  0  0  0
 23 24  1  0  0  0  0
 23 25  1  0  0  0  0
 23 26  1  0  0  0  0
 21 22  1  0  0  0  0
 21 23  1  0  0  0  0
M  END
$$$$
default_name
  -OEChem-02102213163D

 26 25  0     1  0  0  0  0  0999 V2000
   -3.0232   -3.6924    1.0038 H   0  0  0  0  0  0  0  0  0  0  0  0
   -3.0082   -2.6684    0.6318 C   0  0  0  0  0  0  0  0  0  0  0  0
   -3.6332   -2.0414    1.2658 H   0  0  0  0  0  0  0  0  0  0  0  0
   -3.3762   -2.6444   -0.3912 H   0  0  0  0  0  0  0  0  0  0  0  0
   -1.5882   -2.1554    0.6658 C   0  0  0  0  0  0  0  0  0  0  0  0
   -0.6832   -2.8764    1.0638 O   0  0  0  0  0  0  0  0  0  0  0  0
   -1.3952   -0.9084    0.2428 N   0  0  0  0  0  0  0  0  0  0  0  0
   -2.1972   -0.3644   -0.0422 H   0  0  0  0  0  0  0  0  0  0  0  0
   -0.1122   -0.1994    0.2658 C   0  0  1  0  0  0  0  0  0  0  0  0
    0.6131   -0.7748   -0.3153 H   0  0  0  0  0  0  0  0  0  0  0  0
   -0.2973    1.1841   -0.3966 C   0  0  0  0  0  0  0  0  0  0  0  0
   -0.6175    1.0462   -1.4287 H   0  0  0  0  0  0  0  0  0  0  0  0
   -1.0741    1.7344    0.1322 H   0  0  0  0  0  0  0  0  0  0  0  0
    0.9686    2.0248   -0.4365 C   0  0  0  0  0  0  0  0  0  0  0  0
    1.0873    3.0122   -1.1410 O   0  0  0  0  0  0  0  0  0  0  0  0
    1.9732    1.6541    0.3196 N   0  0  0  0  0  0  0  0  0  0  0  0
    2.7900    2.2384    0.2858 H   0  0  0  0  0  0  0  0  0  0  0  0
    1.8940    0.8568    0.9221 H   0  0  0  0  0  0  0  0  0  0  0  0
    0.4075   -0.0985    1.7169 C   0  0  0  0  0  0  0  0  0  0  0  0
    1.5860   -0.3526    1.9662 O   0  0  0  0  0  0  0  0  0  0  0  0
   -0.4625    0.2583    2.6666 N   0  0  0  0  0  0  0  0  0  0  0  0
   -1.4309    0.3754    2.3860 H   0  0  0  0  0  0  0  0  0  0  0  0
   -0.1275    0.4111    4.0813 C   0  0  0  0  0  0  0  0  0  0  0  0
    0.6862    1.1312    4.1910 H   0  0  0  0  0  0  0  0  0  0  0  0
   -0.9980    0.7641    4.6360 H   0  0  0  0  0  0  0  0  0  0  0  0
    0.1959   -0.5481    4.4891 H   0  0  0  0  0  0  0  0  0  0  0  0
  5  6  2  0  0  0  0
  5  7  1  0  0  0  0
  2  3  1  0  0  0  0
  2  4  1  0  0  0  0
  2  5  1  0  0  0  0
  1  2  1  0  0  0  0
 19 20  2  0  0  0  0
 19 21  1  0  0  0  0
 16 17  1  0  0  0  0
 16 18  1  0  0  0  0
 14 15  2  0  0  0  0
 14 16  1  0  0  0  0
 11 12  1  0  0  0  0
 11 13  1  0  0  0  0
 11 14  1  0  0  0  0
  9 10  1  0  0  0  0
  9 11  1  0  0  0  0
  9 19  1  0  0  0  0
  7  8  1  0  0  0  0
  7  9  1  0  0  0  0
 23 24  1  0  0  0  0
 23 25  1  0  0  0  0
 23 26  1  0  0  0  0
 21 22  1  0  0  0  0
 21 23  1  0  0  0  0
M  END
$$$$
default_name
  -OEChem-02102213163D

 26 25  0     1  0  0  0  0  0999 V2000
   -3.0232   -3.6924    1.0038 H   0  0  0  0  0  0  0  0  0  0  0  0
   -3.0082   -2.6684    0.6318 C   0  0  0  0  0  0  0  0  0  0  0  0
   -3.6332   -2.0414    1.2658 H   0  0  0  0  0  0  0  0  0  0  0  0
   -3.3762   -2.6444   -0.3912 H   0  0  0  0  0  0  0  0  0  0  0  0
   -1.5882   -2.1554    0.6658 C   0  0  0  0  0  0  0  0  0  0  0  0
   -0.6832   -2.8764    1.0638 O   0  0  0  0  0  0  0  0  0  0  0  0
   -1.3952   -0.9084    0.2428 N   0  0  0  0  0  0  0  0  0  0  0  0
   -2.1972   -0.3644   -0.0422 H   0  0  0  0  0  0  0  0  0  0  0  0
   -0.1122   -0.1994    0.2658 C   0  0  1  0  0  0  0  0  0  0  0  0
    0.6131   -0.7748   -0.3153 H   0  0  0  0  0  0  0  0  0  0  0  0
   -0.2973    1.1841   -0.3966 C   0  0  0  0  0  0  0  0  0  0  0  0
   -0.8626    1.0653   -1.3203 H   0  0  0  0  0  0  0  0  0  0  0  0
   -0.8655    1.8292    0.2719 H   0  0  0  0  0  0  0  0  0  0  0  0
    1.0070    1.8733   -0.7636 C   0  0  0  0  0  0  0  0  0  0  0  0
    1.0516    2.9698   -1.2937 O   0  0  0  0  0  0  0  0  0  0  0  0
    2.1265    1.2442   -0.5004 N   0  0  0  0  0  0  0  0  0  0  0  0
    2.9727    1.7313   -0.7379 H   0  0  0  0  0  0  0  0  0  0  0  0
    2.1173    0.3499   -0.0476 H   0  0  0  0  0  0  0  0  0  0  0  0
    0.4075   -0.0985    1.7169 C   0  0  0  0  0  0  0  0  0  0  0  0
    1.5860   -0.3526    1.9662 O   0  0  0  0  0  0  0  0  0  0  0  0
   -0.4625    0.2583    2.6666 N   0  0  0  0  0  0  0  0  0  0  0  0
   -1.4309    0.3754    2.3860 H   0  0  0  0  0  0  0  0  0  0  0  0
   -0.1275    0.4111    4.0813 C   0  0  0  0  0  0  0  0  0  0  0  0
    0.6862    1.1312    4.1910 H   0  0  0  0  0  0  0  0  0  0  0  0
   -0.9980    0.7641    4.6360 H   0  0  0  0  0  0  0  0  0  0  0  0
    0.1959   -0.5481    4.4891 H   0  0  0  0  0  0  0  0  0  0  0  0
  5  6  2  0  0  0  0
  5  7  1  0  0  0  0
  2  3  1  0  0  0  0
  2  4  1  0  0  0  0
  2  5  1  0  0  0  0
  1  2  1  0  0  0  0
 19 20  2  0  0  0  0
 19 21  1  0  0  0  0
 16 17  1  0  0  0  0
 16 18  1  0  0  0  0
 14 15  2  0  0  0  0
 14 16  1  0  0  0  0
 11 12  1  0  0  0  0
 11 13  1  0  0  0  0
 11 14  1  0  0  0  0
  9 10  1  0  0  0  0
  9 11  1  0  0  0  0
  9 19  1  0  0  0  0
  7  8  1  0  0  0  0
  7  9  1  0  0  0  0
 23 24  1  0  0  0  0
 23 25  1  0  0  0  0
 23 26  1  0  0  0  0
 21 22  1  0  0  0  0
 21 23  1  0  0  0  0
M  END
$$$$
default_name
  -OEChem-02102213163D

 26 25  0     1  0  0  0  0  0999 V2000
   -3.0232   -3.6924    1.0038 H   0  0  0  0  0  0  0  0  0  0  0  0
   -3.0082   -2.6684    0.6318 C   0  0  0  0  0  0  0  0  0  0  0  0
   -3.6332   -2.0414    1.2658 H   0  0  0  0  0  0  0  0  0  0  0  0
   -3.3762   -2.6444   -0.3912 H   0  0  0  0  0  0  0  0  0  0  0  0
   -1.5882   -2.1554    0.6658 C   0  0  0  0  0  0  0  0  0  0  0  0
   -0.6832   -2.8764    1.0638 O   0  0  0  0  0  0  0  0  0  0  0  0
   -1.3952   -0.9084    0.2428 N   0  0  0  0  0  0  0  0  0  0  0  0
   -2.1972   -0.3644   -0.0422 H   0  0  0  0  0  0  0  0  0  0  0  0
   -0.1122   -0.1994    0.2658 C   0  0  1  0  0  0  0  0  0  0  0  0
    0.6131   -0.7748   -0.3153 H   0  0  0  0  0  0  0  0  0  0  0  0
   -0.2973    1.1841   -0.3966 C   0  0  0  0  0  0  0  0  0  0  0  0
   -0.8626    1.0653   -1.3203 H   0  0  0  0  0  0  0  0  0  0  0  0
   -0.8655    1.8292    0.2719 H   0  0  0  0  0  0  0  0  0  0  0  0
    1.0070    1.8733   -0.7636 C   0  0  0  0  0  0  0  0  0  0  0  0
    1.0758    3.0576   -1.0428 O   0  0  0  0  0  0  0  0  0  0  0  0
    2.0978    1.1467   -0.7855 N   0  0  0  0  0  0  0  0  0  0  0  0
    2.9471    1.6325   -1.0142 H   0  0  0  0  0  0  0  0  0  0  0  0
    2.0709    0.1747   -0.5413 H   0  0  0  0  0  0  0  0  0  0  0  0
    0.4075   -0.0985    1.7169 C   0  0  0  0  0  0  0  0  0  0  0  0
    1.5860   -0.3526    1.9662 O   0  0  0  0  0  0  0  0  0  0  0  0
   -0.4625    0.2583    2.6666 N   0  0  0  0  0  0  0  0  0  0  0  0
   -1.4309    0.3754    2.3860 H   0  0  0  0  0  0  0  0  0  0  0  0
   -0.1275    0.4111    4.0813 C   0  0  0  0  0  0  0  0  0  0  0  0
    0.6862    1.1312    4.1910 H   0  0  0  0  0  0  0  0  0  0  0  0
   -0.9980    0.7641    4.6360 H   0  0  0  0  0  0  0  0  0  0  0  0
    0.1959   -0.5481    4.4891 H   0  0  0  0  0  0  0  0  0  0  0  0
  5  6  2  0  0  0  0
  5  7  1  0  0  0  0
  2  3  1  0  0  0  0
  2  4  1  0  0  0  0
  2  5  1  0  0  0  0
  1  2  1  0  0  0  0
 19 20  2  0  0  0  0
 19 21  1  0  0  0  0
 16 17  1  0  0  0  0
 16 18  1  0  0  0  0
 14 15  2  0  0  0  0
 14 16  1  0  0  0  0
 11 12  1  0  0  0  0
 11 13  1  0  0  0  0
 11 14  1  0  0  0  0
  9 10  1  0  0  0  0
  9 11  1  0  0  0  0
  9 19  1  0  0  0  0
  7  8  1  0  0  0  0
  7  9  1  0  0  0  0
 23 24  1  0  0  0  0
 23 25  1  0  0  0  0
 23 26  1  0  0  0  0
 21 22  1  0  0  0  0
 21 23  1  0  0  0  0
M  END
$$$$
default_name
  -OEChem-02102213163D

 26 25  0     1  0  0  0  0  0999 V2000
   -3.0232   -3.6924    1.0038 H   0  0  0  0  0  0  0  0  0  0  0  0
   -3.0082   -2.6684    0.6318 C   0  0  0  0  0  0  0  0  0  0  0  0
   -3.6332   -2.0414    1.2658 H   0  0  0  0  0  0  0  0  0  0  0  0
   -3.3762   -2.6444   -0.3912 H   0  0  0  0  0  0  0  0  0  0  0  0
   -1.5882   -2.1554    0.6658 C   0  0  0  0  0  0  0  0  0  0  0  0
   -0.6832   -2.8764    1.0638 O   0  0  0  0  0  0  0  0  0  0  0  0
   -1.3952   -0.9084    0.2428 N   0  0  0  0  0  0  0  0  0  0  0  0
   -2.1972   -0.3644   -0.0422 H   0  0  0  0  0  0  0  0  0  0  0  0
   -0.1122   -0.1994    0.2658 C   0  0  1  0  0  0  0  0  0  0  0  0
    0.6131   -0.7748   -0.3153 H   0  0  0  0  0  0  0  0  0  0  0  0
   -0.2973    1.1841   -0.3966 C   0  0  0  0  0  0  0  0  0  0  0  0
   -0.8626    1.0653   -1.3203 H   0  0  0  0  0  0  0  0  0  0  0  0
   -0.8655    1.8292    0.2719 H   0  0  0  0  0  0  0  0  0  0  0  0
    1.0070    1.8733   -0.7636 C   0  0  0  0  0  0  0  0  0  0  0  0
    1.1341    3.0852   -0.7839 O   0  0  0  0  0  0  0  0  0  0  0  0
    2.0305    1.1176   -1.0791 N   0  0  0  0  0  0  0  0  0  0  0  0
    2.8838    1.6001   -1.3001 H   0  0  0  0  0  0  0  0  0  0  0  0
    1.9571    0.1181   -1.0517 H   0  0  0  0  0  0  0  0  0  0  0  0
    0.4075   -0.0985    1.7169 C   0  0  0  0  0  0  0  0  0  0  0  0
    1.5860   -0.3526    1.9662 O   0  0  0  0  0  0  0  0  0  0  0  0
   -0.4625    0.2583    2.6666 N   0  0  0  0  0  0  0  0  0  0  0  0
   -1.4309    0.3754    2.3860 H   0  0  0  0  0  0  0  0  0  0  0  0
   -0.1275    0.4111    4.0813 C   0  0  0  0  0  0  0  0  0  0  0  0
    0.6862    1.1312    4.1910 H   0  0  0  0  0  0  0  0  0  0  0  0
   -0.9980    0.7641    4.6360 H   0  0  0  0  0  0  0  0  0  0  0  0
    0.1959   -0.5481    4.4891 H   0  0  0  0  0  0  0  0  0  0  0  0
  5  6  2  0  0  0  0
  5  7  1  0  0  0  0
  2  3  1  0  0  0  0
  2  4  1  0  0  0  0
  2  5  1  0  0  0  0
  1  2  1  0  0  0  0
 19 20  2  0  0  0  0
 19 21  1  0  0  0  0
 16 17  1  0  0  0  0
 16 18  1  0  0  0  0
 14 15  2  0  0  0  0
 14 16  1  0  0  0  0
 11 12  1  0  0  0  0
 11 13  1  0  0  0  0
 11 14  1  0  0  0  0
  9 10  1  0  0  0  0
  9 11  1  0  0  0  0
  9 19  1  0  0  0  0
  7  8  1  0  0  0  0
  7  9  1  0  0  0  0
 23 24  1  0  0  0  0
 23 25  1  0  0  0  0
 23 26  1  0  0  0  0
 21 22  1  0  0  0  0
 21 23  1  0  0  0  0
M  END
$$$$
default_name
  -OEChem-02102213163D

 26 25  0     1  0  0  0  0  0999 V2000
   -3.0232   -3.6924    1.0038 H   0  0  0  0  0  0  0  0  0  0  0  0
   -3.0082   -2.6684    0.6318 C   0  0  0  0  0  0  0  0  0  0  0  0
   -3.6332   -2.0414    1.2658 H   0  0  0  0  0  0  0  0  0  0  0  0
   -3.3762   -2.6444   -0.3912 H   0  0  0  0  0  0  0  0  0  0  0  0
   -1.5882   -2.1554    0.6658 C   0  0  0  0  0  0  0  0  0  0  0  0
   -0.6832   -2.8764    1.0638 O   0  0  0  0  0  0  0  0  0  0  0  0
   -1.3952   -0.9084    0.2428 N   0  0  0  0  0  0  0  0  0  0  0  0
   -2.1972   -0.3644   -0.0422 H   0  0  0  0  0  0  0  0  0  0  0  0
   -0.1122   -0.1994    0.2658 C   0  0  1  0  0  0  0  0  0  0  0  0
    0.6131   -0.7748   -0.3153 H   0  0  0  0  0  0  0  0  0  0  0  0
   -0.2973    1.1841   -0.3966 C   0  0  0  0  0  0  0  0  0  0  0  0
   -0.8626    1.0653   -1.3203 H   0  0  0  0  0  0  0  0  0  0  0  0
   -0.8655    1.8292    0.2719 H   0  0  0  0  0  0  0  0  0  0  0  0
    1.0070    1.8733   -0.7636 C   0  0  0  0  0  0  0  0  0  0  0  0
    1.2225    3.0507   -0.5344 O   0  0  0  0  0  0  0  0  0  0  0  0
    1.9293    1.1589   -1.3613 N   0  0  0  0  0  0  0  0  0  0  0  0
    2.7870    1.6362   -1.5760 H   0  0  0  0  0  0  0  0  0  0  0  0
    1.7839    0.1839   -1.5438 H   0  0  0  0  0  0  0  0  0  0  0  0
    0.4075   -0.0985    1.7169 C   0  0  0  0  0  0  0  0  0  0  0  0
    1.5860   -0.3526    1.9662 O   0  0  0  0  0  0  0  0  0  0  0  0
   -0.4625    0.2583    2.6666 N   0  0  0  0  0  0  0  0  0  0  0  0
   -1.4309    0.3754    2.3860 H   0  0  0  0  0  0  0  0  0  0  0  0
   -0.1275    0.4111    4.0813 C   0  0  0  0  0  0  0  0  0  0  0  0
    0.6862    1.1312    4.1910 H   0  0  0  0  0  0  0  0  0  0  0  0
   -0.9980    0.7641    4.6360 H   0  0  0  0  0  0  0  0  0  0  0  0
    0.1959   -0.5481    4.4891 H   0  0  0  0  0  0  0  0  0  0  0  0
  5  6  2  0  0  0  0
  5  7  1  0  0  0  0
  2  3  1  0  0  0  0
  2  4  1  0  0  0  0
  2  5  1  0  0  0  0
  1  2  1  0  0  0  0
 19 20  2  0  0  0  0
 19 21  1  0  0  0  0
 16 17  1  0  0  0  0
 16 18  1  0  0  0  0
 14 15  2  0  0  0  0
 14 16  1  0  0  0  0
 11 12  1  0  0  0  0
 11 13  1  0  0  0  0
 11 14  1  0  0  0  0
  9 10  1  0  0  0  0
  9 11  1  0  0  0  0
  9 19  1  0  0  0  0
  7  8  1  0  0  0  0
  7  9  1  0  0  0  0
 23 24  1  0  0  0  0
 23 25  1  0  0  0  0
 23 26  1  0  0  0  0
 21 22  1  0  0  0  0
 21 23  1  0  0  0  0
M  END
$$$$
default_name
  -OEChem-02102213163D

 26 25  0     1  0  0  0  0  0999 V2000
   -3.0232   -3.6924    1.0038 H   0  0  0  0  0  0  0  0  0  0  0  0
   -3.0082   -2.6684    0.6318 C   0  0  0  0  0  0  0  0  0  0  0  0
   -3.6332   -2.0414    1.2658 H   0  0  0  0  0  0  0  0  0  0  0  0
   -3.3762   -2.6444   -0.3912 H   0  0  0  0  0  0  0  0  0  0  0  0
   -1.5882   -2.1554    0.6658 C   0  0  0  0  0  0  0  0  0  0  0  0
   -0.6832   -2.8764    1.0638 O   0  0  0  0  0  0  0  0  0  0  0  0
   -1.3952   -0.9084    0.2428 N   0  0  0  0  0  0  0  0  0  0  0  0
   -2.1972   -0.3644   -0.0422 H   0  0  0  0  0  0  0  0  0  0  0  0
   -0.1122   -0.1994    0.2658 C   0  0  1  0  0  0  0  0  0  0  0  0
    0.6131   -0.7748   -0.3153 H   0  0  0  0  0  0  0  0  0  0  0  0
   -0.2973    1.1841   -0.3966 C   0  0  0  0  0  0  0  0  0  0  0  0
   -0.8626    1.0653   -1.3203 H   0  0  0  0  0  0  0  0  0  0  0  0
   -0.8655    1.8292    0.2719 H   0  0  0  0  0  0  0  0  0  0  0  0
    1.0070    1.8733   -0.7636 C   0  0  0  0  0  0  0  0  0  0  0  0
    1.3350    2.9565   -0.3116 O   0  0  0  0  0  0  0  0  0  0  0  0
    1.8010    1.2678   -1.6129 N   0  0  0  0  0  0  0  0  0  0  0  0
    2.6635    1.7384   -1.8232 H   0  0  0  0  0  0  0  0  0  0  0  0
    1.5629    0.3675   -1.9843 H   0  0  0  0  0  0  0  0  0  0  0  0
    0.4075   -0.0985    1.7169 C   0  0  0  0  0  0  0  0  0  0  0  0
    1.5860   -0.3526    1.9662 O   0  0  0  0  0  0  0  0  0  0  0  0
   -0.4625    0.2583    2.6666 N   0  0  0  0  0  0  0  0  0  0  0  0
   -1.4309    0.3754    2.3860 H   0  0  0  0  0  0  0  0  0  0  0  0
   -0.1275    0.4111    4.0813 C   0  0  0  0  0  0  0  0  0  0  0  0
    0.6862    1.1312    4.1910 H   0  0  0  0  0  0  0  0  0  0  0  0
   -0.9980    0.7641    4.6360 H   0  0  0  0  0  0  0  0  0  0  0  0
    0.1959   -0.5481    4.4891 H   0  0  0  0  0  0  0  0  0  0  0  0
  5  6  2  0  0  0  0
  5  7  1  0  0  0  0
  2  3  1  0  0  0  0
  2  4  1  0  0  0  0
  2  5  1  0  0  0  0
  1  2  1  0  0  0  0
 19 20  2  0  0  0  0
 19 21  1  0  0  0  0
 16 17  1  0  0  0  0
 16 18  1  0  0  0  0
 14 15  2  0  0  0  0
 14 16  1  0  0  0  0
 11 12  1  0  0  0  0
 11 13  1  0  0  0  0
 11 14  1  0  0  0  0
  9 10  1  0  0  0  0
  9 11  1  0  0  0  0
  9 19  1  0  0  0  0
  7  8  1  0  0  0  0
  7  9  1  0  0  0  0
 23 24  1  0  0  0  0
 23 25  1  0  0  0  0
 23 26  1  0  0  0  0
 21 22  1  0  0  0  0
 21 23  1  0  0  0  0
M  END
$$$$
default_name
  -OEChem-02102213163D

 26 25  0     1  0  0  0  0  0999 V2000
   -3.0232   -3.6924    1.0038 H   0  0  0  0  0  0  0  0  0  0  0  0
   -3.0082   -2.6684    0.6318 C   0  0  0  0  0  0  0  0  0  0  0  0
   -3.6332   -2.0414    1.2658 H   0  0  0  0  0  0  0  0  0  0  0  0
   -3.3762   -2.6444   -0.3912 H   0  0  0  0  0  0  0  0  0  0  0  0
   -1.5882   -2.1554    0.6658 C   0  0  0  0  0  0  0  0  0  0  0  0
   -0.6832   -2.8764    1.0638 O   0  0  0  0  0  0  0  0  0  0  0  0
   -1.3952   -0.9084    0.2428 N   0  0  0  0  0  0  0  0  0  0  0  0
   -2.1972   -0.3644   -0.0422 H   0  0  0  0  0  0  0  0  0  0  0  0
   -0.1122   -0.1994    0.2658 C   0  0  1  0  0  0  0  0  0  0  0  0
    0.6131   -0.7748   -0.3153 H   0  0  0  0  0  0  0  0  0  0  0  0
   -0.2973    1.1841   -0.3966 C   0  0  0  0  0  0  0  0  0  0  0  0
   -0.8626    1.0653   -1.3203 H   0  0  0  0  0  0  0  0  0  0  0  0
   -0.8655    1.8292    0.2719 H   0  0  0  0  0  0  0  0  0  0  0  0
    1.0070    1.8733   -0.7636 C   0  0  0  0  0  0  0  0  0  0  0  0
    1.4640    2.8089   -0.1304 O   0  0  0  0  0  0  0  0  0  0  0  0
    1.6543    1.4368   -1.8166 N   0  0  0  0  0  0  0  0  0  0  0  0
    2.5215    1.8998   -2.0247 H   0  0  0  0  0  0  0  0  0  0  0  0
    1.3092    0.6566   -2.3431 H   0  0  0  0  0  0  0  0  0  0  0  0
    0.4075   -0.0985    1.7169 C   0  0  0  0  0  0  0  0  0  0  0  0
    1.5860   -0.3526    1.9662 O   0  0  0  0  0  0  0  0  0  0  0  0
   -0.4625    0.2583    2.6666 N   0  0  0  0  0  0  0  0  0  0  0  0
   -1.4309    0.3754    2.3860 H   0  0  0  0  0  0  0  0  0  0  0  0
   -0.1275    0.4111    4.0813 C   0  0  0  0  0  0  0  0  0  0  0  0
    0.6862    1.1312    4.1910 H   0  0  0  0  0  0  0  0  0  0  0  0
   -0.9980    0.7641    4.6360 H   0  0  0  0  0  0  0  0  0  0  0  0
    0.1959   -0.5481    4.4891 H   0  0  0  0  0  0  0  0  0  0  0  0
  5  6  2  0  0  0  0
  5  7  1  0  0  0  0
  2  3  1  0  0  0  0
  2  4  1  0  0  0  0
  2  5  1  0  0  0  0
  1  2  1  0  0  0  0
 19 20  2  0  0  0  0
 19 21  1  0  0  0  0
 16 17  1  0  0  0  0
 16 18  1  0  0  0  0
 14 15  2  0  0  0  0
 14 16  1  0  0  0  0
 11 12  1  0  0  0  0
 11 13  1  0  0  0  0
 11 14  1  0  0  0  0
  9 10  1  0  0  0  0
  9 11  1  0  0  0  0
  9 19  1  0  0  0  0
  7  8  1  0  0  0  0
  7  9  1  0  0  0  0
 23 24  1  0  0  0  0
 23 25  1  0  0  0  0
 23 26  1  0  0  0  0
 21 22  1  0  0  0  0
 21 23  1  0  0  0  0
M  END
$$$$
default_name
  -OEChem-02102213163D

 26 25  0     1  0  0  0  0  0999 V2000
   -3.0232   -3.6924    1.0038 H   0  0  0  0  0  0  0  0  0  0  0  0
   -3.0082   -2.6684    0.6318 C   0  0  0  0  0  0  0  0  0  0  0  0
   -3.6332   -2.0414    1.2658 H   0  0  0  0  0  0  0  0  0  0  0  0
   -3.3762   -2.6444   -0.3912 H   0  0  0  0  0  0  0  0  0  0  0  0
   -1.5882   -2.1554    0.6658 C   0  0  0  0  0  0  0  0  0  0  0  0
   -0.6832   -2.8764    1.0638 O   0  0  0  0  0  0  0  0  0  0  0  0
   -1.3952   -0.9084    0.2428 N   0  0  0  0  0  0  0  0  0  0  0  0
   -2.1972   -0.3644   -0.0422 H   0  0  0  0  0  0  0  0  0  0  0  0
   -0.1122   -0.1994    0.2658 C   0  0  1  0  0  0  0  0  0  0  0  0
    0.6131   -0.7748   -0.3153 H   0  0  0  0  0  0  0  0  0  0  0  0
   -0.2973    1.1841   -0.3966 C   0  0  0  0  0  0  0  0  0  0  0  0
   -0.8626    1.0653   -1.3203 H   0  0  0  0  0  0  0  0  0  0  0  0
   -0.8655    1.8292    0.2719 H   0  0  0  0  0  0  0  0  0  0  0  0
    1.0070    1.8733   -0.7636 C   0  0  0  0  0  0  0  0  0  0  0  0
    1.6006    2.6181   -0.0033 O   0  0  0  0  0  0  0  0  0  0  0  0
    1.4993    1.6545   -1.9587 N   0  0  0  0  0  0  0  0  0  0  0  0
    2.3708    2.1092   -2.1669 H   0  0  0  0  0  0  0  0  0  0  0  0
    1.0401    1.0312   -2.5956 H   0  0  0  0  0  0  0  0  0  0  0  0
    0.4075   -0.0985    1.7169 C   0  0  0  0  0  0  0  0  0  0  0  0
    1.5860   -0.3526    1.9662 O   0  0  0  0  0  0  0  0  0  0  0  0
   -0.4625    0.2583    2.6666 N   0  0  0  0  0  0  0  0  0  0  0  0
   -1.4309    0.3754    2.3860 H   0  0  0  0  0  0  0  0  0  0  0  0
   -0.1275    0.4111    4.0813 C   0  0  0  0  0  0  0  0  0  0  0  0
    0.6862    1.1312    4.1910 H   0  0  0  0  0  0  0  0  0  0  0  0
   -0.9980    0.7641    4.6360 H   0  0  0  0  0  0  0  0  0  0  0  0
    0.1959   -0.5481    4.4891 H   0  0  0  0  0  0  0  0  0  0  0  0
  5  6  2  0  0  0  0
  5  7  1  0  0  0  0
  2  3  1  0  0  0  0
  2  4  1  0  0  0  0
  2  5  1  0  0  0  0
  1  2  1  0  0  0  0
 19 20  2  0  0  0  0
 19 21  1  0  0  0  0
 16 17  1  0  0  0  0
 16 18  1  0  0  0  0
 14 15  2  0  0  0  0
 14 16  1  0  0  0  0
 11 12  1  0  0  0  0
 11 13  1  0  0  0  0
 11 14  1  0  0  0  0
  9 10  1  0  0  0  0
  9 11  1  0  0  0  0
  9 19  1  0  0  0  0
  7  8  1  0  0  0  0
  7  9  1  0  0  0  0
 23 24  1  0  0  0  0
 23 25  1  0  0  0  0
 23 26  1  0  0  0  0
 21 22  1  0  0  0  0
 21 23  1  0  0  0  0
M  END
$$$$
default_name
  -OEChem-02102213163D

 26 25  0     1  0  0  0  0  0999 V2000
   -3.0232   -3.6924    1.0038 H   0  0  0  0  0  0  0  0  0  0  0  0
   -3.0082   -2.6684    0.6318 C   0  0  0  0  0  0  0  0  0  0  0  0
   -3.6332   -2.0414    1.2658 H   0  0  0  0  0  0  0  0  0  0  0  0
   -3.3762   -2.6444   -0.3912 H   0  0  0  0  0  0  0  0  0  0  0  0
   -1.5882   -2.1554    0.6658 C   0  0  0  0  0  0  0  0  0  0  0  0
   -0.6832   -2.8764    1.0638 O   0  0  0  0  0  0  0  0  0  0  0  0
   -1.3952   -0.9084    0.2428 N   0  0  0  0  0  0  0  0  0  0  0  0
   -2.1972   -0.3644   -0.0422 H   0  0  0  0  0  0  0  0  0  0  0  0
   -0.1122   -0.1994    0.2658 C   0  0  1  0  0  0  0  0  0  0  0  0
    0.6131   -0.7748   -0.3153 H   0  0  0  0  0  0  0  0  0  0  0  0
   -0.2973    1.1841   -0.3966 C   0  0  0  0  0  0  0  0  0  0  0  0
   -0.8626    1.0653   -1.3203 H   0  0  0  0  0  0  0  0  0  0  0  0
   -0.8655    1.8292    0.2719 H   0  0  0  0  0  0  0  0  0  0  0  0
    1.0070    1.8733   -0.7636 C   0  0  0  0  0  0  0  0  0  0  0  0
    1.7355    2.3970    0.0611 O   0  0  0  0  0  0  0  0  0  0  0  0
    1.3465    1.9060   -2.0293 N   0  0  0  0  0  0  0  0  0  0  0  0
    2.2217    2.3525   -2.2400 H   0  0  0  0  0  0  0  0  0  0  0  0
    0.7740    1.4660   -2.7248 H   0  0  0  0  0  0  0  0  0  0  0  0
    0.4075   -0.0985    1.7169 C   0  0  0  0  0  0  0  0  0  0  0  0
    1.5860   -0.3526    1.9662 O   0  0  0  0  0  0  0  0  0  0  0  0
   -0.4625    0.2583    2.6666 N   0  0  0  0  0  0  0  0  0  0  0  0
   -1.4309    0.3754    2.3860 H   0  0  0  0  0  0  0  0  0  0  0  0
   -0.1275    0.4111    4.0813 C   0  0  0  0  0  0  0  0  0  0  0  0
    0.6862    1.1312    4.1910 H   0  0  0  0  0  0  0  0  0  0  0  0
   -0.9980    0.7641    4.6360 H   0  0  0  0  0  0  0  0  0  0  0  0
    0.1959   -0.5481    4.4891 H   0  0  0  0  0  0  0  0  0  0  0  0
  5  6  2  0  0  0  0
  5  7  1  0  0  0  0
  2  3  1  0  0  0  0
  2  4  1  0  0  0  0
  2  5  1  0  0  0  0
  1  2  1  0  0  0  0
 19 20  2  0  0  0  0
 19 21  1  0  0  0  0
 16 17  1  0  0  0  0
 16 18  1  0  0  0  0
 14 15  2  0  0  0  0
 14 16  1  0  0  0  0
 11 12  1  0  0  0  0
 11 13  1  0  0  0  0
 11 14  1  0  0  0  0
  9 10  1  0  0  0  0
  9 11  1  0  0  0  0
  9 19  1  0  0  0  0
  7  8  1  0  0  0  0
  7  9  1  0  0  0  0
 23 24  1  0  0  0  0
 23 25  1  0  0  0  0
 23 26  1  0  0  0  0
 21 22  1  0  0  0  0
 21 23  1  0  0  0  0
M  END
$$$$
default_name
  -OEChem-02102213163D

 26 25  0     1  0  0  0  0  0999 V2000
   -3.0232   -3.6924    1.0038 H   0  0  0  0  0  0  0  0  0  0  0  0
   -3.0082   -2.6684    0.6318 C   0  0  0  0  0  0  0  0  0  0  0  0
   -3.6332   -2.0414    1.2658 H   0  0  0  0  0  0  0  0  0  0  0  0
   -3.3762   -2.6444   -0.3912 H   0  0  0  0  0  0  0  0  0  0  0  0
   -1.5882   -2.1554    0.6658 C   0  0  0  0  0  0  0  0  0  0  0  0
   -0.6832   -2.8764    1.0638 O   0  0  0  0  0  0  0  0  0  0  0  0
   -1.3952   -0.9084    0.2428 N   0  0  0  0  0  0  0  0  0  0  0  0
   -2.1972   -0.3644   -0.0422 H   0  0  0  0  0  0  0  0  0  0  0  0
   -0.1122   -0.1994    0.2658 C   0  0  1  0  0  0  0  0  0  0  0  0
    0.6131   -0.7748   -0.3153 H   0  0  0  0  0  0  0  0  0  0  0  0
   -0.2973    1.1841   -0.3966 C   0  0  0  0  0  0  0  0  0  0  0  0
   -0.8626    1.0653   -1.3203 H   0  0  0  0  0  0  0  0  0  0  0  0
   -0.8655    1.8292    0.2719 H   0  0  0  0  0  0  0  0  0  0  0  0
    1.0070    1.8733   -0.7636 C   0  0  0  0  0  0  0  0  0  0  0  0
    1.8596    2.1608    0.0583 O   0  0  0  0  0  0  0  0  0  0  0  0
    1.2063    2.1742   -2.0238 N   0  0  0  0  0  0  0  0  0  0  0  0
    2.0842    2.6131   -2.2391 H   0  0  0  0  0  0  0  0  0  0  0  0
    0.5290    1.9314   -2.7219 H   0  0  0  0  0  0  0  0  0  0  0  0
    0.4075   -0.0985    1.7169 C   0  0  0  0  0  0  0  0  0  0  0  0
    1.5860   -0.3526    1.9662 O   0  0  0  0  0  0  0  0  0  0  0  0
   -0.4625    0.2583    2.6666 N   0  0  0  0  0  0  0  0  0  0  0  0
   -1.4309    0.3754    2.3860 H   0  0  0  0  0  0  0  0  0  0  0  0
   -0.1275    0.4111    4.0813 C   0  0  0  0  0  0  0  0  0  0  0  0
    0.6862    1.1312    4.1910 H   0  0  0  0  0  0  0  0  0  0  0  0
   -0.9980    0.7641    4.6360 H   0  0  0  0  0  0  0  0  0  0  0  0
    0.1959   -0.5481    4.4891 H   0  0  0  0  0  0  0  0  0  0  0  0
  5  6  2  0  0  0  0
  5  7  1  0  0  0  0
  2  3  1  0  0  0  0
  2  4  1  0  0  0  0
  2  5  1  0  0  0  0
  1  2  1  0  0  0  0
 19 20  2  0  0  0  0
 19 21  1  0  0  0  0
 16 17  1  0  0  0  0
 16 18  1  0  0  0  0
 14 15  2  0  0  0  0
 14 16  1  0  0  0  0
 11 12  1  0  0  0  0
 11 13  1  0  0  0  0
 11 14  1  0  0  0  0
  9 10  1  0  0  0  0
  9 11  1  0  0  0  0
  9 19  1  0  0  0  0
  7  8  1  0  0  0  0
  7  9  1  0  0  0  0
 23 24  1  0  0  0  0
 23 25  1  0  0  0  0
 23 26  1  0  0  0  0
 21 22  1  0  0  0  0
 21 23  1  0  0  0  0
M  END
$$$$
default_name
  -OEChem-02102213163D

 26 25  0     1  0  0  0  0  0999 V2000
   -3.0232   -3.6924    1.0038 H   0  0  0  0  0  0  0  0  0  0  0  0
   -3.0082   -2.6684    0.6318 C   0  0  0  0  0  0  0  0  0  0  0  0
   -3.6332   -2.0414    1.2658 H   0  0  0  0  0  0  0  0  0  0  0  0
   -3.3762   -2.6444   -0.3912 H   0  0  0  0  0  0  0  0  0  0  0  0
   -1.5882   -2.1554    0.6658 C   0  0  0  0  0  0  0  0  0  0  0  0
   -0.6832   -2.8764    1.0638 O   0  0  0  0  0  0  0  0  0  0  0  0
   -1.3952   -0.9084    0.2428 N   0  0  0  0  0  0  0  0  0  0  0  0
   -2.1972   -0.3644   -0.0422 H   0  0  0  0  0  0  0  0  0  0  0  0
   -0.1122   -0.1994    0.2658 C   0  0  1  0  0  0  0  0  0  0  0  0
    0.6131   -0.7748   -0.3153 H   0  0  0  0  0  0  0  0  0  0  0  0
   -0.2973    1.1841   -0.3966 C   0  0  0  0  0  0  0  0  0  0  0  0
   -0.8626    1.0653   -1.3203 H   0  0  0  0  0  0  0  0  0  0  0  0
   -0.8655    1.8292    0.2719 H   0  0  0  0  0  0  0  0  0  0  0  0
    1.0070    1.8733   -0.7636 C   0  0  0  0  0  0  0  0  0  0  0  0
    1.9644    1.9254   -0.0114 O   0  0  0  0  0  0  0  0  0  0  0  0
    1.0883    2.4408   -1.9425 N   0  0  0  0  0  0  0  0  0  0  0  0
    1.9678    2.8732   -2.1643 H   0  0  0  0  0  0  0  0  0  0  0  0
    0.3217    2.3955   -2.5869 H   0  0  0  0  0  0  0  0  0  0  0  0
    0.4075   -0.0985    1.7169 C   0  0  0  0  0  0  0  0  0  0  0  0
    1.5860   -0.3526    1.9662 O   0  0  0  0  0  0  0  0  0  0  0  0
   -0.4625    0.2583    2.6666 N   0  0  0  0  0  0  0  0  0  0  0  0
   -1.4309    0.3754    2.3860 H   0  0  0  0  0  0  0  0  0  0  0  0
   -0.1275    0.4111    4.0813 C   0  0  0  0  0  0  0  0  0  0  0  0
    0.6862    1.1312    4.1910 H   0  0  0  0  0  0  0  0  0  0  0  0
   -0.9980    0.7641    4.6360 H   0  0  0  0  0  0  0  0  0  0  0  0
    0.1959   -0.5481    4.4891 H   0  0  0  0  0  0  0  0  0  0  0  0
  5  6  2  0  0  0  0
  5  7  1  0  0  0  0
  2  3  1  0  0  0  0
  2  4  1  0  0  0  0
  2  5  1  0  0  0  0
  1  2  1  0  0  0  0
 19 20  2  0  0  0  0
 19 21  1  0  0  0  0
 16 17  1  0  0  0  0
 16 18  1  0  0  0  0
 14 15  2  0  0  0  0
 14 16  1  0  0  0  0
 11 12  1  0  0  0  0
 11 13  1  0  0  0  0
 11 14  1  0  0  0  0
  9 10  1  0  0  0  0
  9 11  1  0  0  0  0
  9 19  1  0  0  0  0
  7  8  1  0  0  0  0
  7  9  1  0  0  0  0
 23 24  1  0  0  0  0
 23 25  1  0  0  0  0
 23 26  1  0  0  0  0
 21 22  1  0  0  0  0
 21 23  1  0  0  0  0
M  END
$$$$
default_name
  -OEChem-02102213163D

 26 25  0     1  0  0  0  0  0999 V2000
   -3.0232   -3.6924    1.0038 H   0  0  0  0  0  0  0  0  0  0  0  0
   -3.0082   -2.6684    0.6318 C   0  0  0  0  0  0  0  0  0  0  0  0
   -3.6332   -2.0414    1.2658 H   0  0  0  0  0  0  0  0  0  0  0  0
   -3.3762   -2.6444   -0.3912 H   0  0  0  0  0  0  0  0  0  0  0  0
   -1.5882   -2.1554    0.6658 C   0  0  0  0  0  0  0  0  0  0  0  0
   -0.6832   -2.8764    1.0638 O   0  0  0  0  0  0  0  0  0  0  0  0
   -1.3952   -0.9084    0.2428 N   0  0  0  0  0  0  0  0  0  0  0  0
   -2.1972   -0.3644   -0.0422 H   0  0  0  0  0  0  0  0  0  0  0  0
   -0.1122   -0.1994    0.2658 C   0  0  1  0  0  0  0  0  0  0  0  0
    0.6131   -0.7748   -0.3153 H   0  0  0  0  0  0  0  0  0  0  0  0
   -0.2973    1.1841   -0.3966 C   0  0  0  0  0  0  0  0  0  0  0  0
   -0.8626    1.0653   -1.3203 H   0  0  0  0  0  0  0  0  0  0  0  0
   -0.8655    1.8292    0.2719 H   0  0  0  0  0  0  0  0  0  0  0  0
    1.0070    1.8733   -0.7636 C   0  0  0  0  0  0  0  0  0  0  0  0
    2.0427    1.7070   -0.1432 O   0  0  0  0  0  0  0  0  0  0  0  0
    1.0006    2.6876   -1.7909 N   0  0  0  0  0  0  0  0  0  0  0  0
    1.8805    3.1151   -2.0206 H   0  0  0  0  0  0  0  0  0  0  0  0
    0.1663    2.8268   -2.3291 H   0  0  0  0  0  0  0  0  0  0  0  0
    0.4075   -0.0985    1.7169 C   0  0  0  0  0  0  0  0  0  0  0  0
    1.5860   -0.3526    1.9662 O   0  0  0  0  0  0  0  0  0  0  0  0
   -0.4625    0.2583    2.6666 N   0  0  0  0  0  0  0  0  0  0  0  0
   -1.4309    0.3754    2.3860 H   0  0  0  0  0  0  0  0  0  0  0  0
   -0.1275    0.4111    4.0813 C   0  0  0  0  0  0  0  0  0  0  0  0
    0.6862    1.1312    4.1910 H   0  0  0  0  0  0  0  0  0  0  0  0
   -0.9980    0.7641    4.6360 H   0  0  0  0  0  0  0  0  0  0  0  0
    0.1959   -0.5481    4.4891 H   0  0  0  0  0  0  0  0  0  0  0  0
  5  6  2  0  0  0  0
  5  7  1  0  0  0  0
  2  3  1  0  0  0  0
  2  4  1  0  0  0  0
  2  5  1  0  0  0  0
  1  2  1  0  0  0  0
 19 20  2  0  0  0  0
 19 21  1  0  0  0  0
 16 17  1  0  0  0  0
 16 18  1  0  0  0  0
 14 15  2  0  0  0  0
 14 16  1  0  0  0  0
 11 12  1  0  0  0  0
 11 13  1  0  0  0  0
 11 14  1  0  0  0  0
  9 10  1  0  0  0  0
  9 11  1  0  0  0  0
  9 19  1  0  0  0  0
  7  8  1  0  0  0  0
  7  9  1  0  0  0  0
 23 24  1  0  0  0  0
 23 25  1  0  0  0  0
 23 26  1  0  0  0  0
 21 22  1  0  0  0  0
 21 23  1  0  0  0  0
M  END
$$$$
default_name
  -OEChem-02102213163D

 26 25  0     1  0  0  0  0  0999 V2000
   -3.0232   -3.6924    1.0038 H   0  0  0  0  0  0  0  0  0  0  0  0
   -3.0082   -2.6684    0.6318 C   0  0  0  0  0  0  0  0  0  0  0  0
   -3.6332   -2.0414    1.2658 H   0  0  0  0  0  0  0  0  0  0  0  0
   -3.3762   -2.6444   -0.3912 H   0  0  0  0  0  0  0  0  0  0  0  0
   -1.5882   -2.1554    0.6658 C   0  0  0  0  0  0  0  0  0  0  0  0
   -0.6832   -2.8764    1.0638 O   0  0  0  0  0  0  0  0  0  0  0  0
   -1.3952   -0.9084    0.2428 N   0  0  0  0  0  0  0  0  0  0  0  0
   -2.1972   -0.3644   -0.0422 H   0  0  0  0  0  0  0  0  0  0  0  0
   -0.1122   -0.1994    0.2658 C   0  0  1  0  0  0  0  0  0  0  0  0
    0.6131   -0.7748   -0.3153 H   0  0  0  0  0  0  0  0  0  0  0  0
   -0.2973    1.1841   -0.3966 C   0  0  0  0  0  0  0  0  0  0  0  0
   -0.8626    1.0653   -1.3203 H   0  0  0  0  0  0  0  0  0  0  0  0
   -0.8655    1.8292    0.2719 H   0  0  0  0  0  0  0  0  0  0  0  0
    1.0070    1.8733   -0.7636 C   0  0  0  0  0  0  0  0  0  0  0  0
    2.0892    1.5204   -0.3283 O   0  0  0  0  0  0  0  0  0  0  0  0
    0.9490    2.8978   -1.5794 N   0  0  0  0  0  0  0  0  0  0  0  0
    1.8280    3.3223   -1.8178 H   0  0  0  0  0  0  0  0  0  0  0  0
    0.0735    3.1958   -1.9661 H   0  0  0  0  0  0  0  0  0  0  0  0
    0.4075   -0.0985    1.7169 C   0  0  0  0  0  0  0  0  0  0  0  0
    1.5860   -0.3526    1.9662 O   0  0  0  0  0  0  0  0  0  0  0  0
   -0.4625    0.2583    2.6666 N   0  0  0  0  0  0  0  0  0  0  0  0
   -1.4309    0.3754    2.3860 H   0  0  0  0  0  0  0  0  0  0  0  0
   -0.1275    0.4111    4.0813 C   0  0  0  0  0  0  0  0  0  0  0  0
    0.6862    1.1312    4.1910 H   0  0  0  0  0  0  0  0  0  0  0  0
   -0.9980    0.7641    4.6360 H   0  0  0  0  0  0  0  0  0  0  0  0
    0.1959   -0.5481    4.4891 H   0  0  0  0  0  0  0  0  0  0  0  0
  5  6  2  0  0  0  0
  5  7  1  0  0  0  0
  2  3  1  0  0  0  0
  2  4  1  0  0  0  0
  2  5  1  0  0  0  0
  1  2  1  0  0  0  0
 19 20  2  0  0  0  0
 19 21  1  0  0  0  0
 16 17  1  0  0  0  0
 16 18  1  0  0  0  0
 14 15  2  0  0  0  0
 14 16  1  0  0  0  0
 11 12  1  0  0  0  0
 11 13  1  0  0  0  0
 11 14  1  0  0  0  0
  9 10  1  0  0  0  0
  9 11  1  0  0  0  0
  9 19  1  0  0  0  0
  7  8  1  0  0  0  0
  7  9  1  0  0  0  0
 23 24  1  0  0  0  0
 23 25  1  0  0  0  0
 23 26  1  0  0  0  0
 21 22  1  0  0  0  0
 21 23  1  0  0  0  0
M  END
$$$$
default_name
  -OEChem-02102213163D

 26 25  0     1  0  0  0  0  0999 V2000
   -3.0232   -3.6924    1.0038 H   0  0  0  0  0  0  0  0  0  0  0  0
   -3.0082   -2.6684    0.6318 C   0  0  0  0  0  0  0  0  0  0  0  0
   -3.6332   -2.0414    1.2658 H   0  0  0  0  0  0  0  0  0  0  0  0
   -3.3762   -2.6444   -0.3912 H   0  0  0  0  0  0  0  0  0  0  0  0
   -1.5882   -2.1554    0.6658 C   0  0  0  0  0  0  0  0  0  0  0  0
   -0.6832   -2.8764    1.0638 O   0  0  0  0  0  0  0  0  0  0  0  0
   -1.3952   -0.9084    0.2428 N   0  0  0  0  0  0  0  0  0  0  0  0
   -2.1972   -0.3644   -0.0422 H   0  0  0  0  0  0  0  0  0  0  0  0
   -0.1122   -0.1994    0.2658 C   0  0  1  0  0  0  0  0  0  0  0  0
    0.6131   -0.7748   -0.3153 H   0  0  0  0  0  0  0  0  0  0  0  0
   -0.2973    1.1841   -0.3966 C   0  0  0  0  0  0  0  0  0  0  0  0
   -0.8626    1.0653   -1.3203 H   0  0  0  0  0  0  0  0  0  0  0  0
   -0.8655    1.8292    0.2719 H   0  0  0  0  0  0  0  0  0  0  0  0
    1.0070    1.8733   -0.7636 C   0  0  0  0  0  0  0  0  0  0  0  0
    2.1007    1.3784   -0.5539 O   0  0  0  0  0  0  0  0  0  0  0  0
    0.9372    3.0571   -1.3223 N   0  0  0  0  0  0  0  0  0  0  0  0
    1.8142    3.4806   -1.5698 H   0  0  0  0  0  0  0  0  0  0  0  0
    0.0494    3.4775   -1.5227 H   0  0  0  0  0  0  0  0  0  0  0  0
    0.4075   -0.0985    1.7169 C   0  0  0  0  0  0  0  0  0  0  0  0
    1.5860   -0.3526    1.9662 O   0  0  0  0  0  0  0  0  0  0  0  0
   -0.4625    0.2583    2.6666 N   0  0  0  0  0  0  0  0  0  0  0  0
   -1.4309    0.3754    2.3860 H   0  0  0  0  0  0  0  0  0  0  0  0
   -0.1275    0.4111    4.0813 C   0  0  0  0  0  0  0  0  0  0  0  0
    0.6862    1.1312    4.1910 H   0  0  0  0  0  0  0  0  0  0  0  0
   -0.9980    0.7641    4.6360 H   0  0  0  0  0  0  0  0  0  0  0  0
    0.1959   -0.5481    4.4891 H   0  0  0  0  0  0  0  0  0  0  0  0
  5  6  2  0  0  0  0
  5  7  1  0  0  0  0
  2  3  1  0  0  0  0
  2  4  1  0  0  0  0
  2  5  1  0  0  0  0
  1  2  1  0  0  0  0
 19 20  2  0  0  0  0
 19 21  1  0  0  0  0
 16 17  1  0  0  0  0
 16 18  1  0  0  0  0
 14 15  2  0  0  0  0
 14 16  1  0  0  0  0
 11 12  1  0  0  0  0
 11 13  1  0  0  0  0
 11 14  1  0  0  0  0
  9 10  1  0  0  0  0
  9 11  1  0  0  0  0
  9 19  1  0  0  0  0
  7  8  1  0  0  0  0
  7  9  1  0  0  0  0
 23 24  1  0  0  0  0
 23 25  1  0  0  0  0
 23 26  1  0  0  0  0
 21 22  1  0  0  0  0
 21 23  1  0  0  0  0
M  END
$$$$
default_name
  -OEChem-02102213163D

 26 25  0     1  0  0  0  0  0999 V2000
   -3.0232   -3.6924    1.0038 H   0  0  0  0  0  0  0  0  0  0  0  0
   -3.0082   -2.6684    0.6318 C   0  0  0  0  0  0  0  0  0  0  0  0
   -3.6332   -2.0414    1.2658 H   0  0  0  0  0  0  0  0  0  0  0  0
   -3.3762   -2.6444   -0.3912 H   0  0  0  0  0  0  0  0  0  0  0  0
   -1.5882   -2.1554    0.6658 C   0  0  0  0  0  0  0  0  0  0  0  0
   -0.6832   -2.8764    1.0638 O   0  0  0  0  0  0  0  0  0  0  0  0
   -1.3952   -0.9084    0.2428 N   0  0  0  0  0  0  0  0  0  0  0  0
   -2.1972   -0.3644   -0.0422 H   0  0  0  0  0  0  0  0  0  0  0  0
   -0.1122   -0.1994    0.2658 C   0  0  1  0  0  0  0  0  0  0  0  0
    0.6131   -0.7748   -0.3153 H   0  0  0  0  0  0  0  0  0  0  0  0
   -0.2973    1.1841   -0.3966 C   0  0  0  0  0  0  0  0  0  0  0  0
   -0.8626    1.0653   -1.3203 H   0  0  0  0  0  0  0  0  0  0  0  0
   -0.8655    1.8292    0.2719 H   0  0  0  0  0  0  0  0  0  0  0  0
    1.0070    1.8733   -0.7636 C   0  0  0  0  0  0  0  0  0  0  0  0
    2.0765    1.2906   -0.8048 O   0  0  0  0  0  0  0  0  0  0  0  0
    0.9659    3.1547   -1.0372 N   0  0  0  0  0  0  0  0  0  0  0  0
    1.8397    3.5794   -1.2934 H   0  0  0  0  0  0  0  0  0  0  0  0
    0.0958    3.6526   -1.0290 H   0  0  0  0  0  0  0  0  0  0  0  0
    0.4075   -0.0985    1.7169 C   0  0  0  0  0  0  0  0  0  0  0  0
    1.5860   -0.3526    1.9662 O   0  0  0  0  0  0  0  0  0  0  0  0
   -0.4625    0.2583    2.6666 N   0  0  0  0  0  0  0  0  0  0  0  0
   -1.4309    0.3754    2.3860 H   0  0  0  0  0  0  0  0  0  0  0  0
   -0.1275    0.4111    4.0813 C   0  0  0  0  0  0  0  0  0  0  0  0
    0.6862    1.1312    4.1910 H   0  0  0  0  0  0  0  0  0  0  0  0
   -0.9980    0.7641    4.6360 H   0  0  0  0  0  0  0  0  0  0  0  0
    0.1959   -0.5481    4.4891 H   0  0  0  0  0  0  0  0  0  0  0  0
  5  6  2  0  0  0  0
  5  7  1  0  0  0  0
  2  3  1  0  0  0  0
  2  4  1  0  0  0  0
  2  5  1  0  0  0  0
  1  2  1  0  0  0  0
 19 20  2  0  0  0  0
 19 21  1  0  0  0  0
 16 17  1  0  0  0  0
 16 18  1  0  0  0  0
 14 15  2  0  0  0  0
 14 16  1  0  0  0  0
 11 12  1  0  0  0  0
 11 13  1  0  0  0  0
 11 14  1  0  0  0  0
  9 10  1  0  0  0  0
  9 11  1  0  0  0  0
  9 19  1  0  0  0  0
  7  8  1  0  0  0  0
  7  9  1  0  0  0  0
 23 24  1  0  0  0  0
 23 25  1  0  0  0  0
 23 26  1  0  0  0  0
 21 22  1  0  0  0  0
 21 23  1  0  0  0  0
M  END
$$$$
default_name
  -OEChem-02102213163D

 26 25  0     1  0  0  0  0  0999 V2000
   -3.0232   -3.6924    1.0038 H   0  0  0  0  0  0  0  0  0  0  0  0
   -3.0082   -2.6684    0.6318 C   0  0  0  0  0  0  0  0  0  0  0  0
   -3.6332   -2.0414    1.2658 H   0  0  0  0  0  0  0  0  0  0  0  0
   -3.3762   -2.6444   -0.3912 H   0  0  0  0  0  0  0  0  0  0  0  0
   -1.5882   -2.1554    0.6658 C   0  0  0  0  0  0  0  0  0  0  0  0
   -0.6832   -2.8764    1.0638 O   0  0  0  0  0  0  0  0  0  0  0  0
   -1.3952   -0.9084    0.2428 N   0  0  0  0  0  0  0  0  0  0  0  0
   -2.1972   -0.3644   -0.0422 H   0  0  0  0  0  0  0  0  0  0  0  0
   -0.1122   -0.1994    0.2658 C   0  0  1  0  0  0  0  0  0  0  0  0
    0.6131   -0.7748   -0.3153 H   0  0  0  0  0  0  0  0  0  0  0  0
   -0.2973    1.1841   -0.3966 C   0  0  0  0  0  0  0  0  0  0  0  0
   -0.8626    1.0653   -1.3203 H   0  0  0  0  0  0  0  0  0  0  0  0
   -0.8655    1.8292    0.2719 H   0  0  0  0  0  0  0  0  0  0  0  0
    1.0070    1.8733   -0.7636 C   0  0  0  0  0  0  0  0  0  0  0  0
    2.0182    1.2630   -1.0638 O   0  0  0  0  0  0  0  0  0  0  0  0
    1.0331    3.1838   -0.7436 N   0  0  0  0  0  0  0  0  0  0  0  0
    1.9031    3.6118   -1.0075 H   0  0  0  0  0  0  0  0  0  0  0  0
    0.2095    3.7092   -0.5186 H   0  0  0  0  0  0  0  0  0  0  0  0
    0.4075   -0.0985    1.7169 C   0  0  0  0  0  0  0  0  0  0  0  0
    1.5860   -0.3526    1.9662 O   0  0  0  0  0  0  0  0  0  0  0  0
   -0.4625    0.2583    2.6666 N   0  0  0  0  0  0  0  0  0  0  0  0
   -1.4309    0.3754    2.3860 H   0  0  0  0  0  0  0  0  0  0  0  0
   -0.1275    0.4111    4.0813 C   0  0  0  0  0  0  0  0  0  0  0  0
    0.6862    1.1312    4.1910 H   0  0  0  0  0  0  0  0  0  0  0  0
   -0.9980    0.7641    4.6360 H   0  0  0  0  0  0  0  0  0  0  0  0
    0.1959   -0.5481    4.4891 H   0  0  0  0  0  0  0  0  0  0  0  0
  5  6  2  0  0  0  0
  5  7  1  0  0  0  0
  2  3  1  0  0  0  0
  2  4  1  0  0  0  0
  2  5  1  0  0  0  0
  1  2  1  0  0  0  0
 19 20  2  0  0  0  0
 19 21  1  0  0  0  0
 16 17  1  0  0  0  0
 16 18  1  0  0  0  0
 14 15  2  0  0  0  0
 14 16  1  0  0  0  0
 11 12  1  0  0  0  0
 11 13  1  0  0  0  0
 11 14  1  0  0  0  0
  9 10  1  0  0  0  0
  9 11  1  0  0  0  0
  9 19  1  0  0  0  0
  7  8  1  0  0  0  0
  7  9  1  0  0  0  0
 23 24  1  0  0  0  0
 23 25  1  0  0  0  0
 23 26  1  0  0  0  0
 21 22  1  0  0  0  0
 21 23  1  0  0  0  0
M  END
$$$$
default_name
  -OEChem-02102213163D

 26 25  0     1  0  0  0  0  0999 V2000
   -3.0232   -3.6924    1.0038 H   0  0  0  0  0  0  0  0  0  0  0  0
   -3.0082   -2.6684    0.6318 C   0  0  0  0  0  0  0  0  0  0  0  0
   -3.6332   -2.0414    1.2658 H   0  0  0  0  0  0  0  0  0  0  0  0
   -3.3762   -2.6444   -0.3912 H   0  0  0  0  0  0  0  0  0  0  0  0
   -1.5882   -2.1554    0.6658 C   0  0  0  0  0  0  0  0  0  0  0  0
   -0.6832   -2.8764    1.0638 O   0  0  0  0  0  0  0  0  0  0  0  0
   -1.3952   -0.9084    0.2428 N   0  0  0  0  0  0  0  0  0  0  0  0
   -2.1972   -0.3644   -0.0422 H   0  0  0  0  0  0  0  0  0  0  0  0
   -0.1122   -0.1994    0.2658 C   0  0  1  0  0  0  0  0  0  0  0  0
    0.6131   -0.7748   -0.3153 H   0  0  0  0  0  0  0  0  0  0  0  0
   -0.2973    1.1841   -0.3966 C   0  0  0  0  0  0  0  0  0  0  0  0
   -0.8626    1.0653   -1.3203 H   0  0  0  0  0  0  0  0  0  0  0  0
   -0.8655    1.8292    0.2719 H   0  0  0  0  0  0  0  0  0  0  0  0
    1.0070    1.8733   -0.7636 C   0  0  0  0  0  0  0  0  0  0  0  0
    1.9298    1.2975   -1.3132 O   0  0  0  0  0  0  0  0  0  0  0  0
    1.1344    3.1425   -0.4614 N   0  0  0  0  0  0  0  0  0  0  0  0
    1.9998    3.5757   -0.7316 H   0  0  0  0  0  0  0  0  0  0  0  0
    0.3828    3.6435   -0.0264 H   0  0  0  0  0  0  0  0  0  0  0  0
    0.4075   -0.0985    1.7169 C   0  0  0  0  0  0  0  0  0  0  0  0
    1.5860   -0.3526    1.9662 O   0  0  0  0  0  0  0  0  0  0  0  0
   -0.4625    0.2583    2.6666 N   0  0  0  0  0  0  0  0  0  0  0  0
   -1.4309    0.3754    2.3860 H   0  0  0  0  0  0  0  0  0  0  0  0
   -0.1275    0.4111    4.0813 C   0  0  0  0  0  0  0  0  0  0  0  0
    0.6862    1.1312    4.1910 H   0  0  0  0  0  0  0  0  0  0  0  0
   -0.9980    0.7641    4.6360 H   0  0  0  0  0  0  0  0  0  0  0  0
    0.1959   -0.5481    4.4891 H   0  0  0  0  0  0  0  0  0  0  0  0
  5  6  2  0  0  0  0
  5  7  1  0  0  0  0
  2  3  1  0  0  0  0
  2  4  1  0  0  0  0
  2  5  1  0  0  0  0
  1  2  1  0  0  0  0
 19 20  2  0  0  0  0
 19 21  1  0  0  0  0
 16 17  1  0  0  0  0
 16 18  1  0  0  0  0
 14 15  2  0  0  0  0
 14 16  1  0  0  0  0
 11 12  1  0  0  0  0
 11 13  1  0  0  0  0
 11 14  1  0  0  0  0
  9 10  1  0  0  0  0
  9 11  1  0  0  0  0
  9 19  1  0  0  0  0
  7  8  1  0  0  0  0
  7  9  1  0  0  0  0
 23 24  1  0  0  0  0
 23 25  1  0  0  0  0
 23 26  1  0  0  0  0
 21 22  1  0  0  0  0
 21 23  1  0  0  0  0
M  END
$$$$
default_name
  -OEChem-02102213163D

 26 25  0     1  0  0  0  0  0999 V2000
   -3.0232   -3.6924    1.0038 H   0  0  0  0  0  0  0  0  0  0  0  0
   -3.0082   -2.6684    0.6318 C   0  0  0  0  0  0  0  0  0  0  0  0
   -3.6332   -2.0414    1.2658 H   0  0  0  0  0  0  0  0  0  0  0  0
   -3.3762   -2.6444   -0.3912 H   0  0  0  0  0  0  0  0  0  0  0  0
   -1.5882   -2.1554    0.6658 C   0  0  0  0  0  0  0  0  0  0  0  0
   -0.6832   -2.8764    1.0638 O   0  0  0  0  0  0  0  0  0  0  0  0
   -1.3952   -0.9084    0.2428 N   0  0  0  0  0  0  0  0  0  0  0  0
   -2.1972   -0.3644   -0.0422 H   0  0  0  0  0  0  0  0  0  0  0  0
   -0.1122   -0.1994    0.2658 C   0  0  1  0  0  0  0  0  0  0  0  0
    0.6131   -0.7748   -0.3153 H   0  0  0  0  0  0  0  0  0  0  0  0
   -0.2973    1.1841   -0.3966 C   0  0  0  0  0  0  0  0  0  0  0  0
   -0.8626    1.0653   -1.3203 H   0  0  0  0  0  0  0  0  0  0  0  0
   -0.8655    1.8292    0.2719 H   0  0  0  0  0  0  0  0  0  0  0  0
    1.0070    1.8733   -0.7636 C   0  0  0  0  0  0  0  0  0  0  0  0
    1.8173    1.3917   -1.5361 O   0  0  0  0  0  0  0  0  0  0  0  0
    1.2627    3.0336   -0.2098 N   0  0  0  0  0  0  0  0  0  0  0  0
    2.1234    3.4735   -0.4844 H   0  0  0  0  0  0  0  0  0  0  0  0
    0.6038    3.4598    0.4140 H   0  0  0  0  0  0  0  0  0  0  0  0
    0.4075   -0.0985    1.7169 C   0  0  0  0  0  0  0  0  0  0  0  0
    1.5860   -0.3526    1.9662 O   0  0  0  0  0  0  0  0  0  0  0  0
   -0.4625    0.2583    2.6666 N   0  0  0  0  0  0  0  0  0  0  0  0
   -1.4309    0.3754    2.3860 H   0  0  0  0  0  0  0  0  0  0  0  0
   -0.1275    0.4111    4.0813 C   0  0  0  0  0  0  0  0  0  0  0  0
    0.6862    1.1312    4.1910 H   0  0  0  0  0  0  0  0  0  0  0  0
   -0.9980    0.7641    4.6360 H   0  0  0  0  0  0  0  0  0  0  0  0
    0.1959   -0.5481    4.4891 H   0  0  0  0  0  0  0  0  0  0  0  0
  5  6  2  0  0  0  0
  5  7  1  0  0  0  0
  2  3  1  0  0  0  0
  2  4  1  0  0  0  0
  2  5  1  0  0  0  0
  1  2  1  0  0  0  0
 19 20  2  0  0  0  0
 19 21  1  0  0  0  0
 16 17  1  0  0  0  0
 16 18  1  0  0  0  0
 14 15  2  0  0  0  0
 14 16  1  0  0  0  0
 11 12  1  0  0  0  0
 11 13  1  0  0  0  0
 11 14  1  0  0  0  0
  9 10  1  0  0  0  0
  9 11  1  0  0  0  0
  9 19  1  0  0  0  0
  7  8  1  0  0  0  0
  7  9  1  0  0  0  0
 23 24  1  0  0  0  0
 23 25  1  0  0  0  0
 23 26  1  0  0  0  0
 21 22  1  0  0  0  0
 21 23  1  0  0  0  0
M  END
$$$$
default_name
  -OEChem-02102213163D

 26 25  0     1  0  0  0  0  0999 V2000
   -3.0232   -3.6924    1.0038 H   0  0  0  0  0  0  0  0  0  0  0  0
   -3.0082   -2.6684    0.6318 C   0  0  0  0  0  0  0  0  0  0  0  0
   -3.6332   -2.0414    1.2658 H   0  0  0  0  0  0  0  0  0  0  0  0
   -3.3762   -2.6444   -0.3912 H   0  0  0  0  0  0  0  0  0  0  0  0
   -1.5882   -2.1554    0.6658 C   0  0  0  0  0  0  0  0  0  0  0  0
   -0.6832   -2.8764    1.0638 O   0  0  0  0  0  0  0  0  0  0  0  0
   -1.3952   -0.9084    0.2428 N   0  0  0  0  0  0  0  0  0  0  0  0
   -2.1972   -0.3644   -0.0422 H   0  0  0  0  0  0  0  0  0  0  0  0
   -0.1122   -0.1994    0.2658 C   0  0  1  0  0  0  0  0  0  0  0  0
    0.6131   -0.7748   -0.3153 H   0  0  0  0  0  0  0  0  0  0  0  0
   -0.2973    1.1841   -0.3966 C   0  0  0  0  0  0  0  0  0  0  0  0
   -0.8626    1.0653   -1.3203 H   0  0  0  0  0  0  0  0  0  0  0  0
   -0.8655    1.8292    0.2719 H   0  0  0  0  0  0  0  0  0  0  0  0
    1.0070    1.8733   -0.7636 C   0  0  0  0  0  0  0  0  0  0  0  0
    1.6883    1.5393   -1.7173 O   0  0  0  0  0  0  0  0  0  0  0  0
    1.4094    2.8646   -0.0061 N   0  0  0  0  0  0  0  0  0  0  0  0
    2.2653    3.3122   -0.2829 H   0  0  0  0  0  0  0  0  0  0  0  0
    0.8575    3.1708    0.7728 H   0  0  0  0  0  0  0  0  0  0  0  0
    0.4075   -0.0985    1.7169 C   0  0  0  0  0  0  0  0  0  0  0  0
    1.5860   -0.3526    1.9662 O   0  0  0  0  0  0  0  0  0  0  0  0
   -0.4625    0.2583    2.6666 N   0  0  0  0  0  0  0  0  0  0  0  0
   -1.4309    0.3754    2.3860 H   0  0  0  0  0  0  0  0  0  0  0  0
   -0.1275    0.4111    4.0813 C   0  0  0  0  0  0  0  0  0  0  0  0
    0.6862    1.1312    4.1910 H   0  0  0  0  0  0  0  0  0  0  0  0
   -0.9980    0.7641    4.6360 H   0  0  0  0  0  0  0  0  0  0  0  0
    0.1959   -0.5481    4.4891 H   0  0  0  0  0  0  0  0  0  0  0  0
  5  6  2  0  0  0  0
  5  7  1  0  0  0  0
  2  3  1  0  0  0  0
  2  4  1  0  0  0  0
  2  5  1  0  0  0  0
  1  2  1  0  0  0  0
 19 20  2  0  0  0  0
 19 21  1  0  0  0  0
 16 17  1  0  0  0  0
 16 18  1  0  0  0  0
 14 15  2  0  0  0  0
 14 16  1  0  0  0  0
 11 12  1  0  0  0  0
 11 13  1  0  0  0  0
 11 14  1  0  0  0  0
  9 10  1  0  0  0  0
  9 11  1  0  0  0  0
  9 19  1  0  0  0  0
  7  8  1  0  0  0  0
  7  9  1  0  0  0  0
 23 24  1  0  0  0  0
 23 25  1  0  0  0  0
 23 26  1  0  0  0  0
 21 22  1  0  0  0  0
 21 23  1  0  0  0  0
M  END
$$$$
default_name
  -OEChem-02102213163D

 26 25  0     1  0  0  0  0  0999 V2000
   -3.0232   -3.6924    1.0038 H   0  0  0  0  0  0  0  0  0  0  0  0
   -3.0082   -2.6684    0.6318 C   0  0  0  0  0  0  0  0  0  0  0  0
   -3.6332   -2.0414    1.2658 H   0  0  0  0  0  0  0  0  0  0  0  0
   -3.3762   -2.6444   -0.3912 H   0  0  0  0  0  0  0  0  0  0  0  0
   -1.5882   -2.1554    0.6658 C   0  0  0  0  0  0  0  0  0  0  0  0
   -0.6832   -2.8764    1.0638 O   0  0  0  0  0  0  0  0  0  0  0  0
   -1.3952   -0.9084    0.2428 N   0  0  0  0  0  0  0  0  0  0  0  0
   -2.1972   -0.3644   -0.0422 H   0  0  0  0  0  0  0  0  0  0  0  0
   -0.1122   -0.1994    0.2658 C   0  0  1  0  0  0  0  0  0  0  0  0
    0.6131   -0.7748   -0.3153 H   0  0  0  0  0  0  0  0  0  0  0  0
   -0.2973    1.1841   -0.3966 C   0  0  0  0  0  0  0  0  0  0  0  0
   -0.8626    1.0653   -1.3203 H   0  0  0  0  0  0  0  0  0  0  0  0
   -0.8655    1.8292    0.2719 H   0  0  0  0  0  0  0  0  0  0  0  0
    1.0070    1.8733   -0.7636 C   0  0  0  0  0  0  0  0  0  0  0  0
    1.5517    1.7301   -1.8444 O   0  0  0  0  0  0  0  0  0  0  0  0
    1.5644    2.6469    0.1360 N   0  0  0  0  0  0  0  0  0  0  0  0
    2.4160    3.1027   -0.1407 H   0  0  0  0  0  0  0  0  0  0  0  0
    1.1265    2.7961    1.0254 H   0  0  0  0  0  0  0  0  0  0  0  0
    0.4075   -0.0985    1.7169 C   0  0  0  0  0  0  0  0  0  0  0  0
    1.5860   -0.3526    1.9662 O   0  0  0  0  0  0  0  0  0  0  0  0
   -0.4625    0.2583    2.6666 N   0  0  0  0  0  0  0  0  0  0  0  0
   -1.4309    0.3754    2.3860 H   0  0  0  0  0  0  0  0  0  0  0  0
   -0.1275    0.4111    4.0813 C   0  0  0  0  0  0  0  0  0  0  0  0
    0.6862    1.1312    4.1910 H   0  0  0  0  0  0  0  0  0  0  0  0
   -0.9980    0.7641    4.6360 H   0  0  0  0  0  0  0  0  0  0  0  0
    0.1959   -0.5481    4.4891 H   0  0  0  0  0  0  0  0  0  0  0  0
  5  6  2  0  0  0  0
  5  7  1  0  0  0  0
  2  3  1  0  0  0  0
  2  4  1  0  0  0  0
  2  5  1  0  0  0  0
  1  2  1  0  0  0  0
 19 20  2  0  0  0  0
 19 21  1  0  0  0  0
 16 17  1  0  0  0  0
 16 18  1  0  0  0  0
 14 15  2  0  0  0  0
 14 16  1  0  0  0  0
 11 12  1  0  0  0  0
 11 13  1  0  0  0  0
 11 14  1  0  0  0  0
  9 10  1  0  0  0  0
  9 11  1  0  0  0  0
  9 19  1  0  0  0  0
  7  8  1  0  0  0  0
  7  9  1  0  0  0  0
 23 24  1  0  0  0  0
 23 25  1  0  0  0  0
 23 26  1  0  0  0  0
 21 22  1  0  0  0  0
 21 23  1  0  0  0  0
M  END
$$$$
default_name
  -OEChem-02102213163D

 26 25  0     1  0  0  0  0  0999 V2000
   -3.0232   -3.6924    1.0038 H   0  0  0  0  0  0  0  0  0  0  0  0
   -3.0082   -2.6684    0.6318 C   0  0  0  0  0  0  0  0  0  0  0  0
   -3.6332   -2.0414    1.2658 H   0  0  0  0  0  0  0  0  0  0  0  0
   -3.3762   -2.6444   -0.3912 H   0  0  0  0  0  0  0  0  0  0  0  0
   -1.5882   -2.1554    0.6658 C   0  0  0  0  0  0  0  0  0  0  0  0
   -0.6832   -2.8764    1.0638 O   0  0  0  0  0  0  0  0  0  0  0  0
   -1.3952   -0.9084    0.2428 N   0  0  0  0  0  0  0  0  0  0  0  0
   -2.1972   -0.3644   -0.0422 H   0  0  0  0  0  0  0  0  0  0  0  0
   -0.1122   -0.1994    0.2658 C   0  0  1  0  0  0  0  0  0  0  0  0
    0.6131   -0.7748   -0.3153 H   0  0  0  0  0  0  0  0  0  0  0  0
   -0.2973    1.1841   -0.3966 C   0  0  0  0  0  0  0  0  0  0  0  0
   -0.8626    1.0653   -1.3203 H   0  0  0  0  0  0  0  0  0  0  0  0
   -0.8655    1.8292    0.2719 H   0  0  0  0  0  0  0  0  0  0  0  0
    1.0070    1.8733   -0.7636 C   0  0  0  0  0  0  0  0  0  0  0  0
    1.4168    1.9512   -1.9087 O   0  0  0  0  0  0  0  0  0  0  0  0
    1.7172    2.3953    0.2066 N   0  0  0  0  0  0  0  0  0  0  0  0
    2.5652    2.8594   -0.0676 H   0  0  0  0  0  0  0  0  0  0  0  0
    1.3927    2.3613    1.1546 H   0  0  0  0  0  0  0  0  0  0  0  0
    0.4075   -0.0985    1.7169 C   0  0  0  0  0  0  0  0  0  0  0  0
    1.5860   -0.3526    1.9662 O   0  0  0  0  0  0  0  0  0  0  0  0
   -0.4625    0.2583    2.6666 N   0  0  0  0  0  0  0  0  0  0  0  0
   -1.4309    0.3754    2.3860 H   0  0  0  0  0  0  0  0  0  0  0  0
   -0.1275    0.4111    4.0813 C   0  0  0  0  0  0  0  0  0  0  0  0
    0.6862    1.1312    4.1910 H   0  0  0  0  0  0  0  0  0  0  0  0
   -0.9980    0.7641    4.6360 H   0  0  0  0  0  0  0  0  0  0  0  0
    0.1959   -0.5481    4.4891 H   0  0  0  0  0  0  0  0  0  0  0  0
  5  6  2  0  0  0  0
  5  7  1  0  0  0  0
  2  3  1  0  0  0  0
  2  4  1  0  0  0  0
  2  5  1  0  0  0  0
  1  2  1  0  0  0  0
 19 20  2  0  0  0  0
 19 21  1  0  0  0  0
 16 17  1  0  0  0  0
 16 18  1  0  0  0  0
 14 15  2  0  0  0  0
 14 16  1  0  0  0  0
 11 12  1  0  0  0  0
 11 13  1  0  0  0  0
 11 14  1  0  0  0  0
  9 10  1  0  0  0  0
  9 11  1  0  0  0  0
  9 19  1  0  0  0  0
  7  8  1  0  0  0  0
  7  9  1  0  0  0  0
 23 24  1  0  0  0  0
 23 25  1  0  0  0  0
 23 26  1  0  0  0  0
 21 22  1  0  0  0  0
 21 23  1  0  0  0  0
M  END
$$$$
default_name
  -OEChem-02102213163D

 26 25  0     1  0  0  0  0  0999 V2000
   -3.0232   -3.6924    1.0038 H   0  0  0  0  0  0  0  0  0  0  0  0
   -3.0082   -2.6684    0.6318 C   0  0  0  0  0  0  0  0  0  0  0  0
   -3.6332   -2.0414    1.2658 H   0  0  0  0  0  0  0  0  0  0  0  0
   -3.3762   -2.6444   -0.3912 H   0  0  0  0  0  0  0  0  0  0  0  0
   -1.5882   -2.1554    0.6658 C   0  0  0  0  0  0  0  0  0  0  0  0
   -0.6832   -2.8764    1.0638 O   0  0  0  0  0  0  0  0  0  0  0  0
   -1.3952   -0.9084    0.2428 N   0  0  0  0  0  0  0  0  0  0  0  0
   -2.1972   -0.3644   -0.0422 H   0  0  0  0  0  0  0  0  0  0  0  0
   -0.1122   -0.1994    0.2658 C   0  0  1  0  0  0  0  0  0  0  0  0
    0.6131   -0.7748   -0.3153 H   0  0  0  0  0  0  0  0  0  0  0  0
   -0.2973    1.1841   -0.3966 C   0  0  0  0  0  0  0  0  0  0  0  0
   -0.8626    1.0653   -1.3203 H   0  0  0  0  0  0  0  0  0  0  0  0
   -0.8655    1.8292    0.2719 H   0  0  0  0  0  0  0  0  0  0  0  0
    1.0070    1.8733   -0.7636 C   0  0  0  0  0  0  0  0  0  0  0  0
    1.2927    2.1874   -1.9060 O   0  0  0  0  0  0  0  0  0  0  0  0
    1.8573    2.1272    0.2011 N   0  0  0  0  0  0  0  0  0  0  0  0
    2.7026    2.5988   -0.0685 H   0  0  0  0  0  0  0  0  0  0  0  0
    1.6377    1.8960    1.1516 H   0  0  0  0  0  0  0  0  0  0  0  0
    0.4075   -0.0985    1.7169 C   0  0  0  0  0  0  0  0  0  0  0  0
    1.5860   -0.3526    1.9662 O   0  0  0  0  0  0  0  0  0  0  0  0
   -0.4625    0.2583    2.6666 N   0  0  0  0  0  0  0  0  0  0  0  0
   -1.4309    0.3754    2.3860 H   0  0  0  0  0  0  0  0  0  0  0  0
   -0.1275    0.4111    4.0813 C   0  0  0  0  0  0  0  0  0  0  0  0
    0.6862    1.1312    4.1910 H   0  0  0  0  0  0  0  0  0  0  0  0
   -0.9980    0.7641    4.6360 H   0  0  0  0  0  0  0  0  0  0  0  0
    0.1959   -0.5481    4.4891 H   0  0  0  0  0  0  0  0  0  0  0  0
  5  6  2  0  0  0  0
  5  7  1  0  0  0  0
  2  3  1  0  0  0  0
  2  4  1  0  0  0  0
  2  5  1  0  0  0  0
  1  2  1  0  0  0  0
 19 20  2  0  0  0  0
 19 21  1  0  0  0  0
 16 17  1  0  0  0  0
 16 18  1  0  0  0  0
 14 15  2  0  0  0  0
 14 16  1  0  0  0  0
 11 12  1  0  0  0  0
 11 13  1  0  0  0  0
 11 14  1  0  0  0  0
  9 10  1  0  0  0  0
  9 11  1  0  0  0  0
  9 19  1  0  0  0  0
  7  8  1  0  0  0  0
  7  9  1  0  0  0  0
 23 24  1  0  0  0  0
 23 25  1  0  0  0  0
 23 26  1  0  0  0  0
 21 22  1  0  0  0  0
 21 23  1  0  0  0  0
M  END
$$$$
default_name
  -OEChem-02102213163D

 26 25  0     1  0  0  0  0  0999 V2000
   -3.0232   -3.6924    1.0038 H   0  0  0  0  0  0  0  0  0  0  0  0
   -3.0082   -2.6684    0.6318 C   0  0  0  0  0  0  0  0  0  0  0  0
   -3.6332   -2.0414    1.2658 H   0  0  0  0  0  0  0  0  0  0  0  0
   -3.3762   -2.6444   -0.3912 H   0  0  0  0  0  0  0  0  0  0  0  0
   -1.5882   -2.1554    0.6658 C   0  0  0  0  0  0  0  0  0  0  0  0
   -0.6832   -2.8764    1.0638 O   0  0  0  0  0  0  0  0  0  0  0  0
   -1.3952   -0.9084    0.2428 N   0  0  0  0  0  0  0  0  0  0  0  0
   -2.1972   -0.3644   -0.0422 H   0  0  0  0  0  0  0  0  0  0  0  0
   -0.1122   -0.1994    0.2658 C   0  0  1  0  0  0  0  0  0  0  0  0
    0.6131   -0.7748   -0.3153 H   0  0  0  0  0  0  0  0  0  0  0  0
   -0.2973    1.1841   -0.3966 C   0  0  0  0  0  0  0  0  0  0  0  0
   -0.8626    1.0653   -1.3203 H   0  0  0  0  0  0  0  0  0  0  0  0
   -0.8655    1.8292    0.2719 H   0  0  0  0  0  0  0  0  0  0  0  0
    1.0070    1.8733   -0.7636 C   0  0  0  0  0  0  0  0  0  0  0  0
    1.1880    2.4228   -1.8363 O   0  0  0  0  0  0  0  0  0  0  0  0
    1.9753    1.8606    0.1198 N   0  0  0  0  0  0  0  0  0  0  0  0
    2.8190    2.3387   -0.1433 H   0  0  0  0  0  0  0  0  0  0  0  0
    1.8450    1.4319    1.0166 H   0  0  0  0  0  0  0  0  0  0  0  0
    0.4075   -0.0985    1.7169 C   0  0  0  0  0  0  0  0  0  0  0  0
    1.5860   -0.3526    1.9662 O   0  0  0  0  0  0  0  0  0  0  0  0
   -0.4625    0.2583    2.6666 N   0  0  0  0  0  0  0  0  0  0  0  0
   -1.4309    0.3754    2.3860 H   0  0  0  0  0  0  0  0  0  0  0  0
   -0.1275    0.4111    4.0813 C   0  0  0  0  0  0  0  0  0  0  0  0
    0.6862    1.1312    4.1910 H   0  0  0  0  0  0  0  0  0  0  0  0
   -0.9980    0.7641    4.6360 H   0  0  0  0  0  0  0  0  0  0  0  0
    0.1959   -0.5481    4.4891 H   0  0  0  0  0  0  0  0  0  0  0  0
  5  6  2  0  0  0  0
  5  7  1  0  0  0  0
  2  3  1  0  0  0  0
  2  4  1  0  0  0  0
  2  5  1  0  0  0  0
  1  2  1  0  0  0  0
 19 20  2  0  0  0  0
 19 21  1  0  0  0  0
 16 17  1  0  0  0  0
 16 18  1  0  0  0  0
 14 15  2  0  0  0  0
 14 16  1  0  0  0  0
 11 12  1  0  0  0  0
 11 13  1  0  0  0  0
 11 14  1  0  0  0  0
  9 10  1  0  0  0  0
  9 11  1  0  0  0  0
  9 19  1  0  0  0  0
  7  8  1  0  0  0  0
  7  9  1  0  0  0  0
 23 24  1  0  0  0  0
 23 25  1  0  0  0  0
 23 26  1  0  0  0  0
 21 22  1  0  0  0  0
 21 23  1  0  0  0  0
M  END
$$$$
default_name
  -OEChem-02102213163D

 26 25  0     1  0  0  0  0  0999 V2000
   -3.0232   -3.6924    1.0038 H   0  0  0  0  0  0  0  0  0  0  0  0
   -3.0082   -2.6684    0.6318 C   0  0  0  0  0  0  0  0  0  0  0  0
   -3.6332   -2.0414    1.2658 H   0  0  0  0  0  0  0  0  0  0  0  0
   -3.3762   -2.6444   -0.3912 H   0  0  0  0  0  0  0  0  0  0  0  0
   -1.5882   -2.1554    0.6658 C   0  0  0  0  0  0  0  0  0  0  0  0
   -0.6832   -2.8764    1.0638 O   0  0  0  0  0  0  0  0  0  0  0  0
   -1.3952   -0.9084    0.2428 N   0  0  0  0  0  0  0  0  0  0  0  0
   -2.1972   -0.3644   -0.0422 H   0  0  0  0  0  0  0  0  0  0  0  0
   -0.1122   -0.1994    0.2658 C   0  0  1  0  0  0  0  0  0  0  0  0
    0.6131   -0.7748   -0.3153 H   0  0  0  0  0  0  0  0  0  0  0  0
   -0.2973    1.1841   -0.3966 C   0  0  0  0  0  0  0  0  0  0  0  0
   -0.8626    1.0653   -1.3203 H   0  0  0  0  0  0  0  0  0  0  0  0
   -0.8655    1.8292    0.2719 H   0  0  0  0  0  0  0  0  0  0  0  0
    1.0070    1.8733   -0.7636 C   0  0  0  0  0  0  0  0  0  0  0  0
    1.1097    2.6412   -1.7044 O   0  0  0  0  0  0  0  0  0  0  0  0
    2.0631    1.6138   -0.0318 N   0  0  0  0  0  0  0  0  0  0  0  0
    2.9064    2.0969   -0.2870 H   0  0  0  0  0  0  0  0  0  0  0  0
    2.0003    1.0006    0.7589 H   0  0  0  0  0  0  0  0  0  0  0  0
    0.4075   -0.0985    1.7169 C   0  0  0  0  0  0  0  0  0  0  0  0
    1.5860   -0.3526    1.9662 O   0  0  0  0  0  0  0  0  0  0  0  0
   -0.4625    0.2583    2.6666 N   0  0  0  0  0  0  0  0  0  0  0  0
   -1.4309    0.3754    2.3860 H   0  0  0  0  0  0  0  0  0  0  0  0
   -0.1275    0.4111    4.0813 C   0  0  0  0  0  0  0  0  0  0  0  0
    0.6862    1.1312    4.1910 H   0  0  0  0  0  0  0  0  0  0  0  0
   -0.9980    0.7641    4.6360 H   0  0  0  0  0  0  0  0  0  0  0  0
    0.1959   -0.5481    4.4891 H   0  0  0  0  0  0  0  0  0  0  0  0
  5  6  2  0  0  0  0
  5  7  1  0  0  0  0
  2  3  1  0  0  0  0
  2  4  1  0  0  0  0
  2  5  1  0  0  0  0
  1  2  1  0  0  0  0
 19 20  2  0  0  0  0
 19 21  1  0  0  0  0
 16 17  1  0  0  0  0
 16 18  1  0  0  0  0
 14 15  2  0  0  0  0
 14 16  1  0  0  0  0
 11 12  1  0  0  0  0
 11 13  1  0  0  0  0
 11 14  1  0  0  0  0
  9 10  1  0  0  0  0
  9 11  1  0  0  0  0
  9 19  1  0  0  0  0
  7  8  1  0  0  0  0
  7  9  1  0  0  0  0
 23 24  1  0  0  0  0
 23 25  1  0  0  0  0
 23 26  1  0  0  0  0
 21 22  1  0  0  0  0
 21 23  1  0  0  0  0
M  END
$$$$
default_name
  -OEChem-02102213163D

 26 25  0     1  0  0  0  0  0999 V2000
   -3.0232   -3.6924    1.0038 H   0  0  0  0  0  0  0  0  0  0  0  0
   -3.0082   -2.6684    0.6318 C   0  0  0  0  0  0  0  0  0  0  0  0
   -3.6332   -2.0414    1.2658 H   0  0  0  0  0  0  0  0  0  0  0  0
   -3.3762   -2.6444   -0.3912 H   0  0  0  0  0  0  0  0  0  0  0  0
   -1.5882   -2.1554    0.6658 C   0  0  0  0  0  0  0  0  0  0  0  0
   -0.6832   -2.8764    1.0638 O   0  0  0  0  0  0  0  0  0  0  0  0
   -1.3952   -0.9084    0.2428 N   0  0  0  0  0  0  0  0  0  0  0  0
   -2.1972   -0.3644   -0.0422 H   0  0  0  0  0  0  0  0  0  0  0  0
   -0.1122   -0.1994    0.2658 C   0  0  1  0  0  0  0  0  0  0  0  0
    0.6131   -0.7748   -0.3153 H   0  0  0  0  0  0  0  0  0  0  0  0
   -0.2973    1.1841   -0.3966 C   0  0  0  0  0  0  0  0  0  0  0  0
   -0.8626    1.0653   -1.3203 H   0  0  0  0  0  0  0  0  0  0  0  0
   -0.8655    1.8292    0.2719 H   0  0  0  0  0  0  0  0  0  0  0  0
    1.0070    1.8733   -0.7636 C   0  0  0  0  0  0  0  0  0  0  0  0
    1.0631    2.8278   -1.5194 O   0  0  0  0  0  0  0  0  0  0  0  0
    2.1146    1.4035   -0.2433 N   0  0  0  0  0  0  0  0  0  0  0  0
    2.9588    1.8897   -0.4898 H   0  0  0  0  0  0  0  0  0  0  0  0
    2.0932    0.6315    0.3959 H   0  0  0  0  0  0  0  0  0  0  0  0
    0.4075   -0.0985    1.7169 C   0  0  0  0  0  0  0  0  0  0  0  0
    1.5860   -0.3526    1.9662 O   0  0  0  0  0  0  0  0  0  0  0  0
   -0.4625    0.2583    2.6666 N   0  0  0  0  0  0  0  0  0  0  0  0
   -1.4309    0.3754    2.3860 H   0  0  0  0  0  0  0  0  0  0  0  0
   -0.1275    0.4111    4.0813 C   0  0  0  0  0  0  0  0  0  0  0  0
    0.6862    1.1312    4.1910 H   0  0  0  0  0  0  0  0  0  0  0  0
   -0.9980    0.7641    4.6360 H   0  0  0  0  0  0  0  0  0  0  0  0
    0.1959   -0.5481    4.4891 H   0  0  0  0  0  0  0  0  0  0  0  0
  5  6  2  0  0  0  0
  5  7  1  0  0  0  0
  2  3  1  0  0  0  0
  2  4  1  0  0  0  0
  2  5  1  0  0  0  0
  1  2  1  0  0  0  0
 19 20  2  0  0  0  0
 19 21  1  0  0  0  0
 16 17  1  0  0  0  0
 16 18  1  0  0  0  0
 14 15  2  0  0  0  0
 14 16  1  0  0  0  0
 11 12  1  0  0  0  0
 11 13  1  0  0  0  0
 11 14  1  0  0  0  0
  9 10  1  0  0  0  0
  9 11  1  0  0  0  0
  9 19  1  0  0  0  0
  7  8  1  0  0  0  0
  7  9  1  0  0  0  0
 23 24  1  0  0  0  0
 23 25  1  0  0  0  0
 23 26  1  0  0  0  0
 21 22  1  0  0  0  0
 21 23  1  0  0  0  0
M  END
$$$$
default_name
  -OEChem-02102213163D

 26 25  0     1  0  0  0  0  0999 V2000
   -3.0232   -3.6924    1.0038 H   0  0  0  0  0  0  0  0  0  0  0  0
   -3.0082   -2.6684    0.6318 C   0  0  0  0  0  0  0  0  0  0  0  0
   -3.6332   -2.0414    1.2658 H   0  0  0  0  0  0  0  0  0  0  0  0
   -3.3762   -2.6444   -0.3912 H   0  0  0  0  0  0  0  0  0  0  0  0
   -1.5882   -2.1554    0.6658 C   0  0  0  0  0  0  0  0  0  0  0  0
   -0.6832   -2.8764    1.0638 O   0  0  0  0  0  0  0  0  0  0  0  0
   -1.3952   -0.9084    0.2428 N   0  0  0  0  0  0  0  0  0  0  0  0
   -2.1972   -0.3644   -0.0422 H   0  0  0  0  0  0  0  0  0  0  0  0
   -0.1122   -0.1994    0.2658 C   0  0  1  0  0  0  0  0  0  0  0  0
    0.6131   -0.7748   -0.3153 H   0  0  0  0  0  0  0  0  0  0  0  0
   -0.2973    1.1841   -0.3966 C   0  0  0  0  0  0  0  0  0  0  0  0
   -1.0720    1.1143   -1.1594 H   0  0  0  0  0  0  0  0  0  0  0  0
   -0.6211    1.9019    0.3556 H   0  0  0  0  0  0  0  0  0  0  0  0
    0.9514    1.7126   -1.0838 C   0  0  0  0  0  0  0  0  0  0  0  0
    0.9884    2.7871   -1.6578 O   0  0  0  0  0  0  0  0  0  0  0  0
    2.0273    0.9642   -1.0577 N   0  0  0  0  0  0  0  0  0  0  0  0
    2.8419    1.3467   -1.5046 H   0  0  0  0  0  0  0  0  0  0  0  0
    2.0281    0.0850   -0.5759 H   0  0  0  0  0  0  0  0  0  0  0  0
    0.4075   -0.0985    1.7169 C   0  0  0  0  0  0  0  0  0  0  0  0
    1.5860   -0.3526    1.9662 O   0  0  0  0  0  0  0  0  0  0  0  0
   -0.4625    0.2583    2.6666 N   0  0  0  0  0  0  0  0  0  0  0  0
   -1.4309    0.3754    2.3860 H   0  0  0  0  0  0  0  0  0  0  0  0
   -0.1275    0.4111    4.0813 C   0  0  0  0  0  0  0  0  0  0  0  0
    0.6862    1.1312    4.1910 H   0  0  0  0  0  0  0  0  0  0  0  0
   -0.9980    0.7641    4.6360 H   0  0  0  0  0  0  0  0  0  0  0  0
    0.1959   -0.5481    4.4891 H   0  0  0  0  0  0  0  0  0  0  0  0
  5  6  2  0  0  0  0
  5  7  1  0  0  0  0
  2  3  1  0  0  0  0
  2  4  1  0  0  0  0
  2  5  1  0  0  0  0
  1  2  1  0  0  0  0
 19 20  2  0  0  0  0
 19 21  1  0  0  0  0
 16 17  1  0  0  0  0
 16 18  1  0  0  0  0
 14 15  2  0  0  0  0
 14 16  1  0  0  0  0
 11 12  1  0  0  0  0
 11 13  1  0  0  0  0
 11 14  1  0  0  0  0
  9 10  1  0  0  0  0
  9 11  1  0  0  0  0
  9 19  1  0  0  0  0
  7  8  1  0  0  0  0
  7  9  1  0  0  0  0
 23 24  1  0  0  0  0
 23 25  1  0  0  0  0
 23 26  1  0  0  0  0
 21 22  1  0  0  0  0
 21 23  1  0  0  0  0
M  END
$$$$
default_name
  -OEChem-02102213163D

 26 25  0     1  0  0  0  0  0999 V2000
   -3.0232   -3.6924    1.0038 H   0  0  0  0  0  0  0  0  0  0  0  0
   -3.0082   -2.6684    0.6318 C   0  0  0  0  0  0  0  0  0  0  0  0
   -3.6332   -2.0414    1.2658 H   0  0  0  0  0  0  0  0  0  0  0  0
   -3.3762   -2.6444   -0.3912 H   0  0  0  0  0  0  0  0  0  0  0  0
   -1.5882   -2.1554    0.6658 C   0  0  0  0  0  0  0  0  0  0  0  0
   -0.6832   -2.8764    1.0638 O   0  0  0  0  0  0  0  0  0  0  0  0
   -1.3952   -0.9084    0.2428 N   0  0  0  0  0  0  0  0  0  0  0  0
   -2.1972   -0.3644   -0.0422 H   0  0  0  0  0  0  0  0  0  0  0  0
   -0.1122   -0.1994    0.2658 C   0  0  1  0  0  0  0  0  0  0  0  0
    0.6131   -0.7748   -0.3153 H   0  0  0  0  0  0  0  0  0  0  0  0
   -0.2973    1.1841   -0.3966 C   0  0  0  0  0  0  0  0  0  0  0  0
   -1.0720    1.1143   -1.1594 H   0  0  0  0  0  0  0  0  0  0  0  0
   -0.6211    1.9019    0.3556 H   0  0  0  0  0  0  0  0  0  0  0  0
    0.9514    1.7126   -1.0838 C   0  0  0  0  0  0  0  0  0  0  0  0
    1.0798    2.8760   -1.4233 O   0  0  0  0  0  0  0  0  0  0  0  0
    1.9225    0.8655   -1.3239 N   0  0  0  0  0  0  0  0  0  0  0  0
    2.7420    1.2466   -1.7631 H   0  0  0  0  0  0  0  0  0  0  0  0
    1.8492   -0.0925   -1.0375 H   0  0  0  0  0  0  0  0  0  0  0  0
    0.4075   -0.0985    1.7169 C   0  0  0  0  0  0  0  0  0  0  0  0
    1.5860   -0.3526    1.9662 O   0  0  0  0  0  0  0  0  0  0  0  0
   -0.4625    0.2583    2.6666 N   0  0  0  0  0  0  0  0  0  0  0  0
   -1.4309    0.3754    2.3860 H   0  0  0  0  0  0  0  0  0  0  0  0
   -0.1275    0.4111    4.0813 C   0  0  0  0  0  0  0  0  0  0  0  0
    0.6862    1.1312    4.1910 H   0  0  0  0  0  0  0  0  0  0  0  0
   -0.9980    0.7641    4.6360 H   0  0  0  0  0  0  0  0  0  0  0  0
    0.1959   -0.5481    4.4891 H   0  0  0  0  0  0  0  0  0  0  0  0
  5  6  2  0  0  0  0
  5  7  1  0  0  0  0
  2  3  1  0  0  0  0
  2  4  1  0  0  0  0
  2  5  1  0  0  0  0
  1  2  1  0  0  0  0
 19 20  2  0  0  0  0
 19 21  1  0  0  0  0
 16 17  1  0  0  0  0
 16 18  1  0  0  0  0
 14 15  2  0  0  0  0
 14 16  1  0  0  0  0
 11 12  1  0  0  0  0
 11 13  1  0  0  0  0
 11 14  1  0  0  0  0
  9 10  1  0  0  0  0
  9 11  1  0  0  0  0
  9 19  1  0  0  0  0
  7  8  1  0  0  0  0
  7  9  1  0  0  0  0
 23 24  1  0  0  0  0
 23 25  1  0  0  0  0
 23 26  1  0  0  0  0
 21 22  1  0  0  0  0
 21 23  1  0  0  0  0
M  END
$$$$
default_name
  -OEChem-02102213163D

 26 25  0     1  0  0  0  0  0999 V2000
   -3.0232   -3.6924    1.0038 H   0  0  0  0  0  0  0  0  0  0  0  0
   -3.0082   -2.6684    0.6318 C   0  0  0  0  0  0  0  0  0  0  0  0
   -3.6332   -2.0414    1.2658 H   0  0  0  0  0  0  0  0  0  0  0  0
   -3.3762   -2.6444   -0.3912 H   0  0  0  0  0  0  0  0  0  0  0  0
   -1.5882   -2.1554    0.6658 C   0  0  0  0  0  0  0  0  0  0  0  0
   -0.6832   -2.8764    1.0638 O   0  0  0  0  0  0  0  0  0  0  0  0
   -1.3952   -0.9084    0.2428 N   0  0  0  0  0  0  0  0  0  0  0  0
   -2.1972   -0.3644   -0.0422 H   0  0  0  0  0  0  0  0  0  0  0  0
   -0.1122   -0.1994    0.2658 C   0  0  1  0  0  0  0  0  0  0  0  0
    0.6131   -0.7748   -0.3153 H   0  0  0  0  0  0  0  0  0  0  0  0
   -0.2973    1.1841   -0.3966 C   0  0  0  0  0  0  0  0  0  0  0  0
   -1.0720    1.1143   -1.1594 H   0  0  0  0  0  0  0  0  0  0  0  0
   -0.6211    1.9019    0.3556 H   0  0  0  0  0  0  0  0  0  0  0  0
    0.9514    1.7126   -1.0838 C   0  0  0  0  0  0  0  0  0  0  0  0
    1.1996    2.9014   -1.1862 O   0  0  0  0  0  0  0  0  0  0  0  0
    1.7858    0.8390   -1.5926 N   0  0  0  0  0  0  0  0  0  0  0  0
    2.6106    1.2165   -2.0250 H   0  0  0  0  0  0  0  0  0  0  0  0
    1.6141   -0.1448   -1.5050 H   0  0  0  0  0  0  0  0  0  0  0  0
    0.4075   -0.0985    1.7169 C   0  0  0  0  0  0  0  0  0  0  0  0
    1.5860   -0.3526    1.9662 O   0  0  0  0  0  0  0  0  0  0  0  0
   -0.4625    0.2583    2.6666 N   0  0  0  0  0  0  0  0  0  0  0  0
   -1.4309    0.3754    2.3860 H   0  0  0  0  0  0  0  0  0  0  0  0
   -0.1275    0.4111    4.0813 C   0  0  0  0  0  0  0  0  0  0  0  0
    0.6862    1.1312    4.1910 H   0  0  0  0  0  0  0  0  0  0  0  0
   -0.9980    0.7641    4.6360 H   0  0  0  0  0  0  0  0  0  0  0  0
    0.1959   -0.5481    4.4891 H   0  0  0  0  0  0  0  0  0  0  0  0
  5  6  2  0  0  0  0
  5  7  1  0  0  0  0
  2  3  1  0  0  0  0
  2  4  1  0  0  0  0
  2  5  1  0  0  0  0
  1  2  1  0  0  0  0
 19 20  2  0  0  0  0
 19 21  1  0  0  0  0
 16 17  1  0  0  0  0
 16 18  1  0  0  0  0
 14 15  2  0  0  0  0
 14 16  1  0  0  0  0
 11 12  1  0  0  0  0
 11 13  1  0  0  0  0
 11 14  1  0  0  0  0
  9 10  1  0  0  0  0
  9 11  1  0  0  0  0
  9 19  1  0  0  0  0
  7  8  1  0  0  0  0
  7  9  1  0  0  0  0
 23 24  1  0  0  0  0
 23 25  1  0  0  0  0
 23 26  1  0  0  0  0
 21 22  1  0  0  0  0
 21 23  1  0  0  0  0
M  END
$$$$
default_name
  -OEChem-02102213163D

 26 25  0     1  0  0  0  0  0999 V2000
   -3.0232   -3.6924    1.0038 H   0  0  0  0  0  0  0  0  0  0  0  0
   -3.0082   -2.6684    0.6318 C   0  0  0  0  0  0  0  0  0  0  0  0
   -3.6332   -2.0414    1.2658 H   0  0  0  0  0  0  0  0  0  0  0  0
   -3.3762   -2.6444   -0.3912 H   0  0  0  0  0  0  0  0  0  0  0  0
   -1.5882   -2.1554    0.6658 C   0  0  0  0  0  0  0  0  0  0  0  0
   -0.6832   -2.8764    1.0638 O   0  0  0  0  0  0  0  0  0  0  0  0
   -1.3952   -0.9084    0.2428 N   0  0  0  0  0  0  0  0  0  0  0  0
   -2.1972   -0.3644   -0.0422 H   0  0  0  0  0  0  0  0  0  0  0  0
   -0.1122   -0.1994    0.2658 C   0  0  1  0  0  0  0  0  0  0  0  0
    0.6131   -0.7748   -0.3153 H   0  0  0  0  0  0  0  0  0  0  0  0
   -0.2973    1.1841   -0.3966 C   0  0  0  0  0  0  0  0  0  0  0  0
   -1.0720    1.1143   -1.1594 H   0  0  0  0  0  0  0  0  0  0  0  0
   -0.6211    1.9019    0.3556 H   0  0  0  0  0  0  0  0  0  0  0  0
    0.9514    1.7126   -1.0838 C   0  0  0  0  0  0  0  0  0  0  0  0
    1.3396    2.8614   -0.9625 O   0  0  0  0  0  0  0  0  0  0  0  0
    1.6265    0.8865   -1.8455 N   0  0  0  0  0  0  0  0  0  0  0  0
    2.4565    1.2585   -2.2726 H   0  0  0  0  0  0  0  0  0  0  0  0
    1.3388   -0.0685   -1.9465 H   0  0  0  0  0  0  0  0  0  0  0  0
    0.4075   -0.0985    1.7169 C   0  0  0  0  0  0  0  0  0  0  0  0
    1.5860   -0.3526    1.9662 O   0  0  0  0  0  0  0  0  0  0  0  0
   -0.4625    0.2583    2.6666 N   0  0  0  0  0  0  0  0  0  0  0  0
   -1.4309    0.3754    2.3860 H   0  0  0  0  0  0  0  0  0  0  0  0
   -0.1275    0.4111    4.0813 C   0  0  0  0  0  0  0  0  0  0  0  0
    0.6862    1.1312    4.1910 H   0  0  0  0  0  0  0  0  0  0  0  0
   -0.9980    0.7641    4.6360 H   0  0  0  0  0  0  0  0  0  0  0  0
    0.1959   -0.5481    4.4891 H   0  0  0  0  0  0  0  0  0  0  0  0
  5  6  2  0  0  0  0
  5  7  1  0  0  0  0
  2  3  1  0  0  0  0
  2  4  1  0  0  0  0
  2  5  1  0  0  0  0
  1  2  1  0  0  0  0
 19 20  2  0  0  0  0
 19 21  1  0  0  0  0
 16 17  1  0  0  0  0
 16 18  1  0  0  0  0
 14 15  2  0  0  0  0
 14 16  1  0  0  0  0
 11 12  1  0  0  0  0
 11 13  1  0  0  0  0
 11 14  1  0  0  0  0
  9 10  1  0  0  0  0
  9 11  1  0  0  0  0
  9 19  1  0  0  0  0
  7  8  1  0  0  0  0
  7  9  1  0  0  0  0
 23 24  1  0  0  0  0
 23 25  1  0  0  0  0
 23 26  1  0  0  0  0
 21 22  1  0  0  0  0
 21 23  1  0  0  0  0
M  END
$$$$
default_name
  -OEChem-02102213163D

 26 25  0     1  0  0  0  0  0999 V2000
   -3.0232   -3.6924    1.0038 H   0  0  0  0  0  0  0  0  0  0  0  0
   -3.0082   -2.6684    0.6318 C   0  0  0  0  0  0  0  0  0  0  0  0
   -3.6332   -2.0414    1.2658 H   0  0  0  0  0  0  0  0  0  0  0  0
   -3.3762   -2.6444   -0.3912 H   0  0  0  0  0  0  0  0  0  0  0  0
   -1.5882   -2.1554    0.6658 C   0  0  0  0  0  0  0  0  0  0  0  0
   -0.6832   -2.8764    1.0638 O   0  0  0  0  0  0  0  0  0  0  0  0
   -1.3952   -0.9084    0.2428 N   0  0  0  0  0  0  0  0  0  0  0  0
   -2.1972   -0.3644   -0.0422 H   0  0  0  0  0  0  0  0  0  0  0  0
   -0.1122   -0.1994    0.2658 C   0  0  1  0  0  0  0  0  0  0  0  0
    0.6131   -0.7748   -0.3153 H   0  0  0  0  0  0  0  0  0  0  0  0
   -0.2973    1.1841   -0.3966 C   0  0  0  0  0  0  0  0  0  0  0  0
   -1.0720    1.1143   -1.1594 H   0  0  0  0  0  0  0  0  0  0  0  0
   -0.6211    1.9019    0.3556 H   0  0  0  0  0  0  0  0  0  0  0  0
    0.9514    1.7126   -1.0838 C   0  0  0  0  0  0  0  0  0  0  0  0
    1.4903    2.7589   -0.7675 O   0  0  0  0  0  0  0  0  0  0  0  0
    1.4555    1.0049   -2.0654 N   0  0  0  0  0  0  0  0  0  0  0  0
    2.2904    1.3697   -2.4890 H   0  0  0  0  0  0  0  0  0  0  0  0
    1.0420    0.1314   -2.3320 H   0  0  0  0  0  0  0  0  0  0  0  0
    0.4075   -0.0985    1.7169 C   0  0  0  0  0  0  0  0  0  0  0  0
    1.5860   -0.3526    1.9662 O   0  0  0  0  0  0  0  0  0  0  0  0
   -0.4625    0.2583    2.6666 N   0  0  0  0  0  0  0  0  0  0  0  0
   -1.4309    0.3754    2.3860 H   0  0  0  0  0  0  0  0  0  0  0  0
   -0.1275    0.4111    4.0813 C   0  0  0  0  0  0  0  0  0  0  0  0
    0.6862    1.1312    4.1910 H   0  0  0  0  0  0  0  0  0  0  0  0
   -0.9980    0.7641    4.6360 H   0  0  0  0  0  0  0  0  0  0  0  0
    0.1959   -0.5481    4.4891 H   0  0  0  0  0  0  0  0  0  0  0  0
  5  6  2  0  0  0  0
  5  7  1  0  0  0  0
  2  3  1  0  0  0  0
  2  4  1  0  0  0  0
  2  5  1  0  0  0  0
  1  2  1  0  0  0  0
 19 20  2  0  0  0  0
 19 21  1  0  0  0  0
 16 17  1  0  0  0  0
 16 18  1  0  0  0  0
 14 15  2  0  0  0  0
 14 16  1  0  0  0  0
 11 12  1  0  0  0  0
 11 13  1  0  0  0  0
 11 14  1  0  0  0  0
  9 10  1  0  0  0  0
  9 11  1  0  0  0  0
  9 19  1  0  0  0  0
  7  8  1  0  0  0  0
  7  9  1  0  0  0  0
 23 24  1  0  0  0  0
 23 25  1  0  0  0  0
 23 26  1  0  0  0  0
 21 22  1  0  0  0  0
 21 23  1  0  0  0  0
M  END
$$$$
default_name
  -OEChem-02102213163D

 26 25  0     1  0  0  0  0  0999 V2000
   -3.0232   -3.6924    1.0038 H   0  0  0  0  0  0  0  0  0  0  0  0
   -3.0082   -2.6684    0.6318 C   0  0  0  0  0  0  0  0  0  0  0  0
   -3.6332   -2.0414    1.2658 H   0  0  0  0  0  0  0  0  0  0  0  0
   -3.3762   -2.6444   -0.3912 H   0  0  0  0  0  0  0  0  0  0  0  0
   -1.5882   -2.1554    0.6658 C   0  0  0  0  0  0  0  0  0  0  0  0
   -0.6832   -2.8764    1.0638 O   0  0  0  0  0  0  0  0  0  0  0  0
   -1.3952   -0.9084    0.2428 N   0  0  0  0  0  0  0  0  0  0  0  0
   -2.1972   -0.3644   -0.0422 H   0  0  0  0  0  0  0  0  0  0  0  0
   -0.1122   -0.1994    0.2658 C   0  0  1  0  0  0  0  0  0  0  0  0
    0.6131   -0.7748   -0.3153 H   0  0  0  0  0  0  0  0  0  0  0  0
   -0.2973    1.1841   -0.3966 C   0  0  0  0  0  0  0  0  0  0  0  0
   -1.0720    1.1143   -1.1594 H   0  0  0  0  0  0  0  0  0  0  0  0
   -0.6211    1.9019    0.3556 H   0  0  0  0  0  0  0  0  0  0  0  0
    0.9514    1.7126   -1.0838 C   0  0  0  0  0  0  0  0  0  0  0  0
    1.6414    2.6009   -0.6146 O   0  0  0  0  0  0  0  0  0  0  0  0
    1.2843    1.1859   -2.2372 N   0  0  0  0  0  0  0  0  0  0  0  0
    2.1234    1.5426   -2.6593 H   0  0  0  0  0  0  0  0  0  0  0  0
    0.7441    0.4411   -2.6352 H   0  0  0  0  0  0  0  0  0  0  0  0
    0.4075   -0.0985    1.7169 C   0  0  0  0  0  0  0  0  0  0  0  0
    1.5860   -0.3526    1.9662 O   0  0  0  0  0  0  0  0  0  0  0  0
   -0.4625    0.2583    2.6666 N   0  0  0  0  0  0  0  0  0  0  0  0
   -1.4309    0.3754    2.3860 H   0  0  0  0  0  0  0  0  0  0  0  0
   -0.1275    0.4111    4.0813 C   0  0  0  0  0  0  0  0  0  0  0  0
    0.6862    1.1312    4.1910 H   0  0  0  0  0  0  0  0  0  0  0  0
   -0.9980    0.7641    4.6360 H   0  0  0  0  0  0  0  0  0  0  0  0
    0.1959   -0.5481    4.4891 H   0  0  0  0  0  0  0  0  0  0  0  0
  5  6  2  0  0  0  0
  5  7  1  0  0  0  0
  2  3  1  0  0  0  0
  2  4  1  0  0  0  0
  2  5  1  0  0  0  0
  1  2  1  0  0  0  0
 19 20  2  0  0  0  0
 19 21  1  0  0  0  0
 16 17  1  0  0  0  0
 16 18  1  0  0  0  0
 14 15  2  0  0  0  0
 14 16  1  0  0  0  0
 11 12  1  0  0  0  0
 11 13  1  0  0  0  0
 11 14  1  0  0  0  0
  9 10  1  0  0  0  0
  9 11  1  0  0  0  0
  9 19  1  0  0  0  0
  7  8  1  0  0  0  0
  7  9  1  0  0  0  0
 23 24  1  0  0  0  0
 23 25  1  0  0  0  0
 23 26  1  0  0  0  0
 21 22  1  0  0  0  0
 21 23  1  0  0  0  0
M  END
$$$$
default_name
  -OEChem-02102213163D

 26 25  0     1  0  0  0  0  0999 V2000
   -3.0232   -3.6924    1.0038 H   0  0  0  0  0  0  0  0  0  0  0  0
   -3.0082   -2.6684    0.6318 C   0  0  0  0  0  0  0  0  0  0  0  0
   -3.6332   -2.0414    1.2658 H   0  0  0  0  0  0  0  0  0  0  0  0
   -3.3762   -2.6444   -0.3912 H   0  0  0  0  0  0  0  0  0  0  0  0
   -1.5882   -2.1554    0.6658 C   0  0  0  0  0  0  0  0  0  0  0  0
   -0.6832   -2.8764    1.0638 O   0  0  0  0  0  0  0  0  0  0  0  0
   -1.3952   -0.9084    0.2428 N   0  0  0  0  0  0  0  0  0  0  0  0
   -2.1972   -0.3644   -0.0422 H   0  0  0  0  0  0  0  0  0  0  0  0
   -0.1122   -0.1994    0.2658 C   0  0  1  0  0  0  0  0  0  0  0  0
    0.6131   -0.7748   -0.3153 H   0  0  0  0  0  0  0  0  0  0  0  0
   -0.2973    1.1841   -0.3966 C   0  0  0  0  0  0  0  0  0  0  0  0
   -1.0720    1.1143   -1.1594 H   0  0  0  0  0  0  0  0  0  0  0  0
   -0.6211    1.9019    0.3556 H   0  0  0  0  0  0  0  0  0  0  0  0
    0.9514    1.7126   -1.0838 C   0  0  0  0  0  0  0  0  0  0  0  0
    1.7826    2.3979   -0.5140 O   0  0  0  0  0  0  0  0  0  0  0  0
    1.1247    1.4174   -2.3492 N   0  0  0  0  0  0  0  0  0  0  0  0
    1.9671    1.7654   -2.7721 H   0  0  0  0  0  0  0  0  0  0  0  0
    0.4653    0.8395   -2.8354 H   0  0  0  0  0  0  0  0  0  0  0  0
    0.4075   -0.0985    1.7169 C   0  0  0  0  0  0  0  0  0  0  0  0
    1.5860   -0.3526    1.9662 O   0  0  0  0  0  0  0  0  0  0  0  0
   -0.4625    0.2583    2.6666 N   0  0  0  0  0  0  0  0  0  0  0  0
   -1.4309    0.3754    2.3860 H   0  0  0  0  0  0  0  0  0  0  0  0
   -0.1275    0.4111    4.0813 C   0  0  0  0  0  0  0  0  0  0  0  0
    0.6862    1.1312    4.1910 H   0  0  0  0  0  0  0  0  0  0  0  0
   -0.9980    0.7641    4.6360 H   0  0  0  0  0  0  0  0  0  0  0  0
    0.1959   -0.5481    4.4891 H   0  0  0  0  0  0  0  0  0  0  0  0
  5  6  2  0  0  0  0
  5  7  1  0  0  0  0
  2  3  1  0  0  0  0
  2  4  1  0  0  0  0
  2  5  1  0  0  0  0
  1  2  1  0  0  0  0
 19 20  2  0  0  0  0
 19 21  1  0  0  0  0
 16 17  1  0  0  0  0
 16 18  1  0  0  0  0
 14 15  2  0  0  0  0
 14 16  1  0  0  0  0
 11 12  1  0  0  0  0
 11 13  1  0  0  0  0
 11 14  1  0  0  0  0
  9 10  1  0  0  0  0
  9 11  1  0  0  0  0
  9 19  1  0  0  0  0
  7  8  1  0  0  0  0
  7  9  1  0  0  0  0
 23 24  1  0  0  0  0
 23 25  1  0  0  0  0
 23 26  1  0  0  0  0
 21 22  1  0  0  0  0
 21 23  1  0  0  0  0
M  END
$$$$
default_name
  -OEChem-02102213163D

 26 25  0     1  0  0  0  0  0999 V2000
   -3.0232   -3.6924    1.0038 H   0  0  0  0  0  0  0  0  0  0  0  0
   -3.0082   -2.6684    0.6318 C   0  0  0  0  0  0  0  0  0  0  0  0
   -3.6332   -2.0414    1.2658 H   0  0  0  0  0  0  0  0  0  0  0  0
   -3.3762   -2.6444   -0.3912 H   0  0  0  0  0  0  0  0  0  0  0  0
   -1.5882   -2.1554    0.6658 C   0  0  0  0  0  0  0  0  0  0  0  0
   -0.6832   -2.8764    1.0638 O   0  0  0  0  0  0  0  0  0  0  0  0
   -1.3952   -0.9084    0.2428 N   0  0  0  0  0  0  0  0  0  0  0  0
   -2.1972   -0.3644   -0.0422 H   0  0  0  0  0  0  0  0  0  0  0  0
   -0.1122   -0.1994    0.2658 C   0  0  1  0  0  0  0  0  0  0  0  0
    0.6131   -0.7748   -0.3153 H   0  0  0  0  0  0  0  0  0  0  0  0
   -0.2973    1.1841   -0.3966 C   0  0  0  0  0  0  0  0  0  0  0  0
   -1.0720    1.1143   -1.1594 H   0  0  0  0  0  0  0  0  0  0  0  0
   -0.6211    1.9019    0.3556 H   0  0  0  0  0  0  0  0  0  0  0  0
    0.9514    1.7126   -1.0838 C   0  0  0  0  0  0  0  0  0  0  0  0
    1.9043    2.1641   -0.4727 O   0  0  0  0  0  0  0  0  0  0  0  0
    0.9875    1.6834   -2.3939 N   0  0  0  0  0  0  0  0  0  0  0  0
    1.8320    2.0228   -2.8197 H   0  0  0  0  0  0  0  0  0  0  0  0
    0.2246    1.2996   -2.9189 H   0  0  0  0  0  0  0  0  0  0  0  0
    0.4075   -0.0985    1.7169 C   0  0  0  0  0  0  0  0  0  0  0  0
    1.5860   -0.3526    1.9662 O   0  0  0  0  0  0  0  0  0  0  0  0
   -0.4625    0.2583    2.6666 N   0  0  0  0  0  0  0  0  0  0  0  0
   -1.4309    0.3754    2.3860 H   0  0  0  0  0  0  0  0  0  0  0  0
   -0.1275    0.4111    4.0813 C   0  0  0  0  0  0  0  0  0  0  0  0
    0.6862    1.1312    4.1910 H   0  0  0  0  0  0  0  0  0  0  0  0
   -0.9980    0.7641    4.6360 H   0  0  0  0  0  0  0  0  0  0  0  0
    0.1959   -0.5481    4.4891 H   0  0  0  0  0  0  0  0  0  0  0  0
  5  6  2  0  0  0  0
  5  7  1  0  0  0  0
  2  3  1  0  0  0  0
  2  4  1  0  0  0  0
  2  5  1  0  0  0  0
  1  2  1  0  0  0  0
 19 20  2  0  0  0  0
 19 21  1  0  0  0  0
 16 17  1  0  0  0  0
 16 18  1  0  0  0  0
 14 15  2  0  0  0  0
 14 16  1  0  0  0  0
 11 12  1  0  0  0  0
 11 13  1  0  0  0  0
 11 14  1  0  0  0  0
  9 10  1  0  0  0  0
  9 11  1  0  0  0  0
  9 19  1  0  0  0  0
  7  8  1  0  0  0  0
  7  9  1  0  0  0  0
 23 24  1  0  0  0  0
 23 25  1  0  0  0  0
 23 26  1  0  0  0  0
 21 22  1  0  0  0  0
 21 23  1  0  0  0  0
M  END
$$$$
default_name
  -OEChem-02102213163D

 26 25  0     1  0  0  0  0  0999 V2000
   -3.0232   -3.6924    1.0038 H   0  0  0  0  0  0  0  0  0  0  0  0
   -3.0082   -2.6684    0.6318 C   0  0  0  0  0  0  0  0  0  0  0  0
   -3.6332   -2.0414    1.2658 H   0  0  0  0  0  0  0  0  0  0  0  0
   -3.3762   -2.6444   -0.3912 H   0  0  0  0  0  0  0  0  0  0  0  0
   -1.5882   -2.1554    0.6658 C   0  0  0  0  0  0  0  0  0  0  0  0
   -0.6832   -2.8764    1.0638 O   0  0  0  0  0  0  0  0  0  0  0  0
   -1.3952   -0.9084    0.2428 N   0  0  0  0  0  0  0  0  0  0  0  0
   -2.1972   -0.3644   -0.0422 H   0  0  0  0  0  0  0  0  0  0  0  0
   -0.1122   -0.1994    0.2658 C   0  0  1  0  0  0  0  0  0  0  0  0
    0.6131   -0.7748   -0.3153 H   0  0  0  0  0  0  0  0  0  0  0  0
   -0.2973    1.1841   -0.3966 C   0  0  0  0  0  0  0  0  0  0  0  0
   -1.0720    1.1143   -1.1594 H   0  0  0  0  0  0  0  0  0  0  0  0
   -0.6211    1.9019    0.3556 H   0  0  0  0  0  0  0  0  0  0  0  0
    0.9514    1.7126   -1.0838 C   0  0  0  0  0  0  0  0  0  0  0  0
    1.9982    1.9151   -0.4935 O   0  0  0  0  0  0  0  0  0  0  0  0
    0.8821    1.9660   -2.3681 N   0  0  0  0  0  0  0  0  0  0  0  0
    1.7273    2.2974   -2.7987 H   0  0  0  0  0  0  0  0  0  0  0  0
    0.0384    1.7899   -2.8802 H   0  0  0  0  0  0  0  0  0  0  0  0
    0.4075   -0.0985    1.7169 C   0  0  0  0  0  0  0  0  0  0  0  0
    1.5860   -0.3526    1.9662 O   0  0  0  0  0  0  0  0  0  0  0  0
   -0.4625    0.2583    2.6666 N   0  0  0  0  0  0  0  0  0  0  0  0
   -1.4309    0.3754    2.3860 H   0  0  0  0  0  0  0  0  0  0  0  0
   -0.1275    0.4111    4.0813 C   0  0  0  0  0  0  0  0  0  0  0  0
    0.6862    1.1312    4.1910 H   0  0  0  0  0  0  0  0  0  0  0  0
   -0.9980    0.7641    4.6360 H   0  0  0  0  0  0  0  0  0  0  0  0
    0.1959   -0.5481    4.4891 H   0  0  0  0  0  0  0  0  0  0  0  0
  5  6  2  0  0  0  0
  5  7  1  0  0  0  0
  2  3  1  0  0  0  0
  2  4  1  0  0  0  0
  2  5  1  0  0  0  0
  1  2  1  0  0  0  0
 19 20  2  0  0  0  0
 19 21  1  0  0  0  0
 16 17  1  0  0  0  0
 16 18  1  0  0  0  0
 14 15  2  0  0  0  0
 14 16  1  0  0  0  0
 11 12  1  0  0  0  0
 11 13  1  0  0  0  0
 11 14  1  0  0  0  0
  9 10  1  0  0  0  0
  9 11  1  0  0  0  0
  9 19  1  0  0  0  0
  7  8  1  0  0  0  0
  7  9  1  0  0  0  0
 23 24  1  0  0  0  0
 23 25  1  0  0  0  0
 23 26  1  0  0  0  0
 21 22  1  0  0  0  0
 21 23  1  0  0  0  0
M  END
$$$$
default_name
  -OEChem-02102213163D

 26 25  0     1  0  0  0  0  0999 V2000
   -3.0232   -3.6924    1.0038 H   0  0  0  0  0  0  0  0  0  0  0  0
   -3.0082   -2.6684    0.6318 C   0  0  0  0  0  0  0  0  0  0  0  0
   -3.6332   -2.0414    1.2658 H   0  0  0  0  0  0  0  0  0  0  0  0
   -3.3762   -2.6444   -0.3912 H   0  0  0  0  0  0  0  0  0  0  0  0
   -1.5882   -2.1554    0.6658 C   0  0  0  0  0  0  0  0  0  0  0  0
   -0.6832   -2.8764    1.0638 O   0  0  0  0  0  0  0  0  0  0  0  0
   -1.3952   -0.9084    0.2428 N   0  0  0  0  0  0  0  0  0  0  0  0
   -2.1972   -0.3644   -0.0422 H   0  0  0  0  0  0  0  0  0  0  0  0
   -0.1122   -0.1994    0.2658 C   0  0  1  0  0  0  0  0  0  0  0  0
    0.6131   -0.7748   -0.3153 H   0  0  0  0  0  0  0  0  0  0  0  0
   -0.2973    1.1841   -0.3966 C   0  0  0  0  0  0  0  0  0  0  0  0
   -1.0720    1.1143   -1.1594 H   0  0  0  0  0  0  0  0  0  0  0  0
   -0.6211    1.9019    0.3556 H   0  0  0  0  0  0  0  0  0  0  0  0
    0.9514    1.7126   -1.0838 C   0  0  0  0  0  0  0  0  0  0  0  0
    2.0579    1.6681   -0.5750 O   0  0  0  0  0  0  0  0  0  0  0  0
    0.8157    2.2458   -2.2736 N   0  0  0  0  0  0  0  0  0  0  0  0
    1.6602    2.5704   -2.7106 H   0  0  0  0  0  0  0  0  0  0  0  0
   -0.0806    2.2771   -2.7218 H   0  0  0  0  0  0  0  0  0  0  0  0
    0.4075   -0.0985    1.7169 C   0  0  0  0  0  0  0  0  0  0  0  0
    1.5860   -0.3526    1.9662 O   0  0  0  0  0  0  0  0  0  0  0  0
   -0.4625    0.2583    2.6666 N   0  0  0  0  0  0  0  0  0  0  0  0
   -1.4309    0.3754    2.3860 H   0  0  0  0  0  0  0  0  0  0  0  0
   -0.1275    0.4111    4.0813 C   0  0  0  0  0  0  0  0  0  0  0  0
    0.6862    1.1312    4.1910 H   0  0  0  0  0  0  0  0  0  0  0  0
   -0.9980    0.7641    4.6360 H   0  0  0  0  0  0  0  0  0  0  0  0
    0.1959   -0.5481    4.4891 H   0  0  0  0  0  0  0  0  0  0  0  0
  5  6  2  0  0  0  0
  5  7  1  0  0  0  0
  2  3  1  0  0  0  0
  2  4  1  0  0  0  0
  2  5  1  0  0  0  0
  1  2  1  0  0  0  0
 19 20  2  0  0  0  0
 19 21  1  0  0  0  0
 16 17  1  0  0  0  0
 16 18  1  0  0  0  0
 14 15  2  0  0  0  0
 14 16  1  0  0  0  0
 11 12  1  0  0  0  0
 11 13  1  0  0  0  0
 11 14  1  0  0  0  0
  9 10  1  0  0  0  0
  9 11  1  0  0  0  0
  9 19  1  0  0  0  0
  7  8  1  0  0  0  0
  7  9  1  0  0  0  0
 23 24  1  0  0  0  0
 23 25  1  0  0  0  0
 23 26  1  0  0  0  0
 21 22  1  0  0  0  0
 21 23  1  0  0  0  0
M  END
$$$$
default_name
  -OEChem-02102213163D

 26 25  0     1  0  0  0  0  0999 V2000
   -3.0232   -3.6924    1.0038 H   0  0  0  0  0  0  0  0  0  0  0  0
   -3.0082   -2.6684    0.6318 C   0  0  0  0  0  0  0  0  0  0  0  0
   -3.6332   -2.0414    1.2658 H   0  0  0  0  0  0  0  0  0  0  0  0
   -3.3762   -2.6444   -0.3912 H   0  0  0  0  0  0  0  0  0  0  0  0
   -1.5882   -2.1554    0.6658 C   0  0  0  0  0  0  0  0  0  0  0  0
   -0.6832   -2.8764    1.0638 O   0  0  0  0  0  0  0  0  0  0  0  0
   -1.3952   -0.9084    0.2428 N   0  0  0  0  0  0  0  0  0  0  0  0
   -2.1972   -0.3644   -0.0422 H   0  0  0  0  0  0  0  0  0  0  0  0
   -0.1122   -0.1994    0.2658 C   0  0  1  0  0  0  0  0  0  0  0  0
    0.6131   -0.7748   -0.3153 H   0  0  0  0  0  0  0  0  0  0  0  0
   -0.2973    1.1841   -0.3966 C   0  0  0  0  0  0  0  0  0  0  0  0
   -1.0720    1.1143   -1.1594 H   0  0  0  0  0  0  0  0  0  0  0  0
   -0.6211    1.9019    0.3556 H   0  0  0  0  0  0  0  0  0  0  0  0
    0.9514    1.7126   -1.0838 C   0  0  0  0  0  0  0  0  0  0  0  0
    2.0794    1.4398   -0.7116 O   0  0  0  0  0  0  0  0  0  0  0  0
    0.7927    2.5037   -2.1170 N   0  0  0  0  0  0  0  0  0  0  0  0
    1.6353    2.8233   -2.5615 H   0  0  0  0  0  0  0  0  0  0  0  0
   -0.1242    2.7279   -2.4545 H   0  0  0  0  0  0  0  0  0  0  0  0
    0.4075   -0.0985    1.7169 C   0  0  0  0  0  0  0  0  0  0  0  0
    1.5860   -0.3526    1.9662 O   0  0  0  0  0  0  0  0  0  0  0  0
   -0.4625    0.2583    2.6666 N   0  0  0  0  0  0  0  0  0  0  0  0
   -1.4309    0.3754    2.3860 H   0  0  0  0  0  0  0  0  0  0  0  0
   -0.1275    0.4111    4.0813 C   0  0  0  0  0  0  0  0  0  0  0  0
    0.6862    1.1312    4.1910 H   0  0  0  0  0  0  0  0  0  0  0  0
   -0.9980    0.7641    4.6360 H   0  0  0  0  0  0  0  0  0  0  0  0
    0.1959   -0.5481    4.4891 H   0  0  0  0  0  0  0  0  0  0  0  0
  5  6  2  0  0  0  0
  5  7  1  0  0  0  0
  2  3  1  0  0  0  0
  2  4  1  0  0  0  0
  2  5  1  0  0  0  0
  1  2  1  0  0  0  0
 19 20  2  0  0  0  0
 19 21  1  0  0  0  0
 16 17  1  0  0  0  0
 16 18  1  0  0  0  0
 14 15  2  0  0  0  0
 14 16  1  0  0  0  0
 11 12  1  0  0  0  0
 11 13  1  0  0  0  0
 11 14  1  0  0  0  0
  9 10  1  0  0  0  0
  9 11  1  0  0  0  0
  9 19  1  0  0  0  0
  7  8  1  0  0  0  0
  7  9  1  0  0  0  0
 23 24  1  0  0  0  0
 23 25  1  0  0  0  0
 23 26  1  0  0  0  0
 21 22  1  0  0  0  0
 21 23  1  0  0  0  0
M  END
$$$$
default_name
  -OEChem-02102213163D

 26 25  0     1  0  0  0  0  0999 V2000
   -3.0232   -3.6924    1.0038 H   0  0  0  0  0  0  0  0  0  0  0  0
   -3.0082   -2.6684    0.6318 C   0  0  0  0  0  0  0  0  0  0  0  0
   -3.6332   -2.0414    1.2658 H   0  0  0  0  0  0  0  0  0  0  0  0
   -3.3762   -2.6444   -0.3912 H   0  0  0  0  0  0  0  0  0  0  0  0
   -1.5882   -2.1554    0.6658 C   0  0  0  0  0  0  0  0  0  0  0  0
   -0.6832   -2.8764    1.0638 O   0  0  0  0  0  0  0  0  0  0  0  0
   -1.3952   -0.9084    0.2428 N   0  0  0  0  0  0  0  0  0  0  0  0
   -2.1972   -0.3644   -0.0422 H   0  0  0  0  0  0  0  0  0  0  0  0
   -0.1122   -0.1994    0.2658 C   0  0  1  0  0  0  0  0  0  0  0  0
    0.6131   -0.7748   -0.3153 H   0  0  0  0  0  0  0  0  0  0  0  0
   -0.2973    1.1841   -0.3966 C   0  0  0  0  0  0  0  0  0  0  0  0
   -1.0720    1.1143   -1.1594 H   0  0  0  0  0  0  0  0  0  0  0  0
   -0.6211    1.9019    0.3556 H   0  0  0  0  0  0  0  0  0  0  0  0
    0.9514    1.7126   -1.0838 C   0  0  0  0  0  0  0  0  0  0  0  0
    2.0611    1.2458   -0.8939 O   0  0  0  0  0  0  0  0  0  0  0  0
    0.8149    2.7222   -1.9087 N   0  0  0  0  0  0  0  0  0  0  0  0
    1.6542    3.0387   -2.3614 H   0  0  0  0  0  0  0  0  0  0  0  0
   -0.0896    3.1116   -2.0965 H   0  0  0  0  0  0  0  0  0  0  0  0
    0.4075   -0.0985    1.7169 C   0  0  0  0  0  0  0  0  0  0  0  0
    1.5860   -0.3526    1.9662 O   0  0  0  0  0  0  0  0  0  0  0  0
   -0.4625    0.2583    2.6666 N   0  0  0  0  0  0  0  0  0  0  0  0
   -1.4309    0.3754    2.3860 H   0  0  0  0  0  0  0  0  0  0  0  0
   -0.1275    0.4111    4.0813 C   0  0  0  0  0  0  0  0  0  0  0  0
    0.6862    1.1312    4.1910 H   0  0  0  0  0  0  0  0  0  0  0  0
   -0.9980    0.7641    4.6360 H   0  0  0  0  0  0  0  0  0  0  0  0
    0.1959   -0.5481    4.4891 H   0  0  0  0  0  0  0  0  0  0  0  0
  5  6  2  0  0  0  0
  5  7  1  0  0  0  0
  2  3  1  0  0  0  0
  2  4  1  0  0  0  0
  2  5  1  0  0  0  0
  1  2  1  0  0  0  0
 19 20  2  0  0  0  0
 19 21  1  0  0  0  0
 16 17  1  0  0  0  0
 16 18  1  0  0  0  0
 14 15  2  0  0  0  0
 14 16  1  0  0  0  0
 11 12  1  0  0  0  0
 11 13  1  0  0  0  0
 11 14  1  0  0  0  0
  9 10  1  0  0  0  0
  9 11  1  0  0  0  0
  9 19  1  0  0  0  0
  7  8  1  0  0  0  0
  7  9  1  0  0  0  0
 23 24  1  0  0  0  0
 23 25  1  0  0  0  0
 23 26  1  0  0  0  0
 21 22  1  0  0  0  0
 21 23  1  0  0  0  0
M  END
$$$$
default_name
  -OEChem-02102213163D

 26 25  0     1  0  0  0  0  0999 V2000
   -3.0232   -3.6924    1.0038 H   0  0  0  0  0  0  0  0  0  0  0  0
   -3.0082   -2.6684    0.6318 C   0  0  0  0  0  0  0  0  0  0  0  0
   -3.6332   -2.0414    1.2658 H   0  0  0  0  0  0  0  0  0  0  0  0
   -3.3762   -2.6444   -0.3912 H   0  0  0  0  0  0  0  0  0  0  0  0
   -1.5882   -2.1554    0.6658 C   0  0  0  0  0  0  0  0  0  0  0  0
   -0.6832   -2.8764    1.0638 O   0  0  0  0  0  0  0  0  0  0  0  0
   -1.3952   -0.9084    0.2428 N   0  0  0  0  0  0  0  0  0  0  0  0
   -2.1972   -0.3644   -0.0422 H   0  0  0  0  0  0  0  0  0  0  0  0
   -0.1122   -0.1994    0.2658 C   0  0  1  0  0  0  0  0  0  0  0  0
    0.6131   -0.7748   -0.3153 H   0  0  0  0  0  0  0  0  0  0  0  0
   -0.2973    1.1841   -0.3966 C   0  0  0  0  0  0  0  0  0  0  0  0
   -1.0720    1.1143   -1.1594 H   0  0  0  0  0  0  0  0  0  0  0  0
   -0.6211    1.9019    0.3556 H   0  0  0  0  0  0  0  0  0  0  0  0
    0.9514    1.7126   -1.0838 C   0  0  0  0  0  0  0  0  0  0  0  0
    2.0043    1.0994   -1.1097 O   0  0  0  0  0  0  0  0  0  0  0  0
    0.8806    2.8864   -1.6631 N   0  0  0  0  0  0  0  0  0  0  0  0
    1.7157    3.2021   -2.1241 H   0  0  0  0  0  0  0  0  0  0  0  0
    0.0209    3.4021   -1.6722 H   0  0  0  0  0  0  0  0  0  0  0  0
    0.4075   -0.0985    1.7169 C   0  0  0  0  0  0  0  0  0  0  0  0
    1.5860   -0.3526    1.9662 O   0  0  0  0  0  0  0  0  0  0  0  0
   -0.4625    0.2583    2.6666 N   0  0  0  0  0  0  0  0  0  0  0  0
   -1.4309    0.3754    2.3860 H   0  0  0  0  0  0  0  0  0  0  0  0
   -0.1275    0.4111    4.0813 C   0  0  0  0  0  0  0  0  0  0  0  0
    0.6862    1.1312    4.1910 H   0  0  0  0  0  0  0  0  0  0  0  0
   -0.9980    0.7641    4.6360 H   0  0  0  0  0  0  0  0  0  0  0  0
    0.1959   -0.5481    4.4891 H   0  0  0  0  0  0  0  0  0  0  0  0
  5  6  2  0  0  0  0
  5  7  1  0  0  0  0
  2  3  1  0  0  0  0
  2  4  1  0  0  0  0
  2  5  1  0  0  0  0
  1  2  1  0  0  0  0
 19 20  2  0  0  0  0
 19 21  1  0  0  0  0
 16 17  1  0  0  0  0
 16 18  1  0  0  0  0
 14 15  2  0  0  0  0
 14 16  1  0  0  0  0
 11 12  1  0  0  0  0
 11 13  1  0  0  0  0
 11 14  1  0  0  0  0
  9 10  1  0  0  0  0
  9 11  1  0  0  0  0
  9 19  1  0  0  0  0
  7  8  1  0  0  0  0
  7  9  1  0  0  0  0
 23 24  1  0  0  0  0
 23 25  1  0  0  0  0
 23 26  1  0  0  0  0
 21 22  1  0  0  0  0
 21 23  1  0  0  0  0
M  END
$$$$
default_name
  -OEChem-02102213163D

 26 25  0     1  0  0  0  0  0999 V2000
   -3.0232   -3.6924    1.0038 H   0  0  0  0  0  0  0  0  0  0  0  0
   -3.0082   -2.6684    0.6318 C   0  0  0  0  0  0  0  0  0  0  0  0
   -3.6332   -2.0414    1.2658 H   0  0  0  0  0  0  0  0  0  0  0  0
   -3.3762   -2.6444   -0.3912 H   0  0  0  0  0  0  0  0  0  0  0  0
   -1.5882   -2.1554    0.6658 C   0  0  0  0  0  0  0  0  0  0  0  0
   -0.6832   -2.8764    1.0638 O   0  0  0  0  0  0  0  0  0  0  0  0
   -1.3952   -0.9084    0.2428 N   0  0  0  0  0  0  0  0  0  0  0  0
   -2.1972   -0.3644   -0.0422 H   0  0  0  0  0  0  0  0  0  0  0  0
   -0.1122   -0.1994    0.2658 C   0  0  1  0  0  0  0  0  0  0  0  0
    0.6131   -0.7748   -0.3153 H   0  0  0  0  0  0  0  0  0  0  0  0
   -0.2973    1.1841   -0.3966 C   0  0  0  0  0  0  0  0  0  0  0  0
   -1.0720    1.1143   -1.1594 H   0  0  0  0  0  0  0  0  0  0  0  0
   -0.6211    1.9019    0.3556 H   0  0  0  0  0  0  0  0  0  0  0  0
    0.9514    1.7126   -1.0838 C   0  0  0  0  0  0  0  0  0  0  0  0
    1.9129    1.0105   -1.3442 O   0  0  0  0  0  0  0  0  0  0  0  0
    0.9853    2.9851   -1.3969 N   0  0  0  0  0  0  0  0  0  0  0  0
    1.8156    3.3022   -1.8656 H   0  0  0  0  0  0  0  0  0  0  0  0
    0.1998    3.5795   -1.2106 H   0  0  0  0  0  0  0  0  0  0  0  0
    0.4075   -0.0985    1.7169 C   0  0  0  0  0  0  0  0  0  0  0  0
    1.5860   -0.3526    1.9662 O   0  0  0  0  0  0  0  0  0  0  0  0
   -0.4625    0.2583    2.6666 N   0  0  0  0  0  0  0  0  0  0  0  0
   -1.4309    0.3754    2.3860 H   0  0  0  0  0  0  0  0  0  0  0  0
   -0.1275    0.4111    4.0813 C   0  0  0  0  0  0  0  0  0  0  0  0
    0.6862    1.1312    4.1910 H   0  0  0  0  0  0  0  0  0  0  0  0
   -0.9980    0.7641    4.6360 H   0  0  0  0  0  0  0  0  0  0  0  0
    0.1959   -0.5481    4.4891 H   0  0  0  0  0  0  0  0  0  0  0  0
  5  6  2  0  0  0  0
  5  7  1  0  0  0  0
  2  3  1  0  0  0  0
  2  4  1  0  0  0  0
  2  5  1  0  0  0  0
  1  2  1  0  0  0  0
 19 20  2  0  0  0  0
 19 21  1  0  0  0  0
 16 17  1  0  0  0  0
 16 18  1  0  0  0  0
 14 15  2  0  0  0  0
 14 16  1  0  0  0  0
 11 12  1  0  0  0  0
 11 13  1  0  0  0  0
 11 14  1  0  0  0  0
  9 10  1  0  0  0  0
  9 11  1  0  0  0  0
  9 19  1  0  0  0  0
  7  8  1  0  0  0  0
  7  9  1  0  0  0  0
 23 24  1  0  0  0  0
 23 25  1  0  0  0  0
 23 26  1  0  0  0  0
 21 22  1  0  0  0  0
 21 23  1  0  0  0  0
M  END
$$$$
default_name
  -OEChem-02102213163D

 26 25  0     1  0  0  0  0  0999 V2000
   -3.0232   -3.6924    1.0038 H   0  0  0  0  0  0  0  0  0  0  0  0
   -3.0082   -2.6684    0.6318 C   0  0  0  0  0  0  0  0  0  0  0  0
   -3.6332   -2.0414    1.2658 H   0  0  0  0  0  0  0  0  0  0  0  0
   -3.3762   -2.6444   -0.3912 H   0  0  0  0  0  0  0  0  0  0  0  0
   -1.5882   -2.1554    0.6658 C   0  0  0  0  0  0  0  0  0  0  0  0
   -0.6832   -2.8764    1.0638 O   0  0  0  0  0  0  0  0  0  0  0  0
   -1.3952   -0.9084    0.2428 N   0  0  0  0  0  0  0  0  0  0  0  0
   -2.1972   -0.3644   -0.0422 H   0  0  0  0  0  0  0  0  0  0  0  0
   -0.1122   -0.1994    0.2658 C   0  0  1  0  0  0  0  0  0  0  0  0
    0.6131   -0.7748   -0.3153 H   0  0  0  0  0  0  0  0  0  0  0  0
   -0.2973    1.1841   -0.3966 C   0  0  0  0  0  0  0  0  0  0  0  0
   -1.0720    1.1143   -1.1594 H   0  0  0  0  0  0  0  0  0  0  0  0
   -0.6211    1.9019    0.3556 H   0  0  0  0  0  0  0  0  0  0  0  0
    0.9514    1.7126   -1.0838 C   0  0  0  0  0  0  0  0  0  0  0  0
    1.7931    0.9851   -1.5813 O   0  0  0  0  0  0  0  0  0  0  0  0
    1.1220    3.0116   -1.1281 N   0  0  0  0  0  0  0  0  0  0  0  0
    1.9470    3.3323   -1.6037 H   0  0  0  0  0  0  0  0  0  0  0  0
    0.4350    3.6319   -0.7431 H   0  0  0  0  0  0  0  0  0  0  0  0
    0.4075   -0.0985    1.7169 C   0  0  0  0  0  0  0  0  0  0  0  0
    1.5860   -0.3526    1.9662 O   0  0  0  0  0  0  0  0  0  0  0  0
   -0.4625    0.2583    2.6666 N   0  0  0  0  0  0  0  0  0  0  0  0
   -1.4309    0.3754    2.3860 H   0  0  0  0  0  0  0  0  0  0  0  0
   -0.1275    0.4111    4.0813 C   0  0  0  0  0  0  0  0  0  0  0  0
    0.6862    1.1312    4.1910 H   0  0  0  0  0  0  0  0  0  0  0  0
   -0.9980    0.7641    4.6360 H   0  0  0  0  0  0  0  0  0  0  0  0
    0.1959   -0.5481    4.4891 H   0  0  0  0  0  0  0  0  0  0  0  0
  5  6  2  0  0  0  0
  5  7  1  0  0  0  0
  2  3  1  0  0  0  0
  2  4  1  0  0  0  0
  2  5  1  0  0  0  0
  1  2  1  0  0  0  0
 19 20  2  0  0  0  0
 19 21  1  0  0  0  0
 16 17  1  0  0  0  0
 16 18  1  0  0  0  0
 14 15  2  0  0  0  0
 14 16  1  0  0  0  0
 11 12  1  0  0  0  0
 11 13  1  0  0  0  0
 11 14  1  0  0  0  0
  9 10  1  0  0  0  0
  9 11  1  0  0  0  0
  9 19  1  0  0  0  0
  7  8  1  0  0  0  0
  7  9  1  0  0  0  0
 23 24  1  0  0  0  0
 23 25  1  0  0  0  0
 23 26  1  0  0  0  0
 21 22  1  0  0  0  0
 21 23  1  0  0  0  0
M  END
$$$$
default_name
  -OEChem-02102213163D

 26 25  0     1  0  0  0  0  0999 V2000
   -3.0232   -3.6924    1.0038 H   0  0  0  0  0  0  0  0  0  0  0  0
   -3.0082   -2.6684    0.6318 C   0  0  0  0  0  0  0  0  0  0  0  0
   -3.6332   -2.0414    1.2658 H   0  0  0  0  0  0  0  0  0  0  0  0
   -3.3762   -2.6444   -0.3912 H   0  0  0  0  0  0  0  0  0  0  0  0
   -1.5882   -2.1554    0.6658 C   0  0  0  0  0  0  0  0  0  0  0  0
   -0.6832   -2.8764    1.0638 O   0  0  0  0  0  0  0  0  0  0  0  0
   -1.3952   -0.9084    0.2428 N   0  0  0  0  0  0  0  0  0  0  0  0
   -2.1972   -0.3644   -0.0422 H   0  0  0  0  0  0  0  0  0  0  0  0
   -0.1122   -0.1994    0.2658 C   0  0  1  0  0  0  0  0  0  0  0  0
    0.6131   -0.7748   -0.3153 H   0  0  0  0  0  0  0  0  0  0  0  0
   -0.2973    1.1841   -0.3966 C   0  0  0  0  0  0  0  0  0  0  0  0
   -1.0720    1.1143   -1.1594 H   0  0  0  0  0  0  0  0  0  0  0  0
   -0.6211    1.9019    0.3556 H   0  0  0  0  0  0  0  0  0  0  0  0
    0.9514    1.7126   -1.0838 C   0  0  0  0  0  0  0  0  0  0  0  0
    1.6531    1.0250   -1.8050 O   0  0  0  0  0  0  0  0  0  0  0  0
    1.2813    2.9640   -0.8752 N   0  0  0  0  0  0  0  0  0  0  0  0
    2.1011    3.2902   -1.3561 H   0  0  0  0  0  0  0  0  0  0  0  0
    0.7103    3.5555   -0.3016 H   0  0  0  0  0  0  0  0  0  0  0  0
    0.4075   -0.0985    1.7169 C   0  0  0  0  0  0  0  0  0  0  0  0
    1.5860   -0.3526    1.9662 O   0  0  0  0  0  0  0  0  0  0  0  0
   -0.4625    0.2583    2.6666 N   0  0  0  0  0  0  0  0  0  0  0  0
   -1.4309    0.3754    2.3860 H   0  0  0  0  0  0  0  0  0  0  0  0
   -0.1275    0.4111    4.0813 C   0  0  0  0  0  0  0  0  0  0  0  0
    0.6862    1.1312    4.1910 H   0  0  0  0  0  0  0  0  0  0  0  0
   -0.9980    0.7641    4.6360 H   0  0  0  0  0  0  0  0  0  0  0  0
    0.1959   -0.5481    4.4891 H   0  0  0  0  0  0  0  0  0  0  0  0
  5  6  2  0  0  0  0
  5  7  1  0  0  0  0
  2  3  1  0  0  0  0
  2  4  1  0  0  0  0
  2  5  1  0  0  0  0
  1  2  1  0  0  0  0
 19 20  2  0  0  0  0
 19 21  1  0  0  0  0
 16 17  1  0  0  0  0
 16 18  1  0  0  0  0
 14 15  2  0  0  0  0
 14 16  1  0  0  0  0
 11 12  1  0  0  0  0
 11 13  1  0  0  0  0
 11 14  1  0  0  0  0
  9 10  1  0  0  0  0
  9 11  1  0  0  0  0
  9 19  1  0  0  0  0
  7  8  1  0  0  0  0
  7  9  1  0  0  0  0
 23 24  1  0  0  0  0
 23 25  1  0  0  0  0
 23 26  1  0  0  0  0
 21 22  1  0  0  0  0
 21 23  1  0  0  0  0
M  END
$$$$
default_name
  -OEChem-02102213163D

 26 25  0     1  0  0  0  0  0999 V2000
   -3.0232   -3.6924    1.0038 H   0  0  0  0  0  0  0  0  0  0  0  0
   -3.0082   -2.6684    0.6318 C   0  0  0  0  0  0  0  0  0  0  0  0
   -3.6332   -2.0414    1.2658 H   0  0  0  0  0  0  0  0  0  0  0  0
   -3.3762   -2.6444   -0.3912 H   0  0  0  0  0  0  0  0  0  0  0  0
   -1.5882   -2.1554    0.6658 C   0  0  0  0  0  0  0  0  0  0  0  0
   -0.6832   -2.8764    1.0638 O   0  0  0  0  0  0  0  0  0  0  0  0
   -1.3952   -0.9084    0.2428 N   0  0  0  0  0  0  0  0  0  0  0  0
   -2.1972   -0.3644   -0.0422 H   0  0  0  0  0  0  0  0  0  0  0  0
   -0.1122   -0.1994    0.2658 C   0  0  1  0  0  0  0  0  0  0  0  0
    0.6131   -0.7748   -0.3153 H   0  0  0  0  0  0  0  0  0  0  0  0
   -0.2973    1.1841   -0.3966 C   0  0  0  0  0  0  0  0  0  0  0  0
   -1.0720    1.1143   -1.1594 H   0  0  0  0  0  0  0  0  0  0  0  0
   -0.6211    1.9019    0.3556 H   0  0  0  0  0  0  0  0  0  0  0  0
    0.9514    1.7126   -1.0838 C   0  0  0  0  0  0  0  0  0  0  0  0
    1.5025    1.1275   -1.9999 O   0  0  0  0  0  0  0  0  0  0  0  0
    1.4524    2.8457   -0.6554 N   0  0  0  0  0  0  0  0  0  0  0  0
    2.2672    3.1790   -1.1397 H   0  0  0  0  0  0  0  0  0  0  0  0
    1.0070    3.3557    0.0839 H   0  0  0  0  0  0  0  0  0  0  0  0
    0.4075   -0.0985    1.7169 C   0  0  0  0  0  0  0  0  0  0  0  0
    1.5860   -0.3526    1.9662 O   0  0  0  0  0  0  0  0  0  0  0  0
   -0.4625    0.2583    2.6666 N   0  0  0  0  0  0  0  0  0  0  0  0
   -1.4309    0.3754    2.3860 H   0  0  0  0  0  0  0  0  0  0  0  0
   -0.1275    0.4111    4.0813 C   0  0  0  0  0  0  0  0  0  0  0  0
    0.6862    1.1312    4.1910 H   0  0  0  0  0  0  0  0  0  0  0  0
   -0.9980    0.7641    4.6360 H   0  0  0  0  0  0  0  0  0  0  0  0
    0.1959   -0.5481    4.4891 H   0  0  0  0  0  0  0  0  0  0  0  0
  5  6  2  0  0  0  0
  5  7  1  0  0  0  0
  2  3  1  0  0  0  0
  2  4  1  0  0  0  0
  2  5  1  0  0  0  0
  1  2  1  0  0  0  0
 19 20  2  0  0  0  0
 19 21  1  0  0  0  0
 16 17  1  0  0  0  0
 16 18  1  0  0  0  0
 14 15  2  0  0  0  0
 14 16  1  0  0  0  0
 11 12  1  0  0  0  0
 11 13  1  0  0  0  0
 11 14  1  0  0  0  0
  9 10  1  0  0  0  0
  9 11  1  0  0  0  0
  9 19  1  0  0  0  0
  7  8  1  0  0  0  0
  7  9  1  0  0  0  0
 23 24  1  0  0  0  0
 23 25  1  0  0  0  0
 23 26  1  0  0  0  0
 21 22  1  0  0  0  0
 21 23  1  0  0  0  0
M  END
$$$$
default_name
  -OEChem-02102213163D

 26 25  0     1  0  0  0  0  0999 V2000
   -3.0232   -3.6924    1.0038 H   0  0  0  0  0  0  0  0  0  0  0  0
   -3.0082   -2.6684    0.6318 C   0  0  0  0  0  0  0  0  0  0  0  0
   -3.6332   -2.0414    1.2658 H   0  0  0  0  0  0  0  0  0  0  0  0
   -3.3762   -2.6444   -0.3912 H   0  0  0  0  0  0  0  0  0  0  0  0
   -1.5882   -2.1554    0.6658 C   0  0  0  0  0  0  0  0  0  0  0  0
   -0.6832   -2.8764    1.0638 O   0  0  0  0  0  0  0  0  0  0  0  0
   -1.3952   -0.9084    0.2428 N   0  0  0  0  0  0  0  0  0  0  0  0
   -2.1972   -0.3644   -0.0422 H   0  0  0  0  0  0  0  0  0  0  0  0
   -0.1122   -0.1994    0.2658 C   0  0  1  0  0  0  0  0  0  0  0  0
    0.6131   -0.7748   -0.3153 H   0  0  0  0  0  0  0  0  0  0  0  0
   -0.2973    1.1841   -0.3966 C   0  0  0  0  0  0  0  0  0  0  0  0
   -1.0720    1.1143   -1.1594 H   0  0  0  0  0  0  0  0  0  0  0  0
   -0.6211    1.9019    0.3556 H   0  0  0  0  0  0  0  0  0  0  0  0
    0.9514    1.7126   -1.0838 C   0  0  0  0  0  0  0  0  0  0  0  0
    1.3514    1.2856   -2.1529 O   0  0  0  0  0  0  0  0  0  0  0  0
    1.6236    2.6646   -0.4836 N   0  0  0  0  0  0  0  0  0  0  0  0
    2.4342    3.0061   -0.9694 H   0  0  0  0  0  0  0  0  0  0  0  0
    1.3049    3.0460    0.3871 H   0  0  0  0  0  0  0  0  0  0  0  0
    0.4075   -0.0985    1.7169 C   0  0  0  0  0  0  0  0  0  0  0  0
    1.5860   -0.3526    1.9662 O   0  0  0  0  0  0  0  0  0  0  0  0
   -0.4625    0.2583    2.6666 N   0  0  0  0  0  0  0  0  0  0  0  0
   -1.4309    0.3754    2.3860 H   0  0  0  0  0  0  0  0  0  0  0  0
   -0.1275    0.4111    4.0813 C   0  0  0  0  0  0  0  0  0  0  0  0
    0.6862    1.1312    4.1910 H   0  0  0  0  0  0  0  0  0  0  0  0
   -0.9980    0.7641    4.6360 H   0  0  0  0  0  0  0  0  0  0  0  0
    0.1959   -0.5481    4.4891 H   0  0  0  0  0  0  0  0  0  0  0  0
  5  6  2  0  0  0  0
  5  7  1  0  0  0  0
  2  3  1  0  0  0  0
  2  4  1  0  0  0  0
  2  5  1  0  0  0  0
  1  2  1  0  0  0  0
 19 20  2  0  0  0  0
 19 21  1  0  0  0  0
 16 17  1  0  0  0  0
 16 18  1  0  0  0  0
 14 15  2  0  0  0  0
 14 16  1  0  0  0  0
 11 12  1  0  0  0  0
 11 13  1  0  0  0  0
 11 14  1  0  0  0  0
  9 10  1  0  0  0  0
  9 11  1  0  0  0  0
  9 19  1  0  0  0  0
  7  8  1  0  0  0  0
  7  9  1  0  0  0  0
 23 24  1  0  0  0  0
 23 25  1  0  0  0  0
 23 26  1  0  0  0  0
 21 22  1  0  0  0  0
 21 23  1  0  0  0  0
M  END
$$$$
default_name
  -OEChem-02102213163D

 26 25  0     1  0  0  0  0  0999 V2000
   -3.0232   -3.6924    1.0038 H   0  0  0  0  0  0  0  0  0  0  0  0
   -3.0082   -2.6684    0.6318 C   0  0  0  0  0  0  0  0  0  0  0  0
   -3.6332   -2.0414    1.2658 H   0  0  0  0  0  0  0  0  0  0  0  0
   -3.3762   -2.6444   -0.3912 H   0  0  0  0  0  0  0  0  0  0  0  0
   -1.5882   -2.1554    0.6658 C   0  0  0  0  0  0  0  0  0  0  0  0
   -0.6832   -2.8764    1.0638 O   0  0  0  0  0  0  0  0  0  0  0  0
   -1.3952   -0.9084    0.2428 N   0  0  0  0  0  0  0  0  0  0  0  0
   -2.1972   -0.3644   -0.0422 H   0  0  0  0  0  0  0  0  0  0  0  0
   -0.1122   -0.1994    0.2658 C   0  0  1  0  0  0  0  0  0  0  0  0
    0.6131   -0.7748   -0.3153 H   0  0  0  0  0  0  0  0  0  0  0  0
   -0.2973    1.1841   -0.3966 C   0  0  0  0  0  0  0  0  0  0  0  0
   -1.0720    1.1143   -1.1594 H   0  0  0  0  0  0  0  0  0  0  0  0
   -0.6211    1.9019    0.3556 H   0  0  0  0  0  0  0  0  0  0  0  0
    0.9514    1.7126   -1.0838 C   0  0  0  0  0  0  0  0  0  0  0  0
    1.2102    1.4885   -2.2535 O   0  0  0  0  0  0  0  0  0  0  0  0
    1.7832    2.4331   -0.3716 N   0  0  0  0  0  0  0  0  0  0  0  0
    2.5905    2.7833   -0.8566 H   0  0  0  0  0  0  0  0  0  0  0  0
    1.5837    2.6475    0.5872 H   0  0  0  0  0  0  0  0  0  0  0  0
    0.4075   -0.0985    1.7169 C   0  0  0  0  0  0  0  0  0  0  0  0
    1.5860   -0.3526    1.9662 O   0  0  0  0  0  0  0  0  0  0  0  0
   -0.4625    0.2583    2.6666 N   0  0  0  0  0  0  0  0  0  0  0  0
   -1.4309    0.3754    2.3860 H   0  0  0  0  0  0  0  0  0  0  0  0
   -0.1275    0.4111    4.0813 C   0  0  0  0  0  0  0  0  0  0  0  0
    0.6862    1.1312    4.1910 H   0  0  0  0  0  0  0  0  0  0  0  0
   -0.9980    0.7641    4.6360 H   0  0  0  0  0  0  0  0  0  0  0  0
    0.1959   -0.5481    4.4891 H   0  0  0  0  0  0  0  0  0  0  0  0
  5  6  2  0  0  0  0
  5  7  1  0  0  0  0
  2  3  1  0  0  0  0
  2  4  1  0  0  0  0
  2  5  1  0  0  0  0
  1  2  1  0  0  0  0
 19 20  2  0  0  0  0
 19 21  1  0  0  0  0
 16 17  1  0  0  0  0
 16 18  1  0  0  0  0
 14 15  2  0  0  0  0
 14 16  1  0  0  0  0
 11 12  1  0  0  0  0
 11 13  1  0  0  0  0
 11 14  1  0  0  0  0
  9 10  1  0  0  0  0
  9 11  1  0  0  0  0
  9 19  1  0  0  0  0
  7  8  1  0  0  0  0
  7  9  1  0  0  0  0
 23 24  1  0  0  0  0
 23 25  1  0  0  0  0
 23 26  1  0  0  0  0
 21 22  1  0  0  0  0
 21 23  1  0  0  0  0
M  END
$$$$
default_name
  -OEChem-02102213163D

 26 25  0     1  0  0  0  0  0999 V2000
   -3.0232   -3.6924    1.0038 H   0  0  0  0  0  0  0  0  0  0  0  0
   -3.0082   -2.6684    0.6318 C   0  0  0  0  0  0  0  0  0  0  0  0
   -3.6332   -2.0414    1.2658 H   0  0  0  0  0  0  0  0  0  0  0  0
   -3.3762   -2.6444   -0.3912 H   0  0  0  0  0  0  0  0  0  0  0  0
   -1.5882   -2.1554    0.6658 C   0  0  0  0  0  0  0  0  0  0  0  0
   -0.6832   -2.8764    1.0638 O   0  0  0  0  0  0  0  0  0  0  0  0
   -1.3952   -0.9084    0.2428 N   0  0  0  0  0  0  0  0  0  0  0  0
   -2.1972   -0.3644   -0.0422 H   0  0  0  0  0  0  0  0  0  0  0  0
   -0.1122   -0.1994    0.2658 C   0  0  1  0  0  0  0  0  0  0  0  0
    0.6131   -0.7748   -0.3153 H   0  0  0  0  0  0  0  0  0  0  0  0
   -0.2973    1.1841   -0.3966 C   0  0  0  0  0  0  0  0  0  0  0  0
   -1.0720    1.1143   -1.1594 H   0  0  0  0  0  0  0  0  0  0  0  0
   -0.6211    1.9019    0.3556 H   0  0  0  0  0  0  0  0  0  0  0  0
    0.9514    1.7126   -1.0838 C   0  0  0  0  0  0  0  0  0  0  0  0
    1.0884    1.7224   -2.2948 O   0  0  0  0  0  0  0  0  0  0  0  0
    1.9204    2.1671   -0.3269 N   0  0  0  0  0  0  0  0  0  0  0  0
    2.7256    2.5259   -0.8090 H   0  0  0  0  0  0  0  0  0  0  0  0
    1.8244    2.1875    0.6708 H   0  0  0  0  0  0  0  0  0  0  0  0
    0.4075   -0.0985    1.7169 C   0  0  0  0  0  0  0  0  0  0  0  0
    1.5860   -0.3526    1.9662 O   0  0  0  0  0  0  0  0  0  0  0  0
   -0.4625    0.2583    2.6666 N   0  0  0  0  0  0  0  0  0  0  0  0
   -1.4309    0.3754    2.3860 H   0  0  0  0  0  0  0  0  0  0  0  0
   -0.1275    0.4111    4.0813 C   0  0  0  0  0  0  0  0  0  0  0  0
    0.6862    1.1312    4.1910 H   0  0  0  0  0  0  0  0  0  0  0  0
   -0.9980    0.7641    4.6360 H   0  0  0  0  0  0  0  0  0  0  0  0
    0.1959   -0.5481    4.4891 H   0  0  0  0  0  0  0  0  0  0  0  0
  5  6  2  0  0  0  0
  5  7  1  0  0  0  0
  2  3  1  0  0  0  0
  2  4  1  0  0  0  0
  2  5  1  0  0  0  0
  1  2  1  0  0  0  0
 19 20  2  0  0  0  0
 19 21  1  0  0  0  0
 16 17  1  0  0  0  0
 16 18  1  0  0  0  0
 14 15  2  0  0  0  0
 14 16  1  0  0  0  0
 11 12  1  0  0  0  0
 11 13  1  0  0  0  0
 11 14  1  0  0  0  0
  9 10  1  0  0  0  0
  9 11  1  0  0  0  0
  9 19  1  0  0  0  0
  7  8  1  0  0  0  0
  7  9  1  0  0  0  0
 23 24  1  0  0  0  0
 23 25  1  0  0  0  0
 23 26  1  0  0  0  0
 21 22  1  0  0  0  0
 21 23  1  0  0  0  0
M  END
$$$$
default_name
  -OEChem-02102213163D

 26 25  0     1  0  0  0  0  0999 V2000
   -3.0232   -3.6924    1.0038 H   0  0  0  0  0  0  0  0  0  0  0  0
   -3.0082   -2.6684    0.6318 C   0  0  0  0  0  0  0  0  0  0  0  0
   -3.6332   -2.0414    1.2658 H   0  0  0  0  0  0  0  0  0  0  0  0
   -3.3762   -2.6444   -0.3912 H   0  0  0  0  0  0  0  0  0  0  0  0
   -1.5882   -2.1554    0.6658 C   0  0  0  0  0  0  0  0  0  0  0  0
   -0.6832   -2.8764    1.0638 O   0  0  0  0  0  0  0  0  0  0  0  0
   -1.3952   -0.9084    0.2428 N   0  0  0  0  0  0  0  0  0  0  0  0
   -2.1972   -0.3644   -0.0422 H   0  0  0  0  0  0  0  0  0  0  0  0
   -0.1122   -0.1994    0.2658 C   0  0  1  0  0  0  0  0  0  0  0  0
    0.6131   -0.7748   -0.3153 H   0  0  0  0  0  0  0  0  0  0  0  0
   -0.2973    1.1841   -0.3966 C   0  0  0  0  0  0  0  0  0  0  0  0
   -1.0720    1.1143   -1.1594 H   0  0  0  0  0  0  0  0  0  0  0  0
   -0.6211    1.9019    0.3556 H   0  0  0  0  0  0  0  0  0  0  0  0
    0.9514    1.7126   -1.0838 C   0  0  0  0  0  0  0  0  0  0  0  0
    0.9945    1.9713   -2.2740 O   0  0  0  0  0  0  0  0  0  0  0  0
    2.0258    1.8845   -0.3527 N   0  0  0  0  0  0  0  0  0  0  0  0
    2.8303    2.2513   -0.8300 H   0  0  0  0  0  0  0  0  0  0  0  0
    2.0106    1.6972    0.6321 H   0  0  0  0  0  0  0  0  0  0  0  0
    0.4075   -0.0985    1.7169 C   0  0  0  0  0  0  0  0  0  0  0  0
    1.5860   -0.3526    1.9662 O   0  0  0  0  0  0  0  0  0  0  0  0
   -0.4625    0.2583    2.6666 N   0  0  0  0  0  0  0  0  0  0  0  0
   -1.4309    0.3754    2.3860 H   0  0  0  0  0  0  0  0  0  0  0  0
   -0.1275    0.4111    4.0813 C   0  0  0  0  0  0  0  0  0  0  0  0
    0.6862    1.1312    4.1910 H   0  0  0  0  0  0  0  0  0  0  0  0
   -0.9980    0.7641    4.6360 H   0  0  0  0  0  0  0  0  0  0  0  0
    0.1959   -0.5481    4.4891 H   0  0  0  0  0  0  0  0  0  0  0  0
  5  6  2  0  0  0  0
  5  7  1  0  0  0  0
  2  3  1  0  0  0  0
  2  4  1  0  0  0  0
  2  5  1  0  0  0  0
  1  2  1  0  0  0  0
 19 20  2  0  0  0  0
 19 21  1  0  0  0  0
 16 17  1  0  0  0  0
 16 18  1  0  0  0  0
 14 15  2  0  0  0  0
 14 16  1  0  0  0  0
 11 12  1  0  0  0  0
 11 13  1  0  0  0  0
 11 14  1  0  0  0  0
  9 10  1  0  0  0  0
  9 11  1  0  0  0  0
  9 19  1  0  0  0  0
  7  8  1  0  0  0  0
  7  9  1  0  0  0  0
 23 24  1  0  0  0  0
 23 25  1  0  0  0  0
 23 26  1  0  0  0  0
 21 22  1  0  0  0  0
 21 23  1  0  0  0  0
M  END
$$$$
default_name
  -OEChem-02102213163D

 26 25  0     1  0  0  0  0  0999 V2000
   -3.0232   -3.6924    1.0038 H   0  0  0  0  0  0  0  0  0  0  0  0
   -3.0082   -2.6684    0.6318 C   0  0  0  0  0  0  0  0  0  0  0  0
   -3.6332   -2.0414    1.2658 H   0  0  0  0  0  0  0  0  0  0  0  0
   -3.3762   -2.6444   -0.3912 H   0  0  0  0  0  0  0  0  0  0  0  0
   -1.5882   -2.1554    0.6658 C   0  0  0  0  0  0  0  0  0  0  0  0
   -0.6832   -2.8764    1.0638 O   0  0  0  0  0  0  0  0  0  0  0  0
   -1.3952   -0.9084    0.2428 N   0  0  0  0  0  0  0  0  0  0  0  0
   -2.1972   -0.3644   -0.0422 H   0  0  0  0  0  0  0  0  0  0  0  0
   -0.1122   -0.1994    0.2658 C   0  0  1  0  0  0  0  0  0  0  0  0
    0.6131   -0.7748   -0.3153 H   0  0  0  0  0  0  0  0  0  0  0  0
   -0.2973    1.1841   -0.3966 C   0  0  0  0  0  0  0  0  0  0  0  0
   -1.0720    1.1143   -1.1594 H   0  0  0  0  0  0  0  0  0  0  0  0
   -0.6211    1.9019    0.3556 H   0  0  0  0  0  0  0  0  0  0  0  0
    0.9514    1.7126   -1.0838 C   0  0  0  0  0  0  0  0  0  0  0  0
    0.9348    2.2184   -2.1925 O   0  0  0  0  0  0  0  0  0  0  0  0
    2.0922    1.6048   -0.4471 N   0  0  0  0  0  0  0  0  0  0  0  0
    2.8974    1.9783   -0.9181 H   0  0  0  0  0  0  0  0  0  0  0  0
    2.1296    1.2100    0.4736 H   0  0  0  0  0  0  0  0  0  0  0  0
    0.4075   -0.0985    1.7169 C   0  0  0  0  0  0  0  0  0  0  0  0
    1.5860   -0.3526    1.9662 O   0  0  0  0  0  0  0  0  0  0  0  0
   -0.4625    0.2583    2.6666 N   0  0  0  0  0  0  0  0  0  0  0  0
   -1.4309    0.3754    2.3860 H   0  0  0  0  0  0  0  0  0  0  0  0
   -0.1275    0.4111    4.0813 C   0  0  0  0  0  0  0  0  0  0  0  0
    0.6862    1.1312    4.1910 H   0  0  0  0  0  0  0  0  0  0  0  0
   -0.9980    0.7641    4.6360 H   0  0  0  0  0  0  0  0  0  0  0  0
    0.1959   -0.5481    4.4891 H   0  0  0  0  0  0  0  0  0  0  0  0
  5  6  2  0  0  0  0
  5  7  1  0  0  0  0
  2  3  1  0  0  0  0
  2  4  1  0  0  0  0
  2  5  1  0  0  0  0
  1  2  1  0  0  0  0
 19 20  2  0  0  0  0
 19 21  1  0  0  0  0
 16 17  1  0  0  0  0
 16 18  1  0  0  0  0
 14 15  2  0  0  0  0
 14 16  1  0  0  0  0
 11 12  1  0  0  0  0
 11 13  1  0  0  0  0
 11 14  1  0  0  0  0
  9 10  1  0  0  0  0
  9 11  1  0  0  0  0
  9 19  1  0  0  0  0
  7  8  1  0  0  0  0
  7  9  1  0  0  0  0
 23 24  1  0  0  0  0
 23 25  1  0  0  0  0
 23 26  1  0  0  0  0
 21 22  1  0  0  0  0
 21 23  1  0  0  0  0
M  END
$$$$
default_name
  -OEChem-02102213163D

 26 25  0     1  0  0  0  0  0999 V2000
   -3.0232   -3.6924    1.0038 H   0  0  0  0  0  0  0  0  0  0  0  0
   -3.0082   -2.6684    0.6318 C   0  0  0  0  0  0  0  0  0  0  0  0
   -3.6332   -2.0414    1.2658 H   0  0  0  0  0  0  0  0  0  0  0  0
   -3.3762   -2.6444   -0.3912 H   0  0  0  0  0  0  0  0  0  0  0  0
   -1.5882   -2.1554    0.6658 C   0  0  0  0  0  0  0  0  0  0  0  0
   -0.6832   -2.8764    1.0638 O   0  0  0  0  0  0  0  0  0  0  0  0
   -1.3952   -0.9084    0.2428 N   0  0  0  0  0  0  0  0  0  0  0  0
   -2.1972   -0.3644   -0.0422 H   0  0  0  0  0  0  0  0  0  0  0  0
   -0.1122   -0.1994    0.2658 C   0  0  1  0  0  0  0  0  0  0  0  0
    0.6131   -0.7748   -0.3153 H   0  0  0  0  0  0  0  0  0  0  0  0
   -0.2973    1.1841   -0.3966 C   0  0  0  0  0  0  0  0  0  0  0  0
   -1.0720    1.1143   -1.1594 H   0  0  0  0  0  0  0  0  0  0  0  0
   -0.6211    1.9019    0.3556 H   0  0  0  0  0  0  0  0  0  0  0  0
    0.9514    1.7126   -1.0838 C   0  0  0  0  0  0  0  0  0  0  0  0
    0.9134    2.4466   -2.0559 O   0  0  0  0  0  0  0  0  0  0  0  0
    2.1151    1.3469   -0.6038 N   0  0  0  0  0  0  0  0  0  0  0  0
    2.9223    1.7255   -1.0672 H   0  0  0  0  0  0  0  0  0  0  0  0
    2.1733    0.7592    0.2063 H   0  0  0  0  0  0  0  0  0  0  0  0
    0.4075   -0.0985    1.7169 C   0  0  0  0  0  0  0  0  0  0  0  0
    1.5860   -0.3526    1.9662 O   0  0  0  0  0  0  0  0  0  0  0  0
   -0.4625    0.2583    2.6666 N   0  0  0  0  0  0  0  0  0  0  0  0
   -1.4309    0.3754    2.3860 H   0  0  0  0  0  0  0  0  0  0  0  0
   -0.1275    0.4111    4.0813 C   0  0  0  0  0  0  0  0  0  0  0  0
    0.6862    1.1312    4.1910 H   0  0  0  0  0  0  0  0  0  0  0  0
   -0.9980    0.7641    4.6360 H   0  0  0  0  0  0  0  0  0  0  0  0
    0.1959   -0.5481    4.4891 H   0  0  0  0  0  0  0  0  0  0  0  0
  5  6  2  0  0  0  0
  5  7  1  0  0  0  0
  2  3  1  0  0  0  0
  2  4  1  0  0  0  0
  2  5  1  0  0  0  0
  1  2  1  0  0  0  0
 19 20  2  0  0  0  0
 19 21  1  0  0  0  0
 16 17  1  0  0  0  0
 16 18  1  0  0  0  0
 14 15  2  0  0  0  0
 14 16  1  0  0  0  0
 11 12  1  0  0  0  0
 11 13  1  0  0  0  0
 11 14  1  0  0  0  0
  9 10  1  0  0  0  0
  9 11  1  0  0  0  0
  9 19  1  0  0  0  0
  7  8  1  0  0  0  0
  7  9  1  0  0  0  0
 23 24  1  0  0  0  0
 23 25  1  0  0  0  0
 23 26  1  0  0  0  0
 21 22  1  0  0  0  0
 21 23  1  0  0  0  0
M  END
$$$$
default_name
  -OEChem-02102213163D

 26 25  0     1  0  0  0  0  0999 V2000
   -3.0232   -3.6924    1.0038 H   0  0  0  0  0  0  0  0  0  0  0  0
   -3.0082   -2.6684    0.6318 C   0  0  0  0  0  0  0  0  0  0  0  0
   -3.6332   -2.0414    1.2658 H   0  0  0  0  0  0  0  0  0  0  0  0
   -3.3762   -2.6444   -0.3912 H   0  0  0  0  0  0  0  0  0  0  0  0
   -1.5882   -2.1554    0.6658 C   0  0  0  0  0  0  0  0  0  0  0  0
   -0.6832   -2.8764    1.0638 O   0  0  0  0  0  0  0  0  0  0  0  0
   -1.3952   -0.9084    0.2428 N   0  0  0  0  0  0  0  0  0  0  0  0
   -2.1972   -0.3644   -0.0422 H   0  0  0  0  0  0  0  0  0  0  0  0
   -0.1122   -0.1994    0.2658 C   0  0  1  0  0  0  0  0  0  0  0  0
    0.6131   -0.7748   -0.3153 H   0  0  0  0  0  0  0  0  0  0  0  0
   -0.2973    1.1841   -0.3966 C   0  0  0  0  0  0  0  0  0  0  0  0
   -1.0720    1.1143   -1.1594 H   0  0  0  0  0  0  0  0  0  0  0  0
   -0.6211    1.9019    0.3556 H   0  0  0  0  0  0  0  0  0  0  0  0
    0.9514    1.7126   -1.0838 C   0  0  0  0  0  0  0  0  0  0  0  0
    0.9317    2.6406   -1.8735 O   0  0  0  0  0  0  0  0  0  0  0  0
    2.0930    1.1283   -0.8120 N   0  0  0  0  0  0  0  0  0  0  0  0
    2.9034    1.5100   -1.2673 H   0  0  0  0  0  0  0  0  0  0  0  0
    2.1387    0.3755   -0.1516 H   0  0  0  0  0  0  0  0  0  0  0  0
    0.4075   -0.0985    1.7169 C   0  0  0  0  0  0  0  0  0  0  0  0
    1.5860   -0.3526    1.9662 O   0  0  0  0  0  0  0  0  0  0  0  0
   -0.4625    0.2583    2.6666 N   0  0  0  0  0  0  0  0  0  0  0  0
   -1.4309    0.3754    2.3860 H   0  0  0  0  0  0  0  0  0  0  0  0
   -0.1275    0.4111    4.0813 C   0  0  0  0  0  0  0  0  0  0  0  0
    0.6862    1.1312    4.1910 H   0  0  0  0  0  0  0  0  0  0  0  0
   -0.9980    0.7641    4.6360 H   0  0  0  0  0  0  0  0  0  0  0  0
    0.1959   -0.5481    4.4891 H   0  0  0  0  0  0  0  0  0  0  0  0
  5  6  2  0  0  0  0
  5  7  1  0  0  0  0
  2  3  1  0  0  0  0
  2  4  1  0  0  0  0
  2  5  1  0  0  0  0
  1  2  1  0  0  0  0
 19 20  2  0  0  0  0
 19 21  1  0  0  0  0
 16 17  1  0  0  0  0
 16 18  1  0  0  0  0
 14 15  2  0  0  0  0
 14 16  1  0  0  0  0
 11 12  1  0  0  0  0
 11 13  1  0  0  0  0
 11 14  1  0  0  0  0
  9 10  1  0  0  0  0
  9 11  1  0  0  0  0
  9 19  1  0  0  0  0
  7  8  1  0  0  0  0
  7  9  1  0  0  0  0
 23 24  1  0  0  0  0
 23 25  1  0  0  0  0
 23 26  1  0  0  0  0
 21 22  1  0  0  0  0
 21 23  1  0  0  0  0
M  END
$$$$
default_name
  -OEChem-02102213163D

 26 25  0     1  0  0  0  0  0999 V2000
   -3.0232   -3.6924    1.0038 H   0  0  0  0  0  0  0  0  0  0  0  0
   -3.0082   -2.6684    0.6318 C   0  0  0  0  0  0  0  0  0  0  0  0
   -3.6332   -2.0414    1.2658 H   0  0  0  0  0  0  0  0  0  0  0  0
   -3.3762   -2.6444   -0.3912 H   0  0  0  0  0  0  0  0  0  0  0  0
   -1.5882   -2.1554    0.6658 C   0  0  0  0  0  0  0  0  0  0  0  0
   -0.6832   -2.8764    1.0638 O   0  0  0  0  0  0  0  0  0  0  0  0
   -1.3952   -0.9084    0.2428 N   0  0  0  0  0  0  0  0  0  0  0  0
   -2.1972   -0.3644   -0.0422 H   0  0  0  0  0  0  0  0  0  0  0  0
   -0.1122   -0.1994    0.2658 C   0  0  1  0  0  0  0  0  0  0  0  0
    0.6131   -0.7748   -0.3153 H   0  0  0  0  0  0  0  0  0  0  0  0
   -0.2973    1.1841   -0.3966 C   0  0  0  0  0  0  0  0  0  0  0  0
   -1.2316    1.1899   -0.9569 H   0  0  0  0  0  0  0  0  0  0  0  0
   -0.3576    1.9477    0.3775 H   0  0  0  0  0  0  0  0  0  0  0  0
    0.8057    1.5536   -1.3753 C   0  0  0  0  0  0  0  0  0  0  0  0
    0.8228    2.6062   -1.9891 O   0  0  0  0  0  0  0  0  0  0  0  0
    1.7712    0.6873   -1.5643 N   0  0  0  0  0  0  0  0  0  0  0  0
    2.4952    0.9659   -2.2030 H   0  0  0  0  0  0  0  0  0  0  0  0
    1.7902   -0.1774   -1.0573 H   0  0  0  0  0  0  0  0  0  0  0  0
    0.4075   -0.0985    1.7169 C   0  0  0  0  0  0  0  0  0  0  0  0
    1.5860   -0.3526    1.9662 O   0  0  0  0  0  0  0  0  0  0  0  0
   -0.4625    0.2583    2.6666 N   0  0  0  0  0  0  0  0  0  0  0  0
   -1.4309    0.3754    2.3860 H   0  0  0  0  0  0  0  0  0  0  0  0
   -0.1275    0.4111    4.0813 C   0  0  0  0  0  0  0  0  0  0  0  0
    0.6862    1.1312    4.1910 H   0  0  0  0  0  0  0  0  0  0  0  0
   -0.9980    0.7641    4.6360 H   0  0  0  0  0  0  0  0  0  0  0  0
    0.1959   -0.5481    4.4891 H   0  0  0  0  0  0  0  0  0  0  0  0
  5  6  2  0  0  0  0
  5  7  1  0  0  0  0
  2  3  1  0  0  0  0
  2  4  1  0  0  0  0
  2  5  1  0  0  0  0
  1  2  1  0  0  0  0
 19 20  2  0  0  0  0
 19 21  1  0  0  0  0
 16 17  1  0  0  0  0
 16 18  1  0  0  0  0
 14 15  2  0  0  0  0
 14 16  1  0  0  0  0
 11 12  1  0  0  0  0
 11 13  1  0  0  0  0
 11 14  1  0  0  0  0
  9 10  1  0  0  0  0
  9 11  1  0  0  0  0
  9 19  1  0  0  0  0
  7  8  1  0  0  0  0
  7  9  1  0  0  0  0
 23 24  1  0  0  0  0
 23 25  1  0  0  0  0
 23 26  1  0  0  0  0
 21 22  1  0  0  0  0
 21 23  1  0  0  0  0
M  END
$$$$
default_name
  -OEChem-02102213163D

 26 25  0     1  0  0  0  0  0999 V2000
   -3.0232   -3.6924    1.0038 H   0  0  0  0  0  0  0  0  0  0  0  0
   -3.0082   -2.6684    0.6318 C   0  0  0  0  0  0  0  0  0  0  0  0
   -3.6332   -2.0414    1.2658 H   0  0  0  0  0  0  0  0  0  0  0  0
   -3.3762   -2.6444   -0.3912 H   0  0  0  0  0  0  0  0  0  0  0  0
   -1.5882   -2.1554    0.6658 C   0  0  0  0  0  0  0  0  0  0  0  0
   -0.6832   -2.8764    1.0638 O   0  0  0  0  0  0  0  0  0  0  0  0
   -1.3952   -0.9084    0.2428 N   0  0  0  0  0  0  0  0  0  0  0  0
   -2.1972   -0.3644   -0.0422 H   0  0  0  0  0  0  0  0  0  0  0  0
   -0.1122   -0.1994    0.2658 C   0  0  1  0  0  0  0  0  0  0  0  0
    0.6131   -0.7748   -0.3153 H   0  0  0  0  0  0  0  0  0  0  0  0
   -0.2973    1.1841   -0.3966 C   0  0  0  0  0  0  0  0  0  0  0  0
   -1.2316    1.1899   -0.9569 H   0  0  0  0  0  0  0  0  0  0  0  0
   -0.3576    1.9477    0.3775 H   0  0  0  0  0  0  0  0  0  0  0  0
    0.8057    1.5536   -1.3753 C   0  0  0  0  0  0  0  0  0  0  0  0
    0.9754    2.6883   -1.7861 O   0  0  0  0  0  0  0  0  0  0  0  0
    1.5973    0.5965   -1.7947 N   0  0  0  0  0  0  0  0  0  0  0  0
    2.3276    0.8733   -2.4269 H   0  0  0  0  0  0  0  0  0  0  0  0
    1.4905   -0.3414   -1.4571 H   0  0  0  0  0  0  0  0  0  0  0  0
    0.4075   -0.0985    1.7169 C   0  0  0  0  0  0  0  0  0  0  0  0
    1.5860   -0.3526    1.9662 O   0  0  0  0  0  0  0  0  0  0  0  0
   -0.4625    0.2583    2.6666 N   0  0  0  0  0  0  0  0  0  0  0  0
   -1.4309    0.3754    2.3860 H   0  0  0  0  0  0  0  0  0  0  0  0
   -0.1275    0.4111    4.0813 C   0  0  0  0  0  0  0  0  0  0  0  0
    0.6862    1.1312    4.1910 H   0  0  0  0  0  0  0  0  0  0  0  0
   -0.9980    0.7641    4.6360 H   0  0  0  0  0  0  0  0  0  0  0  0
    0.1959   -0.5481    4.4891 H   0  0  0  0  0  0  0  0  0  0  0  0
  5  6  2  0  0  0  0
  5  7  1  0  0  0  0
  2  3  1  0  0  0  0
  2  4  1  0  0  0  0
  2  5  1  0  0  0  0
  1  2  1  0  0  0  0
 19 20  2  0  0  0  0
 19 21  1  0  0  0  0
 16 17  1  0  0  0  0
 16 18  1  0  0  0  0
 14 15  2  0  0  0  0
 14 16  1  0  0  0  0
 11 12  1  0  0  0  0
 11 13  1  0  0  0  0
 11 14  1  0  0  0  0
  9 10  1  0  0  0  0
  9 11  1  0  0  0  0
  9 19  1  0  0  0  0
  7  8  1  0  0  0  0
  7  9  1  0  0  0  0
 23 24  1  0  0  0  0
 23 25  1  0  0  0  0
 23 26  1  0  0  0  0
 21 22  1  0  0  0  0
 21 23  1  0  0  0  0
M  END
$$$$
default_name
  -OEChem-02102213163D

 26 25  0     1  0  0  0  0  0999 V2000
   -3.0232   -3.6924    1.0038 H   0  0  0  0  0  0  0  0  0  0  0  0
   -3.0082   -2.6684    0.6318 C   0  0  0  0  0  0  0  0  0  0  0  0
   -3.6332   -2.0414    1.2658 H   0  0  0  0  0  0  0  0  0  0  0  0
   -3.3762   -2.6444   -0.3912 H   0  0  0  0  0  0  0  0  0  0  0  0
   -1.5882   -2.1554    0.6658 C   0  0  0  0  0  0  0  0  0  0  0  0
   -0.6832   -2.8764    1.0638 O   0  0  0  0  0  0  0  0  0  0  0  0
   -1.3952   -0.9084    0.2428 N   0  0  0  0  0  0  0  0  0  0  0  0
   -2.1972   -0.3644   -0.0422 H   0  0  0  0  0  0  0  0  0  0  0  0
   -0.1122   -0.1994    0.2658 C   0  0  1  0  0  0  0  0  0  0  0  0
    0.6131   -0.7748   -0.3153 H   0  0  0  0  0  0  0  0  0  0  0  0
   -0.2973    1.1841   -0.3966 C   0  0  0  0  0  0  0  0  0  0  0  0
   -1.2316    1.1899   -0.9569 H   0  0  0  0  0  0  0  0  0  0  0  0
   -0.3576    1.9477    0.3775 H   0  0  0  0  0  0  0  0  0  0  0  0
    0.8057    1.5536   -1.3753 C   0  0  0  0  0  0  0  0  0  0  0  0
    1.1492    2.7040   -1.5843 O   0  0  0  0  0  0  0  0  0  0  0  0
    1.3996    0.5811   -2.0233 N   0  0  0  0  0  0  0  0  0  0  0  0
    2.1361    0.8537   -2.6500 H   0  0  0  0  0  0  0  0  0  0  0  0
    1.1485   -0.3748   -1.8552 H   0  0  0  0  0  0  0  0  0  0  0  0
    0.4075   -0.0985    1.7169 C   0  0  0  0  0  0  0  0  0  0  0  0
    1.5860   -0.3526    1.9662 O   0  0  0  0  0  0  0  0  0  0  0  0
   -0.4625    0.2583    2.6666 N   0  0  0  0  0  0  0  0  0  0  0  0
   -1.4309    0.3754    2.3860 H   0  0  0  0  0  0  0  0  0  0  0  0
   -0.1275    0.4111    4.0813 C   0  0  0  0  0  0  0  0  0  0  0  0
    0.6862    1.1312    4.1910 H   0  0  0  0  0  0  0  0  0  0  0  0
   -0.9980    0.7641    4.6360 H   0  0  0  0  0  0  0  0  0  0  0  0
    0.1959   -0.5481    4.4891 H   0  0  0  0  0  0  0  0  0  0  0  0
  5  6  2  0  0  0  0
  5  7  1  0  0  0  0
  2  3  1  0  0  0  0
  2  4  1  0  0  0  0
  2  5  1  0  0  0  0
  1  2  1  0  0  0  0
 19 20  2  0  0  0  0
 19 21  1  0  0  0  0
 16 17  1  0  0  0  0
 16 18  1  0  0  0  0
 14 15  2  0  0  0  0
 14 16  1  0  0  0  0
 11 12  1  0  0  0  0
 11 13  1  0  0  0  0
 11 14  1  0  0  0  0
  9 10  1  0  0  0  0
  9 11  1  0  0  0  0
  9 19  1  0  0  0  0
  7  8  1  0  0  0  0
  7  9  1  0  0  0  0
 23 24  1  0  0  0  0
 23 25  1  0  0  0  0
 23 26  1  0  0  0  0
 21 22  1  0  0  0  0
 21 23  1  0  0  0  0
M  END
$$$$
default_name
  -OEChem-02102213163D

 26 25  0     1  0  0  0  0  0999 V2000
   -3.0232   -3.6924    1.0038 H   0  0  0  0  0  0  0  0  0  0  0  0
   -3.0082   -2.6684    0.6318 C   0  0  0  0  0  0  0  0  0  0  0  0
   -3.6332   -2.0414    1.2658 H   0  0  0  0  0  0  0  0  0  0  0  0
   -3.3762   -2.6444   -0.3912 H   0  0  0  0  0  0  0  0  0  0  0  0
   -1.5882   -2.1554    0.6658 C   0  0  0  0  0  0  0  0  0  0  0  0
   -0.6832   -2.8764    1.0638 O   0  0  0  0  0  0  0  0  0  0  0  0
   -1.3952   -0.9084    0.2428 N   0  0  0  0  0  0  0  0  0  0  0  0
   -2.1972   -0.3644   -0.0422 H   0  0  0  0  0  0  0  0  0  0  0  0
   -0.1122   -0.1994    0.2658 C   0  0  1  0  0  0  0  0  0  0  0  0
    0.6131   -0.7748   -0.3153 H   0  0  0  0  0  0  0  0  0  0  0  0
   -0.2973    1.1841   -0.3966 C   0  0  0  0  0  0  0  0  0  0  0  0
   -1.2316    1.1899   -0.9569 H   0  0  0  0  0  0  0  0  0  0  0  0
   -0.3576    1.9477    0.3775 H   0  0  0  0  0  0  0  0  0  0  0  0
    0.8057    1.5536   -1.3753 C   0  0  0  0  0  0  0  0  0  0  0  0
    1.3324    2.6523   -1.3972 O   0  0  0  0  0  0  0  0  0  0  0  0
    1.1916    0.6420   -2.2346 N   0  0  0  0  0  0  0  0  0  0  0  0
    1.9340    0.9087   -2.8571 H   0  0  0  0  0  0  0  0  0  0  0  0
    0.7875   -0.2753   -2.2245 H   0  0  0  0  0  0  0  0  0  0  0  0
    0.4075   -0.0985    1.7169 C   0  0  0  0  0  0  0  0  0  0  0  0
    1.5860   -0.3526    1.9662 O   0  0  0  0  0  0  0  0  0  0  0  0
   -0.4625    0.2583    2.6666 N   0  0  0  0  0  0  0  0  0  0  0  0
   -1.4309    0.3754    2.3860 H   0  0  0  0  0  0  0  0  0  0  0  0
   -0.1275    0.4111    4.0813 C   0  0  0  0  0  0  0  0  0  0  0  0
    0.6862    1.1312    4.1910 H   0  0  0  0  0  0  0  0  0  0  0  0
   -0.9980    0.7641    4.6360 H   0  0  0  0  0  0  0  0  0  0  0  0
    0.1959   -0.5481    4.4891 H   0  0  0  0  0  0  0  0  0  0  0  0
  5  6  2  0  0  0  0
  5  7  1  0  0  0  0
  2  3  1  0  0  0  0
  2  4  1  0  0  0  0
  2  5  1  0  0  0  0
  1  2  1  0  0  0  0
 19 20  2  0  0  0  0
 19 21  1  0  0  0  0
 16 17  1  0  0  0  0
 16 18  1  0  0  0  0
 14 15  2  0  0  0  0
 14 16  1  0  0  0  0
 11 12  1  0  0  0  0
 11 13  1  0  0  0  0
 11 14  1  0  0  0  0
  9 10  1  0  0  0  0
  9 11  1  0  0  0  0
  9 19  1  0  0  0  0
  7  8  1  0  0  0  0
  7  9  1  0  0  0  0
 23 24  1  0  0  0  0
 23 25  1  0  0  0  0
 23 26  1  0  0  0  0
 21 22  1  0  0  0  0
 21 23  1  0  0  0  0
M  END
$$$$
default_name
  -OEChem-02102213163D

 26 25  0     1  0  0  0  0  0999 V2000
   -3.0232   -3.6924    1.0038 H   0  0  0  0  0  0  0  0  0  0  0  0
   -3.0082   -2.6684    0.6318 C   0  0  0  0  0  0  0  0  0  0  0  0
   -3.6332   -2.0414    1.2658 H   0  0  0  0  0  0  0  0  0  0  0  0
   -3.3762   -2.6444   -0.3912 H   0  0  0  0  0  0  0  0  0  0  0  0
   -1.5882   -2.1554    0.6658 C   0  0  0  0  0  0  0  0  0  0  0  0
   -0.6832   -2.8764    1.0638 O   0  0  0  0  0  0  0  0  0  0  0  0
   -1.3952   -0.9084    0.2428 N   0  0  0  0  0  0  0  0  0  0  0  0
   -2.1972   -0.3644   -0.0422 H   0  0  0  0  0  0  0  0  0  0  0  0
   -0.1122   -0.1994    0.2658 C   0  0  1  0  0  0  0  0  0  0  0  0
    0.6131   -0.7748   -0.3153 H   0  0  0  0  0  0  0  0  0  0  0  0
   -0.2973    1.1841   -0.3966 C   0  0  0  0  0  0  0  0  0  0  0  0
   -1.2316    1.1899   -0.9569 H   0  0  0  0  0  0  0  0  0  0  0  0
   -0.3576    1.9477    0.3775 H   0  0  0  0  0  0  0  0  0  0  0  0
    0.8057    1.5536   -1.3753 C   0  0  0  0  0  0  0  0  0  0  0  0
    1.5126    2.5368   -1.2378 O   0  0  0  0  0  0  0  0  0  0  0  0
    0.9877    0.7753   -2.4142 N   0  0  0  0  0  0  0  0  0  0  0  0
    1.7348    1.0344   -3.0342 H   0  0  0  0  0  0  0  0  0  0  0  0
    0.4322   -0.0498   -2.5398 H   0  0  0  0  0  0  0  0  0  0  0  0
    0.4075   -0.0985    1.7169 C   0  0  0  0  0  0  0  0  0  0  0  0
    1.5860   -0.3526    1.9662 O   0  0  0  0  0  0  0  0  0  0  0  0
   -0.4625    0.2583    2.6666 N   0  0  0  0  0  0  0  0  0  0  0  0
   -1.4309    0.3754    2.3860 H   0  0  0  0  0  0  0  0  0  0  0  0
   -0.1275    0.4111    4.0813 C   0  0  0  0  0  0  0  0  0  0  0  0
    0.6862    1.1312    4.1910 H   0  0  0  0  0  0  0  0  0  0  0  0
   -0.9980    0.7641    4.6360 H   0  0  0  0  0  0  0  0  0  0  0  0
    0.1959   -0.5481    4.4891 H   0  0  0  0  0  0  0  0  0  0  0  0
  5  6  2  0  0  0  0
  5  7  1  0  0  0  0
  2  3  1  0  0  0  0
  2  4  1  0  0  0  0
  2  5  1  0  0  0  0
  1  2  1  0  0  0  0
 19 20  2  0  0  0  0
 19 21  1  0  0  0  0
 16 17  1  0  0  0  0
 16 18  1  0  0  0  0
 14 15  2  0  0  0  0
 14 16  1  0  0  0  0
 11 12  1  0  0  0  0
 11 13  1  0  0  0  0
 11 14  1  0  0  0  0
  9 10  1  0  0  0  0
  9 11  1  0  0  0  0
  9 19  1  0  0  0  0
  7  8  1  0  0  0  0
  7  9  1  0  0  0  0
 23 24  1  0  0  0  0
 23 25  1  0  0  0  0
 23 26  1  0  0  0  0
 21 22  1  0  0  0  0
 21 23  1  0  0  0  0
M  END
$$$$
default_name
  -OEChem-02102213163D

 26 25  0     1  0  0  0  0  0999 V2000
   -3.0232   -3.6924    1.0038 H   0  0  0  0  0  0  0  0  0  0  0  0
   -3.0082   -2.6684    0.6318 C   0  0  0  0  0  0  0  0  0  0  0  0
   -3.6332   -2.0414    1.2658 H   0  0  0  0  0  0  0  0  0  0  0  0
   -3.3762   -2.6444   -0.3912 H   0  0  0  0  0  0  0  0  0  0  0  0
   -1.5882   -2.1554    0.6658 C   0  0  0  0  0  0  0  0  0  0  0  0
   -0.6832   -2.8764    1.0638 O   0  0  0  0  0  0  0  0  0  0  0  0
   -1.3952   -0.9084    0.2428 N   0  0  0  0  0  0  0  0  0  0  0  0
   -2.1972   -0.3644   -0.0422 H   0  0  0  0  0  0  0  0  0  0  0  0
   -0.1122   -0.1994    0.2658 C   0  0  1  0  0  0  0  0  0  0  0  0
    0.6131   -0.7748   -0.3153 H   0  0  0  0  0  0  0  0  0  0  0  0
   -0.2973    1.1841   -0.3966 C   0  0  0  0  0  0  0  0  0  0  0  0
   -1.2316    1.1899   -0.9569 H   0  0  0  0  0  0  0  0  0  0  0  0
   -0.3576    1.9477    0.3775 H   0  0  0  0  0  0  0  0  0  0  0  0
    0.8057    1.5536   -1.3753 C   0  0  0  0  0  0  0  0  0  0  0  0
    1.6774    2.3652   -1.1169 O   0  0  0  0  0  0  0  0  0  0  0  0
    0.8016    0.9716   -2.5498 N   0  0  0  0  0  0  0  0  0  0  0  0
    1.5522    1.2222   -3.1690 H   0  0  0  0  0  0  0  0  0  0  0  0
    0.1067    0.2866   -2.7797 H   0  0  0  0  0  0  0  0  0  0  0  0
    0.4075   -0.0985    1.7169 C   0  0  0  0  0  0  0  0  0  0  0  0
    1.5860   -0.3526    1.9662 O   0  0  0  0  0  0  0  0  0  0  0  0
   -0.4625    0.2583    2.6666 N   0  0  0  0  0  0  0  0  0  0  0  0
   -1.4309    0.3754    2.3860 H   0  0  0  0  0  0  0  0  0  0  0  0
   -0.1275    0.4111    4.0813 C   0  0  0  0  0  0  0  0  0  0  0  0
    0.6862    1.1312    4.1910 H   0  0  0  0  0  0  0  0  0  0  0  0
   -0.9980    0.7641    4.6360 H   0  0  0  0  0  0  0  0  0  0  0  0
    0.1959   -0.5481    4.4891 H   0  0  0  0  0  0  0  0  0  0  0  0
  5  6  2  0  0  0  0
  5  7  1  0  0  0  0
  2  3  1  0  0  0  0
  2  4  1  0  0  0  0
  2  5  1  0  0  0  0
  1  2  1  0  0  0  0
 19 20  2  0  0  0  0
 19 21  1  0  0  0  0
 16 17  1  0  0  0  0
 16 18  1  0  0  0  0
 14 15  2  0  0  0  0
 14 16  1  0  0  0  0
 11 12  1  0  0  0  0
 11 13  1  0  0  0  0
 11 14  1  0  0  0  0
  9 10  1  0  0  0  0
  9 11  1  0  0  0  0
  9 19  1  0  0  0  0
  7  8  1  0  0  0  0
  7  9  1  0  0  0  0
 23 24  1  0  0  0  0
 23 25  1  0  0  0  0
 23 26  1  0  0  0  0
 21 22  1  0  0  0  0
 21 23  1  0  0  0  0
M  END
$$$$
default_name
  -OEChem-02102213163D

 26 25  0     1  0  0  0  0  0999 V2000
   -3.0232   -3.6924    1.0038 H   0  0  0  0  0  0  0  0  0  0  0  0
   -3.0082   -2.6684    0.6318 C   0  0  0  0  0  0  0  0  0  0  0  0
   -3.6332   -2.0414    1.2658 H   0  0  0  0  0  0  0  0  0  0  0  0
   -3.3762   -2.6444   -0.3912 H   0  0  0  0  0  0  0  0  0  0  0  0
   -1.5882   -2.1554    0.6658 C   0  0  0  0  0  0  0  0  0  0  0  0
   -0.6832   -2.8764    1.0638 O   0  0  0  0  0  0  0  0  0  0  0  0
   -1.3952   -0.9084    0.2428 N   0  0  0  0  0  0  0  0  0  0  0  0
   -2.1972   -0.3644   -0.0422 H   0  0  0  0  0  0  0  0  0  0  0  0
   -0.1122   -0.1994    0.2658 C   0  0  1  0  0  0  0  0  0  0  0  0
    0.6131   -0.7748   -0.3153 H   0  0  0  0  0  0  0  0  0  0  0  0
   -0.2973    1.1841   -0.3966 C   0  0  0  0  0  0  0  0  0  0  0  0
   -1.2316    1.1899   -0.9569 H   0  0  0  0  0  0  0  0  0  0  0  0
   -0.3576    1.9477    0.3775 H   0  0  0  0  0  0  0  0  0  0  0  0
    0.8057    1.5536   -1.3753 C   0  0  0  0  0  0  0  0  0  0  0  0
    1.8156    2.1492   -1.0427 O   0  0  0  0  0  0  0  0  0  0  0  0
    0.6460    1.2178   -2.6323 N   0  0  0  0  0  0  0  0  0  0  0  0
    1.3987    1.4593   -3.2526 H   0  0  0  0  0  0  0  0  0  0  0  0
   -0.1668    0.7107   -2.9278 H   0  0  0  0  0  0  0  0  0  0  0  0
    0.4075   -0.0985    1.7169 C   0  0  0  0  0  0  0  0  0  0  0  0
    1.5860   -0.3526    1.9662 O   0  0  0  0  0  0  0  0  0  0  0  0
   -0.4625    0.2583    2.6666 N   0  0  0  0  0  0  0  0  0  0  0  0
   -1.4309    0.3754    2.3860 H   0  0  0  0  0  0  0  0  0  0  0  0
   -0.1275    0.4111    4.0813 C   0  0  0  0  0  0  0  0  0  0  0  0
    0.6862    1.1312    4.1910 H   0  0  0  0  0  0  0  0  0  0  0  0
   -0.9980    0.7641    4.6360 H   0  0  0  0  0  0  0  0  0  0  0  0
    0.1959   -0.5481    4.4891 H   0  0  0  0  0  0  0  0  0  0  0  0
  5  6  2  0  0  0  0
  5  7  1  0  0  0  0
  2  3  1  0  0  0  0
  2  4  1  0  0  0  0
  2  5  1  0  0  0  0
  1  2  1  0  0  0  0
 19 20  2  0  0  0  0
 19 21  1  0  0  0  0
 16 17  1  0  0  0  0
 16 18  1  0  0  0  0
 14 15  2  0  0  0  0
 14 16  1  0  0  0  0
 11 12  1  0  0  0  0
 11 13  1  0  0  0  0
 11 14  1  0  0  0  0
  9 10  1  0  0  0  0
  9 11  1  0  0  0  0
  9 19  1  0  0  0  0
  7  8  1  0  0  0  0
  7  9  1  0  0  0  0
 23 24  1  0  0  0  0
 23 25  1  0  0  0  0
 23 26  1  0  0  0  0
 21 22  1  0  0  0  0
 21 23  1  0  0  0  0
M  END
$$$$
default_name
  -OEChem-02102213163D

 26 25  0     1  0  0  0  0  0999 V2000
   -3.0232   -3.6924    1.0038 H   0  0  0  0  0  0  0  0  0  0  0  0
   -3.0082   -2.6684    0.6318 C   0  0  0  0  0  0  0  0  0  0  0  0
   -3.6332   -2.0414    1.2658 H   0  0  0  0  0  0  0  0  0  0  0  0
   -3.3762   -2.6444   -0.3912 H   0  0  0  0  0  0  0  0  0  0  0  0
   -1.5882   -2.1554    0.6658 C   0  0  0  0  0  0  0  0  0  0  0  0
   -0.6832   -2.8764    1.0638 O   0  0  0  0  0  0  0  0  0  0  0  0
   -1.3952   -0.9084    0.2428 N   0  0  0  0  0  0  0  0  0  0  0  0
   -2.1972   -0.3644   -0.0422 H   0  0  0  0  0  0  0  0  0  0  0  0
   -0.1122   -0.1994    0.2658 C   0  0  1  0  0  0  0  0  0  0  0  0
    0.6131   -0.7748   -0.3153 H   0  0  0  0  0  0  0  0  0  0  0  0
   -0.2973    1.1841   -0.3966 C   0  0  0  0  0  0  0  0  0  0  0  0
   -1.2316    1.1899   -0.9569 H   0  0  0  0  0  0  0  0  0  0  0  0
   -0.3576    1.9477    0.3775 H   0  0  0  0  0  0  0  0  0  0  0  0
    0.8057    1.5536   -1.3753 C   0  0  0  0  0  0  0  0  0  0  0  0
    1.9177    1.9037   -1.0202 O   0  0  0  0  0  0  0  0  0  0  0  0
    0.5315    1.4970   -2.6559 N   0  0  0  0  0  0  0  0  0  0  0  0
    1.2846    1.7297   -3.2790 H   0  0  0  0  0  0  0  0  0  0  0  0
   -0.3695    1.1938   -2.9739 H   0  0  0  0  0  0  0  0  0  0  0  0
    0.4075   -0.0985    1.7169 C   0  0  0  0  0  0  0  0  0  0  0  0
    1.5860   -0.3526    1.9662 O   0  0  0  0  0  0  0  0  0  0  0  0
   -0.4625    0.2583    2.6666 N   0  0  0  0  0  0  0  0  0  0  0  0
   -1.4309    0.3754    2.3860 H   0  0  0  0  0  0  0  0  0  0  0  0
   -0.1275    0.4111    4.0813 C   0  0  0  0  0  0  0  0  0  0  0  0
    0.6862    1.1312    4.1910 H   0  0  0  0  0  0  0  0  0  0  0  0
   -0.9980    0.7641    4.6360 H   0  0  0  0  0  0  0  0  0  0  0  0
    0.1959   -0.5481    4.4891 H   0  0  0  0  0  0  0  0  0  0  0  0
  5  6  2  0  0  0  0
  5  7  1  0  0  0  0
  2  3  1  0  0  0  0
  2  4  1  0  0  0  0
  2  5  1  0  0  0  0
  1  2  1  0  0  0  0
 19 20  2  0  0  0  0
 19 21  1  0  0  0  0
 16 17  1  0  0  0  0
 16 18  1  0  0  0  0
 14 15  2  0  0  0  0
 14 16  1  0  0  0  0
 11 12  1  0  0  0  0
 11 13  1  0  0  0  0
 11 14  1  0  0  0  0
  9 10  1  0  0  0  0
  9 11  1  0  0  0  0
  9 19  1  0  0  0  0
  7  8  1  0  0  0  0
  7  9  1  0  0  0  0
 23 24  1  0  0  0  0
 23 25  1  0  0  0  0
 23 26  1  0  0  0  0
 21 22  1  0  0  0  0
 21 23  1  0  0  0  0
M  END
$$$$
default_name
  -OEChem-02102213163D

 26 25  0     1  0  0  0  0  0999 V2000
   -3.0232   -3.6924    1.0038 H   0  0  0  0  0  0  0  0  0  0  0  0
   -3.0082   -2.6684    0.6318 C   0  0  0  0  0  0  0  0  0  0  0  0
   -3.6332   -2.0414    1.2658 H   0  0  0  0  0  0  0  0  0  0  0  0
   -3.3762   -2.6444   -0.3912 H   0  0  0  0  0  0  0  0  0  0  0  0
   -1.5882   -2.1554    0.6658 C   0  0  0  0  0  0  0  0  0  0  0  0
   -0.6832   -2.8764    1.0638 O   0  0  0  0  0  0  0  0  0  0  0  0
   -1.3952   -0.9084    0.2428 N   0  0  0  0  0  0  0  0  0  0  0  0
   -2.1972   -0.3644   -0.0422 H   0  0  0  0  0  0  0  0  0  0  0  0
   -0.1122   -0.1994    0.2658 C   0  0  1  0  0  0  0  0  0  0  0  0
    0.6131   -0.7748   -0.3153 H   0  0  0  0  0  0  0  0  0  0  0  0
   -0.2973    1.1841   -0.3966 C   0  0  0  0  0  0  0  0  0  0  0  0
   -1.2316    1.1899   -0.9569 H   0  0  0  0  0  0  0  0  0  0  0  0
   -0.3576    1.9477    0.3775 H   0  0  0  0  0  0  0  0  0  0  0  0
    0.8057    1.5536   -1.3753 C   0  0  0  0  0  0  0  0  0  0  0  0
    1.9769    1.6453   -1.0510 O   0  0  0  0  0  0  0  0  0  0  0  0
    0.4660    1.7902   -2.6190 N   0  0  0  0  0  0  0  0  0  0  0  0
    1.2179    2.0148   -3.2467 H   0  0  0  0  0  0  0  0  0  0  0  0
   -0.4878    1.7028   -2.9151 H   0  0  0  0  0  0  0  0  0  0  0  0
    0.4075   -0.0985    1.7169 C   0  0  0  0  0  0  0  0  0  0  0  0
    1.5860   -0.3526    1.9662 O   0  0  0  0  0  0  0  0  0  0  0  0
   -0.4625    0.2583    2.6666 N   0  0  0  0  0  0  0  0  0  0  0  0
   -1.4309    0.3754    2.3860 H   0  0  0  0  0  0  0  0  0  0  0  0
   -0.1275    0.4111    4.0813 C   0  0  0  0  0  0  0  0  0  0  0  0
    0.6862    1.1312    4.1910 H   0  0  0  0  0  0  0  0  0  0  0  0
   -0.9980    0.7641    4.6360 H   0  0  0  0  0  0  0  0  0  0  0  0
    0.1959   -0.5481    4.4891 H   0  0  0  0  0  0  0  0  0  0  0  0
  5  6  2  0  0  0  0
  5  7  1  0  0  0  0
  2  3  1  0  0  0  0
  2  4  1  0  0  0  0
  2  5  1  0  0  0  0
  1  2  1  0  0  0  0
 19 20  2  0  0  0  0
 19 21  1  0  0  0  0
 16 17  1  0  0  0  0
 16 18  1  0  0  0  0
 14 15  2  0  0  0  0
 14 16  1  0  0  0  0
 11 12  1  0  0  0  0
 11 13  1  0  0  0  0
 11 14  1  0  0  0  0
  9 10  1  0  0  0  0
  9 11  1  0  0  0  0
  9 19  1  0  0  0  0
  7  8  1  0  0  0  0
  7  9  1  0  0  0  0
 23 24  1  0  0  0  0
 23 25  1  0  0  0  0
 23 26  1  0  0  0  0
 21 22  1  0  0  0  0
 21 23  1  0  0  0  0
M  END
$$$$
default_name
  -OEChem-02102213163D

 26 25  0     1  0  0  0  0  0999 V2000
   -3.0232   -3.6924    1.0038 H   0  0  0  0  0  0  0  0  0  0  0  0
   -3.0082   -2.6684    0.6318 C   0  0  0  0  0  0  0  0  0  0  0  0
   -3.6332   -2.0414    1.2658 H   0  0  0  0  0  0  0  0  0  0  0  0
   -3.3762   -2.6444   -0.3912 H   0  0  0  0  0  0  0  0  0  0  0  0
   -1.5882   -2.1554    0.6658 C   0  0  0  0  0  0  0  0  0  0  0  0
   -0.6832   -2.8764    1.0638 O   0  0  0  0  0  0  0  0  0  0  0  0
   -1.3952   -0.9084    0.2428 N   0  0  0  0  0  0  0  0  0  0  0  0
   -2.1972   -0.3644   -0.0422 H   0  0  0  0  0  0  0  0  0  0  0  0
   -0.1122   -0.1994    0.2658 C   0  0  1  0  0  0  0  0  0  0  0  0
    0.6131   -0.7748   -0.3153 H   0  0  0  0  0  0  0  0  0  0  0  0
   -0.2973    1.1841   -0.3966 C   0  0  0  0  0  0  0  0  0  0  0  0
   -1.2316    1.1899   -0.9569 H   0  0  0  0  0  0  0  0  0  0  0  0
   -0.3576    1.9477    0.3775 H   0  0  0  0  0  0  0  0  0  0  0  0
    0.8057    1.5536   -1.3753 C   0  0  0  0  0  0  0  0  0  0  0  0
    1.9891    1.3917   -1.1331 O   0  0  0  0  0  0  0  0  0  0  0  0
    0.4539    2.0773   -2.5243 N   0  0  0  0  0  0  0  0  0  0  0  0
    1.2029    2.2952   -3.1577 H   0  0  0  0  0  0  0  0  0  0  0  0
   -0.5135    2.2032   -2.7552 H   0  0  0  0  0  0  0  0  0  0  0  0
    0.4075   -0.0985    1.7169 C   0  0  0  0  0  0  0  0  0  0  0  0
    1.5860   -0.3526    1.9662 O   0  0  0  0  0  0  0  0  0  0  0  0
   -0.4625    0.2583    2.6666 N   0  0  0  0  0  0  0  0  0  0  0  0
   -1.4309    0.3754    2.3860 H   0  0  0  0  0  0  0  0  0  0  0  0
   -0.1275    0.4111    4.0813 C   0  0  0  0  0  0  0  0  0  0  0  0
    0.6862    1.1312    4.1910 H   0  0  0  0  0  0  0  0  0  0  0  0
   -0.9980    0.7641    4.6360 H   0  0  0  0  0  0  0  0  0  0  0  0
    0.1959   -0.5481    4.4891 H   0  0  0  0  0  0  0  0  0  0  0  0
  5  6  2  0  0  0  0
  5  7  1  0  0  0  0
  2  3  1  0  0  0  0
  2  4  1  0  0  0  0
  2  5  1  0  0  0  0
  1  2  1  0  0  0  0
 19 20  2  0  0  0  0
 19 21  1  0  0  0  0
 16 17  1  0  0  0  0
 16 18  1  0  0  0  0
 14 15  2  0  0  0  0
 14 16  1  0  0  0  0
 11 12  1  0  0  0  0
 11 13  1  0  0  0  0
 11 14  1  0  0  0  0
  9 10  1  0  0  0  0
  9 11  1  0  0  0  0
  9 19  1  0  0  0  0
  7  8  1  0  0  0  0
  7  9  1  0  0  0  0
 23 24  1  0  0  0  0
 23 25  1  0  0  0  0
 23 26  1  0  0  0  0
 21 22  1  0  0  0  0
 21 23  1  0  0  0  0
M  END
$$$$
default_name
  -OEChem-02102213163D

 26 25  0     1  0  0  0  0  0999 V2000
   -3.0232   -3.6924    1.0038 H   0  0  0  0  0  0  0  0  0  0  0  0
   -3.0082   -2.6684    0.6318 C   0  0  0  0  0  0  0  0  0  0  0  0
   -3.6332   -2.0414    1.2658 H   0  0  0  0  0  0  0  0  0  0  0  0
   -3.3762   -2.6444   -0.3912 H   0  0  0  0  0  0  0  0  0  0  0  0
   -1.5882   -2.1554    0.6658 C   0  0  0  0  0  0  0  0  0  0  0  0
   -0.6832   -2.8764    1.0638 O   0  0  0  0  0  0  0  0  0  0  0  0
   -1.3952   -0.9084    0.2428 N   0  0  0  0  0  0  0  0  0  0  0  0
   -2.1972   -0.3644   -0.0422 H   0  0  0  0  0  0  0  0  0  0  0  0
   -0.1122   -0.1994    0.2658 C   0  0  1  0  0  0  0  0  0  0  0  0
    0.6131   -0.7748   -0.3153 H   0  0  0  0  0  0  0  0  0  0  0  0
   -0.2973    1.1841   -0.3966 C   0  0  0  0  0  0  0  0  0  0  0  0
   -1.2316    1.1899   -0.9569 H   0  0  0  0  0  0  0  0  0  0  0  0
   -0.3576    1.9477    0.3775 H   0  0  0  0  0  0  0  0  0  0  0  0
    0.8057    1.5536   -1.3753 C   0  0  0  0  0  0  0  0  0  0  0  0
    1.9534    1.1600   -1.2607 O   0  0  0  0  0  0  0  0  0  0  0  0
    0.4960    2.3390   -2.3780 N   0  0  0  0  0  0  0  0  0  0  0  0
    1.2408    2.5519   -3.0181 H   0  0  0  0  0  0  0  0  0  0  0  0
   -0.4449    2.6607   -2.5051 H   0  0  0  0  0  0  0  0  0  0  0  0
    0.4075   -0.0985    1.7169 C   0  0  0  0  0  0  0  0  0  0  0  0
    1.5860   -0.3526    1.9662 O   0  0  0  0  0  0  0  0  0  0  0  0
   -0.4625    0.2583    2.6666 N   0  0  0  0  0  0  0  0  0  0  0  0
   -1.4309    0.3754    2.3860 H   0  0  0  0  0  0  0  0  0  0  0  0
   -0.1275    0.4111    4.0813 C   0  0  0  0  0  0  0  0  0  0  0  0
    0.6862    1.1312    4.1910 H   0  0  0  0  0  0  0  0  0  0  0  0
   -0.9980    0.7641    4.6360 H   0  0  0  0  0  0  0  0  0  0  0  0
    0.1959   -0.5481    4.4891 H   0  0  0  0  0  0  0  0  0  0  0  0
  5  6  2  0  0  0  0
  5  7  1  0  0  0  0
  2  3  1  0  0  0  0
  2  4  1  0  0  0  0
  2  5  1  0  0  0  0
  1  2  1  0  0  0  0
 19 20  2  0  0  0  0
 19 21  1  0  0  0  0
 16 17  1  0  0  0  0
 16 18  1  0  0  0  0
 14 15  2  0  0  0  0
 14 16  1  0  0  0  0
 11 12  1  0  0  0  0
 11 13  1  0  0  0  0
 11 14  1  0  0  0  0
  9 10  1  0  0  0  0
  9 11  1  0  0  0  0
  9 19  1  0  0  0  0
  7  8  1  0  0  0  0
  7  9  1  0  0  0  0
 23 24  1  0  0  0  0
 23 25  1  0  0  0  0
 23 26  1  0  0  0  0
 21 22  1  0  0  0  0
 21 23  1  0  0  0  0
M  END
$$$$
default_name
  -OEChem-02102213163D

 26 25  0     1  0  0  0  0  0999 V2000
   -3.0232   -3.6924    1.0038 H   0  0  0  0  0  0  0  0  0  0  0  0
   -3.0082   -2.6684    0.6318 C   0  0  0  0  0  0  0  0  0  0  0  0
   -3.6332   -2.0414    1.2658 H   0  0  0  0  0  0  0  0  0  0  0  0
   -3.3762   -2.6444   -0.3912 H   0  0  0  0  0  0  0  0  0  0  0  0
   -1.5882   -2.1554    0.6658 C   0  0  0  0  0  0  0  0  0  0  0  0
   -0.6832   -2.8764    1.0638 O   0  0  0  0  0  0  0  0  0  0  0  0
   -1.3952   -0.9084    0.2428 N   0  0  0  0  0  0  0  0  0  0  0  0
   -2.1972   -0.3644   -0.0422 H   0  0  0  0  0  0  0  0  0  0  0  0
   -0.1122   -0.1994    0.2658 C   0  0  1  0  0  0  0  0  0  0  0  0
    0.6131   -0.7748   -0.3153 H   0  0  0  0  0  0  0  0  0  0  0  0
   -0.2973    1.1841   -0.3966 C   0  0  0  0  0  0  0  0  0  0  0  0
   -1.2316    1.1899   -0.9569 H   0  0  0  0  0  0  0  0  0  0  0  0
   -0.3576    1.9477    0.3775 H   0  0  0  0  0  0  0  0  0  0  0  0
    0.8057    1.5536   -1.3753 C   0  0  0  0  0  0  0  0  0  0  0  0
    1.8723    0.9662   -1.4253 O   0  0  0  0  0  0  0  0  0  0  0  0
    0.5895    2.5572   -2.1903 N   0  0  0  0  0  0  0  0  0  0  0  0
    1.3289    2.7673   -2.8374 H   0  0  0  0  0  0  0  0  0  0  0  0
   -0.2867    3.0443   -2.1820 H   0  0  0  0  0  0  0  0  0  0  0  0
    0.4075   -0.0985    1.7169 C   0  0  0  0  0  0  0  0  0  0  0  0
    1.5860   -0.3526    1.9662 O   0  0  0  0  0  0  0  0  0  0  0  0
   -0.4625    0.2583    2.6666 N   0  0  0  0  0  0  0  0  0  0  0  0
   -1.4309    0.3754    2.3860 H   0  0  0  0  0  0  0  0  0  0  0  0
   -0.1275    0.4111    4.0813 C   0  0  0  0  0  0  0  0  0  0  0  0
    0.6862    1.1312    4.1910 H   0  0  0  0  0  0  0  0  0  0  0  0
   -0.9980    0.7641    4.6360 H   0  0  0  0  0  0  0  0  0  0  0  0
    0.1959   -0.5481    4.4891 H   0  0  0  0  0  0  0  0  0  0  0  0
  5  6  2  0  0  0  0
  5  7  1  0  0  0  0
  2  3  1  0  0  0  0
  2  4  1  0  0  0  0
  2  5  1  0  0  0  0
  1  2  1  0  0  0  0
 19 20  2  0  0  0  0
 19 21  1  0  0  0  0
 16 17  1  0  0  0  0
 16 18  1  0  0  0  0
 14 15  2  0  0  0  0
 14 16  1  0  0  0  0
 11 12  1  0  0  0  0
 11 13  1  0  0  0  0
 11 14  1  0  0  0  0
  9 10  1  0  0  0  0
  9 11  1  0  0  0  0
  9 19  1  0  0  0  0
  7  8  1  0  0  0  0
  7  9  1  0  0  0  0
 23 24  1  0  0  0  0
 23 25  1  0  0  0  0
 23 26  1  0  0  0  0
 21 22  1  0  0  0  0
 21 23  1  0  0  0  0
M  END
$$$$
default_name
  -OEChem-02102213163D

 26 25  0     1  0  0  0  0  0999 V2000
   -3.0232   -3.6924    1.0038 H   0  0  0  0  0  0  0  0  0  0  0  0
   -3.0082   -2.6684    0.6318 C   0  0  0  0  0  0  0  0  0  0  0  0
   -3.6332   -2.0414    1.2658 H   0  0  0  0  0  0  0  0  0  0  0  0
   -3.3762   -2.6444   -0.3912 H   0  0  0  0  0  0  0  0  0  0  0  0
   -1.5882   -2.1554    0.6658 C   0  0  0  0  0  0  0  0  0  0  0  0
   -0.6832   -2.8764    1.0638 O   0  0  0  0  0  0  0  0  0  0  0  0
   -1.3952   -0.9084    0.2428 N   0  0  0  0  0  0  0  0  0  0  0  0
   -2.1972   -0.3644   -0.0422 H   0  0  0  0  0  0  0  0  0  0  0  0
   -0.1122   -0.1994    0.2658 C   0  0  1  0  0  0  0  0  0  0  0  0
    0.6131   -0.7748   -0.3153 H   0  0  0  0  0  0  0  0  0  0  0  0
   -0.2973    1.1841   -0.3966 C   0  0  0  0  0  0  0  0  0  0  0  0
   -1.2316    1.1899   -0.9569 H   0  0  0  0  0  0  0  0  0  0  0  0
   -0.3576    1.9477    0.3775 H   0  0  0  0  0  0  0  0  0  0  0  0
    0.8057    1.5536   -1.3753 C   0  0  0  0  0  0  0  0  0  0  0  0
    1.7514    0.8234   -1.6155 O   0  0  0  0  0  0  0  0  0  0  0  0
    0.7279    2.7172   -1.9739 N   0  0  0  0  0  0  0  0  0  0  0  0
    1.4613    2.9267   -2.6280 H   0  0  0  0  0  0  0  0  0  0  0  0
   -0.0497    3.3278   -1.8078 H   0  0  0  0  0  0  0  0  0  0  0  0
    0.4075   -0.0985    1.7169 C   0  0  0  0  0  0  0  0  0  0  0  0
    1.5860   -0.3526    1.9662 O   0  0  0  0  0  0  0  0  0  0  0  0
   -0.4625    0.2583    2.6666 N   0  0  0  0  0  0  0  0  0  0  0  0
   -1.4309    0.3754    2.3860 H   0  0  0  0  0  0  0  0  0  0  0  0
   -0.1275    0.4111    4.0813 C   0  0  0  0  0  0  0  0  0  0  0  0
    0.6862    1.1312    4.1910 H   0  0  0  0  0  0  0  0  0  0  0  0
   -0.9980    0.7641    4.6360 H   0  0  0  0  0  0  0  0  0  0  0  0
    0.1959   -0.5481    4.4891 H   0  0  0  0  0  0  0  0  0  0  0  0
  5  6  2  0  0  0  0
  5  7  1  0  0  0  0
  2  3  1  0  0  0  0
  2  4  1  0  0  0  0
  2  5  1  0  0  0  0
  1  2  1  0  0  0  0
 19 20  2  0  0  0  0
 19 21  1  0  0  0  0
 16 17  1  0  0  0  0
 16 18  1  0  0  0  0
 14 15  2  0  0  0  0
 14 16  1  0  0  0  0
 11 12  1  0  0  0  0
 11 13  1  0  0  0  0
 11 14  1  0  0  0  0
  9 10  1  0  0  0  0
  9 11  1  0  0  0  0
  9 19  1  0  0  0  0
  7  8  1  0  0  0  0
  7  9  1  0  0  0  0
 23 24  1  0  0  0  0
 23 25  1  0  0  0  0
 23 26  1  0  0  0  0
 21 22  1  0  0  0  0
 21 23  1  0  0  0  0
M  END
$$$$
default_name
  -OEChem-02102213163D

 26 25  0     1  0  0  0  0  0999 V2000
   -3.0232   -3.6924    1.0038 H   0  0  0  0  0  0  0  0  0  0  0  0
   -3.0082   -2.6684    0.6318 C   0  0  0  0  0  0  0  0  0  0  0  0
   -3.6332   -2.0414    1.2658 H   0  0  0  0  0  0  0  0  0  0  0  0
   -3.3762   -2.6444   -0.3912 H   0  0  0  0  0  0  0  0  0  0  0  0
   -1.5882   -2.1554    0.6658 C   0  0  0  0  0  0  0  0  0  0  0  0
   -0.6832   -2.8764    1.0638 O   0  0  0  0  0  0  0  0  0  0  0  0
   -1.3952   -0.9084    0.2428 N   0  0  0  0  0  0  0  0  0  0  0  0
   -2.1972   -0.3644   -0.0422 H   0  0  0  0  0  0  0  0  0  0  0  0
   -0.1122   -0.1994    0.2658 C   0  0  1  0  0  0  0  0  0  0  0  0
    0.6131   -0.7748   -0.3153 H   0  0  0  0  0  0  0  0  0  0  0  0
   -0.2973    1.1841   -0.3966 C   0  0  0  0  0  0  0  0  0  0  0  0
   -1.2316    1.1899   -0.9569 H   0  0  0  0  0  0  0  0  0  0  0  0
   -0.3576    1.9477    0.3775 H   0  0  0  0  0  0  0  0  0  0  0  0
    0.8057    1.5536   -1.3753 C   0  0  0  0  0  0  0  0  0  0  0  0
    1.5988    0.7413   -1.8185 O   0  0  0  0  0  0  0  0  0  0  0  0
    0.9019    2.8080   -1.7435 N   0  0  0  0  0  0  0  0  0  0  0  0
    1.6289    3.0194   -2.4042 H   0  0  0  0  0  0  0  0  0  0  0  0
    0.2501    3.4918   -1.4080 H   0  0  0  0  0  0  0  0  0  0  0  0
    0.4075   -0.0985    1.7169 C   0  0  0  0  0  0  0  0  0  0  0  0
    1.5860   -0.3526    1.9662 O   0  0  0  0  0  0  0  0  0  0  0  0
   -0.4625    0.2583    2.6666 N   0  0  0  0  0  0  0  0  0  0  0  0
   -1.4309    0.3754    2.3860 H   0  0  0  0  0  0  0  0  0  0  0  0
   -0.1275    0.4111    4.0813 C   0  0  0  0  0  0  0  0  0  0  0  0
    0.6862    1.1312    4.1910 H   0  0  0  0  0  0  0  0  0  0  0  0
   -0.9980    0.7641    4.6360 H   0  0  0  0  0  0  0  0  0  0  0  0
    0.1959   -0.5481    4.4891 H   0  0  0  0  0  0  0  0  0  0  0  0
  5  6  2  0  0  0  0
  5  7  1  0  0  0  0
  2  3  1  0  0  0  0
  2  4  1  0  0  0  0
  2  5  1  0  0  0  0
  1  2  1  0  0  0  0
 19 20  2  0  0  0  0
 19 21  1  0  0  0  0
 16 17  1  0  0  0  0
 16 18  1  0  0  0  0
 14 15  2  0  0  0  0
 14 16  1  0  0  0  0
 11 12  1  0  0  0  0
 11 13  1  0  0  0  0
 11 14  1  0  0  0  0
  9 10  1  0  0  0  0
  9 11  1  0  0  0  0
  9 19  1  0  0  0  0
  7  8  1  0  0  0  0
  7  9  1  0  0  0  0
 23 24  1  0  0  0  0
 23 25  1  0  0  0  0
 23 26  1  0  0  0  0
 21 22  1  0  0  0  0
 21 23  1  0  0  0  0
M  END
$$$$
default_name
  -OEChem-02102213163D

 26 25  0     1  0  0  0  0  0999 V2000
   -3.0232   -3.6924    1.0038 H   0  0  0  0  0  0  0  0  0  0  0  0
   -3.0082   -2.6684    0.6318 C   0  0  0  0  0  0  0  0  0  0  0  0
   -3.6332   -2.0414    1.2658 H   0  0  0  0  0  0  0  0  0  0  0  0
   -3.3762   -2.6444   -0.3912 H   0  0  0  0  0  0  0  0  0  0  0  0
   -1.5882   -2.1554    0.6658 C   0  0  0  0  0  0  0  0  0  0  0  0
   -0.6832   -2.8764    1.0638 O   0  0  0  0  0  0  0  0  0  0  0  0
   -1.3952   -0.9084    0.2428 N   0  0  0  0  0  0  0  0  0  0  0  0
   -2.1972   -0.3644   -0.0422 H   0  0  0  0  0  0  0  0  0  0  0  0
   -0.1122   -0.1994    0.2658 C   0  0  1  0  0  0  0  0  0  0  0  0
    0.6131   -0.7748   -0.3153 H   0  0  0  0  0  0  0  0  0  0  0  0
   -0.2973    1.1841   -0.3966 C   0  0  0  0  0  0  0  0  0  0  0  0
   -1.2316    1.1899   -0.9569 H   0  0  0  0  0  0  0  0  0  0  0  0
   -0.3576    1.9477    0.3775 H   0  0  0  0  0  0  0  0  0  0  0  0
    0.8057    1.5536   -1.3753 C   0  0  0  0  0  0  0  0  0  0  0  0
    1.4249    0.7256   -2.0204 O   0  0  0  0  0  0  0  0  0  0  0  0
    1.0996    2.8234   -1.5148 N   0  0  0  0  0  0  0  0  0  0  0  0
    1.8203    3.0389   -2.1811 H   0  0  0  0  0  0  0  0  0  0  0  0
    0.5921    3.5252   -1.0099 H   0  0  0  0  0  0  0  0  0  0  0  0
    0.4075   -0.0985    1.7169 C   0  0  0  0  0  0  0  0  0  0  0  0
    1.5860   -0.3526    1.9662 O   0  0  0  0  0  0  0  0  0  0  0  0
   -0.4625    0.2583    2.6666 N   0  0  0  0  0  0  0  0  0  0  0  0
   -1.4309    0.3754    2.3860 H   0  0  0  0  0  0  0  0  0  0  0  0
   -0.1275    0.4111    4.0813 C   0  0  0  0  0  0  0  0  0  0  0  0
    0.6862    1.1312    4.1910 H   0  0  0  0  0  0  0  0  0  0  0  0
   -0.9980    0.7641    4.6360 H   0  0  0  0  0  0  0  0  0  0  0  0
    0.1959   -0.5481    4.4891 H   0  0  0  0  0  0  0  0  0  0  0  0
  5  6  2  0  0  0  0
  5  7  1  0  0  0  0
  2  3  1  0  0  0  0
  2  4  1  0  0  0  0
  2  5  1  0  0  0  0
  1  2  1  0  0  0  0
 19 20  2  0  0  0  0
 19 21  1  0  0  0  0
 16 17  1  0  0  0  0
 16 18  1  0  0  0  0
 14 15  2  0  0  0  0
 14 16  1  0  0  0  0
 11 12  1  0  0  0  0
 11 13  1  0  0  0  0
 11 14  1  0  0  0  0
  9 10  1  0  0  0  0
  9 11  1  0  0  0  0
  9 19  1  0  0  0  0
  7  8  1  0  0  0  0
  7  9  1  0  0  0  0
 23 24  1  0  0  0  0
 23 25  1  0  0  0  0
 23 26  1  0  0  0  0
 21 22  1  0  0  0  0
 21 23  1  0  0  0  0
M  END
$$$$
default_name
  -OEChem-02102213163D

 26 25  0     1  0  0  0  0  0999 V2000
   -3.0232   -3.6924    1.0038 H   0  0  0  0  0  0  0  0  0  0  0  0
   -3.0082   -2.6684    0.6318 C   0  0  0  0  0  0  0  0  0  0  0  0
   -3.6332   -2.0414    1.2658 H   0  0  0  0  0  0  0  0  0  0  0  0
   -3.3762   -2.6444   -0.3912 H   0  0  0  0  0  0  0  0  0  0  0  0
   -1.5882   -2.1554    0.6658 C   0  0  0  0  0  0  0  0  0  0  0  0
   -0.6832   -2.8764    1.0638 O   0  0  0  0  0  0  0  0  0  0  0  0
   -1.3952   -0.9084    0.2428 N   0  0  0  0  0  0  0  0  0  0  0  0
   -2.1972   -0.3644   -0.0422 H   0  0  0  0  0  0  0  0  0  0  0  0
   -0.1122   -0.1994    0.2658 C   0  0  1  0  0  0  0  0  0  0  0  0
    0.6131   -0.7748   -0.3153 H   0  0  0  0  0  0  0  0  0  0  0  0
   -0.2973    1.1841   -0.3966 C   0  0  0  0  0  0  0  0  0  0  0  0
   -1.2316    1.1899   -0.9569 H   0  0  0  0  0  0  0  0  0  0  0  0
   -0.3576    1.9477    0.3775 H   0  0  0  0  0  0  0  0  0  0  0  0
    0.8057    1.5536   -1.3753 C   0  0  0  0  0  0  0  0  0  0  0  0
    1.2417    0.7773   -2.2074 O   0  0  0  0  0  0  0  0  0  0  0  0
    1.3075    2.7625   -1.3035 N   0  0  0  0  0  0  0  0  0  0  0  0
    2.0225    2.9839   -1.9739 H   0  0  0  0  0  0  0  0  0  0  0  0
    0.9531    3.4257   -0.6406 H   0  0  0  0  0  0  0  0  0  0  0  0
    0.4075   -0.0985    1.7169 C   0  0  0  0  0  0  0  0  0  0  0  0
    1.5860   -0.3526    1.9662 O   0  0  0  0  0  0  0  0  0  0  0  0
   -0.4625    0.2583    2.6666 N   0  0  0  0  0  0  0  0  0  0  0  0
   -1.4309    0.3754    2.3860 H   0  0  0  0  0  0  0  0  0  0  0  0
   -0.1275    0.4111    4.0813 C   0  0  0  0  0  0  0  0  0  0  0  0
    0.6862    1.1312    4.1910 H   0  0  0  0  0  0  0  0  0  0  0  0
   -0.9980    0.7641    4.6360 H   0  0  0  0  0  0  0  0  0  0  0  0
    0.1959   -0.5481    4.4891 H   0  0  0  0  0  0  0  0  0  0  0  0
  5  6  2  0  0  0  0
  5  7  1  0  0  0  0
  2  3  1  0  0  0  0
  2  4  1  0  0  0  0
  2  5  1  0  0  0  0
  1  2  1  0  0  0  0
 19 20  2  0  0  0  0
 19 21  1  0  0  0  0
 16 17  1  0  0  0  0
 16 18  1  0  0  0  0
 14 15  2  0  0  0  0
 14 16  1  0  0  0  0
 11 12  1  0  0  0  0
 11 13  1  0  0  0  0
 11 14  1  0  0  0  0
  9 10  1  0  0  0  0
  9 11  1  0  0  0  0
  9 19  1  0  0  0  0
  7  8  1  0  0  0  0
  7  9  1  0  0  0  0
 23 24  1  0  0  0  0
 23 25  1  0  0  0  0
 23 26  1  0  0  0  0
 21 22  1  0  0  0  0
 21 23  1  0  0  0  0
M  END
$$$$
default_name
  -OEChem-02102213163D

 26 25  0     1  0  0  0  0  0999 V2000
   -3.0232   -3.6924    1.0038 H   0  0  0  0  0  0  0  0  0  0  0  0
   -3.0082   -2.6684    0.6318 C   0  0  0  0  0  0  0  0  0  0  0  0
   -3.6332   -2.0414    1.2658 H   0  0  0  0  0  0  0  0  0  0  0  0
   -3.3762   -2.6444   -0.3912 H   0  0  0  0  0  0  0  0  0  0  0  0
   -1.5882   -2.1554    0.6658 C   0  0  0  0  0  0  0  0  0  0  0  0
   -0.6832   -2.8764    1.0638 O   0  0  0  0  0  0  0  0  0  0  0  0
   -1.3952   -0.9084    0.2428 N   0  0  0  0  0  0  0  0  0  0  0  0
   -2.1972   -0.3644   -0.0422 H   0  0  0  0  0  0  0  0  0  0  0  0
   -0.1122   -0.1994    0.2658 C   0  0  1  0  0  0  0  0  0  0  0  0
    0.6131   -0.7748   -0.3153 H   0  0  0  0  0  0  0  0  0  0  0  0
   -0.2973    1.1841   -0.3966 C   0  0  0  0  0  0  0  0  0  0  0  0
   -1.2316    1.1899   -0.9569 H   0  0  0  0  0  0  0  0  0  0  0  0
   -0.3576    1.9477    0.3775 H   0  0  0  0  0  0  0  0  0  0  0  0
    0.8057    1.5536   -1.3753 C   0  0  0  0  0  0  0  0  0  0  0  0
    1.0615    0.8928   -2.3668 O   0  0  0  0  0  0  0  0  0  0  0  0
    1.5115    2.6292   -1.1239 N   0  0  0  0  0  0  0  0  0  0  0  0
    2.2216    2.8583   -1.7969 H   0  0  0  0  0  0  0  0  0  0  0  0
    1.3084    3.2002   -0.3253 H   0  0  0  0  0  0  0  0  0  0  0  0
    0.4075   -0.0985    1.7169 C   0  0  0  0  0  0  0  0  0  0  0  0
    1.5860   -0.3526    1.9662 O   0  0  0  0  0  0  0  0  0  0  0  0
   -0.4625    0.2583    2.6666 N   0  0  0  0  0  0  0  0  0  0  0  0
   -1.4309    0.3754    2.3860 H   0  0  0  0  0  0  0  0  0  0  0  0
   -0.1275    0.4111    4.0813 C   0  0  0  0  0  0  0  0  0  0  0  0
    0.6862    1.1312    4.1910 H   0  0  0  0  0  0  0  0  0  0  0  0
   -0.9980    0.7641    4.6360 H   0  0  0  0  0  0  0  0  0  0  0  0
    0.1959   -0.5481    4.4891 H   0  0  0  0  0  0  0  0  0  0  0  0
  5  6  2  0  0  0  0
  5  7  1  0  0  0  0
  2  3  1  0  0  0  0
  2  4  1  0  0  0  0
  2  5  1  0  0  0  0
  1  2  1  0  0  0  0
 19 20  2  0  0  0  0
 19 21  1  0  0  0  0
 16 17  1  0  0  0  0
 16 18  1  0  0  0  0
 14 15  2  0  0  0  0
 14 16  1  0  0  0  0
 11 12  1  0  0  0  0
 11 13  1  0  0  0  0
 11 14  1  0  0  0  0
  9 10  1  0  0  0  0
  9 11  1  0  0  0  0
  9 19  1  0  0  0  0
  7  8  1  0  0  0  0
  7  9  1  0  0  0  0
 23 24  1  0  0  0  0
 23 25  1  0  0  0  0
 23 26  1  0  0  0  0
 21 22  1  0  0  0  0
 21 23  1  0  0  0  0
M  END
$$$$
default_name
  -OEChem-02102213163D

 26 25  0     1  0  0  0  0  0999 V2000
   -3.0232   -3.6924    1.0038 H   0  0  0  0  0  0  0  0  0  0  0  0
   -3.0082   -2.6684    0.6318 C   0  0  0  0  0  0  0  0  0  0  0  0
   -3.6332   -2.0414    1.2658 H   0  0  0  0  0  0  0  0  0  0  0  0
   -3.3762   -2.6444   -0.3912 H   0  0  0  0  0  0  0  0  0  0  0  0
   -1.5882   -2.1554    0.6658 C   0  0  0  0  0  0  0  0  0  0  0  0
   -0.6832   -2.8764    1.0638 O   0  0  0  0  0  0  0  0  0  0  0  0
   -1.3952   -0.9084    0.2428 N   0  0  0  0  0  0  0  0  0  0  0  0
   -2.1972   -0.3644   -0.0422 H   0  0  0  0  0  0  0  0  0  0  0  0
   -0.1122   -0.1994    0.2658 C   0  0  1  0  0  0  0  0  0  0  0  0
    0.6131   -0.7748   -0.3153 H   0  0  0  0  0  0  0  0  0  0  0  0
   -0.2973    1.1841   -0.3966 C   0  0  0  0  0  0  0  0  0  0  0  0
   -1.2316    1.1899   -0.9569 H   0  0  0  0  0  0  0  0  0  0  0  0
   -0.3576    1.9477    0.3775 H   0  0  0  0  0  0  0  0  0  0  0  0
    0.8057    1.5536   -1.3753 C   0  0  0  0  0  0  0  0  0  0  0  0
    0.8968    1.0644   -2.4878 O   0  0  0  0  0  0  0  0  0  0  0  0
    1.6976    2.4329   -0.9883 N   0  0  0  0  0  0  0  0  0  0  0  0
    2.4042    2.6705   -1.6620 H   0  0  0  0  0  0  0  0  0  0  0  0
    1.6339    2.8638   -0.0854 H   0  0  0  0  0  0  0  0  0  0  0  0
    0.4075   -0.0985    1.7169 C   0  0  0  0  0  0  0  0  0  0  0  0
    1.5860   -0.3526    1.9662 O   0  0  0  0  0  0  0  0  0  0  0  0
   -0.4625    0.2583    2.6666 N   0  0  0  0  0  0  0  0  0  0  0  0
   -1.4309    0.3754    2.3860 H   0  0  0  0  0  0  0  0  0  0  0  0
   -0.1275    0.4111    4.0813 C   0  0  0  0  0  0  0  0  0  0  0  0
    0.6862    1.1312    4.1910 H   0  0  0  0  0  0  0  0  0  0  0  0
   -0.9980    0.7641    4.6360 H   0  0  0  0  0  0  0  0  0  0  0  0
    0.1959   -0.5481    4.4891 H   0  0  0  0  0  0  0  0  0  0  0  0
  5  6  2  0  0  0  0
  5  7  1  0  0  0  0
  2  3  1  0  0  0  0
  2  4  1  0  0  0  0
  2  5  1  0  0  0  0
  1  2  1  0  0  0  0
 19 20  2  0  0  0  0
 19 21  1  0  0  0  0
 16 17  1  0  0  0  0
 16 18  1  0  0  0  0
 14 15  2  0  0  0  0
 14 16  1  0  0  0  0
 11 12  1  0  0  0  0
 11 13  1  0  0  0  0
 11 14  1  0  0  0  0
  9 10  1  0  0  0  0
  9 11  1  0  0  0  0
  9 19  1  0  0  0  0
  7  8  1  0  0  0  0
  7  9  1  0  0  0  0
 23 24  1  0  0  0  0
 23 25  1  0  0  0  0
 23 26  1  0  0  0  0
 21 22  1  0  0  0  0
 21 23  1  0  0  0  0
M  END
$$$$
default_name
  -OEChem-02102213163D

 26 25  0     1  0  0  0  0  0999 V2000
   -3.0232   -3.6924    1.0038 H   0  0  0  0  0  0  0  0  0  0  0  0
   -3.0082   -2.6684    0.6318 C   0  0  0  0  0  0  0  0  0  0  0  0
   -3.6332   -2.0414    1.2658 H   0  0  0  0  0  0  0  0  0  0  0  0
   -3.3762   -2.6444   -0.3912 H   0  0  0  0  0  0  0  0  0  0  0  0
   -1.5882   -2.1554    0.6658 C   0  0  0  0  0  0  0  0  0  0  0  0
   -0.6832   -2.8764    1.0638 O   0  0  0  0  0  0  0  0  0  0  0  0
   -1.3952   -0.9084    0.2428 N   0  0  0  0  0  0  0  0  0  0  0  0
   -2.1972   -0.3644   -0.0422 H   0  0  0  0  0  0  0  0  0  0  0  0
   -0.1122   -0.1994    0.2658 C   0  0  1  0  0  0  0  0  0  0  0  0
    0.6131   -0.7748   -0.3153 H   0  0  0  0  0  0  0  0  0  0  0  0
   -0.2973    1.1841   -0.3966 C   0  0  0  0  0  0  0  0  0  0  0  0
   -1.2316    1.1899   -0.9569 H   0  0  0  0  0  0  0  0  0  0  0  0
   -0.3576    1.9477    0.3775 H   0  0  0  0  0  0  0  0  0  0  0  0
    0.8057    1.5536   -1.3753 C   0  0  0  0  0  0  0  0  0  0  0  0
    0.7586    1.2804   -2.5620 O   0  0  0  0  0  0  0  0  0  0  0  0
    1.8532    2.1867   -0.9059 N   0  0  0  0  0  0  0  0  0  0  0  0
    2.5577    2.4333   -1.5785 H   0  0  0  0  0  0  0  0  0  0  0  0
    1.9073    2.4397    0.0627 H   0  0  0  0  0  0  0  0  0  0  0  0
    0.4075   -0.0985    1.7169 C   0  0  0  0  0  0  0  0  0  0  0  0
    1.5860   -0.3526    1.9662 O   0  0  0  0  0  0  0  0  0  0  0  0
   -0.4625    0.2583    2.6666 N   0  0  0  0  0  0  0  0  0  0  0  0
   -1.4309    0.3754    2.3860 H   0  0  0  0  0  0  0  0  0  0  0  0
   -0.1275    0.4111    4.0813 C   0  0  0  0  0  0  0  0  0  0  0  0
    0.6862    1.1312    4.1910 H   0  0  0  0  0  0  0  0  0  0  0  0
   -0.9980    0.7641    4.6360 H   0  0  0  0  0  0  0  0  0  0  0  0
    0.1959   -0.5481    4.4891 H   0  0  0  0  0  0  0  0  0  0  0  0
  5  6  2  0  0  0  0
  5  7  1  0  0  0  0
  2  3  1  0  0  0  0
  2  4  1  0  0  0  0
  2  5  1  0  0  0  0
  1  2  1  0  0  0  0
 19 20  2  0  0  0  0
 19 21  1  0  0  0  0
 16 17  1  0  0  0  0
 16 18  1  0  0  0  0
 14 15  2  0  0  0  0
 14 16  1  0  0  0  0
 11 12  1  0  0  0  0
 11 13  1  0  0  0  0
 11 14  1  0  0  0  0
  9 10  1  0  0  0  0
  9 11  1  0  0  0  0
  9 19  1  0  0  0  0
  7  8  1  0  0  0  0
  7  9  1  0  0  0  0
 23 24  1  0  0  0  0
 23 25  1  0  0  0  0
 23 26  1  0  0  0  0
 21 22  1  0  0  0  0
 21 23  1  0  0  0  0
M  END
$$$$
default_name
  -OEChem-02102213163D

 26 25  0     1  0  0  0  0  0999 V2000
   -3.0232   -3.6924    1.0038 H   0  0  0  0  0  0  0  0  0  0  0  0
   -3.0082   -2.6684    0.6318 C   0  0  0  0  0  0  0  0  0  0  0  0
   -3.6332   -2.0414    1.2658 H   0  0  0  0  0  0  0  0  0  0  0  0
   -3.3762   -2.6444   -0.3912 H   0  0  0  0  0  0  0  0  0  0  0  0
   -1.5882   -2.1554    0.6658 C   0  0  0  0  0  0  0  0  0  0  0  0
   -0.6832   -2.8764    1.0638 O   0  0  0  0  0  0  0  0  0  0  0  0
   -1.3952   -0.9084    0.2428 N   0  0  0  0  0  0  0  0  0  0  0  0
   -2.1972   -0.3644   -0.0422 H   0  0  0  0  0  0  0  0  0  0  0  0
   -0.1122   -0.1994    0.2658 C   0  0  1  0  0  0  0  0  0  0  0  0
    0.6131   -0.7748   -0.3153 H   0  0  0  0  0  0  0  0  0  0  0  0
   -0.2973    1.1841   -0.3966 C   0  0  0  0  0  0  0  0  0  0  0  0
   -1.2316    1.1899   -0.9569 H   0  0  0  0  0  0  0  0  0  0  0  0
   -0.3576    1.9477    0.3775 H   0  0  0  0  0  0  0  0  0  0  0  0
    0.8057    1.5536   -1.3753 C   0  0  0  0  0  0  0  0  0  0  0  0
    0.6564    1.5259   -2.5845 O   0  0  0  0  0  0  0  0  0  0  0  0
    1.9676    1.9075   -0.8823 N   0  0  0  0  0  0  0  0  0  0  0  0
    2.6718    2.1630   -1.5520 H   0  0  0  0  0  0  0  0  0  0  0  0
    2.1101    1.9566    0.1089 H   0  0  0  0  0  0  0  0  0  0  0  0
    0.4075   -0.0985    1.7169 C   0  0  0  0  0  0  0  0  0  0  0  0
    1.5860   -0.3526    1.9662 O   0  0  0  0  0  0  0  0  0  0  0  0
   -0.4625    0.2583    2.6666 N   0  0  0  0  0  0  0  0  0  0  0  0
   -1.4309    0.3754    2.3860 H   0  0  0  0  0  0  0  0  0  0  0  0
   -0.1275    0.4111    4.0813 C   0  0  0  0  0  0  0  0  0  0  0  0
    0.6862    1.1312    4.1910 H   0  0  0  0  0  0  0  0  0  0  0  0
   -0.9980    0.7641    4.6360 H   0  0  0  0  0  0  0  0  0  0  0  0
    0.1959   -0.5481    4.4891 H   0  0  0  0  0  0  0  0  0  0  0  0
  5  6  2  0  0  0  0
  5  7  1  0  0  0  0
  2  3  1  0  0  0  0
  2  4  1  0  0  0  0
  2  5  1  0  0  0  0
  1  2  1  0  0  0  0
 19 20  2  0  0  0  0
 19 21  1  0  0  0  0
 16 17  1  0  0  0  0
 16 18  1  0  0  0  0
 14 15  2  0  0  0  0
 14 16  1  0  0  0  0
 11 12  1  0  0  0  0
 11 13  1  0  0  0  0
 11 14  1  0  0  0  0
  9 10  1  0  0  0  0
  9 11  1  0  0  0  0
  9 19  1  0  0  0  0
  7  8  1  0  0  0  0
  7  9  1  0  0  0  0
 23 24  1  0  0  0  0
 23 25  1  0  0  0  0
 23 26  1  0  0  0  0
 21 22  1  0  0  0  0
 21 23  1  0  0  0  0
M  END
$$$$
default_name
  -OEChem-02102213163D

 26 25  0     1  0  0  0  0  0999 V2000
   -3.0232   -3.6924    1.0038 H   0  0  0  0  0  0  0  0  0  0  0  0
   -3.0082   -2.6684    0.6318 C   0  0  0  0  0  0  0  0  0  0  0  0
   -3.6332   -2.0414    1.2658 H   0  0  0  0  0  0  0  0  0  0  0  0
   -3.3762   -2.6444   -0.3912 H   0  0  0  0  0  0  0  0  0  0  0  0
   -1.5882   -2.1554    0.6658 C   0  0  0  0  0  0  0  0  0  0  0  0
   -0.6832   -2.8764    1.0638 O   0  0  0  0  0  0  0  0  0  0  0  0
   -1.3952   -0.9084    0.2428 N   0  0  0  0  0  0  0  0  0  0  0  0
   -2.1972   -0.3644   -0.0422 H   0  0  0  0  0  0  0  0  0  0  0  0
   -0.1122   -0.1994    0.2658 C   0  0  1  0  0  0  0  0  0  0  0  0
    0.6131   -0.7748   -0.3153 H   0  0  0  0  0  0  0  0  0  0  0  0
   -0.2973    1.1841   -0.3966 C   0  0  0  0  0  0  0  0  0  0  0  0
   -1.2316    1.1899   -0.9569 H   0  0  0  0  0  0  0  0  0  0  0  0
   -0.3576    1.9477    0.3775 H   0  0  0  0  0  0  0  0  0  0  0  0
    0.8057    1.5536   -1.3753 C   0  0  0  0  0  0  0  0  0  0  0  0
    0.5972    1.7843   -2.5536 O   0  0  0  0  0  0  0  0  0  0  0  0
    2.0331    1.6143   -0.9191 N   0  0  0  0  0  0  0  0  0  0  0  0
    2.7386    1.8778   -1.5844 H   0  0  0  0  0  0  0  0  0  0  0  0
    2.2284    1.4476    0.0500 H   0  0  0  0  0  0  0  0  0  0  0  0
    0.4075   -0.0985    1.7169 C   0  0  0  0  0  0  0  0  0  0  0  0
    1.5860   -0.3526    1.9662 O   0  0  0  0  0  0  0  0  0  0  0  0
   -0.4625    0.2583    2.6666 N   0  0  0  0  0  0  0  0  0  0  0  0
   -1.4309    0.3754    2.3860 H   0  0  0  0  0  0  0  0  0  0  0  0
   -0.1275    0.4111    4.0813 C   0  0  0  0  0  0  0  0  0  0  0  0
    0.6862    1.1312    4.1910 H   0  0  0  0  0  0  0  0  0  0  0  0
   -0.9980    0.7641    4.6360 H   0  0  0  0  0  0  0  0  0  0  0  0
    0.1959   -0.5481    4.4891 H   0  0  0  0  0  0  0  0  0  0  0  0
  5  6  2  0  0  0  0
  5  7  1  0  0  0  0
  2  3  1  0  0  0  0
  2  4  1  0  0  0  0
  2  5  1  0  0  0  0
  1  2  1  0  0  0  0
 19 20  2  0  0  0  0
 19 21  1  0  0  0  0
 16 17  1  0  0  0  0
 16 18  1  0  0  0  0
 14 15  2  0  0  0  0
 14 16  1  0  0  0  0
 11 12  1  0  0  0  0
 11 13  1  0  0  0  0
 11 14  1  0  0  0  0
  9 10  1  0  0  0  0
  9 11  1  0  0  0  0
  9 19  1  0  0  0  0
  7  8  1  0  0  0  0
  7  9  1  0  0  0  0
 23 24  1  0  0  0  0
 23 25  1  0  0  0  0
 23 26  1  0  0  0  0
 21 22  1  0  0  0  0
 21 23  1  0  0  0  0
M  END
$$$$
default_name
  -OEChem-02102213163D

 26 25  0     1  0  0  0  0  0999 V2000
   -3.0232   -3.6924    1.0038 H   0  0  0  0  0  0  0  0  0  0  0  0
   -3.0082   -2.6684    0.6318 C   0  0  0  0  0  0  0  0  0  0  0  0
   -3.6332   -2.0414    1.2658 H   0  0  0  0  0  0  0  0  0  0  0  0
   -3.3762   -2.6444   -0.3912 H   0  0  0  0  0  0  0  0  0  0  0  0
   -1.5882   -2.1554    0.6658 C   0  0  0  0  0  0  0  0  0  0  0  0
   -0.6832   -2.8764    1.0638 O   0  0  0  0  0  0  0  0  0  0  0  0
   -1.3952   -0.9084    0.2428 N   0  0  0  0  0  0  0  0  0  0  0  0
   -2.1972   -0.3644   -0.0422 H   0  0  0  0  0  0  0  0  0  0  0  0
   -0.1122   -0.1994    0.2658 C   0  0  1  0  0  0  0  0  0  0  0  0
    0.6131   -0.7748   -0.3153 H   0  0  0  0  0  0  0  0  0  0  0  0
   -0.2973    1.1841   -0.3966 C   0  0  0  0  0  0  0  0  0  0  0  0
   -1.2316    1.1899   -0.9569 H   0  0  0  0  0  0  0  0  0  0  0  0
   -0.3576    1.9477    0.3775 H   0  0  0  0  0  0  0  0  0  0  0  0
    0.8057    1.5536   -1.3753 C   0  0  0  0  0  0  0  0  0  0  0  0
    0.5851    2.0379   -2.4716 O   0  0  0  0  0  0  0  0  0  0  0  0
    2.0453    1.3271   -1.0139 N   0  0  0  0  0  0  0  0  0  0  0  0
    2.7535    1.5974   -1.6734 H   0  0  0  0  0  0  0  0  0  0  0  0
    2.2541    0.9472   -0.1099 H   0  0  0  0  0  0  0  0  0  0  0  0
    0.4075   -0.0985    1.7169 C   0  0  0  0  0  0  0  0  0  0  0  0
    1.5860   -0.3526    1.9662 O   0  0  0  0  0  0  0  0  0  0  0  0
   -0.4625    0.2583    2.6666 N   0  0  0  0  0  0  0  0  0  0  0  0
   -1.4309    0.3754    2.3860 H   0  0  0  0  0  0  0  0  0  0  0  0
   -0.1275    0.4111    4.0813 C   0  0  0  0  0  0  0  0  0  0  0  0
    0.6862    1.1312    4.1910 H   0  0  0  0  0  0  0  0  0  0  0  0
   -0.9980    0.7641    4.6360 H   0  0  0  0  0  0  0  0  0  0  0  0
    0.1959   -0.5481    4.4891 H   0  0  0  0  0  0  0  0  0  0  0  0
  5  6  2  0  0  0  0
  5  7  1  0  0  0  0
  2  3  1  0  0  0  0
  2  4  1  0  0  0  0
  2  5  1  0  0  0  0
  1  2  1  0  0  0  0
 19 20  2  0  0  0  0
 19 21  1  0  0  0  0
 16 17  1  0  0  0  0
 16 18  1  0  0  0  0
 14 15  2  0  0  0  0
 14 16  1  0  0  0  0
 11 12  1  0  0  0  0
 11 13  1  0  0  0  0
 11 14  1  0  0  0  0
  9 10  1  0  0  0  0
  9 11  1  0  0  0  0
  9 19  1  0  0  0  0
  7  8  1  0  0  0  0
  7  9  1  0  0  0  0
 23 24  1  0  0  0  0
 23 25  1  0  0  0  0
 23 26  1  0  0  0  0
 21 22  1  0  0  0  0
 21 23  1  0  0  0  0
M  END
$$$$
default_name
  -OEChem-02102213163D

 26 25  0     1  0  0  0  0  0999 V2000
   -3.0232   -3.6924    1.0038 H   0  0  0  0  0  0  0  0  0  0  0  0
   -3.0082   -2.6684    0.6318 C   0  0  0  0  0  0  0  0  0  0  0  0
   -3.6332   -2.0414    1.2658 H   0  0  0  0  0  0  0  0  0  0  0  0
   -3.3762   -2.6444   -0.3912 H   0  0  0  0  0  0  0  0  0  0  0  0
   -1.5882   -2.1554    0.6658 C   0  0  0  0  0  0  0  0  0  0  0  0
   -0.6832   -2.8764    1.0638 O   0  0  0  0  0  0  0  0  0  0  0  0
   -1.3952   -0.9084    0.2428 N   0  0  0  0  0  0  0  0  0  0  0  0
   -2.1972   -0.3644   -0.0422 H   0  0  0  0  0  0  0  0  0  0  0  0
   -0.1122   -0.1994    0.2658 C   0  0  1  0  0  0  0  0  0  0  0  0
    0.6131   -0.7748   -0.3153 H   0  0  0  0  0  0  0  0  0  0  0  0
   -0.2973    1.1841   -0.3966 C   0  0  0  0  0  0  0  0  0  0  0  0
   -1.2316    1.1899   -0.9569 H   0  0  0  0  0  0  0  0  0  0  0  0
   -0.3576    1.9477    0.3775 H   0  0  0  0  0  0  0  0  0  0  0  0
    0.8057    1.5536   -1.3753 C   0  0  0  0  0  0  0  0  0  0  0  0
    0.6207    2.2696   -2.3439 O   0  0  0  0  0  0  0  0  0  0  0  0
    2.0032    1.0655   -1.1601 N   0  0  0  0  0  0  0  0  0  0  0  0
    2.7157    1.3407   -1.8130 H   0  0  0  0  0  0  0  0  0  0  0  0
    2.1855    0.4897   -0.3600 H   0  0  0  0  0  0  0  0  0  0  0  0
    0.4075   -0.0985    1.7169 C   0  0  0  0  0  0  0  0  0  0  0  0
    1.5860   -0.3526    1.9662 O   0  0  0  0  0  0  0  0  0  0  0  0
   -0.4625    0.2583    2.6666 N   0  0  0  0  0  0  0  0  0  0  0  0
   -1.4309    0.3754    2.3860 H   0  0  0  0  0  0  0  0  0  0  0  0
   -0.1275    0.4111    4.0813 C   0  0  0  0  0  0  0  0  0  0  0  0
    0.6862    1.1312    4.1910 H   0  0  0  0  0  0  0  0  0  0  0  0
   -0.9980    0.7641    4.6360 H   0  0  0  0  0  0  0  0  0  0  0  0
    0.1959   -0.5481    4.4891 H   0  0  0  0  0  0  0  0  0  0  0  0
  5  6  2  0  0  0  0
  5  7  1  0  0  0  0
  2  3  1  0  0  0  0
  2  4  1  0  0  0  0
  2  5  1  0  0  0  0
  1  2  1  0  0  0  0
 19 20  2  0  0  0  0
 19 21  1  0  0  0  0
 16 17  1  0  0  0  0
 16 18  1  0  0  0  0
 14 15  2  0  0  0  0
 14 16  1  0  0  0  0
 11 12  1  0  0  0  0
 11 13  1  0  0  0  0
 11 14  1  0  0  0  0
  9 10  1  0  0  0  0
  9 11  1  0  0  0  0
  9 19  1  0  0  0  0
  7  8  1  0  0  0  0
  7  9  1  0  0  0  0
 23 24  1  0  0  0  0
 23 25  1  0  0  0  0
 23 26  1  0  0  0  0
 21 22  1  0  0  0  0
 21 23  1  0  0  0  0
M  END
$$$$
default_name
  -OEChem-02102213163D

 26 25  0     1  0  0  0  0  0999 V2000
   -3.0232   -3.6924    1.0038 H   0  0  0  0  0  0  0  0  0  0  0  0
   -3.0082   -2.6684    0.6318 C   0  0  0  0  0  0  0  0  0  0  0  0
   -3.6332   -2.0414    1.2658 H   0  0  0  0  0  0  0  0  0  0  0  0
   -3.3762   -2.6444   -0.3912 H   0  0  0  0  0  0  0  0  0  0  0  0
   -1.5882   -2.1554    0.6658 C   0  0  0  0  0  0  0  0  0  0  0  0
   -0.6832   -2.8764    1.0638 O   0  0  0  0  0  0  0  0  0  0  0  0
   -1.3952   -0.9084    0.2428 N   0  0  0  0  0  0  0  0  0  0  0  0
   -2.1972   -0.3644   -0.0422 H   0  0  0  0  0  0  0  0  0  0  0  0
   -0.1122   -0.1994    0.2658 C   0  0  1  0  0  0  0  0  0  0  0  0
    0.6131   -0.7748   -0.3153 H   0  0  0  0  0  0  0  0  0  0  0  0
   -0.2973    1.1841   -0.3966 C   0  0  0  0  0  0  0  0  0  0  0  0
   -1.2316    1.1899   -0.9569 H   0  0  0  0  0  0  0  0  0  0  0  0
   -0.3576    1.9477    0.3775 H   0  0  0  0  0  0  0  0  0  0  0  0
    0.8057    1.5536   -1.3753 C   0  0  0  0  0  0  0  0  0  0  0  0
    0.7018    2.4634   -2.1794 O   0  0  0  0  0  0  0  0  0  0  0  0
    1.9097    0.8473   -1.3478 N   0  0  0  0  0  0  0  0  0  0  0  0
    2.6275    1.1253   -1.9936 H   0  0  0  0  0  0  0  0  0  0  0  0
    2.0273    0.1061   -0.6831 H   0  0  0  0  0  0  0  0  0  0  0  0
    0.4075   -0.0985    1.7169 C   0  0  0  0  0  0  0  0  0  0  0  0
    1.5860   -0.3526    1.9662 O   0  0  0  0  0  0  0  0  0  0  0  0
   -0.4625    0.2583    2.6666 N   0  0  0  0  0  0  0  0  0  0  0  0
   -1.4309    0.3754    2.3860 H   0  0  0  0  0  0  0  0  0  0  0  0
   -0.1275    0.4111    4.0813 C   0  0  0  0  0  0  0  0  0  0  0  0
    0.6862    1.1312    4.1910 H   0  0  0  0  0  0  0  0  0  0  0  0
   -0.9980    0.7641    4.6360 H   0  0  0  0  0  0  0  0  0  0  0  0
    0.1959   -0.5481    4.4891 H   0  0  0  0  0  0  0  0  0  0  0  0
  5  6  2  0  0  0  0
  5  7  1  0  0  0  0
  2  3  1  0  0  0  0
  2  4  1  0  0  0  0
  2  5  1  0  0  0  0
  1  2  1  0  0  0  0
 19 20  2  0  0  0  0
 19 21  1  0  0  0  0
 16 17  1  0  0  0  0
 16 18  1  0  0  0  0
 14 15  2  0  0  0  0
 14 16  1  0  0  0  0
 11 12  1  0  0  0  0
 11 13  1  0  0  0  0
 11 14  1  0  0  0  0
  9 10  1  0  0  0  0
  9 11  1  0  0  0  0
  9 19  1  0  0  0  0
  7  8  1  0  0  0  0
  7  9  1  0  0  0  0
 23 24  1  0  0  0  0
 23 25  1  0  0  0  0
 23 26  1  0  0  0  0
 21 22  1  0  0  0  0
 21 23  1  0  0  0  0
M  END
$$$$
default_name
  -OEChem-02102213163D

 26 25  0     1  0  0  0  0  0999 V2000
   -3.0232   -3.6924    1.0038 H   0  0  0  0  0  0  0  0  0  0  0  0
   -3.0082   -2.6684    0.6318 C   0  0  0  0  0  0  0  0  0  0  0  0
   -3.6332   -2.0414    1.2658 H   0  0  0  0  0  0  0  0  0  0  0  0
   -3.3762   -2.6444   -0.3912 H   0  0  0  0  0  0  0  0  0  0  0  0
   -1.5882   -2.1554    0.6658 C   0  0  0  0  0  0  0  0  0  0  0  0
   -0.6832   -2.8764    1.0638 O   0  0  0  0  0  0  0  0  0  0  0  0
   -1.3952   -0.9084    0.2428 N   0  0  0  0  0  0  0  0  0  0  0  0
   -2.1972   -0.3644   -0.0422 H   0  0  0  0  0  0  0  0  0  0  0  0
   -0.1122   -0.1994    0.2658 C   0  0  1  0  0  0  0  0  0  0  0  0
    0.6131   -0.7748   -0.3153 H   0  0  0  0  0  0  0  0  0  0  0  0
   -0.2973    1.1841   -0.3966 C   0  0  0  0  0  0  0  0  0  0  0  0
   -1.3304    1.2869   -0.7267 H   0  0  0  0  0  0  0  0  0  0  0  0
   -0.0928    1.9633    0.3361 H   0  0  0  0  0  0  0  0  0  0  0  0
    0.5798    1.4071   -1.6180 C   0  0  0  0  0  0  0  0  0  0  0  0
    0.5659    2.4397   -2.2652 O   0  0  0  0  0  0  0  0  0  0  0  0
    1.3758    0.4326   -1.9857 N   0  0  0  0  0  0  0  0  0  0  0  0
    1.9561    0.6149   -2.7855 H   0  0  0  0  0  0  0  0  0  0  0  0
    1.4197   -0.4193   -1.4591 H   0  0  0  0  0  0  0  0  0  0  0  0
    0.4075   -0.0985    1.7169 C   0  0  0  0  0  0  0  0  0  0  0  0
    1.5860   -0.3526    1.9662 O   0  0  0  0  0  0  0  0  0  0  0  0
   -0.4625    0.2583    2.6666 N   0  0  0  0  0  0  0  0  0  0  0  0
   -1.4309    0.3754    2.3860 H   0  0  0  0  0  0  0  0  0  0  0  0
   -0.1275    0.4111    4.0813 C   0  0  0  0  0  0  0  0  0  0  0  0
    0.6862    1.1312    4.1910 H   0  0  0  0  0  0  0  0  0  0  0  0
   -0.9980    0.7641    4.6360 H   0  0  0  0  0  0  0  0  0  0  0  0
    0.1959   -0.5481    4.4891 H   0  0  0  0  0  0  0  0  0  0  0  0
  5  6  2  0  0  0  0
  5  7  1  0  0  0  0
  2  3  1  0  0  0  0
  2  4  1  0  0  0  0
  2  5  1  0  0  0  0
  1  2  1  0  0  0  0
 19 20  2  0  0  0  0
 19 21  1  0  0  0  0
 16 17  1  0  0  0  0
 16 18  1  0  0  0  0
 14 15  2  0  0  0  0
 14 16  1  0  0  0  0
 11 12  1  0  0  0  0
 11 13  1  0  0  0  0
 11 14  1  0  0  0  0
  9 10  1  0  0  0  0
  9 11  1  0  0  0  0
  9 19  1  0  0  0  0
  7  8  1  0  0  0  0
  7  9  1  0  0  0  0
 23 24  1  0  0  0  0
 23 25  1  0  0  0  0
 23 26  1  0  0  0  0
 21 22  1  0  0  0  0
 21 23  1  0  0  0  0
M  END
$$$$
default_name
  -OEChem-02102213163D

 26 25  0     1  0  0  0  0  0999 V2000
   -3.0232   -3.6924    1.0038 H   0  0  0  0  0  0  0  0  0  0  0  0
   -3.0082   -2.6684    0.6318 C   0  0  0  0  0  0  0  0  0  0  0  0
   -3.6332   -2.0414    1.2658 H   0  0  0  0  0  0  0  0  0  0  0  0
   -3.3762   -2.6444   -0.3912 H   0  0  0  0  0  0  0  0  0  0  0  0
   -1.5882   -2.1554    0.6658 C   0  0  0  0  0  0  0  0  0  0  0  0
   -0.6832   -2.8764    1.0638 O   0  0  0  0  0  0  0  0  0  0  0  0
   -1.3952   -0.9084    0.2428 N   0  0  0  0  0  0  0  0  0  0  0  0
   -2.1972   -0.3644   -0.0422 H   0  0  0  0  0  0  0  0  0  0  0  0
   -0.1122   -0.1994    0.2658 C   0  0  1  0  0  0  0  0  0  0  0  0
    0.6131   -0.7748   -0.3153 H   0  0  0  0  0  0  0  0  0  0  0  0
   -0.2973    1.1841   -0.3966 C   0  0  0  0  0  0  0  0  0  0  0  0
   -1.3304    1.2869   -0.7267 H   0  0  0  0  0  0  0  0  0  0  0  0
   -0.0928    1.9633    0.3361 H   0  0  0  0  0  0  0  0  0  0  0  0
    0.5798    1.4071   -1.6180 C   0  0  0  0  0  0  0  0  0  0  0  0
    0.7696    2.5074   -2.1065 O   0  0  0  0  0  0  0  0  0  0  0  0
    1.1441    0.3583   -2.1656 N   0  0  0  0  0  0  0  0  0  0  0  0
    1.7319    0.5381   -2.9605 H   0  0  0  0  0  0  0  0  0  0  0  0
    1.0191   -0.5550   -1.7715 H   0  0  0  0  0  0  0  0  0  0  0  0
    0.4075   -0.0985    1.7169 C   0  0  0  0  0  0  0  0  0  0  0  0
    1.5860   -0.3526    1.9662 O   0  0  0  0  0  0  0  0  0  0  0  0
   -0.4625    0.2583    2.6666 N   0  0  0  0  0  0  0  0  0  0  0  0
   -1.4309    0.3754    2.3860 H   0  0  0  0  0  0  0  0  0  0  0  0
   -0.1275    0.4111    4.0813 C   0  0  0  0  0  0  0  0  0  0  0  0
    0.6862    1.1312    4.1910 H   0  0  0  0  0  0  0  0  0  0  0  0
   -0.9980    0.7641    4.6360 H   0  0  0  0  0  0  0  0  0  0  0  0
    0.1959   -0.5481    4.4891 H   0  0  0  0  0  0  0  0  0  0  0  0
  5  6  2  0  0  0  0
  5  7  1  0  0  0  0
  2  3  1  0  0  0  0
  2  4  1  0  0  0  0
  2  5  1  0  0  0  0
  1  2  1  0  0  0  0
 19 20  2  0  0  0  0
 19 21  1  0  0  0  0
 16 17  1  0  0  0  0
 16 18  1  0  0  0  0
 14 15  2  0  0  0  0
 14 16  1  0  0  0  0
 11 12  1  0  0  0  0
 11 13  1  0  0  0  0
 11 14  1  0  0  0  0
  9 10  1  0  0  0  0
  9 11  1  0  0  0  0
  9 19  1  0  0  0  0
  7  8  1  0  0  0  0
  7  9  1  0  0  0  0
 23 24  1  0  0  0  0
 23 25  1  0  0  0  0
 23 26  1  0  0  0  0
 21 22  1  0  0  0  0
 21 23  1  0  0  0  0
M  END
$$$$
default_name
  -OEChem-02102213163D

 26 25  0     1  0  0  0  0  0999 V2000
   -3.0232   -3.6924    1.0038 H   0  0  0  0  0  0  0  0  0  0  0  0
   -3.0082   -2.6684    0.6318 C   0  0  0  0  0  0  0  0  0  0  0  0
   -3.6332   -2.0414    1.2658 H   0  0  0  0  0  0  0  0  0  0  0  0
   -3.3762   -2.6444   -0.3912 H   0  0  0  0  0  0  0  0  0  0  0  0
   -1.5882   -2.1554    0.6658 C   0  0  0  0  0  0  0  0  0  0  0  0
   -0.6832   -2.8764    1.0638 O   0  0  0  0  0  0  0  0  0  0  0  0
   -1.3952   -0.9084    0.2428 N   0  0  0  0  0  0  0  0  0  0  0  0
   -2.1972   -0.3644   -0.0422 H   0  0  0  0  0  0  0  0  0  0  0  0
   -0.1122   -0.1994    0.2658 C   0  0  1  0  0  0  0  0  0  0  0  0
    0.6131   -0.7748   -0.3153 H   0  0  0  0  0  0  0  0  0  0  0  0
   -0.2973    1.1841   -0.3966 C   0  0  0  0  0  0  0  0  0  0  0  0
   -1.3304    1.2869   -0.7267 H   0  0  0  0  0  0  0  0  0  0  0  0
   -0.0928    1.9633    0.3361 H   0  0  0  0  0  0  0  0  0  0  0  0
    0.5798    1.4071   -1.6180 C   0  0  0  0  0  0  0  0  0  0  0  0
    0.9864    2.5067   -1.9510 O   0  0  0  0  0  0  0  0  0  0  0  0
    0.8980    0.3615   -2.3418 N   0  0  0  0  0  0  0  0  0  0  0  0
    1.4928    0.5366   -3.1325 H   0  0  0  0  0  0  0  0  0  0  0  0
    0.5920   -0.5562   -2.0784 H   0  0  0  0  0  0  0  0  0  0  0  0
    0.4075   -0.0985    1.7169 C   0  0  0  0  0  0  0  0  0  0  0  0
    1.5860   -0.3526    1.9662 O   0  0  0  0  0  0  0  0  0  0  0  0
   -0.4625    0.2583    2.6666 N   0  0  0  0  0  0  0  0  0  0  0  0
   -1.4309    0.3754    2.3860 H   0  0  0  0  0  0  0  0  0  0  0  0
   -0.1275    0.4111    4.0813 C   0  0  0  0  0  0  0  0  0  0  0  0
    0.6862    1.1312    4.1910 H   0  0  0  0  0  0  0  0  0  0  0  0
   -0.9980    0.7641    4.6360 H   0  0  0  0  0  0  0  0  0  0  0  0
    0.1959   -0.5481    4.4891 H   0  0  0  0  0  0  0  0  0  0  0  0
  5  6  2  0  0  0  0
  5  7  1  0  0  0  0
  2  3  1  0  0  0  0
  2  4  1  0  0  0  0
  2  5  1  0  0  0  0
  1  2  1  0  0  0  0
 19 20  2  0  0  0  0
 19 21  1  0  0  0  0
 16 17  1  0  0  0  0
 16 18  1  0  0  0  0
 14 15  2  0  0  0  0
 14 16  1  0  0  0  0
 11 12  1  0  0  0  0
 11 13  1  0  0  0  0
 11 14  1  0  0  0  0
  9 10  1  0  0  0  0
  9 11  1  0  0  0  0
  9 19  1  0  0  0  0
  7  8  1  0  0  0  0
  7  9  1  0  0  0  0
 23 24  1  0  0  0  0
 23 25  1  0  0  0  0
 23 26  1  0  0  0  0
 21 22  1  0  0  0  0
 21 23  1  0  0  0  0
M  END
$$$$
default_name
  -OEChem-02102213163D

 26 25  0     1  0  0  0  0  0999 V2000
   -3.0232   -3.6924    1.0038 H   0  0  0  0  0  0  0  0  0  0  0  0
   -3.0082   -2.6684    0.6318 C   0  0  0  0  0  0  0  0  0  0  0  0
   -3.6332   -2.0414    1.2658 H   0  0  0  0  0  0  0  0  0  0  0  0
   -3.3762   -2.6444   -0.3912 H   0  0  0  0  0  0  0  0  0  0  0  0
   -1.5882   -2.1554    0.6658 C   0  0  0  0  0  0  0  0  0  0  0  0
   -0.6832   -2.8764    1.0638 O   0  0  0  0  0  0  0  0  0  0  0  0
   -1.3952   -0.9084    0.2428 N   0  0  0  0  0  0  0  0  0  0  0  0
   -2.1972   -0.3644   -0.0422 H   0  0  0  0  0  0  0  0  0  0  0  0
   -0.1122   -0.1994    0.2658 C   0  0  1  0  0  0  0  0  0  0  0  0
    0.6131   -0.7748   -0.3153 H   0  0  0  0  0  0  0  0  0  0  0  0
   -0.2973    1.1841   -0.3966 C   0  0  0  0  0  0  0  0  0  0  0  0
   -1.3304    1.2869   -0.7267 H   0  0  0  0  0  0  0  0  0  0  0  0
   -0.0928    1.9633    0.3361 H   0  0  0  0  0  0  0  0  0  0  0  0
    0.5798    1.4071   -1.6180 C   0  0  0  0  0  0  0  0  0  0  0  0
    1.2016    2.4377   -1.8090 O   0  0  0  0  0  0  0  0  0  0  0  0
    0.6543    0.4421   -2.5021 N   0  0  0  0  0  0  0  0  0  0  0  0
    1.2549    0.6107   -3.2898 H   0  0  0  0  0  0  0  0  0  0  0  0
    0.1676   -0.4226   -2.3588 H   0  0  0  0  0  0  0  0  0  0  0  0
    0.4075   -0.0985    1.7169 C   0  0  0  0  0  0  0  0  0  0  0  0
    1.5860   -0.3526    1.9662 O   0  0  0  0  0  0  0  0  0  0  0  0
   -0.4625    0.2583    2.6666 N   0  0  0  0  0  0  0  0  0  0  0  0
   -1.4309    0.3754    2.3860 H   0  0  0  0  0  0  0  0  0  0  0  0
   -0.1275    0.4111    4.0813 C   0  0  0  0  0  0  0  0  0  0  0  0
    0.6862    1.1312    4.1910 H   0  0  0  0  0  0  0  0  0  0  0  0
   -0.9980    0.7641    4.6360 H   0  0  0  0  0  0  0  0  0  0  0  0
    0.1959   -0.5481    4.4891 H   0  0  0  0  0  0  0  0  0  0  0  0
  5  6  2  0  0  0  0
  5  7  1  0  0  0  0
  2  3  1  0  0  0  0
  2  4  1  0  0  0  0
  2  5  1  0  0  0  0
  1  2  1  0  0  0  0
 19 20  2  0  0  0  0
 19 21  1  0  0  0  0
 16 17  1  0  0  0  0
 16 18  1  0  0  0  0
 14 15  2  0  0  0  0
 14 16  1  0  0  0  0
 11 12  1  0  0  0  0
 11 13  1  0  0  0  0
 11 14  1  0  0  0  0
  9 10  1  0  0  0  0
  9 11  1  0  0  0  0
  9 19  1  0  0  0  0
  7  8  1  0  0  0  0
  7  9  1  0  0  0  0
 23 24  1  0  0  0  0
 23 25  1  0  0  0  0
 23 26  1  0  0  0  0
 21 22  1  0  0  0  0
 21 23  1  0  0  0  0
M  END
$$$$
default_name
  -OEChem-02102213163D

 26 25  0     1  0  0  0  0  0999 V2000
   -3.0232   -3.6924    1.0038 H   0  0  0  0  0  0  0  0  0  0  0  0
   -3.0082   -2.6684    0.6318 C   0  0  0  0  0  0  0  0  0  0  0  0
   -3.6332   -2.0414    1.2658 H   0  0  0  0  0  0  0  0  0  0  0  0
   -3.3762   -2.6444   -0.3912 H   0  0  0  0  0  0  0  0  0  0  0  0
   -1.5882   -2.1554    0.6658 C   0  0  0  0  0  0  0  0  0  0  0  0
   -0.6832   -2.8764    1.0638 O   0  0  0  0  0  0  0  0  0  0  0  0
   -1.3952   -0.9084    0.2428 N   0  0  0  0  0  0  0  0  0  0  0  0
   -2.1972   -0.3644   -0.0422 H   0  0  0  0  0  0  0  0  0  0  0  0
   -0.1122   -0.1994    0.2658 C   0  0  1  0  0  0  0  0  0  0  0  0
    0.6131   -0.7748   -0.3153 H   0  0  0  0  0  0  0  0  0  0  0  0
   -0.2973    1.1841   -0.3966 C   0  0  0  0  0  0  0  0  0  0  0  0
   -1.3304    1.2869   -0.7267 H   0  0  0  0  0  0  0  0  0  0  0  0
   -0.0928    1.9633    0.3361 H   0  0  0  0  0  0  0  0  0  0  0  0
    0.5798    1.4071   -1.6180 C   0  0  0  0  0  0  0  0  0  0  0  0
    1.4005    2.3051   -1.6904 O   0  0  0  0  0  0  0  0  0  0  0  0
    0.4295    0.5945   -2.6356 N   0  0  0  0  0  0  0  0  0  0  0  0
    1.0346    0.7551   -3.4216 H   0  0  0  0  0  0  0  0  0  0  0  0
   -0.2252   -0.1635   -2.5936 H   0  0  0  0  0  0  0  0  0  0  0  0
    0.4075   -0.0985    1.7169 C   0  0  0  0  0  0  0  0  0  0  0  0
    1.5860   -0.3526    1.9662 O   0  0  0  0  0  0  0  0  0  0  0  0
   -0.4625    0.2583    2.6666 N   0  0  0  0  0  0  0  0  0  0  0  0
   -1.4309    0.3754    2.3860 H   0  0  0  0  0  0  0  0  0  0  0  0
   -0.1275    0.4111    4.0813 C   0  0  0  0  0  0  0  0  0  0  0  0
    0.6862    1.1312    4.1910 H   0  0  0  0  0  0  0  0  0  0  0  0
   -0.9980    0.7641    4.6360 H   0  0  0  0  0  0  0  0  0  0  0  0
    0.1959   -0.5481    4.4891 H   0  0  0  0  0  0  0  0  0  0  0  0
  5  6  2  0  0  0  0
  5  7  1  0  0  0  0
  2  3  1  0  0  0  0
  2  4  1  0  0  0  0
  2  5  1  0  0  0  0
  1  2  1  0  0  0  0
 19 20  2  0  0  0  0
 19 21  1  0  0  0  0
 16 17  1  0  0  0  0
 16 18  1  0  0  0  0
 14 15  2  0  0  0  0
 14 16  1  0  0  0  0
 11 12  1  0  0  0  0
 11 13  1  0  0  0  0
 11 14  1  0  0  0  0
  9 10  1  0  0  0  0
  9 11  1  0  0  0  0
  9 19  1  0  0  0  0
  7  8  1  0  0  0  0
  7  9  1  0  0  0  0
 23 24  1  0  0  0  0
 23 25  1  0  0  0  0
 23 26  1  0  0  0  0
 21 22  1  0  0  0  0
 21 23  1  0  0  0  0
M  END
$$$$
default_name
  -OEChem-02102213163D

 26 25  0     1  0  0  0  0  0999 V2000
   -3.0232   -3.6924    1.0038 H   0  0  0  0  0  0  0  0  0  0  0  0
   -3.0082   -2.6684    0.6318 C   0  0  0  0  0  0  0  0  0  0  0  0
   -3.6332   -2.0414    1.2658 H   0  0  0  0  0  0  0  0  0  0  0  0
   -3.3762   -2.6444   -0.3912 H   0  0  0  0  0  0  0  0  0  0  0  0
   -1.5882   -2.1554    0.6658 C   0  0  0  0  0  0  0  0  0  0  0  0
   -0.6832   -2.8764    1.0638 O   0  0  0  0  0  0  0  0  0  0  0  0
   -1.3952   -0.9084    0.2428 N   0  0  0  0  0  0  0  0  0  0  0  0
   -2.1972   -0.3644   -0.0422 H   0  0  0  0  0  0  0  0  0  0  0  0
   -0.1122   -0.1994    0.2658 C   0  0  1  0  0  0  0  0  0  0  0  0
    0.6131   -0.7748   -0.3153 H   0  0  0  0  0  0  0  0  0  0  0  0
   -0.2973    1.1841   -0.3966 C   0  0  0  0  0  0  0  0  0  0  0  0
   -1.3304    1.2869   -0.7267 H   0  0  0  0  0  0  0  0  0  0  0  0
   -0.0928    1.9633    0.3361 H   0  0  0  0  0  0  0  0  0  0  0  0
    0.5798    1.4071   -1.6180 C   0  0  0  0  0  0  0  0  0  0  0  0
    1.5696    2.1179   -1.6031 O   0  0  0  0  0  0  0  0  0  0  0  0
    0.2391    0.8085   -2.7334 N   0  0  0  0  0  0  0  0  0  0  0  0
    0.8468    0.9602   -3.5190 H   0  0  0  0  0  0  0  0  0  0  0  0
   -0.5597    0.2036   -2.7668 H   0  0  0  0  0  0  0  0  0  0  0  0
    0.4075   -0.0985    1.7169 C   0  0  0  0  0  0  0  0  0  0  0  0
    1.5860   -0.3526    1.9662 O   0  0  0  0  0  0  0  0  0  0  0  0
   -0.4625    0.2583    2.6666 N   0  0  0  0  0  0  0  0  0  0  0  0
   -1.4309    0.3754    2.3860 H   0  0  0  0  0  0  0  0  0  0  0  0
   -0.1275    0.4111    4.0813 C   0  0  0  0  0  0  0  0  0  0  0  0
    0.6862    1.1312    4.1910 H   0  0  0  0  0  0  0  0  0  0  0  0
   -0.9980    0.7641    4.6360 H   0  0  0  0  0  0  0  0  0  0  0  0
    0.1959   -0.5481    4.4891 H   0  0  0  0  0  0  0  0  0  0  0  0
  5  6  2  0  0  0  0
  5  7  1  0  0  0  0
  2  3  1  0  0  0  0
  2  4  1  0  0  0  0
  2  5  1  0  0  0  0
  1  2  1  0  0  0  0
 19 20  2  0  0  0  0
 19 21  1  0  0  0  0
 16 17  1  0  0  0  0
 16 18  1  0  0  0  0
 14 15  2  0  0  0  0
 14 16  1  0  0  0  0
 11 12  1  0  0  0  0
 11 13  1  0  0  0  0
 11 14  1  0  0  0  0
  9 10  1  0  0  0  0
  9 11  1  0  0  0  0
  9 19  1  0  0  0  0
  7  8  1  0  0  0  0
  7  9  1  0  0  0  0
 23 24  1  0  0  0  0
 23 25  1  0  0  0  0
 23 26  1  0  0  0  0
 21 22  1  0  0  0  0
 21 23  1  0  0  0  0
M  END
$$$$
default_name
  -OEChem-02102213163D

 26 25  0     1  0  0  0  0  0999 V2000
   -3.0232   -3.6924    1.0038 H   0  0  0  0  0  0  0  0  0  0  0  0
   -3.0082   -2.6684    0.6318 C   0  0  0  0  0  0  0  0  0  0  0  0
   -3.6332   -2.0414    1.2658 H   0  0  0  0  0  0  0  0  0  0  0  0
   -3.3762   -2.6444   -0.3912 H   0  0  0  0  0  0  0  0  0  0  0  0
   -1.5882   -2.1554    0.6658 C   0  0  0  0  0  0  0  0  0  0  0  0
   -0.6832   -2.8764    1.0638 O   0  0  0  0  0  0  0  0  0  0  0  0
   -1.3952   -0.9084    0.2428 N   0  0  0  0  0  0  0  0  0  0  0  0
   -2.1972   -0.3644   -0.0422 H   0  0  0  0  0  0  0  0  0  0  0  0
   -0.1122   -0.1994    0.2658 C   0  0  1  0  0  0  0  0  0  0  0  0
    0.6131   -0.7748   -0.3153 H   0  0  0  0  0  0  0  0  0  0  0  0
   -0.2973    1.1841   -0.3966 C   0  0  0  0  0  0  0  0  0  0  0  0
   -1.3304    1.2869   -0.7267 H   0  0  0  0  0  0  0  0  0  0  0  0
   -0.0928    1.9633    0.3361 H   0  0  0  0  0  0  0  0  0  0  0  0
    0.5798    1.4071   -1.6180 C   0  0  0  0  0  0  0  0  0  0  0  0
    1.6973    1.8890   -1.5532 O   0  0  0  0  0  0  0  0  0  0  0  0
    0.0959    1.0694   -2.7885 N   0  0  0  0  0  0  0  0  0  0  0  0
    0.7044    1.2118   -3.5754 H   0  0  0  0  0  0  0  0  0  0  0  0
   -0.8130    0.6535   -2.8665 H   0  0  0  0  0  0  0  0  0  0  0  0
    0.4075   -0.0985    1.7169 C   0  0  0  0  0  0  0  0  0  0  0  0
    1.5860   -0.3526    1.9662 O   0  0  0  0  0  0  0  0  0  0  0  0
   -0.4625    0.2583    2.6666 N   0  0  0  0  0  0  0  0  0  0  0  0
   -1.4309    0.3754    2.3860 H   0  0  0  0  0  0  0  0  0  0  0  0
   -0.1275    0.4111    4.0813 C   0  0  0  0  0  0  0  0  0  0  0  0
    0.6862    1.1312    4.1910 H   0  0  0  0  0  0  0  0  0  0  0  0
   -0.9980    0.7641    4.6360 H   0  0  0  0  0  0  0  0  0  0  0  0
    0.1959   -0.5481    4.4891 H   0  0  0  0  0  0  0  0  0  0  0  0
  5  6  2  0  0  0  0
  5  7  1  0  0  0  0
  2  3  1  0  0  0  0
  2  4  1  0  0  0  0
  2  5  1  0  0  0  0
  1  2  1  0  0  0  0
 19 20  2  0  0  0  0
 19 21  1  0  0  0  0
 16 17  1  0  0  0  0
 16 18  1  0  0  0  0
 14 15  2  0  0  0  0
 14 16  1  0  0  0  0
 11 12  1  0  0  0  0
 11 13  1  0  0  0  0
 11 14  1  0  0  0  0
  9 10  1  0  0  0  0
  9 11  1  0  0  0  0
  9 19  1  0  0  0  0
  7  8  1  0  0  0  0
  7  9  1  0  0  0  0
 23 24  1  0  0  0  0
 23 25  1  0  0  0  0
 23 26  1  0  0  0  0
 21 22  1  0  0  0  0
 21 23  1  0  0  0  0
M  END
$$$$
default_name
  -OEChem-02102213163D

 26 25  0     1  0  0  0  0  0999 V2000
   -3.0232   -3.6924    1.0038 H   0  0  0  0  0  0  0  0  0  0  0  0
   -3.0082   -2.6684    0.6318 C   0  0  0  0  0  0  0  0  0  0  0  0
   -3.6332   -2.0414    1.2658 H   0  0  0  0  0  0  0  0  0  0  0  0
   -3.3762   -2.6444   -0.3912 H   0  0  0  0  0  0  0  0  0  0  0  0
   -1.5882   -2.1554    0.6658 C   0  0  0  0  0  0  0  0  0  0  0  0
   -0.6832   -2.8764    1.0638 O   0  0  0  0  0  0  0  0  0  0  0  0
   -1.3952   -0.9084    0.2428 N   0  0  0  0  0  0  0  0  0  0  0  0
   -2.1972   -0.3644   -0.0422 H   0  0  0  0  0  0  0  0  0  0  0  0
   -0.1122   -0.1994    0.2658 C   0  0  1  0  0  0  0  0  0  0  0  0
    0.6131   -0.7748   -0.3153 H   0  0  0  0  0  0  0  0  0  0  0  0
   -0.2973    1.1841   -0.3966 C   0  0  0  0  0  0  0  0  0  0  0  0
   -1.3304    1.2869   -0.7267 H   0  0  0  0  0  0  0  0  0  0  0  0
   -0.0928    1.9633    0.3361 H   0  0  0  0  0  0  0  0  0  0  0  0
    0.5798    1.4071   -1.6180 C   0  0  0  0  0  0  0  0  0  0  0  0
    1.7749    1.6338   -1.5441 O   0  0  0  0  0  0  0  0  0  0  0  0
    0.0097    1.3594   -2.7975 N   0  0  0  0  0  0  0  0  0  0  0  0
    0.6170    1.4930   -3.5868 H   0  0  0  0  0  0  0  0  0  0  0  0
   -0.9679    1.1557   -2.8861 H   0  0  0  0  0  0  0  0  0  0  0  0
    0.4075   -0.0985    1.7169 C   0  0  0  0  0  0  0  0  0  0  0  0
    1.5860   -0.3526    1.9662 O   0  0  0  0  0  0  0  0  0  0  0  0
   -0.4625    0.2583    2.6666 N   0  0  0  0  0  0  0  0  0  0  0  0
   -1.4309    0.3754    2.3860 H   0  0  0  0  0  0  0  0  0  0  0  0
   -0.1275    0.4111    4.0813 C   0  0  0  0  0  0  0  0  0  0  0  0
    0.6862    1.1312    4.1910 H   0  0  0  0  0  0  0  0  0  0  0  0
   -0.9980    0.7641    4.6360 H   0  0  0  0  0  0  0  0  0  0  0  0
    0.1959   -0.5481    4.4891 H   0  0  0  0  0  0  0  0  0  0  0  0
  5  6  2  0  0  0  0
  5  7  1  0  0  0  0
  2  3  1  0  0  0  0
  2  4  1  0  0  0  0
  2  5  1  0  0  0  0
  1  2  1  0  0  0  0
 19 20  2  0  0  0  0
 19 21  1  0  0  0  0
 16 17  1  0  0  0  0
 16 18  1  0  0  0  0
 14 15  2  0  0  0  0
 14 16  1  0  0  0  0
 11 12  1  0  0  0  0
 11 13  1  0  0  0  0
 11 14  1  0  0  0  0
  9 10  1  0  0  0  0
  9 11  1  0  0  0  0
  9 19  1  0  0  0  0
  7  8  1  0  0  0  0
  7  9  1  0  0  0  0
 23 24  1  0  0  0  0
 23 25  1  0  0  0  0
 23 26  1  0  0  0  0
 21 22  1  0  0  0  0
 21 23  1  0  0  0  0
M  END
$$$$
default_name
  -OEChem-02102213163D

 26 25  0     1  0  0  0  0  0999 V2000
   -3.0232   -3.6924    1.0038 H   0  0  0  0  0  0  0  0  0  0  0  0
   -3.0082   -2.6684    0.6318 C   0  0  0  0  0  0  0  0  0  0  0  0
   -3.6332   -2.0414    1.2658 H   0  0  0  0  0  0  0  0  0  0  0  0
   -3.3762   -2.6444   -0.3912 H   0  0  0  0  0  0  0  0  0  0  0  0
   -1.5882   -2.1554    0.6658 C   0  0  0  0  0  0  0  0  0  0  0  0
   -0.6832   -2.8764    1.0638 O   0  0  0  0  0  0  0  0  0  0  0  0
   -1.3952   -0.9084    0.2428 N   0  0  0  0  0  0  0  0  0  0  0  0
   -2.1972   -0.3644   -0.0422 H   0  0  0  0  0  0  0  0  0  0  0  0
   -0.1122   -0.1994    0.2658 C   0  0  1  0  0  0  0  0  0  0  0  0
    0.6131   -0.7748   -0.3153 H   0  0  0  0  0  0  0  0  0  0  0  0
   -0.2973    1.1841   -0.3966 C   0  0  0  0  0  0  0  0  0  0  0  0
   -1.3304    1.2869   -0.7267 H   0  0  0  0  0  0  0  0  0  0  0  0
   -0.0928    1.9633    0.3361 H   0  0  0  0  0  0  0  0  0  0  0  0
    0.5798    1.4071   -1.6180 C   0  0  0  0  0  0  0  0  0  0  0  0
    1.7972    1.3698   -1.5763 O   0  0  0  0  0  0  0  0  0  0  0  0
   -0.0135    1.6587   -2.7595 N   0  0  0  0  0  0  0  0  0  0  0  0
    0.5906    1.7844   -3.5525 H   0  0  0  0  0  0  0  0  0  0  0  0
   -1.0138    1.6760   -2.8241 H   0  0  0  0  0  0  0  0  0  0  0  0
    0.4075   -0.0985    1.7169 C   0  0  0  0  0  0  0  0  0  0  0  0
    1.5860   -0.3526    1.9662 O   0  0  0  0  0  0  0  0  0  0  0  0
   -0.4625    0.2583    2.6666 N   0  0  0  0  0  0  0  0  0  0  0  0
   -1.4309    0.3754    2.3860 H   0  0  0  0  0  0  0  0  0  0  0  0
   -0.1275    0.4111    4.0813 C   0  0  0  0  0  0  0  0  0  0  0  0
    0.6862    1.1312    4.1910 H   0  0  0  0  0  0  0  0  0  0  0  0
   -0.9980    0.7641    4.6360 H   0  0  0  0  0  0  0  0  0  0  0  0
    0.1959   -0.5481    4.4891 H   0  0  0  0  0  0  0  0  0  0  0  0
  5  6  2  0  0  0  0
  5  7  1  0  0  0  0
  2  3  1  0  0  0  0
  2  4  1  0  0  0  0
  2  5  1  0  0  0  0
  1  2  1  0  0  0  0
 19 20  2  0  0  0  0
 19 21  1  0  0  0  0
 16 17  1  0  0  0  0
 16 18  1  0  0  0  0
 14 15  2  0  0  0  0
 14 16  1  0  0  0  0
 11 12  1  0  0  0  0
 11 13  1  0  0  0  0
 11 14  1  0  0  0  0
  9 10  1  0  0  0  0
  9 11  1  0  0  0  0
  9 19  1  0  0  0  0
  7  8  1  0  0  0  0
  7  9  1  0  0  0  0
 23 24  1  0  0  0  0
 23 25  1  0  0  0  0
 23 26  1  0  0  0  0
 21 22  1  0  0  0  0
 21 23  1  0  0  0  0
M  END
$$$$
default_name
  -OEChem-02102213163D

 26 25  0     1  0  0  0  0  0999 V2000
   -3.0232   -3.6924    1.0038 H   0  0  0  0  0  0  0  0  0  0  0  0
   -3.0082   -2.6684    0.6318 C   0  0  0  0  0  0  0  0  0  0  0  0
   -3.6332   -2.0414    1.2658 H   0  0  0  0  0  0  0  0  0  0  0  0
   -3.3762   -2.6444   -0.3912 H   0  0  0  0  0  0  0  0  0  0  0  0
   -1.5882   -2.1554    0.6658 C   0  0  0  0  0  0  0  0  0  0  0  0
   -0.6832   -2.8764    1.0638 O   0  0  0  0  0  0  0  0  0  0  0  0
   -1.3952   -0.9084    0.2428 N   0  0  0  0  0  0  0  0  0  0  0  0
   -2.1972   -0.3644   -0.0422 H   0  0  0  0  0  0  0  0  0  0  0  0
   -0.1122   -0.1994    0.2658 C   0  0  1  0  0  0  0  0  0  0  0  0
    0.6131   -0.7748   -0.3153 H   0  0  0  0  0  0  0  0  0  0  0  0
   -0.2973    1.1841   -0.3966 C   0  0  0  0  0  0  0  0  0  0  0  0
   -1.3304    1.2869   -0.7267 H   0  0  0  0  0  0  0  0  0  0  0  0
   -0.0928    1.9633    0.3361 H   0  0  0  0  0  0  0  0  0  0  0  0
    0.5798    1.4071   -1.6180 C   0  0  0  0  0  0  0  0  0  0  0  0
    1.7626    1.1150   -1.6476 O   0  0  0  0  0  0  0  0  0  0  0  0
    0.0277    1.9471   -2.6773 N   0  0  0  0  0  0  0  0  0  0  0  0
    0.6270    2.0662   -3.4749 H   0  0  0  0  0  0  0  0  0  0  0  0
   -0.9477    2.1788   -2.6848 H   0  0  0  0  0  0  0  0  0  0  0  0
    0.4075   -0.0985    1.7169 C   0  0  0  0  0  0  0  0  0  0  0  0
    1.5860   -0.3526    1.9662 O   0  0  0  0  0  0  0  0  0  0  0  0
   -0.4625    0.2583    2.6666 N   0  0  0  0  0  0  0  0  0  0  0  0
   -1.4309    0.3754    2.3860 H   0  0  0  0  0  0  0  0  0  0  0  0
   -0.1275    0.4111    4.0813 C   0  0  0  0  0  0  0  0  0  0  0  0
    0.6862    1.1312    4.1910 H   0  0  0  0  0  0  0  0  0  0  0  0
   -0.9980    0.7641    4.6360 H   0  0  0  0  0  0  0  0  0  0  0  0
    0.1959   -0.5481    4.4891 H   0  0  0  0  0  0  0  0  0  0  0  0
  5  6  2  0  0  0  0
  5  7  1  0  0  0  0
  2  3  1  0  0  0  0
  2  4  1  0  0  0  0
  2  5  1  0  0  0  0
  1  2  1  0  0  0  0
 19 20  2  0  0  0  0
 19 21  1  0  0  0  0
 16 17  1  0  0  0  0
 16 18  1  0  0  0  0
 14 15  2  0  0  0  0
 14 16  1  0  0  0  0
 11 12  1  0  0  0  0
 11 13  1  0  0  0  0
 11 14  1  0  0  0  0
  9 10  1  0  0  0  0
  9 11  1  0  0  0  0
  9 19  1  0  0  0  0
  7  8  1  0  0  0  0
  7  9  1  0  0  0  0
 23 24  1  0  0  0  0
 23 25  1  0  0  0  0
 23 26  1  0  0  0  0
 21 22  1  0  0  0  0
 21 23  1  0  0  0  0
M  END
$$$$
default_name
  -OEChem-02102213163D

 26 25  0     1  0  0  0  0  0999 V2000
   -3.0232   -3.6924    1.0038 H   0  0  0  0  0  0  0  0  0  0  0  0
   -3.0082   -2.6684    0.6318 C   0  0  0  0  0  0  0  0  0  0  0  0
   -3.6332   -2.0414    1.2658 H   0  0  0  0  0  0  0  0  0  0  0  0
   -3.3762   -2.6444   -0.3912 H   0  0  0  0  0  0  0  0  0  0  0  0
   -1.5882   -2.1554    0.6658 C   0  0  0  0  0  0  0  0  0  0  0  0
   -0.6832   -2.8764    1.0638 O   0  0  0  0  0  0  0  0  0  0  0  0
   -1.3952   -0.9084    0.2428 N   0  0  0  0  0  0  0  0  0  0  0  0
   -2.1972   -0.3644   -0.0422 H   0  0  0  0  0  0  0  0  0  0  0  0
   -0.1122   -0.1994    0.2658 C   0  0  1  0  0  0  0  0  0  0  0  0
    0.6131   -0.7748   -0.3153 H   0  0  0  0  0  0  0  0  0  0  0  0
   -0.2973    1.1841   -0.3966 C   0  0  0  0  0  0  0  0  0  0  0  0
   -1.3304    1.2869   -0.7267 H   0  0  0  0  0  0  0  0  0  0  0  0
   -0.0928    1.9633    0.3361 H   0  0  0  0  0  0  0  0  0  0  0  0
    0.5798    1.4071   -1.6180 C   0  0  0  0  0  0  0  0  0  0  0  0
    1.6735    0.8867   -1.7533 O   0  0  0  0  0  0  0  0  0  0  0  0
    0.1306    2.2047   -2.5563 N   0  0  0  0  0  0  0  0  0  0  0  0
    0.7237    2.3193   -3.3593 H   0  0  0  0  0  0  0  0  0  0  0  0
   -0.7739    2.6298   -2.4776 H   0  0  0  0  0  0  0  0  0  0  0  0
    0.4075   -0.0985    1.7169 C   0  0  0  0  0  0  0  0  0  0  0  0
    1.5860   -0.3526    1.9662 O   0  0  0  0  0  0  0  0  0  0  0  0
   -0.4625    0.2583    2.6666 N   0  0  0  0  0  0  0  0  0  0  0  0
   -1.4309    0.3754    2.3860 H   0  0  0  0  0  0  0  0  0  0  0  0
   -0.1275    0.4111    4.0813 C   0  0  0  0  0  0  0  0  0  0  0  0
    0.6862    1.1312    4.1910 H   0  0  0  0  0  0  0  0  0  0  0  0
   -0.9980    0.7641    4.6360 H   0  0  0  0  0  0  0  0  0  0  0  0
    0.1959   -0.5481    4.4891 H   0  0  0  0  0  0  0  0  0  0  0  0
  5  6  2  0  0  0  0
  5  7  1  0  0  0  0
  2  3  1  0  0  0  0
  2  4  1  0  0  0  0
  2  5  1  0  0  0  0
  1  2  1  0  0  0  0
 19 20  2  0  0  0  0
 19 21  1  0  0  0  0
 16 17  1  0  0  0  0
 16 18  1  0  0  0  0
 14 15  2  0  0  0  0
 14 16  1  0  0  0  0
 11 12  1  0  0  0  0
 11 13  1  0  0  0  0
 11 14  1  0  0  0  0
  9 10  1  0  0  0  0
  9 11  1  0  0  0  0
  9 19  1  0  0  0  0
  7  8  1  0  0  0  0
  7  9  1  0  0  0  0
 23 24  1  0  0  0  0
 23 25  1  0  0  0  0
 23 26  1  0  0  0  0
 21 22  1  0  0  0  0
 21 23  1  0  0  0  0
M  END
$$$$
default_name
  -OEChem-02102213163D

 26 25  0     1  0  0  0  0  0999 V2000
   -3.0232   -3.6924    1.0038 H   0  0  0  0  0  0  0  0  0  0  0  0
   -3.0082   -2.6684    0.6318 C   0  0  0  0  0  0  0  0  0  0  0  0
   -3.6332   -2.0414    1.2658 H   0  0  0  0  0  0  0  0  0  0  0  0
   -3.3762   -2.6444   -0.3912 H   0  0  0  0  0  0  0  0  0  0  0  0
   -1.5882   -2.1554    0.6658 C   0  0  0  0  0  0  0  0  0  0  0  0
   -0.6832   -2.8764    1.0638 O   0  0  0  0  0  0  0  0  0  0  0  0
   -1.3952   -0.9084    0.2428 N   0  0  0  0  0  0  0  0  0  0  0  0
   -2.1972   -0.3644   -0.0422 H   0  0  0  0  0  0  0  0  0  0  0  0
   -0.1122   -0.1994    0.2658 C   0  0  1  0  0  0  0  0  0  0  0  0
    0.6131   -0.7748   -0.3153 H   0  0  0  0  0  0  0  0  0  0  0  0
   -0.2973    1.1841   -0.3966 C   0  0  0  0  0  0  0  0  0  0  0  0
   -1.3304    1.2869   -0.7267 H   0  0  0  0  0  0  0  0  0  0  0  0
   -0.0928    1.9633    0.3361 H   0  0  0  0  0  0  0  0  0  0  0  0
    0.5798    1.4071   -1.6180 C   0  0  0  0  0  0  0  0  0  0  0  0
    1.5359    0.7005   -1.8861 O   0  0  0  0  0  0  0  0  0  0  0  0
    0.2882    2.4141   -2.4049 N   0  0  0  0  0  0  0  0  0  0  0  0
    0.8742    2.5264   -3.2134 H   0  0  0  0  0  0  0  0  0  0  0  0
   -0.5044    2.9985   -2.2168 H   0  0  0  0  0  0  0  0  0  0  0  0
    0.4075   -0.0985    1.7169 C   0  0  0  0  0  0  0  0  0  0  0  0
    1.5860   -0.3526    1.9662 O   0  0  0  0  0  0  0  0  0  0  0  0
   -0.4625    0.2583    2.6666 N   0  0  0  0  0  0  0  0  0  0  0  0
   -1.4309    0.3754    2.3860 H   0  0  0  0  0  0  0  0  0  0  0  0
   -0.1275    0.4111    4.0813 C   0  0  0  0  0  0  0  0  0  0  0  0
    0.6862    1.1312    4.1910 H   0  0  0  0  0  0  0  0  0  0  0  0
   -0.9980    0.7641    4.6360 H   0  0  0  0  0  0  0  0  0  0  0  0
    0.1959   -0.5481    4.4891 H   0  0  0  0  0  0  0  0  0  0  0  0
  5  6  2  0  0  0  0
  5  7  1  0  0  0  0
  2  3  1  0  0  0  0
  2  4  1  0  0  0  0
  2  5  1  0  0  0  0
  1  2  1  0  0  0  0
 19 20  2  0  0  0  0
 19 21  1  0  0  0  0
 16 17  1  0  0  0  0
 16 18  1  0  0  0  0
 14 15  2  0  0  0  0
 14 16  1  0  0  0  0
 11 12  1  0  0  0  0
 11 13  1  0  0  0  0
 11 14  1  0  0  0  0
  9 10  1  0  0  0  0
  9 11  1  0  0  0  0
  9 19  1  0  0  0  0
  7  8  1  0  0  0  0
  7  9  1  0  0  0  0
 23 24  1  0  0  0  0
 23 25  1  0  0  0  0
 23 26  1  0  0  0  0
 21 22  1  0  0  0  0
 21 23  1  0  0  0  0
M  END
$$$$
default_name
  -OEChem-02102213163D

 26 25  0     1  0  0  0  0  0999 V2000
   -3.0232   -3.6924    1.0038 H   0  0  0  0  0  0  0  0  0  0  0  0
   -3.0082   -2.6684    0.6318 C   0  0  0  0  0  0  0  0  0  0  0  0
   -3.6332   -2.0414    1.2658 H   0  0  0  0  0  0  0  0  0  0  0  0
   -3.3762   -2.6444   -0.3912 H   0  0  0  0  0  0  0  0  0  0  0  0
   -1.5882   -2.1554    0.6658 C   0  0  0  0  0  0  0  0  0  0  0  0
   -0.6832   -2.8764    1.0638 O   0  0  0  0  0  0  0  0  0  0  0  0
   -1.3952   -0.9084    0.2428 N   0  0  0  0  0  0  0  0  0  0  0  0
   -2.1972   -0.3644   -0.0422 H   0  0  0  0  0  0  0  0  0  0  0  0
   -0.1122   -0.1994    0.2658 C   0  0  1  0  0  0  0  0  0  0  0  0
    0.6131   -0.7748   -0.3153 H   0  0  0  0  0  0  0  0  0  0  0  0
   -0.2973    1.1841   -0.3966 C   0  0  0  0  0  0  0  0  0  0  0  0
   -1.3304    1.2869   -0.7267 H   0  0  0  0  0  0  0  0  0  0  0  0
   -0.0928    1.9633    0.3361 H   0  0  0  0  0  0  0  0  0  0  0  0
    0.5798    1.4071   -1.6180 C   0  0  0  0  0  0  0  0  0  0  0  0
    1.3592    0.5691   -2.0370 O   0  0  0  0  0  0  0  0  0  0  0  0
    0.4897    2.5610   -2.2334 N   0  0  0  0  0  0  0  0  0  0  0  0
    1.0681    2.6734   -3.0473 H   0  0  0  0  0  0  0  0  0  0  0  0
   -0.1575    3.2596   -1.9200 H   0  0  0  0  0  0  0  0  0  0  0  0
    0.4075   -0.0985    1.7169 C   0  0  0  0  0  0  0  0  0  0  0  0
    1.5860   -0.3526    1.9662 O   0  0  0  0  0  0  0  0  0  0  0  0
   -0.4625    0.2583    2.6666 N   0  0  0  0  0  0  0  0  0  0  0  0
   -1.4309    0.3754    2.3860 H   0  0  0  0  0  0  0  0  0  0  0  0
   -0.1275    0.4111    4.0813 C   0  0  0  0  0  0  0  0  0  0  0  0
    0.6862    1.1312    4.1910 H   0  0  0  0  0  0  0  0  0  0  0  0
   -0.9980    0.7641    4.6360 H   0  0  0  0  0  0  0  0  0  0  0  0
    0.1959   -0.5481    4.4891 H   0  0  0  0  0  0  0  0  0  0  0  0
  5  6  2  0  0  0  0
  5  7  1  0  0  0  0
  2  3  1  0  0  0  0
  2  4  1  0  0  0  0
  2  5  1  0  0  0  0
  1  2  1  0  0  0  0
 19 20  2  0  0  0  0
 19 21  1  0  0  0  0
 16 17  1  0  0  0  0
 16 18  1  0  0  0  0
 14 15  2  0  0  0  0
 14 16  1  0  0  0  0
 11 12  1  0  0  0  0
 11 13  1  0  0  0  0
 11 14  1  0  0  0  0
  9 10  1  0  0  0  0
  9 11  1  0  0  0  0
  9 19  1  0  0  0  0
  7  8  1  0  0  0  0
  7  9  1  0  0  0  0
 23 24  1  0  0  0  0
 23 25  1  0  0  0  0
 23 26  1  0  0  0  0
 21 22  1  0  0  0  0
 21 23  1  0  0  0  0
M  END
$$$$
default_name
  -OEChem-02102213163D

 26 25  0     1  0  0  0  0  0999 V2000
   -3.0232   -3.6924    1.0038 H   0  0  0  0  0  0  0  0  0  0  0  0
   -3.0082   -2.6684    0.6318 C   0  0  0  0  0  0  0  0  0  0  0  0
   -3.6332   -2.0414    1.2658 H   0  0  0  0  0  0  0  0  0  0  0  0
   -3.3762   -2.6444   -0.3912 H   0  0  0  0  0  0  0  0  0  0  0  0
   -1.5882   -2.1554    0.6658 C   0  0  0  0  0  0  0  0  0  0  0  0
   -0.6832   -2.8764    1.0638 O   0  0  0  0  0  0  0  0  0  0  0  0
   -1.3952   -0.9084    0.2428 N   0  0  0  0  0  0  0  0  0  0  0  0
   -2.1972   -0.3644   -0.0422 H   0  0  0  0  0  0  0  0  0  0  0  0
   -0.1122   -0.1994    0.2658 C   0  0  1  0  0  0  0  0  0  0  0  0
    0.6131   -0.7748   -0.3153 H   0  0  0  0  0  0  0  0  0  0  0  0
   -0.2973    1.1841   -0.3966 C   0  0  0  0  0  0  0  0  0  0  0  0
   -1.3304    1.2869   -0.7267 H   0  0  0  0  0  0  0  0  0  0  0  0
   -0.0928    1.9633    0.3361 H   0  0  0  0  0  0  0  0  0  0  0  0
    0.5798    1.4071   -1.6180 C   0  0  0  0  0  0  0  0  0  0  0  0
    1.1556    0.5015   -2.1956 O   0  0  0  0  0  0  0  0  0  0  0  0
    0.7214    2.6354   -2.0535 N   0  0  0  0  0  0  0  0  0  0  0  0
    1.2923    2.7502   -2.8723 H   0  0  0  0  0  0  0  0  0  0  0  0
    0.2432    3.3953   -1.6075 H   0  0  0  0  0  0  0  0  0  0  0  0
    0.4075   -0.0985    1.7169 C   0  0  0  0  0  0  0  0  0  0  0  0
    1.5860   -0.3526    1.9662 O   0  0  0  0  0  0  0  0  0  0  0  0
   -0.4625    0.2583    2.6666 N   0  0  0  0  0  0  0  0  0  0  0  0
   -1.4309    0.3754    2.3860 H   0  0  0  0  0  0  0  0  0  0  0  0
   -0.1275    0.4111    4.0813 C   0  0  0  0  0  0  0  0  0  0  0  0
    0.6862    1.1312    4.1910 H   0  0  0  0  0  0  0  0  0  0  0  0
   -0.9980    0.7641    4.6360 H   0  0  0  0  0  0  0  0  0  0  0  0
    0.1959   -0.5481    4.4891 H   0  0  0  0  0  0  0  0  0  0  0  0
  5  6  2  0  0  0  0
  5  7  1  0  0  0  0
  2  3  1  0  0  0  0
  2  4  1  0  0  0  0
  2  5  1  0  0  0  0
  1  2  1  0  0  0  0
 19 20  2  0  0  0  0
 19 21  1  0  0  0  0
 16 17  1  0  0  0  0
 16 18  1  0  0  0  0
 14 15  2  0  0  0  0
 14 16  1  0  0  0  0
 11 12  1  0  0  0  0
 11 13  1  0  0  0  0
 11 14  1  0  0  0  0
  9 10  1  0  0  0  0
  9 11  1  0  0  0  0
  9 19  1  0  0  0  0
  7  8  1  0  0  0  0
  7  9  1  0  0  0  0
 23 24  1  0  0  0  0
 23 25  1  0  0  0  0
 23 26  1  0  0  0  0
 21 22  1  0  0  0  0
 21 23  1  0  0  0  0
M  END
$$$$
default_name
  -OEChem-02102213163D

 26 25  0     1  0  0  0  0  0999 V2000
   -3.0232   -3.6924    1.0038 H   0  0  0  0  0  0  0  0  0  0  0  0
   -3.0082   -2.6684    0.6318 C   0  0  0  0  0  0  0  0  0  0  0  0
   -3.6332   -2.0414    1.2658 H   0  0  0  0  0  0  0  0  0  0  0  0
   -3.3762   -2.6444   -0.3912 H   0  0  0  0  0  0  0  0  0  0  0  0
   -1.5882   -2.1554    0.6658 C   0  0  0  0  0  0  0  0  0  0  0  0
   -0.6832   -2.8764    1.0638 O   0  0  0  0  0  0  0  0  0  0  0  0
   -1.3952   -0.9084    0.2428 N   0  0  0  0  0  0  0  0  0  0  0  0
   -2.1972   -0.3644   -0.0422 H   0  0  0  0  0  0  0  0  0  0  0  0
   -0.1122   -0.1994    0.2658 C   0  0  1  0  0  0  0  0  0  0  0  0
    0.6131   -0.7748   -0.3153 H   0  0  0  0  0  0  0  0  0  0  0  0
   -0.2973    1.1841   -0.3966 C   0  0  0  0  0  0  0  0  0  0  0  0
   -1.3304    1.2869   -0.7267 H   0  0  0  0  0  0  0  0  0  0  0  0
   -0.0928    1.9633    0.3361 H   0  0  0  0  0  0  0  0  0  0  0  0
    0.5798    1.4071   -1.6180 C   0  0  0  0  0  0  0  0  0  0  0  0
    0.9387    0.5021   -2.3512 O   0  0  0  0  0  0  0  0  0  0  0  0
    0.9675    2.6322   -1.8773 N   0  0  0  0  0  0  0  0  0  0  0  0
    1.5315    2.7516   -2.7003 H   0  0  0  0  0  0  0  0  0  0  0  0
    0.6703    3.3965   -1.3006 H   0  0  0  0  0  0  0  0  0  0  0  0
    0.4075   -0.0985    1.7169 C   0  0  0  0  0  0  0  0  0  0  0  0
    1.5860   -0.3526    1.9662 O   0  0  0  0  0  0  0  0  0  0  0  0
   -0.4625    0.2583    2.6666 N   0  0  0  0  0  0  0  0  0  0  0  0
   -1.4309    0.3754    2.3860 H   0  0  0  0  0  0  0  0  0  0  0  0
   -0.1275    0.4111    4.0813 C   0  0  0  0  0  0  0  0  0  0  0  0
    0.6862    1.1312    4.1910 H   0  0  0  0  0  0  0  0  0  0  0  0
   -0.9980    0.7641    4.6360 H   0  0  0  0  0  0  0  0  0  0  0  0
    0.1959   -0.5481    4.4891 H   0  0  0  0  0  0  0  0  0  0  0  0
  5  6  2  0  0  0  0
  5  7  1  0  0  0  0
  2  3  1  0  0  0  0
  2  4  1  0  0  0  0
  2  5  1  0  0  0  0
  1  2  1  0  0  0  0
 19 20  2  0  0  0  0
 19 21  1  0  0  0  0
 16 17  1  0  0  0  0
 16 18  1  0  0  0  0
 14 15  2  0  0  0  0
 14 16  1  0  0  0  0
 11 12  1  0  0  0  0
 11 13  1  0  0  0  0
 11 14  1  0  0  0  0
  9 10  1  0  0  0  0
  9 11  1  0  0  0  0
  9 19  1  0  0  0  0
  7  8  1  0  0  0  0
  7  9  1  0  0  0  0
 23 24  1  0  0  0  0
 23 25  1  0  0  0  0
 23 26  1  0  0  0  0
 21 22  1  0  0  0  0
 21 23  1  0  0  0  0
M  END
$$$$
default_name
  -OEChem-02102213163D

 26 25  0     1  0  0  0  0  0999 V2000
   -3.0232   -3.6924    1.0038 H   0  0  0  0  0  0  0  0  0  0  0  0
   -3.0082   -2.6684    0.6318 C   0  0  0  0  0  0  0  0  0  0  0  0
   -3.6332   -2.0414    1.2658 H   0  0  0  0  0  0  0  0  0  0  0  0
   -3.3762   -2.6444   -0.3912 H   0  0  0  0  0  0  0  0  0  0  0  0
   -1.5882   -2.1554    0.6658 C   0  0  0  0  0  0  0  0  0  0  0  0
   -0.6832   -2.8764    1.0638 O   0  0  0  0  0  0  0  0  0  0  0  0
   -1.3952   -0.9084    0.2428 N   0  0  0  0  0  0  0  0  0  0  0  0
   -2.1972   -0.3644   -0.0422 H   0  0  0  0  0  0  0  0  0  0  0  0
   -0.1122   -0.1994    0.2658 C   0  0  1  0  0  0  0  0  0  0  0  0
    0.6131   -0.7748   -0.3153 H   0  0  0  0  0  0  0  0  0  0  0  0
   -0.2973    1.1841   -0.3966 C   0  0  0  0  0  0  0  0  0  0  0  0
   -1.3304    1.2869   -0.7267 H   0  0  0  0  0  0  0  0  0  0  0  0
   -0.0928    1.9633    0.3361 H   0  0  0  0  0  0  0  0  0  0  0  0
    0.5798    1.4071   -1.6180 C   0  0  0  0  0  0  0  0  0  0  0  0
    0.7235    0.5711   -2.4931 O   0  0  0  0  0  0  0  0  0  0  0  0
    1.2112    2.5516   -1.7170 N   0  0  0  0  0  0  0  0  0  0  0  0
    1.7694    2.6776   -2.5430 H   0  0  0  0  0  0  0  0  0  0  0  0
    1.0947    3.2629   -1.0203 H   0  0  0  0  0  0  0  0  0  0  0  0
    0.4075   -0.0985    1.7169 C   0  0  0  0  0  0  0  0  0  0  0  0
    1.5860   -0.3526    1.9662 O   0  0  0  0  0  0  0  0  0  0  0  0
   -0.4625    0.2583    2.6666 N   0  0  0  0  0  0  0  0  0  0  0  0
   -1.4309    0.3754    2.3860 H   0  0  0  0  0  0  0  0  0  0  0  0
   -0.1275    0.4111    4.0813 C   0  0  0  0  0  0  0  0  0  0  0  0
    0.6862    1.1312    4.1910 H   0  0  0  0  0  0  0  0  0  0  0  0
   -0.9980    0.7641    4.6360 H   0  0  0  0  0  0  0  0  0  0  0  0
    0.1959   -0.5481    4.4891 H   0  0  0  0  0  0  0  0  0  0  0  0
  5  6  2  0  0  0  0
  5  7  1  0  0  0  0
  2  3  1  0  0  0  0
  2  4  1  0  0  0  0
  2  5  1  0  0  0  0
  1  2  1  0  0  0  0
 19 20  2  0  0  0  0
 19 21  1  0  0  0  0
 16 17  1  0  0  0  0
 16 18  1  0  0  0  0
 14 15  2  0  0  0  0
 14 16  1  0  0  0  0
 11 12  1  0  0  0  0
 11 13  1  0  0  0  0
 11 14  1  0  0  0  0
  9 10  1  0  0  0  0
  9 11  1  0  0  0  0
  9 19  1  0  0  0  0
  7  8  1  0  0  0  0
  7  9  1  0  0  0  0
 23 24  1  0  0  0  0
 23 25  1  0  0  0  0
 23 26  1  0  0  0  0
 21 22  1  0  0  0  0
 21 23  1  0  0  0  0
M  END
$$$$
default_name
  -OEChem-02102213163D

 26 25  0     1  0  0  0  0  0999 V2000
   -3.0232   -3.6924    1.0038 H   0  0  0  0  0  0  0  0  0  0  0  0
   -3.0082   -2.6684    0.6318 C   0  0  0  0  0  0  0  0  0  0  0  0
   -3.6332   -2.0414    1.2658 H   0  0  0  0  0  0  0  0  0  0  0  0
   -3.3762   -2.6444   -0.3912 H   0  0  0  0  0  0  0  0  0  0  0  0
   -1.5882   -2.1554    0.6658 C   0  0  0  0  0  0  0  0  0  0  0  0
   -0.6832   -2.8764    1.0638 O   0  0  0  0  0  0  0  0  0  0  0  0
   -1.3952   -0.9084    0.2428 N   0  0  0  0  0  0  0  0  0  0  0  0
   -2.1972   -0.3644   -0.0422 H   0  0  0  0  0  0  0  0  0  0  0  0
   -0.1122   -0.1994    0.2658 C   0  0  1  0  0  0  0  0  0  0  0  0
    0.6131   -0.7748   -0.3153 H   0  0  0  0  0  0  0  0  0  0  0  0
   -0.2973    1.1841   -0.3966 C   0  0  0  0  0  0  0  0  0  0  0  0
   -1.3304    1.2869   -0.7267 H   0  0  0  0  0  0  0  0  0  0  0  0
   -0.0928    1.9633    0.3361 H   0  0  0  0  0  0  0  0  0  0  0  0
    0.5798    1.4071   -1.6180 C   0  0  0  0  0  0  0  0  0  0  0  0
    0.5246    0.7037   -2.6117 O   0  0  0  0  0  0  0  0  0  0  0  0
    1.4360    2.3991   -1.5835 N   0  0  0  0  0  0  0  0  0  0  0  0
    1.9897    2.5331   -2.4112 H   0  0  0  0  0  0  0  0  0  0  0  0
    1.4875    3.0038   -0.7855 H   0  0  0  0  0  0  0  0  0  0  0  0
    0.4075   -0.0985    1.7169 C   0  0  0  0  0  0  0  0  0  0  0  0
    1.5860   -0.3526    1.9662 O   0  0  0  0  0  0  0  0  0  0  0  0
   -0.4625    0.2583    2.6666 N   0  0  0  0  0  0  0  0  0  0  0  0
   -1.4309    0.3754    2.3860 H   0  0  0  0  0  0  0  0  0  0  0  0
   -0.1275    0.4111    4.0813 C   0  0  0  0  0  0  0  0  0  0  0  0
    0.6862    1.1312    4.1910 H   0  0  0  0  0  0  0  0  0  0  0  0
   -0.9980    0.7641    4.6360 H   0  0  0  0  0  0  0  0  0  0  0  0
    0.1959   -0.5481    4.4891 H   0  0  0  0  0  0  0  0  0  0  0  0
  5  6  2  0  0  0  0
  5  7  1  0  0  0  0
  2  3  1  0  0  0  0
  2  4  1  0  0  0  0
  2  5  1  0  0  0  0
  1  2  1  0  0  0  0
 19 20  2  0  0  0  0
 19 21  1  0  0  0  0
 16 17  1  0  0  0  0
 16 18  1  0  0  0  0
 14 15  2  0  0  0  0
 14 16  1  0  0  0  0
 11 12  1  0  0  0  0
 11 13  1  0  0  0  0
 11 14  1  0  0  0  0
  9 10  1  0  0  0  0
  9 11  1  0  0  0  0
  9 19  1  0  0  0  0
  7  8  1  0  0  0  0
  7  9  1  0  0  0  0
 23 24  1  0  0  0  0
 23 25  1  0  0  0  0
 23 26  1  0  0  0  0
 21 22  1  0  0  0  0
 21 23  1  0  0  0  0
M  END
$$$$
default_name
  -OEChem-02102213163D

 26 25  0     1  0  0  0  0  0999 V2000
   -3.0232   -3.6924    1.0038 H   0  0  0  0  0  0  0  0  0  0  0  0
   -3.0082   -2.6684    0.6318 C   0  0  0  0  0  0  0  0  0  0  0  0
   -3.6332   -2.0414    1.2658 H   0  0  0  0  0  0  0  0  0  0  0  0
   -3.3762   -2.6444   -0.3912 H   0  0  0  0  0  0  0  0  0  0  0  0
   -1.5882   -2.1554    0.6658 C   0  0  0  0  0  0  0  0  0  0  0  0
   -0.6832   -2.8764    1.0638 O   0  0  0  0  0  0  0  0  0  0  0  0
   -1.3952   -0.9084    0.2428 N   0  0  0  0  0  0  0  0  0  0  0  0
   -2.1972   -0.3644   -0.0422 H   0  0  0  0  0  0  0  0  0  0  0  0
   -0.1122   -0.1994    0.2658 C   0  0  1  0  0  0  0  0  0  0  0  0
    0.6131   -0.7748   -0.3153 H   0  0  0  0  0  0  0  0  0  0  0  0
   -0.2973    1.1841   -0.3966 C   0  0  0  0  0  0  0  0  0  0  0  0
   -1.3304    1.2869   -0.7267 H   0  0  0  0  0  0  0  0  0  0  0  0
   -0.0928    1.9633    0.3361 H   0  0  0  0  0  0  0  0  0  0  0  0
    0.5798    1.4071   -1.6180 C   0  0  0  0  0  0  0  0  0  0  0  0
    0.3555    0.8909   -2.6990 O   0  0  0  0  0  0  0  0  0  0  0  0
    1.6264    2.1852   -1.4857 N   0  0  0  0  0  0  0  0  0  0  0  0
    2.1775    2.3281   -2.3138 H   0  0  0  0  0  0  0  0  0  0  0  0
    1.8220    2.6367   -0.6123 H   0  0  0  0  0  0  0  0  0  0  0  0
    0.4075   -0.0985    1.7169 C   0  0  0  0  0  0  0  0  0  0  0  0
    1.5860   -0.3526    1.9662 O   0  0  0  0  0  0  0  0  0  0  0  0
   -0.4625    0.2583    2.6666 N   0  0  0  0  0  0  0  0  0  0  0  0
   -1.4309    0.3754    2.3860 H   0  0  0  0  0  0  0  0  0  0  0  0
   -0.1275    0.4111    4.0813 C   0  0  0  0  0  0  0  0  0  0  0  0
    0.6862    1.1312    4.1910 H   0  0  0  0  0  0  0  0  0  0  0  0
   -0.9980    0.7641    4.6360 H   0  0  0  0  0  0  0  0  0  0  0  0
    0.1959   -0.5481    4.4891 H   0  0  0  0  0  0  0  0  0  0  0  0
  5  6  2  0  0  0  0
  5  7  1  0  0  0  0
  2  3  1  0  0  0  0
  2  4  1  0  0  0  0
  2  5  1  0  0  0  0
  1  2  1  0  0  0  0
 19 20  2  0  0  0  0
 19 21  1  0  0  0  0
 16 17  1  0  0  0  0
 16 18  1  0  0  0  0
 14 15  2  0  0  0  0
 14 16  1  0  0  0  0
 11 12  1  0  0  0  0
 11 13  1  0  0  0  0
 11 14  1  0  0  0  0
  9 10  1  0  0  0  0
  9 11  1  0  0  0  0
  9 19  1  0  0  0  0
  7  8  1  0  0  0  0
  7  9  1  0  0  0  0
 23 24  1  0  0  0  0
 23 25  1  0  0  0  0
 23 26  1  0  0  0  0
 21 22  1  0  0  0  0
 21 23  1  0  0  0  0
M  END
$$$$
default_name
  -OEChem-02102213163D

 26 25  0     1  0  0  0  0  0999 V2000
   -3.0232   -3.6924    1.0038 H   0  0  0  0  0  0  0  0  0  0  0  0
   -3.0082   -2.6684    0.6318 C   0  0  0  0  0  0  0  0  0  0  0  0
   -3.6332   -2.0414    1.2658 H   0  0  0  0  0  0  0  0  0  0  0  0
   -3.3762   -2.6444   -0.3912 H   0  0  0  0  0  0  0  0  0  0  0  0
   -1.5882   -2.1554    0.6658 C   0  0  0  0  0  0  0  0  0  0  0  0
   -0.6832   -2.8764    1.0638 O   0  0  0  0  0  0  0  0  0  0  0  0
   -1.3952   -0.9084    0.2428 N   0  0  0  0  0  0  0  0  0  0  0  0
   -2.1972   -0.3644   -0.0422 H   0  0  0  0  0  0  0  0  0  0  0  0
   -0.1122   -0.1994    0.2658 C   0  0  1  0  0  0  0  0  0  0  0  0
    0.6131   -0.7748   -0.3153 H   0  0  0  0  0  0  0  0  0  0  0  0
   -0.2973    1.1841   -0.3966 C   0  0  0  0  0  0  0  0  0  0  0  0
   -1.3304    1.2869   -0.7267 H   0  0  0  0  0  0  0  0  0  0  0  0
   -0.0928    1.9633    0.3361 H   0  0  0  0  0  0  0  0  0  0  0  0
    0.5798    1.4071   -1.6180 C   0  0  0  0  0  0  0  0  0  0  0  0
    0.2278    1.1198   -2.7489 O   0  0  0  0  0  0  0  0  0  0  0  0
    1.7696    1.9243   -1.4305 N   0  0  0  0  0  0  0  0  0  0  0  0
    2.3199    2.0764   -2.2574 H   0  0  0  0  0  0  0  0  0  0  0  0
    2.0753    2.1868   -0.5125 H   0  0  0  0  0  0  0  0  0  0  0  0
    0.4075   -0.0985    1.7169 C   0  0  0  0  0  0  0  0  0  0  0  0
    1.5860   -0.3526    1.9662 O   0  0  0  0  0  0  0  0  0  0  0  0
   -0.4625    0.2583    2.6666 N   0  0  0  0  0  0  0  0  0  0  0  0
   -1.4309    0.3754    2.3860 H   0  0  0  0  0  0  0  0  0  0  0  0
   -0.1275    0.4111    4.0813 C   0  0  0  0  0  0  0  0  0  0  0  0
    0.6862    1.1312    4.1910 H   0  0  0  0  0  0  0  0  0  0  0  0
   -0.9980    0.7641    4.6360 H   0  0  0  0  0  0  0  0  0  0  0  0
    0.1959   -0.5481    4.4891 H   0  0  0  0  0  0  0  0  0  0  0  0
  5  6  2  0  0  0  0
  5  7  1  0  0  0  0
  2  3  1  0  0  0  0
  2  4  1  0  0  0  0
  2  5  1  0  0  0  0
  1  2  1  0  0  0  0
 19 20  2  0  0  0  0
 19 21  1  0  0  0  0
 16 17  1  0  0  0  0
 16 18  1  0  0  0  0
 14 15  2  0  0  0  0
 14 16  1  0  0  0  0
 11 12  1  0  0  0  0
 11 13  1  0  0  0  0
 11 14  1  0  0  0  0
  9 10  1  0  0  0  0
  9 11  1  0  0  0  0
  9 19  1  0  0  0  0
  7  8  1  0  0  0  0
  7  9  1  0  0  0  0
 23 24  1  0  0  0  0
 23 25  1  0  0  0  0
 23 26  1  0  0  0  0
 21 22  1  0  0  0  0
 21 23  1  0  0  0  0
M  END
$$$$
default_name
  -OEChem-02102213163D

 26 25  0     1  0  0  0  0  0999 V2000
   -3.0232   -3.6924    1.0038 H   0  0  0  0  0  0  0  0  0  0  0  0
   -3.0082   -2.6684    0.6318 C   0  0  0  0  0  0  0  0  0  0  0  0
   -3.6332   -2.0414    1.2658 H   0  0  0  0  0  0  0  0  0  0  0  0
   -3.3762   -2.6444   -0.3912 H   0  0  0  0  0  0  0  0  0  0  0  0
   -1.5882   -2.1554    0.6658 C   0  0  0  0  0  0  0  0  0  0  0  0
   -0.6832   -2.8764    1.0638 O   0  0  0  0  0  0  0  0  0  0  0  0
   -1.3952   -0.9084    0.2428 N   0  0  0  0  0  0  0  0  0  0  0  0
   -2.1972   -0.3644   -0.0422 H   0  0  0  0  0  0  0  0  0  0  0  0
   -0.1122   -0.1994    0.2658 C   0  0  1  0  0  0  0  0  0  0  0  0
    0.6131   -0.7748   -0.3153 H   0  0  0  0  0  0  0  0  0  0  0  0
   -0.2973    1.1841   -0.3966 C   0  0  0  0  0  0  0  0  0  0  0  0
   -1.3304    1.2869   -0.7267 H   0  0  0  0  0  0  0  0  0  0  0  0
   -0.0928    1.9633    0.3361 H   0  0  0  0  0  0  0  0  0  0  0  0
    0.5798    1.4071   -1.6180 C   0  0  0  0  0  0  0  0  0  0  0  0
    0.1502    1.3750   -2.7581 O   0  0  0  0  0  0  0  0  0  0  0  0
    1.8558    1.6343   -1.4216 N   0  0  0  0  0  0  0  0  0  0  0  0
    2.4073    1.7953   -2.2460 H   0  0  0  0  0  0  0  0  0  0  0  0
    2.2302    1.6846   -0.4930 H   0  0  0  0  0  0  0  0  0  0  0  0
    0.4075   -0.0985    1.7169 C   0  0  0  0  0  0  0  0  0  0  0  0
    1.5860   -0.3526    1.9662 O   0  0  0  0  0  0  0  0  0  0  0  0
   -0.4625    0.2583    2.6666 N   0  0  0  0  0  0  0  0  0  0  0  0
   -1.4309    0.3754    2.3860 H   0  0  0  0  0  0  0  0  0  0  0  0
   -0.1275    0.4111    4.0813 C   0  0  0  0  0  0  0  0  0  0  0  0
    0.6862    1.1312    4.1910 H   0  0  0  0  0  0  0  0  0  0  0  0
   -0.9980    0.7641    4.6360 H   0  0  0  0  0  0  0  0  0  0  0  0
    0.1959   -0.5481    4.4891 H   0  0  0  0  0  0  0  0  0  0  0  0
  5  6  2  0  0  0  0
  5  7  1  0  0  0  0
  2  3  1  0  0  0  0
  2  4  1  0  0  0  0
  2  5  1  0  0  0  0
  1  2  1  0  0  0  0
 19 20  2  0  0  0  0
 19 21  1  0  0  0  0
 16 17  1  0  0  0  0
 16 18  1  0  0  0  0
 14 15  2  0  0  0  0
 14 16  1  0  0  0  0
 11 12  1  0  0  0  0
 11 13  1  0  0  0  0
 11 14  1  0  0  0  0
  9 10  1  0  0  0  0
  9 11  1  0  0  0  0
  9 19  1  0  0  0  0
  7  8  1  0  0  0  0
  7  9  1  0  0  0  0
 23 24  1  0  0  0  0
 23 25  1  0  0  0  0
 23 26  1  0  0  0  0
 21 22  1  0  0  0  0
 21 23  1  0  0  0  0
M  END
$$$$
default_name
  -OEChem-02102213163D

 26 25  0     1  0  0  0  0  0999 V2000
   -3.0232   -3.6924    1.0038 H   0  0  0  0  0  0  0  0  0  0  0  0
   -3.0082   -2.6684    0.6318 C   0  0  0  0  0  0  0  0  0  0  0  0
   -3.6332   -2.0414    1.2658 H   0  0  0  0  0  0  0  0  0  0  0  0
   -3.3762   -2.6444   -0.3912 H   0  0  0  0  0  0  0  0  0  0  0  0
   -1.5882   -2.1554    0.6658 C   0  0  0  0  0  0  0  0  0  0  0  0
   -0.6832   -2.8764    1.0638 O   0  0  0  0  0  0  0  0  0  0  0  0
   -1.3952   -0.9084    0.2428 N   0  0  0  0  0  0  0  0  0  0  0  0
   -2.1972   -0.3644   -0.0422 H   0  0  0  0  0  0  0  0  0  0  0  0
   -0.1122   -0.1994    0.2658 C   0  0  1  0  0  0  0  0  0  0  0  0
    0.6131   -0.7748   -0.3153 H   0  0  0  0  0  0  0  0  0  0  0  0
   -0.2973    1.1841   -0.3966 C   0  0  0  0  0  0  0  0  0  0  0  0
   -1.3304    1.2869   -0.7267 H   0  0  0  0  0  0  0  0  0  0  0  0
   -0.0928    1.9633    0.3361 H   0  0  0  0  0  0  0  0  0  0  0  0
    0.5798    1.4071   -1.6180 C   0  0  0  0  0  0  0  0  0  0  0  0
    0.1279    1.6390   -2.7258 O   0  0  0  0  0  0  0  0  0  0  0  0
    1.8790    1.3349   -1.4596 N   0  0  0  0  0  0  0  0  0  0  0  0
    2.4337    1.5039   -2.2802 H   0  0  0  0  0  0  0  0  0  0  0  0
    2.2761    1.1643   -0.5550 H   0  0  0  0  0  0  0  0  0  0  0  0
    0.4075   -0.0985    1.7169 C   0  0  0  0  0  0  0  0  0  0  0  0
    1.5860   -0.3526    1.9662 O   0  0  0  0  0  0  0  0  0  0  0  0
   -0.4625    0.2583    2.6666 N   0  0  0  0  0  0  0  0  0  0  0  0
   -1.4309    0.3754    2.3860 H   0  0  0  0  0  0  0  0  0  0  0  0
   -0.1275    0.4111    4.0813 C   0  0  0  0  0  0  0  0  0  0  0  0
    0.6862    1.1312    4.1910 H   0  0  0  0  0  0  0  0  0  0  0  0
   -0.9980    0.7641    4.6360 H   0  0  0  0  0  0  0  0  0  0  0  0
    0.1959   -0.5481    4.4891 H   0  0  0  0  0  0  0  0  0  0  0  0
  5  6  2  0  0  0  0
  5  7  1  0  0  0  0
  2  3  1  0  0  0  0
  2  4  1  0  0  0  0
  2  5  1  0  0  0  0
  1  2  1  0  0  0  0
 19 20  2  0  0  0  0
 19 21  1  0  0  0  0
 16 17  1  0  0  0  0
 16 18  1  0  0  0  0
 14 15  2  0  0  0  0
 14 16  1  0  0  0  0
 11 12  1  0  0  0  0
 11 13  1  0  0  0  0
 11 14  1  0  0  0  0
  9 10  1  0  0  0  0
  9 11  1  0  0  0  0
  9 19  1  0  0  0  0
  7  8  1  0  0  0  0
  7  9  1  0  0  0  0
 23 24  1  0  0  0  0
 23 25  1  0  0  0  0
 23 26  1  0  0  0  0
 21 22  1  0  0  0  0
 21 23  1  0  0  0  0
M  END
$$$$
default_name
  -OEChem-02102213163D

 26 25  0     1  0  0  0  0  0999 V2000
   -3.0232   -3.6924    1.0038 H   0  0  0  0  0  0  0  0  0  0  0  0
   -3.0082   -2.6684    0.6318 C   0  0  0  0  0  0  0  0  0  0  0  0
   -3.6332   -2.0414    1.2658 H   0  0  0  0  0  0  0  0  0  0  0  0
   -3.3762   -2.6444   -0.3912 H   0  0  0  0  0  0  0  0  0  0  0  0
   -1.5882   -2.1554    0.6658 C   0  0  0  0  0  0  0  0  0  0  0  0
   -0.6832   -2.8764    1.0638 O   0  0  0  0  0  0  0  0  0  0  0  0
   -1.3952   -0.9084    0.2428 N   0  0  0  0  0  0  0  0  0  0  0  0
   -2.1972   -0.3644   -0.0422 H   0  0  0  0  0  0  0  0  0  0  0  0
   -0.1122   -0.1994    0.2658 C   0  0  1  0  0  0  0  0  0  0  0  0
    0.6131   -0.7748   -0.3153 H   0  0  0  0  0  0  0  0  0  0  0  0
   -0.2973    1.1841   -0.3966 C   0  0  0  0  0  0  0  0  0  0  0  0
   -1.3304    1.2869   -0.7267 H   0  0  0  0  0  0  0  0  0  0  0  0
   -0.0928    1.9633    0.3361 H   0  0  0  0  0  0  0  0  0  0  0  0
    0.5798    1.4071   -1.6180 C   0  0  0  0  0  0  0  0  0  0  0  0
    0.1625    1.8938   -2.6545 O   0  0  0  0  0  0  0  0  0  0  0  0
    1.8378    1.0466   -1.5418 N   0  0  0  0  0  0  0  0  0  0  0  0
    2.3973    1.2220   -2.3578 H   0  0  0  0  0  0  0  0  0  0  0  0
    2.2099    0.6615   -0.6943 H   0  0  0  0  0  0  0  0  0  0  0  0
    0.4075   -0.0985    1.7169 C   0  0  0  0  0  0  0  0  0  0  0  0
    1.5860   -0.3526    1.9662 O   0  0  0  0  0  0  0  0  0  0  0  0
   -0.4625    0.2583    2.6666 N   0  0  0  0  0  0  0  0  0  0  0  0
   -1.4309    0.3754    2.3860 H   0  0  0  0  0  0  0  0  0  0  0  0
   -0.1275    0.4111    4.0813 C   0  0  0  0  0  0  0  0  0  0  0  0
    0.6862    1.1312    4.1910 H   0  0  0  0  0  0  0  0  0  0  0  0
   -0.9980    0.7641    4.6360 H   0  0  0  0  0  0  0  0  0  0  0  0
    0.1959   -0.5481    4.4891 H   0  0  0  0  0  0  0  0  0  0  0  0
  5  6  2  0  0  0  0
  5  7  1  0  0  0  0
  2  3  1  0  0  0  0
  2  4  1  0  0  0  0
  2  5  1  0  0  0  0
  1  2  1  0  0  0  0
 19 20  2  0  0  0  0
 19 21  1  0  0  0  0
 16 17  1  0  0  0  0
 16 18  1  0  0  0  0
 14 15  2  0  0  0  0
 14 16  1  0  0  0  0
 11 12  1  0  0  0  0
 11 13  1  0  0  0  0
 11 14  1  0  0  0  0
  9 10  1  0  0  0  0
  9 11  1  0  0  0  0
  9 19  1  0  0  0  0
  7  8  1  0  0  0  0
  7  9  1  0  0  0  0
 23 24  1  0  0  0  0
 23 25  1  0  0  0  0
 23 26  1  0  0  0  0
 21 22  1  0  0  0  0
 21 23  1  0  0  0  0
M  END
$$$$
default_name
  -OEChem-02102213163D

 26 25  0     1  0  0  0  0  0999 V2000
   -3.0232   -3.6924    1.0038 H   0  0  0  0  0  0  0  0  0  0  0  0
   -3.0082   -2.6684    0.6318 C   0  0  0  0  0  0  0  0  0  0  0  0
   -3.6332   -2.0414    1.2658 H   0  0  0  0  0  0  0  0  0  0  0  0
   -3.3762   -2.6444   -0.3912 H   0  0  0  0  0  0  0  0  0  0  0  0
   -1.5882   -2.1554    0.6658 C   0  0  0  0  0  0  0  0  0  0  0  0
   -0.6832   -2.8764    1.0638 O   0  0  0  0  0  0  0  0  0  0  0  0
   -1.3952   -0.9084    0.2428 N   0  0  0  0  0  0  0  0  0  0  0  0
   -2.1972   -0.3644   -0.0422 H   0  0  0  0  0  0  0  0  0  0  0  0
   -0.1122   -0.1994    0.2658 C   0  0  1  0  0  0  0  0  0  0  0  0
    0.6131   -0.7748   -0.3153 H   0  0  0  0  0  0  0  0  0  0  0  0
   -0.2973    1.1841   -0.3966 C   0  0  0  0  0  0  0  0  0  0  0  0
   -1.3304    1.2869   -0.7267 H   0  0  0  0  0  0  0  0  0  0  0  0
   -0.0928    1.9633    0.3361 H   0  0  0  0  0  0  0  0  0  0  0  0
    0.5798    1.4071   -1.6180 C   0  0  0  0  0  0  0  0  0  0  0  0
    0.2516    2.1221   -2.5488 O   0  0  0  0  0  0  0  0  0  0  0  0
    1.7349    0.7890   -1.6628 N   0  0  0  0  0  0  0  0  0  0  0  0
    2.3005    0.9689   -2.4735 H   0  0  0  0  0  0  0  0  0  0  0  0
    2.0362    0.2105   -0.9014 H   0  0  0  0  0  0  0  0  0  0  0  0
    0.4075   -0.0985    1.7169 C   0  0  0  0  0  0  0  0  0  0  0  0
    1.5860   -0.3526    1.9662 O   0  0  0  0  0  0  0  0  0  0  0  0
   -0.4625    0.2583    2.6666 N   0  0  0  0  0  0  0  0  0  0  0  0
   -1.4309    0.3754    2.3860 H   0  0  0  0  0  0  0  0  0  0  0  0
   -0.1275    0.4111    4.0813 C   0  0  0  0  0  0  0  0  0  0  0  0
    0.6862    1.1312    4.1910 H   0  0  0  0  0  0  0  0  0  0  0  0
   -0.9980    0.7641    4.6360 H   0  0  0  0  0  0  0  0  0  0  0  0
    0.1959   -0.5481    4.4891 H   0  0  0  0  0  0  0  0  0  0  0  0
  5  6  2  0  0  0  0
  5  7  1  0  0  0  0
  2  3  1  0  0  0  0
  2  4  1  0  0  0  0
  2  5  1  0  0  0  0
  1  2  1  0  0  0  0
 19 20  2  0  0  0  0
 19 21  1  0  0  0  0
 16 17  1  0  0  0  0
 16 18  1  0  0  0  0
 14 15  2  0  0  0  0
 14 16  1  0  0  0  0
 11 12  1  0  0  0  0
 11 13  1  0  0  0  0
 11 14  1  0  0  0  0
  9 10  1  0  0  0  0
  9 11  1  0  0  0  0
  9 19  1  0  0  0  0
  7  8  1  0  0  0  0
  7  9  1  0  0  0  0
 23 24  1  0  0  0  0
 23 25  1  0  0  0  0
 23 26  1  0  0  0  0
 21 22  1  0  0  0  0
 21 23  1  0  0  0  0
M  END
$$$$
default_name
  -OEChem-02102213163D

 26 25  0     1  0  0  0  0  0999 V2000
   -3.0232   -3.6924    1.0038 H   0  0  0  0  0  0  0  0  0  0  0  0
   -3.0082   -2.6684    0.6318 C   0  0  0  0  0  0  0  0  0  0  0  0
   -3.6332   -2.0414    1.2658 H   0  0  0  0  0  0  0  0  0  0  0  0
   -3.3762   -2.6444   -0.3912 H   0  0  0  0  0  0  0  0  0  0  0  0
   -1.5882   -2.1554    0.6658 C   0  0  0  0  0  0  0  0  0  0  0  0
   -0.6832   -2.8764    1.0638 O   0  0  0  0  0  0  0  0  0  0  0  0
   -1.3952   -0.9084    0.2428 N   0  0  0  0  0  0  0  0  0  0  0  0
   -2.1972   -0.3644   -0.0422 H   0  0  0  0  0  0  0  0  0  0  0  0
   -0.1122   -0.1994    0.2658 C   0  0  1  0  0  0  0  0  0  0  0  0
    0.6131   -0.7748   -0.3153 H   0  0  0  0  0  0  0  0  0  0  0  0
   -0.2973    1.1841   -0.3966 C   0  0  0  0  0  0  0  0  0  0  0  0
   -1.3304    1.2869   -0.7267 H   0  0  0  0  0  0  0  0  0  0  0  0
   -0.0928    1.9633    0.3361 H   0  0  0  0  0  0  0  0  0  0  0  0
    0.5798    1.4071   -1.6180 C   0  0  0  0  0  0  0  0  0  0  0  0
    0.3892    2.3083   -2.4160 O   0  0  0  0  0  0  0  0  0  0  0  0
    1.5773    0.5795   -1.8142 N   0  0  0  0  0  0  0  0  0  0  0  0
    2.1501    0.7619   -2.6194 H   0  0  0  0  0  0  0  0  0  0  0  0
    1.7666   -0.1582   -1.1623 H   0  0  0  0  0  0  0  0  0  0  0  0
    0.4075   -0.0985    1.7169 C   0  0  0  0  0  0  0  0  0  0  0  0
    1.5860   -0.3526    1.9662 O   0  0  0  0  0  0  0  0  0  0  0  0
   -0.4625    0.2583    2.6666 N   0  0  0  0  0  0  0  0  0  0  0  0
   -1.4309    0.3754    2.3860 H   0  0  0  0  0  0  0  0  0  0  0  0
   -0.1275    0.4111    4.0813 C   0  0  0  0  0  0  0  0  0  0  0  0
    0.6862    1.1312    4.1910 H   0  0  0  0  0  0  0  0  0  0  0  0
   -0.9980    0.7641    4.6360 H   0  0  0  0  0  0  0  0  0  0  0  0
    0.1959   -0.5481    4.4891 H   0  0  0  0  0  0  0  0  0  0  0  0
  5  6  2  0  0  0  0
  5  7  1  0  0  0  0
  2  3  1  0  0  0  0
  2  4  1  0  0  0  0
  2  5  1  0  0  0  0
  1  2  1  0  0  0  0
 19 20  2  0  0  0  0
 19 21  1  0  0  0  0
 16 17  1  0  0  0  0
 16 18  1  0  0  0  0
 14 15  2  0  0  0  0
 14 16  1  0  0  0  0
 11 12  1  0  0  0  0
 11 13  1  0  0  0  0
 11 14  1  0  0  0  0
  9 10  1  0  0  0  0
  9 11  1  0  0  0  0
  9 19  1  0  0  0  0
  7  8  1  0  0  0  0
  7  9  1  0  0  0  0
 23 24  1  0  0  0  0
 23 25  1  0  0  0  0
 23 26  1  0  0  0  0
 21 22  1  0  0  0  0
 21 23  1  0  0  0  0
M  END
$$$$
default_name
  -OEChem-02102213163D

 26 25  0     1  0  0  0  0  0999 V2000
   -3.0232   -3.6924    1.0038 H   0  0  0  0  0  0  0  0  0  0  0  0
   -3.0082   -2.6684    0.6318 C   0  0  0  0  0  0  0  0  0  0  0  0
   -3.6332   -2.0414    1.2658 H   0  0  0  0  0  0  0  0  0  0  0  0
   -3.3762   -2.6444   -0.3912 H   0  0  0  0  0  0  0  0  0  0  0  0
   -1.5882   -2.1554    0.6658 C   0  0  0  0  0  0  0  0  0  0  0  0
   -0.6832   -2.8764    1.0638 O   0  0  0  0  0  0  0  0  0  0  0  0
   -1.3952   -0.9084    0.2428 N   0  0  0  0  0  0  0  0  0  0  0  0
   -2.1972   -0.3644   -0.0422 H   0  0  0  0  0  0  0  0  0  0  0  0
   -0.1122   -0.1994    0.2658 C   0  0  1  0  0  0  0  0  0  0  0  0
    0.6131   -0.7748   -0.3153 H   0  0  0  0  0  0  0  0  0  0  0  0
   -0.2973    1.1841   -0.3966 C   0  0  0  0  0  0  0  0  0  0  0  0
   -1.3618    1.3987   -0.4844 H   0  0  0  0  0  0  0  0  0  0  0  0
    0.1550    1.9477    0.2344 H   0  0  0  0  0  0  0  0  0  0  0  0
    0.2890    1.2831   -1.7957 C   0  0  0  0  0  0  0  0  0  0  0  0
    0.2353    2.2988   -2.4671 O   0  0  0  0  0  0  0  0  0  0  0  0
    0.8679    0.2174   -2.2932 N   0  0  0  0  0  0  0  0  0  0  0  0
    1.2615    0.3176   -3.2122 H   0  0  0  0  0  0  0  0  0  0  0  0
    0.9419   -0.6243   -1.7538 H   0  0  0  0  0  0  0  0  0  0  0  0
    0.4075   -0.0985    1.7169 C   0  0  0  0  0  0  0  0  0  0  0  0
    1.5860   -0.3526    1.9662 O   0  0  0  0  0  0  0  0  0  0  0  0
   -0.4625    0.2583    2.6666 N   0  0  0  0  0  0  0  0  0  0  0  0
   -1.4309    0.3754    2.3860 H   0  0  0  0  0  0  0  0  0  0  0  0
   -0.1275    0.4111    4.0813 C   0  0  0  0  0  0  0  0  0  0  0  0
    0.6862    1.1312    4.1910 H   0  0  0  0  0  0  0  0  0  0  0  0
   -0.9980    0.7641    4.6360 H   0  0  0  0  0  0  0  0  0  0  0  0
    0.1959   -0.5481    4.4891 H   0  0  0  0  0  0  0  0  0  0  0  0
  5  6  2  0  0  0  0
  5  7  1  0  0  0  0
  2  3  1  0  0  0  0
  2  4  1  0  0  0  0
  2  5  1  0  0  0  0
  1  2  1  0  0  0  0
 19 20  2  0  0  0  0
 19 21  1  0  0  0  0
 16 17  1  0  0  0  0
 16 18  1  0  0  0  0
 14 15  2  0  0  0  0
 14 16  1  0  0  0  0
 11 12  1  0  0  0  0
 11 13  1  0  0  0  0
 11 14  1  0  0  0  0
  9 10  1  0  0  0  0
  9 11  1  0  0  0  0
  9 19  1  0  0  0  0
  7  8  1  0  0  0  0
  7  9  1  0  0  0  0
 23 24  1  0  0  0  0
 23 25  1  0  0  0  0
 23 26  1  0  0  0  0
 21 22  1  0  0  0  0
 21 23  1  0  0  0  0
M  END
$$$$
default_name
  -OEChem-02102213163D

 26 25  0     1  0  0  0  0  0999 V2000
   -3.0232   -3.6924    1.0038 H   0  0  0  0  0  0  0  0  0  0  0  0
   -3.0082   -2.6684    0.6318 C   0  0  0  0  0  0  0  0  0  0  0  0
   -3.6332   -2.0414    1.2658 H   0  0  0  0  0  0  0  0  0  0  0  0
   -3.3762   -2.6444   -0.3912 H   0  0  0  0  0  0  0  0  0  0  0  0
   -1.5882   -2.1554    0.6658 C   0  0  0  0  0  0  0  0  0  0  0  0
   -0.6832   -2.8764    1.0638 O   0  0  0  0  0  0  0  0  0  0  0  0
   -1.3952   -0.9084    0.2428 N   0  0  0  0  0  0  0  0  0  0  0  0
   -2.1972   -0.3644   -0.0422 H   0  0  0  0  0  0  0  0  0  0  0  0
   -0.1122   -0.1994    0.2658 C   0  0  1  0  0  0  0  0  0  0  0  0
    0.6131   -0.7748   -0.3153 H   0  0  0  0  0  0  0  0  0  0  0  0
   -0.2973    1.1841   -0.3966 C   0  0  0  0  0  0  0  0  0  0  0  0
   -1.3618    1.3987   -0.4844 H   0  0  0  0  0  0  0  0  0  0  0  0
    0.1550    1.9477    0.2344 H   0  0  0  0  0  0  0  0  0  0  0  0
    0.2890    1.2831   -1.7957 C   0  0  0  0  0  0  0  0  0  0  0  0
    0.4764    2.3455   -2.3627 O   0  0  0  0  0  0  0  0  0  0  0  0
    0.5940    0.1669   -2.4116 N   0  0  0  0  0  0  0  0  0  0  0  0
    0.9958    0.2639   -3.3274 H   0  0  0  0  0  0  0  0  0  0  0  0
    0.4672   -0.7188   -1.9594 H   0  0  0  0  0  0  0  0  0  0  0  0
    0.4075   -0.0985    1.7169 C   0  0  0  0  0  0  0  0  0  0  0  0
    1.5860   -0.3526    1.9662 O   0  0  0  0  0  0  0  0  0  0  0  0
   -0.4625    0.2583    2.6666 N   0  0  0  0  0  0  0  0  0  0  0  0
   -1.4309    0.3754    2.3860 H   0  0  0  0  0  0  0  0  0  0  0  0
   -0.1275    0.4111    4.0813 C   0  0  0  0  0  0  0  0  0  0  0  0
    0.6862    1.1312    4.1910 H   0  0  0  0  0  0  0  0  0  0  0  0
   -0.9980    0.7641    4.6360 H   0  0  0  0  0  0  0  0  0  0  0  0
    0.1959   -0.5481    4.4891 H   0  0  0  0  0  0  0  0  0  0  0  0
  5  6  2  0  0  0  0
  5  7  1  0  0  0  0
  2  3  1  0  0  0  0
  2  4  1  0  0  0  0
  2  5  1  0  0  0  0
  1  2  1  0  0  0  0
 19 20  2  0  0  0  0
 19 21  1  0  0  0  0
 16 17  1  0  0  0  0
 16 18  1  0  0  0  0
 14 15  2  0  0  0  0
 14 16  1  0  0  0  0
 11 12  1  0  0  0  0
 11 13  1  0  0  0  0
 11 14  1  0  0  0  0
  9 10  1  0  0  0  0
  9 11  1  0  0  0  0
  9 19  1  0  0  0  0
  7  8  1  0  0  0  0
  7  9  1  0  0  0  0
 23 24  1  0  0  0  0
 23 25  1  0  0  0  0
 23 26  1  0  0  0  0
 21 22  1  0  0  0  0
 21 23  1  0  0  0  0
M  END
$$$$
default_name
  -OEChem-02102213163D

 26 25  0     1  0  0  0  0  0999 V2000
   -3.0232   -3.6924    1.0038 H   0  0  0  0  0  0  0  0  0  0  0  0
   -3.0082   -2.6684    0.6318 C   0  0  0  0  0  0  0  0  0  0  0  0
   -3.6332   -2.0414    1.2658 H   0  0  0  0  0  0  0  0  0  0  0  0
   -3.3762   -2.6444   -0.3912 H   0  0  0  0  0  0  0  0  0  0  0  0
   -1.5882   -2.1554    0.6658 C   0  0  0  0  0  0  0  0  0  0  0  0
   -0.6832   -2.8764    1.0638 O   0  0  0  0  0  0  0  0  0  0  0  0
   -1.3952   -0.9084    0.2428 N   0  0  0  0  0  0  0  0  0  0  0  0
   -2.1972   -0.3644   -0.0422 H   0  0  0  0  0  0  0  0  0  0  0  0
   -0.1122   -0.1994    0.2658 C   0  0  1  0  0  0  0  0  0  0  0  0
    0.6131   -0.7748   -0.3153 H   0  0  0  0  0  0  0  0  0  0  0  0
   -0.2973    1.1841   -0.3966 C   0  0  0  0  0  0  0  0  0  0  0  0
   -1.3618    1.3987   -0.4844 H   0  0  0  0  0  0  0  0  0  0  0  0
    0.1550    1.9477    0.2344 H   0  0  0  0  0  0  0  0  0  0  0  0
    0.2890    1.2831   -1.7957 C   0  0  0  0  0  0  0  0  0  0  0  0
    0.7222    2.3227   -2.2613 O   0  0  0  0  0  0  0  0  0  0  0  0
    0.3154    0.1951   -2.5263 N   0  0  0  0  0  0  0  0  0  0  0  0
    0.7243    0.2868   -3.4396 H   0  0  0  0  0  0  0  0  0  0  0  0
   -0.0173   -0.6765   -2.1595 H   0  0  0  0  0  0  0  0  0  0  0  0
    0.4075   -0.0985    1.7169 C   0  0  0  0  0  0  0  0  0  0  0  0
    1.5860   -0.3526    1.9662 O   0  0  0  0  0  0  0  0  0  0  0  0
   -0.4625    0.2583    2.6666 N   0  0  0  0  0  0  0  0  0  0  0  0
   -1.4309    0.3754    2.3860 H   0  0  0  0  0  0  0  0  0  0  0  0
   -0.1275    0.4111    4.0813 C   0  0  0  0  0  0  0  0  0  0  0  0
    0.6862    1.1312    4.1910 H   0  0  0  0  0  0  0  0  0  0  0  0
   -0.9980    0.7641    4.6360 H   0  0  0  0  0  0  0  0  0  0  0  0
    0.1959   -0.5481    4.4891 H   0  0  0  0  0  0  0  0  0  0  0  0
  5  6  2  0  0  0  0
  5  7  1  0  0  0  0
  2  3  1  0  0  0  0
  2  4  1  0  0  0  0
  2  5  1  0  0  0  0
  1  2  1  0  0  0  0
 19 20  2  0  0  0  0
 19 21  1  0  0  0  0
 16 17  1  0  0  0  0
 16 18  1  0  0  0  0
 14 15  2  0  0  0  0
 14 16  1  0  0  0  0
 11 12  1  0  0  0  0
 11 13  1  0  0  0  0
 11 14  1  0  0  0  0
  9 10  1  0  0  0  0
  9 11  1  0  0  0  0
  9 19  1  0  0  0  0
  7  8  1  0  0  0  0
  7  9  1  0  0  0  0
 23 24  1  0  0  0  0
 23 25  1  0  0  0  0
 23 26  1  0  0  0  0
 21 22  1  0  0  0  0
 21 23  1  0  0  0  0
M  END
$$$$
default_name
  -OEChem-02102213163D

 26 25  0     1  0  0  0  0  0999 V2000
   -3.0232   -3.6924    1.0038 H   0  0  0  0  0  0  0  0  0  0  0  0
   -3.0082   -2.6684    0.6318 C   0  0  0  0  0  0  0  0  0  0  0  0
   -3.6332   -2.0414    1.2658 H   0  0  0  0  0  0  0  0  0  0  0  0
   -3.3762   -2.6444   -0.3912 H   0  0  0  0  0  0  0  0  0  0  0  0
   -1.5882   -2.1554    0.6658 C   0  0  0  0  0  0  0  0  0  0  0  0
   -0.6832   -2.8764    1.0638 O   0  0  0  0  0  0  0  0  0  0  0  0
   -1.3952   -0.9084    0.2428 N   0  0  0  0  0  0  0  0  0  0  0  0
   -2.1972   -0.3644   -0.0422 H   0  0  0  0  0  0  0  0  0  0  0  0
   -0.1122   -0.1994    0.2658 C   0  0  1  0  0  0  0  0  0  0  0  0
    0.6131   -0.7748   -0.3153 H   0  0  0  0  0  0  0  0  0  0  0  0
   -0.2973    1.1841   -0.3966 C   0  0  0  0  0  0  0  0  0  0  0  0
   -1.3618    1.3987   -0.4844 H   0  0  0  0  0  0  0  0  0  0  0  0
    0.1550    1.9477    0.2344 H   0  0  0  0  0  0  0  0  0  0  0  0
    0.2890    1.2831   -1.7957 C   0  0  0  0  0  0  0  0  0  0  0  0
    0.9560    2.2321   -2.1698 O   0  0  0  0  0  0  0  0  0  0  0  0
    0.0510    0.3003   -2.6297 N   0  0  0  0  0  0  0  0  0  0  0  0
    0.4657    0.3847   -3.5411 H   0  0  0  0  0  0  0  0  0  0  0  0
   -0.4786   -0.5002   -2.3403 H   0  0  0  0  0  0  0  0  0  0  0  0
    0.4075   -0.0985    1.7169 C   0  0  0  0  0  0  0  0  0  0  0  0
    1.5860   -0.3526    1.9662 O   0  0  0  0  0  0  0  0  0  0  0  0
   -0.4625    0.2583    2.6666 N   0  0  0  0  0  0  0  0  0  0  0  0
   -1.4309    0.3754    2.3860 H   0  0  0  0  0  0  0  0  0  0  0  0
   -0.1275    0.4111    4.0813 C   0  0  0  0  0  0  0  0  0  0  0  0
    0.6862    1.1312    4.1910 H   0  0  0  0  0  0  0  0  0  0  0  0
   -0.9980    0.7641    4.6360 H   0  0  0  0  0  0  0  0  0  0  0  0
    0.1959   -0.5481    4.4891 H   0  0  0  0  0  0  0  0  0  0  0  0
  5  6  2  0  0  0  0
  5  7  1  0  0  0  0
  2  3  1  0  0  0  0
  2  4  1  0  0  0  0
  2  5  1  0  0  0  0
  1  2  1  0  0  0  0
 19 20  2  0  0  0  0
 19 21  1  0  0  0  0
 16 17  1  0  0  0  0
 16 18  1  0  0  0  0
 14 15  2  0  0  0  0
 14 16  1  0  0  0  0
 11 12  1  0  0  0  0
 11 13  1  0  0  0  0
 11 14  1  0  0  0  0
  9 10  1  0  0  0  0
  9 11  1  0  0  0  0
  9 19  1  0  0  0  0
  7  8  1  0  0  0  0
  7  9  1  0  0  0  0
 23 24  1  0  0  0  0
 23 25  1  0  0  0  0
 23 26  1  0  0  0  0
 21 22  1  0  0  0  0
 21 23  1  0  0  0  0
M  END
$$$$
default_name
  -OEChem-02102213163D

 26 25  0     1  0  0  0  0  0999 V2000
   -3.0232   -3.6924    1.0038 H   0  0  0  0  0  0  0  0  0  0  0  0
   -3.0082   -2.6684    0.6318 C   0  0  0  0  0  0  0  0  0  0  0  0
   -3.6332   -2.0414    1.2658 H   0  0  0  0  0  0  0  0  0  0  0  0
   -3.3762   -2.6444   -0.3912 H   0  0  0  0  0  0  0  0  0  0  0  0
   -1.5882   -2.1554    0.6658 C   0  0  0  0  0  0  0  0  0  0  0  0
   -0.6832   -2.8764    1.0638 O   0  0  0  0  0  0  0  0  0  0  0  0
   -1.3952   -0.9084    0.2428 N   0  0  0  0  0  0  0  0  0  0  0  0
   -2.1972   -0.3644   -0.0422 H   0  0  0  0  0  0  0  0  0  0  0  0
   -0.1122   -0.1994    0.2658 C   0  0  1  0  0  0  0  0  0  0  0  0
    0.6131   -0.7748   -0.3153 H   0  0  0  0  0  0  0  0  0  0  0  0
   -0.2973    1.1841   -0.3966 C   0  0  0  0  0  0  0  0  0  0  0  0
   -1.3618    1.3987   -0.4844 H   0  0  0  0  0  0  0  0  0  0  0  0
    0.1550    1.9477    0.2344 H   0  0  0  0  0  0  0  0  0  0  0  0
    0.2890    1.2831   -1.7957 C   0  0  0  0  0  0  0  0  0  0  0  0
    1.1617    2.0797   -2.0943 O   0  0  0  0  0  0  0  0  0  0  0  0
   -0.1810    0.4751   -2.7146 N   0  0  0  0  0  0  0  0  0  0  0  0
    0.2375    0.5511   -3.6249 H   0  0  0  0  0  0  0  0  0  0  0  0
   -0.8853   -0.2020   -2.4897 H   0  0  0  0  0  0  0  0  0  0  0  0
    0.4075   -0.0985    1.7169 C   0  0  0  0  0  0  0  0  0  0  0  0
    1.5860   -0.3526    1.9662 O   0  0  0  0  0  0  0  0  0  0  0  0
   -0.4625    0.2583    2.6666 N   0  0  0  0  0  0  0  0  0  0  0  0
   -1.4309    0.3754    2.3860 H   0  0  0  0  0  0  0  0  0  0  0  0
   -0.1275    0.4111    4.0813 C   0  0  0  0  0  0  0  0  0  0  0  0
    0.6862    1.1312    4.1910 H   0  0  0  0  0  0  0  0  0  0  0  0
   -0.9980    0.7641    4.6360 H   0  0  0  0  0  0  0  0  0  0  0  0
    0.1959   -0.5481    4.4891 H   0  0  0  0  0  0  0  0  0  0  0  0
  5  6  2  0  0  0  0
  5  7  1  0  0  0  0
  2  3  1  0  0  0  0
  2  4  1  0  0  0  0
  2  5  1  0  0  0  0
  1  2  1  0  0  0  0
 19 20  2  0  0  0  0
 19 21  1  0  0  0  0
 16 17  1  0  0  0  0
 16 18  1  0  0  0  0
 14 15  2  0  0  0  0
 14 16  1  0  0  0  0
 11 12  1  0  0  0  0
 11 13  1  0  0  0  0
 11 14  1  0  0  0  0
  9 10  1  0  0  0  0
  9 11  1  0  0  0  0
  9 19  1  0  0  0  0
  7  8  1  0  0  0  0
  7  9  1  0  0  0  0
 23 24  1  0  0  0  0
 23 25  1  0  0  0  0
 23 26  1  0  0  0  0
 21 22  1  0  0  0  0
 21 23  1  0  0  0  0
M  END
$$$$
default_name
  -OEChem-02102213163D

 26 25  0     1  0  0  0  0  0999 V2000
   -3.0232   -3.6924    1.0038 H   0  0  0  0  0  0  0  0  0  0  0  0
   -3.0082   -2.6684    0.6318 C   0  0  0  0  0  0  0  0  0  0  0  0
   -3.6332   -2.0414    1.2658 H   0  0  0  0  0  0  0  0  0  0  0  0
   -3.3762   -2.6444   -0.3912 H   0  0  0  0  0  0  0  0  0  0  0  0
   -1.5882   -2.1554    0.6658 C   0  0  0  0  0  0  0  0  0  0  0  0
   -0.6832   -2.8764    1.0638 O   0  0  0  0  0  0  0  0  0  0  0  0
   -1.3952   -0.9084    0.2428 N   0  0  0  0  0  0  0  0  0  0  0  0
   -2.1972   -0.3644   -0.0422 H   0  0  0  0  0  0  0  0  0  0  0  0
   -0.1122   -0.1994    0.2658 C   0  0  1  0  0  0  0  0  0  0  0  0
    0.6131   -0.7748   -0.3153 H   0  0  0  0  0  0  0  0  0  0  0  0
   -0.2973    1.1841   -0.3966 C   0  0  0  0  0  0  0  0  0  0  0  0
   -1.3618    1.3987   -0.4844 H   0  0  0  0  0  0  0  0  0  0  0  0
    0.1550    1.9477    0.2344 H   0  0  0  0  0  0  0  0  0  0  0  0
    0.2890    1.2831   -1.7957 C   0  0  0  0  0  0  0  0  0  0  0  0
    1.3254    1.8760   -2.0402 O   0  0  0  0  0  0  0  0  0  0  0  0
   -0.3649    0.7076   -2.7752 N   0  0  0  0  0  0  0  0  0  0  0  0
    0.0552    0.7746   -3.6855 H   0  0  0  0  0  0  0  0  0  0  0  0
   -1.2096    0.1978   -2.5973 H   0  0  0  0  0  0  0  0  0  0  0  0
    0.4075   -0.0985    1.7169 C   0  0  0  0  0  0  0  0  0  0  0  0
    1.5860   -0.3526    1.9662 O   0  0  0  0  0  0  0  0  0  0  0  0
   -0.4625    0.2583    2.6666 N   0  0  0  0  0  0  0  0  0  0  0  0
   -1.4309    0.3754    2.3860 H   0  0  0  0  0  0  0  0  0  0  0  0
   -0.1275    0.4111    4.0813 C   0  0  0  0  0  0  0  0  0  0  0  0
    0.6862    1.1312    4.1910 H   0  0  0  0  0  0  0  0  0  0  0  0
   -0.9980    0.7641    4.6360 H   0  0  0  0  0  0  0  0  0  0  0  0
    0.1959   -0.5481    4.4891 H   0  0  0  0  0  0  0  0  0  0  0  0
  5  6  2  0  0  0  0
  5  7  1  0  0  0  0
  2  3  1  0  0  0  0
  2  4  1  0  0  0  0
  2  5  1  0  0  0  0
  1  2  1  0  0  0  0
 19 20  2  0  0  0  0
 19 21  1  0  0  0  0
 16 17  1  0  0  0  0
 16 18  1  0  0  0  0
 14 15  2  0  0  0  0
 14 16  1  0  0  0  0
 11 12  1  0  0  0  0
 11 13  1  0  0  0  0
 11 14  1  0  0  0  0
  9 10  1  0  0  0  0
  9 11  1  0  0  0  0
  9 19  1  0  0  0  0
  7  8  1  0  0  0  0
  7  9  1  0  0  0  0
 23 24  1  0  0  0  0
 23 25  1  0  0  0  0
 23 26  1  0  0  0  0
 21 22  1  0  0  0  0
 21 23  1  0  0  0  0
M  END
$$$$
default_name
  -OEChem-02102213163D

 26 25  0     1  0  0  0  0  0999 V2000
   -3.0232   -3.6924    1.0038 H   0  0  0  0  0  0  0  0  0  0  0  0
   -3.0082   -2.6684    0.6318 C   0  0  0  0  0  0  0  0  0  0  0  0
   -3.6332   -2.0414    1.2658 H   0  0  0  0  0  0  0  0  0  0  0  0
   -3.3762   -2.6444   -0.3912 H   0  0  0  0  0  0  0  0  0  0  0  0
   -1.5882   -2.1554    0.6658 C   0  0  0  0  0  0  0  0  0  0  0  0
   -0.6832   -2.8764    1.0638 O   0  0  0  0  0  0  0  0  0  0  0  0
   -1.3952   -0.9084    0.2428 N   0  0  0  0  0  0  0  0  0  0  0  0
   -2.1972   -0.3644   -0.0422 H   0  0  0  0  0  0  0  0  0  0  0  0
   -0.1122   -0.1994    0.2658 C   0  0  1  0  0  0  0  0  0  0  0  0
    0.6131   -0.7748   -0.3153 H   0  0  0  0  0  0  0  0  0  0  0  0
   -0.2973    1.1841   -0.3966 C   0  0  0  0  0  0  0  0  0  0  0  0
   -1.3618    1.3987   -0.4844 H   0  0  0  0  0  0  0  0  0  0  0  0
    0.1550    1.9477    0.2344 H   0  0  0  0  0  0  0  0  0  0  0  0
    0.2890    1.2831   -1.7957 C   0  0  0  0  0  0  0  0  0  0  0  0
    1.4359    1.6348   -2.0109 O   0  0  0  0  0  0  0  0  0  0  0  0
   -0.4882    0.9822   -2.8074 N   0  0  0  0  0  0  0  0  0  0  0  0
   -0.0686    1.0398   -3.7186 H   0  0  0  0  0  0  0  0  0  0  0  0
   -1.4294    0.6719   -2.6558 H   0  0  0  0  0  0  0  0  0  0  0  0
    0.4075   -0.0985    1.7169 C   0  0  0  0  0  0  0  0  0  0  0  0
    1.5860   -0.3526    1.9662 O   0  0  0  0  0  0  0  0  0  0  0  0
   -0.4625    0.2583    2.6666 N   0  0  0  0  0  0  0  0  0  0  0  0
   -1.4309    0.3754    2.3860 H   0  0  0  0  0  0  0  0  0  0  0  0
   -0.1275    0.4111    4.0813 C   0  0  0  0  0  0  0  0  0  0  0  0
    0.6862    1.1312    4.1910 H   0  0  0  0  0  0  0  0  0  0  0  0
   -0.9980    0.7641    4.6360 H   0  0  0  0  0  0  0  0  0  0  0  0
    0.1959   -0.5481    4.4891 H   0  0  0  0  0  0  0  0  0  0  0  0
  5  6  2  0  0  0  0
  5  7  1  0  0  0  0
  2  3  1  0  0  0  0
  2  4  1  0  0  0  0
  2  5  1  0  0  0  0
  1  2  1  0  0  0  0
 19 20  2  0  0  0  0
 19 21  1  0  0  0  0
 16 17  1  0  0  0  0
 16 18  1  0  0  0  0
 14 15  2  0  0  0  0
 14 16  1  0  0  0  0
 11 12  1  0  0  0  0
 11 13  1  0  0  0  0
 11 14  1  0  0  0  0
  9 10  1  0  0  0  0
  9 11  1  0  0  0  0
  9 19  1  0  0  0  0
  7  8  1  0  0  0  0
  7  9  1  0  0  0  0
 23 24  1  0  0  0  0
 23 25  1  0  0  0  0
 23 26  1  0  0  0  0
 21 22  1  0  0  0  0
 21 23  1  0  0  0  0
M  END
$$$$
default_name
  -OEChem-02102213163D

 26 25  0     1  0  0  0  0  0999 V2000
   -3.0232   -3.6924    1.0038 H   0  0  0  0  0  0  0  0  0  0  0  0
   -3.0082   -2.6684    0.6318 C   0  0  0  0  0  0  0  0  0  0  0  0
   -3.6332   -2.0414    1.2658 H   0  0  0  0  0  0  0  0  0  0  0  0
   -3.3762   -2.6444   -0.3912 H   0  0  0  0  0  0  0  0  0  0  0  0
   -1.5882   -2.1554    0.6658 C   0  0  0  0  0  0  0  0  0  0  0  0
   -0.6832   -2.8764    1.0638 O   0  0  0  0  0  0  0  0  0  0  0  0
   -1.3952   -0.9084    0.2428 N   0  0  0  0  0  0  0  0  0  0  0  0
   -2.1972   -0.3644   -0.0422 H   0  0  0  0  0  0  0  0  0  0  0  0
   -0.1122   -0.1994    0.2658 C   0  0  1  0  0  0  0  0  0  0  0  0
    0.6131   -0.7748   -0.3153 H   0  0  0  0  0  0  0  0  0  0  0  0
   -0.2973    1.1841   -0.3966 C   0  0  0  0  0  0  0  0  0  0  0  0
   -1.3618    1.3987   -0.4844 H   0  0  0  0  0  0  0  0  0  0  0  0
    0.1550    1.9477    0.2344 H   0  0  0  0  0  0  0  0  0  0  0  0
    0.2890    1.2831   -1.7957 C   0  0  0  0  0  0  0  0  0  0  0  0
    1.4856    1.3727   -2.0086 O   0  0  0  0  0  0  0  0  0  0  0  0
   -0.5424    1.2799   -2.8091 N   0  0  0  0  0  0  0  0  0  0  0  0
   -0.1255    1.3289   -3.7220 H   0  0  0  0  0  0  0  0  0  0  0  0
   -1.5297    1.1881   -2.6614 H   0  0  0  0  0  0  0  0  0  0  0  0
    0.4075   -0.0985    1.7169 C   0  0  0  0  0  0  0  0  0  0  0  0
    1.5860   -0.3526    1.9662 O   0  0  0  0  0  0  0  0  0  0  0  0
   -0.4625    0.2583    2.6666 N   0  0  0  0  0  0  0  0  0  0  0  0
   -1.4309    0.3754    2.3860 H   0  0  0  0  0  0  0  0  0  0  0  0
   -0.1275    0.4111    4.0813 C   0  0  0  0  0  0  0  0  0  0  0  0
    0.6862    1.1312    4.1910 H   0  0  0  0  0  0  0  0  0  0  0  0
   -0.9980    0.7641    4.6360 H   0  0  0  0  0  0  0  0  0  0  0  0
    0.1959   -0.5481    4.4891 H   0  0  0  0  0  0  0  0  0  0  0  0
  5  6  2  0  0  0  0
  5  7  1  0  0  0  0
  2  3  1  0  0  0  0
  2  4  1  0  0  0  0
  2  5  1  0  0  0  0
  1  2  1  0  0  0  0
 19 20  2  0  0  0  0
 19 21  1  0  0  0  0
 16 17  1  0  0  0  0
 16 18  1  0  0  0  0
 14 15  2  0  0  0  0
 14 16  1  0  0  0  0
 11 12  1  0  0  0  0
 11 13  1  0  0  0  0
 11 14  1  0  0  0  0
  9 10  1  0  0  0  0
  9 11  1  0  0  0  0
  9 19  1  0  0  0  0
  7  8  1  0  0  0  0
  7  9  1  0  0  0  0
 23 24  1  0  0  0  0
 23 25  1  0  0  0  0
 23 26  1  0  0  0  0
 21 22  1  0  0  0  0
 21 23  1  0  0  0  0
M  END
$$$$
default_name
  -OEChem-02102213163D

 26 25  0     1  0  0  0  0  0999 V2000
   -3.0232   -3.6924    1.0038 H   0  0  0  0  0  0  0  0  0  0  0  0
   -3.0082   -2.6684    0.6318 C   0  0  0  0  0  0  0  0  0  0  0  0
   -3.6332   -2.0414    1.2658 H   0  0  0  0  0  0  0  0  0  0  0  0
   -3.3762   -2.6444   -0.3912 H   0  0  0  0  0  0  0  0  0  0  0  0
   -1.5882   -2.1554    0.6658 C   0  0  0  0  0  0  0  0  0  0  0  0
   -0.6832   -2.8764    1.0638 O   0  0  0  0  0  0  0  0  0  0  0  0
   -1.3952   -0.9084    0.2428 N   0  0  0  0  0  0  0  0  0  0  0  0
   -2.1972   -0.3644   -0.0422 H   0  0  0  0  0  0  0  0  0  0  0  0
   -0.1122   -0.1994    0.2658 C   0  0  1  0  0  0  0  0  0  0  0  0
    0.6131   -0.7748   -0.3153 H   0  0  0  0  0  0  0  0  0  0  0  0
   -0.2973    1.1841   -0.3966 C   0  0  0  0  0  0  0  0  0  0  0  0
   -1.3618    1.3987   -0.4844 H   0  0  0  0  0  0  0  0  0  0  0  0
    0.1550    1.9477    0.2344 H   0  0  0  0  0  0  0  0  0  0  0  0
    0.2890    1.2831   -1.7957 C   0  0  0  0  0  0  0  0  0  0  0  0
    1.4713    1.1073   -2.0334 O   0  0  0  0  0  0  0  0  0  0  0  0
   -0.5239    1.5806   -2.7800 N   0  0  0  0  0  0  0  0  0  0  0  0
   -0.1118    1.6219   -3.6955 H   0  0  0  0  0  0  0  0  0  0  0  0
   -1.5038    1.7112   -2.6135 H   0  0  0  0  0  0  0  0  0  0  0  0
    0.4075   -0.0985    1.7169 C   0  0  0  0  0  0  0  0  0  0  0  0
    1.5860   -0.3526    1.9662 O   0  0  0  0  0  0  0  0  0  0  0  0
   -0.4625    0.2583    2.6666 N   0  0  0  0  0  0  0  0  0  0  0  0
   -1.4309    0.3754    2.3860 H   0  0  0  0  0  0  0  0  0  0  0  0
   -0.1275    0.4111    4.0813 C   0  0  0  0  0  0  0  0  0  0  0  0
    0.6862    1.1312    4.1910 H   0  0  0  0  0  0  0  0  0  0  0  0
   -0.9980    0.7641    4.6360 H   0  0  0  0  0  0  0  0  0  0  0  0
    0.1959   -0.5481    4.4891 H   0  0  0  0  0  0  0  0  0  0  0  0
  5  6  2  0  0  0  0
  5  7  1  0  0  0  0
  2  3  1  0  0  0  0
  2  4  1  0  0  0  0
  2  5  1  0  0  0  0
  1  2  1  0  0  0  0
 19 20  2  0  0  0  0
 19 21  1  0  0  0  0
 16 17  1  0  0  0  0
 16 18  1  0  0  0  0
 14 15  2  0  0  0  0
 14 16  1  0  0  0  0
 11 12  1  0  0  0  0
 11 13  1  0  0  0  0
 11 14  1  0  0  0  0
  9 10  1  0  0  0  0
  9 11  1  0  0  0  0
  9 19  1  0  0  0  0
  7  8  1  0  0  0  0
  7  9  1  0  0  0  0
 23 24  1  0  0  0  0
 23 25  1  0  0  0  0
 23 26  1  0  0  0  0
 21 22  1  0  0  0  0
 21 23  1  0  0  0  0
M  END
$$$$
default_name
  -OEChem-02102213163D

 26 25  0     1  0  0  0  0  0999 V2000
   -3.0232   -3.6924    1.0038 H   0  0  0  0  0  0  0  0  0  0  0  0
   -3.0082   -2.6684    0.6318 C   0  0  0  0  0  0  0  0  0  0  0  0
   -3.6332   -2.0414    1.2658 H   0  0  0  0  0  0  0  0  0  0  0  0
   -3.3762   -2.6444   -0.3912 H   0  0  0  0  0  0  0  0  0  0  0  0
   -1.5882   -2.1554    0.6658 C   0  0  0  0  0  0  0  0  0  0  0  0
   -0.6832   -2.8764    1.0638 O   0  0  0  0  0  0  0  0  0  0  0  0
   -1.3952   -0.9084    0.2428 N   0  0  0  0  0  0  0  0  0  0  0  0
   -2.1972   -0.3644   -0.0422 H   0  0  0  0  0  0  0  0  0  0  0  0
   -0.1122   -0.1994    0.2658 C   0  0  1  0  0  0  0  0  0  0  0  0
    0.6131   -0.7748   -0.3153 H   0  0  0  0  0  0  0  0  0  0  0  0
   -0.2973    1.1841   -0.3966 C   0  0  0  0  0  0  0  0  0  0  0  0
   -1.3618    1.3987   -0.4844 H   0  0  0  0  0  0  0  0  0  0  0  0
    0.1550    1.9477    0.2344 H   0  0  0  0  0  0  0  0  0  0  0  0
    0.2890    1.2831   -1.7957 C   0  0  0  0  0  0  0  0  0  0  0  0
    1.3939    0.8569   -2.0836 O   0  0  0  0  0  0  0  0  0  0  0  0
   -0.4339    1.8637   -2.7222 N   0  0  0  0  0  0  0  0  0  0  0  0
   -0.0282    1.8991   -3.6408 H   0  0  0  0  0  0  0  0  0  0  0  0
   -1.3534    2.2055   -2.5154 H   0  0  0  0  0  0  0  0  0  0  0  0
    0.4075   -0.0985    1.7169 C   0  0  0  0  0  0  0  0  0  0  0  0
    1.5860   -0.3526    1.9662 O   0  0  0  0  0  0  0  0  0  0  0  0
   -0.4625    0.2583    2.6666 N   0  0  0  0  0  0  0  0  0  0  0  0
   -1.4309    0.3754    2.3860 H   0  0  0  0  0  0  0  0  0  0  0  0
   -0.1275    0.4111    4.0813 C   0  0  0  0  0  0  0  0  0  0  0  0
    0.6862    1.1312    4.1910 H   0  0  0  0  0  0  0  0  0  0  0  0
   -0.9980    0.7641    4.6360 H   0  0  0  0  0  0  0  0  0  0  0  0
    0.1959   -0.5481    4.4891 H   0  0  0  0  0  0  0  0  0  0  0  0
  5  6  2  0  0  0  0
  5  7  1  0  0  0  0
  2  3  1  0  0  0  0
  2  4  1  0  0  0  0
  2  5  1  0  0  0  0
  1  2  1  0  0  0  0
 19 20  2  0  0  0  0
 19 21  1  0  0  0  0
 16 17  1  0  0  0  0
 16 18  1  0  0  0  0
 14 15  2  0  0  0  0
 14 16  1  0  0  0  0
 11 12  1  0  0  0  0
 11 13  1  0  0  0  0
 11 14  1  0  0  0  0
  9 10  1  0  0  0  0
  9 11  1  0  0  0  0
  9 19  1  0  0  0  0
  7  8  1  0  0  0  0
  7  9  1  0  0  0  0
 23 24  1  0  0  0  0
 23 25  1  0  0  0  0
 23 26  1  0  0  0  0
 21 22  1  0  0  0  0
 21 23  1  0  0  0  0
M  END
$$$$
default_name
  -OEChem-02102213163D

 26 25  0     1  0  0  0  0  0999 V2000
   -3.0232   -3.6924    1.0038 H   0  0  0  0  0  0  0  0  0  0  0  0
   -3.0082   -2.6684    0.6318 C   0  0  0  0  0  0  0  0  0  0  0  0
   -3.6332   -2.0414    1.2658 H   0  0  0  0  0  0  0  0  0  0  0  0
   -3.3762   -2.6444   -0.3912 H   0  0  0  0  0  0  0  0  0  0  0  0
   -1.5882   -2.1554    0.6658 C   0  0  0  0  0  0  0  0  0  0  0  0
   -0.6832   -2.8764    1.0638 O   0  0  0  0  0  0  0  0  0  0  0  0
   -1.3952   -0.9084    0.2428 N   0  0  0  0  0  0  0  0  0  0  0  0
   -2.1972   -0.3644   -0.0422 H   0  0  0  0  0  0  0  0  0  0  0  0
   -0.1122   -0.1994    0.2658 C   0  0  1  0  0  0  0  0  0  0  0  0
    0.6131   -0.7748   -0.3153 H   0  0  0  0  0  0  0  0  0  0  0  0
   -0.2973    1.1841   -0.3966 C   0  0  0  0  0  0  0  0  0  0  0  0
   -1.3618    1.3987   -0.4844 H   0  0  0  0  0  0  0  0  0  0  0  0
    0.1550    1.9477    0.2344 H   0  0  0  0  0  0  0  0  0  0  0  0
    0.2890    1.2831   -1.7957 C   0  0  0  0  0  0  0  0  0  0  0  0
    1.2585    0.6385   -2.1558 O   0  0  0  0  0  0  0  0  0  0  0  0
   -0.2786    2.1100   -2.6397 N   0  0  0  0  0  0  0  0  0  0  0  0
    0.1194    2.1415   -3.5618 H   0  0  0  0  0  0  0  0  0  0  0  0
   -1.0887    2.6374   -2.3739 H   0  0  0  0  0  0  0  0  0  0  0  0
    0.4075   -0.0985    1.7169 C   0  0  0  0  0  0  0  0  0  0  0  0
    1.5860   -0.3526    1.9662 O   0  0  0  0  0  0  0  0  0  0  0  0
   -0.4625    0.2583    2.6666 N   0  0  0  0  0  0  0  0  0  0  0  0
   -1.4309    0.3754    2.3860 H   0  0  0  0  0  0  0  0  0  0  0  0
   -0.1275    0.4111    4.0813 C   0  0  0  0  0  0  0  0  0  0  0  0
    0.6862    1.1312    4.1910 H   0  0  0  0  0  0  0  0  0  0  0  0
   -0.9980    0.7641    4.6360 H   0  0  0  0  0  0  0  0  0  0  0  0
    0.1959   -0.5481    4.4891 H   0  0  0  0  0  0  0  0  0  0  0  0
  5  6  2  0  0  0  0
  5  7  1  0  0  0  0
  2  3  1  0  0  0  0
  2  4  1  0  0  0  0
  2  5  1  0  0  0  0
  1  2  1  0  0  0  0
 19 20  2  0  0  0  0
 19 21  1  0  0  0  0
 16 17  1  0  0  0  0
 16 18  1  0  0  0  0
 14 15  2  0  0  0  0
 14 16  1  0  0  0  0
 11 12  1  0  0  0  0
 11 13  1  0  0  0  0
 11 14  1  0  0  0  0
  9 10  1  0  0  0  0
  9 11  1  0  0  0  0
  9 19  1  0  0  0  0
  7  8  1  0  0  0  0
  7  9  1  0  0  0  0
 23 24  1  0  0  0  0
 23 25  1  0  0  0  0
 23 26  1  0  0  0  0
 21 22  1  0  0  0  0
 21 23  1  0  0  0  0
M  END
$$$$
default_name
  -OEChem-02102213163D

 26 25  0     1  0  0  0  0  0999 V2000
   -3.0232   -3.6924    1.0038 H   0  0  0  0  0  0  0  0  0  0  0  0
   -3.0082   -2.6684    0.6318 C   0  0  0  0  0  0  0  0  0  0  0  0
   -3.6332   -2.0414    1.2658 H   0  0  0  0  0  0  0  0  0  0  0  0
   -3.3762   -2.6444   -0.3912 H   0  0  0  0  0  0  0  0  0  0  0  0
   -1.5882   -2.1554    0.6658 C   0  0  0  0  0  0  0  0  0  0  0  0
   -0.6832   -2.8764    1.0638 O   0  0  0  0  0  0  0  0  0  0  0  0
   -1.3952   -0.9084    0.2428 N   0  0  0  0  0  0  0  0  0  0  0  0
   -2.1972   -0.3644   -0.0422 H   0  0  0  0  0  0  0  0  0  0  0  0
   -0.1122   -0.1994    0.2658 C   0  0  1  0  0  0  0  0  0  0  0  0
    0.6131   -0.7748   -0.3153 H   0  0  0  0  0  0  0  0  0  0  0  0
   -0.2973    1.1841   -0.3966 C   0  0  0  0  0  0  0  0  0  0  0  0
   -1.3618    1.3987   -0.4844 H   0  0  0  0  0  0  0  0  0  0  0  0
    0.1550    1.9477    0.2344 H   0  0  0  0  0  0  0  0  0  0  0  0
    0.2890    1.2831   -1.7957 C   0  0  0  0  0  0  0  0  0  0  0  0
    1.0746    0.4669   -2.2450 O   0  0  0  0  0  0  0  0  0  0  0  0
   -0.0685    2.3027   -2.5380 N   0  0  0  0  0  0  0  0  0  0  0  0
    0.3211    2.3325   -3.4637 H   0  0  0  0  0  0  0  0  0  0  0  0
   -0.7278    2.9773   -2.1986 H   0  0  0  0  0  0  0  0  0  0  0  0
    0.4075   -0.0985    1.7169 C   0  0  0  0  0  0  0  0  0  0  0  0
    1.5860   -0.3526    1.9662 O   0  0  0  0  0  0  0  0  0  0  0  0
   -0.4625    0.2583    2.6666 N   0  0  0  0  0  0  0  0  0  0  0  0
   -1.4309    0.3754    2.3860 H   0  0  0  0  0  0  0  0  0  0  0  0
   -0.1275    0.4111    4.0813 C   0  0  0  0  0  0  0  0  0  0  0  0
    0.6862    1.1312    4.1910 H   0  0  0  0  0  0  0  0  0  0  0  0
   -0.9980    0.7641    4.6360 H   0  0  0  0  0  0  0  0  0  0  0  0
    0.1959   -0.5481    4.4891 H   0  0  0  0  0  0  0  0  0  0  0  0
  5  6  2  0  0  0  0
  5  7  1  0  0  0  0
  2  3  1  0  0  0  0
  2  4  1  0  0  0  0
  2  5  1  0  0  0  0
  1  2  1  0  0  0  0
 19 20  2  0  0  0  0
 19 21  1  0  0  0  0
 16 17  1  0  0  0  0
 16 18  1  0  0  0  0
 14 15  2  0  0  0  0
 14 16  1  0  0  0  0
 11 12  1  0  0  0  0
 11 13  1  0  0  0  0
 11 14  1  0  0  0  0
  9 10  1  0  0  0  0
  9 11  1  0  0  0  0
  9 19  1  0  0  0  0
  7  8  1  0  0  0  0
  7  9  1  0  0  0  0
 23 24  1  0  0  0  0
 23 25  1  0  0  0  0
 23 26  1  0  0  0  0
 21 22  1  0  0  0  0
 21 23  1  0  0  0  0
M  END
$$$$
default_name
  -OEChem-02102213163D

 26 25  0     1  0  0  0  0  0999 V2000
   -3.0232   -3.6924    1.0038 H   0  0  0  0  0  0  0  0  0  0  0  0
   -3.0082   -2.6684    0.6318 C   0  0  0  0  0  0  0  0  0  0  0  0
   -3.6332   -2.0414    1.2658 H   0  0  0  0  0  0  0  0  0  0  0  0
   -3.3762   -2.6444   -0.3912 H   0  0  0  0  0  0  0  0  0  0  0  0
   -1.5882   -2.1554    0.6658 C   0  0  0  0  0  0  0  0  0  0  0  0
   -0.6832   -2.8764    1.0638 O   0  0  0  0  0  0  0  0  0  0  0  0
   -1.3952   -0.9084    0.2428 N   0  0  0  0  0  0  0  0  0  0  0  0
   -2.1972   -0.3644   -0.0422 H   0  0  0  0  0  0  0  0  0  0  0  0
   -0.1122   -0.1994    0.2658 C   0  0  1  0  0  0  0  0  0  0  0  0
    0.6131   -0.7748   -0.3153 H   0  0  0  0  0  0  0  0  0  0  0  0
   -0.2973    1.1841   -0.3966 C   0  0  0  0  0  0  0  0  0  0  0  0
   -1.3618    1.3987   -0.4844 H   0  0  0  0  0  0  0  0  0  0  0  0
    0.1550    1.9477    0.2344 H   0  0  0  0  0  0  0  0  0  0  0  0
    0.2890    1.2831   -1.7957 C   0  0  0  0  0  0  0  0  0  0  0  0
    0.8546    0.3540   -2.3452 O   0  0  0  0  0  0  0  0  0  0  0  0
    0.1821    2.4286   -2.4241 N   0  0  0  0  0  0  0  0  0  0  0  0
    0.5631    2.4593   -3.3533 H   0  0  0  0  0  0  0  0  0  0  0  0
   -0.2952    3.2022   -2.0013 H   0  0  0  0  0  0  0  0  0  0  0  0
    0.4075   -0.0985    1.7169 C   0  0  0  0  0  0  0  0  0  0  0  0
    1.5860   -0.3526    1.9662 O   0  0  0  0  0  0  0  0  0  0  0  0
   -0.4625    0.2583    2.6666 N   0  0  0  0  0  0  0  0  0  0  0  0
   -1.4309    0.3754    2.3860 H   0  0  0  0  0  0  0  0  0  0  0  0
   -0.1275    0.4111    4.0813 C   0  0  0  0  0  0  0  0  0  0  0  0
    0.6862    1.1312    4.1910 H   0  0  0  0  0  0  0  0  0  0  0  0
   -0.9980    0.7641    4.6360 H   0  0  0  0  0  0  0  0  0  0  0  0
    0.1959   -0.5481    4.4891 H   0  0  0  0  0  0  0  0  0  0  0  0
  5  6  2  0  0  0  0
  5  7  1  0  0  0  0
  2  3  1  0  0  0  0
  2  4  1  0  0  0  0
  2  5  1  0  0  0  0
  1  2  1  0  0  0  0
 19 20  2  0  0  0  0
 19 21  1  0  0  0  0
 16 17  1  0  0  0  0
 16 18  1  0  0  0  0
 14 15  2  0  0  0  0
 14 16  1  0  0  0  0
 11 12  1  0  0  0  0
 11 13  1  0  0  0  0
 11 14  1  0  0  0  0
  9 10  1  0  0  0  0
  9 11  1  0  0  0  0
  9 19  1  0  0  0  0
  7  8  1  0  0  0  0
  7  9  1  0  0  0  0
 23 24  1  0  0  0  0
 23 25  1  0  0  0  0
 23 26  1  0  0  0  0
 21 22  1  0  0  0  0
 21 23  1  0  0  0  0
M  END
$$$$
default_name
  -OEChem-02102213163D

 26 25  0     1  0  0  0  0  0999 V2000
   -3.0232   -3.6924    1.0038 H   0  0  0  0  0  0  0  0  0  0  0  0
   -3.0082   -2.6684    0.6318 C   0  0  0  0  0  0  0  0  0  0  0  0
   -3.6332   -2.0414    1.2658 H   0  0  0  0  0  0  0  0  0  0  0  0
   -3.3762   -2.6444   -0.3912 H   0  0  0  0  0  0  0  0  0  0  0  0
   -1.5882   -2.1554    0.6658 C   0  0  0  0  0  0  0  0  0  0  0  0
   -0.6832   -2.8764    1.0638 O   0  0  0  0  0  0  0  0  0  0  0  0
   -1.3952   -0.9084    0.2428 N   0  0  0  0  0  0  0  0  0  0  0  0
   -2.1972   -0.3644   -0.0422 H   0  0  0  0  0  0  0  0  0  0  0  0
   -0.1122   -0.1994    0.2658 C   0  0  1  0  0  0  0  0  0  0  0  0
    0.6131   -0.7748   -0.3153 H   0  0  0  0  0  0  0  0  0  0  0  0
   -0.2973    1.1841   -0.3966 C   0  0  0  0  0  0  0  0  0  0  0  0
   -1.3618    1.3987   -0.4844 H   0  0  0  0  0  0  0  0  0  0  0  0
    0.1550    1.9477    0.2344 H   0  0  0  0  0  0  0  0  0  0  0  0
    0.2890    1.2831   -1.7957 C   0  0  0  0  0  0  0  0  0  0  0  0
    0.6134    0.3073   -2.4496 O   0  0  0  0  0  0  0  0  0  0  0  0
    0.4560    2.4791   -2.3057 N   0  0  0  0  0  0  0  0  0  0  0  0
    0.8289    2.5130   -3.2381 H   0  0  0  0  0  0  0  0  0  0  0  0
    0.1795    3.2967   -1.7957 H   0  0  0  0  0  0  0  0  0  0  0  0
    0.4075   -0.0985    1.7169 C   0  0  0  0  0  0  0  0  0  0  0  0
    1.5860   -0.3526    1.9662 O   0  0  0  0  0  0  0  0  0  0  0  0
   -0.4625    0.2583    2.6666 N   0  0  0  0  0  0  0  0  0  0  0  0
   -1.4309    0.3754    2.3860 H   0  0  0  0  0  0  0  0  0  0  0  0
   -0.1275    0.4111    4.0813 C   0  0  0  0  0  0  0  0  0  0  0  0
    0.6862    1.1312    4.1910 H   0  0  0  0  0  0  0  0  0  0  0  0
   -0.9980    0.7641    4.6360 H   0  0  0  0  0  0  0  0  0  0  0  0
    0.1959   -0.5481    4.4891 H   0  0  0  0  0  0  0  0  0  0  0  0
  5  6  2  0  0  0  0
  5  7  1  0  0  0  0
  2  3  1  0  0  0  0
  2  4  1  0  0  0  0
  2  5  1  0  0  0  0
  1  2  1  0  0  0  0
 19 20  2  0  0  0  0
 19 21  1  0  0  0  0
 16 17  1  0  0  0  0
 16 18  1  0  0  0  0
 14 15  2  0  0  0  0
 14 16  1  0  0  0  0
 11 12  1  0  0  0  0
 11 13  1  0  0  0  0
 11 14  1  0  0  0  0
  9 10  1  0  0  0  0
  9 11  1  0  0  0  0
  9 19  1  0  0  0  0
  7  8  1  0  0  0  0
  7  9  1  0  0  0  0
 23 24  1  0  0  0  0
 23 25  1  0  0  0  0
 23 26  1  0  0  0  0
 21 22  1  0  0  0  0
 21 23  1  0  0  0  0
M  END
$$$$
default_name
  -OEChem-02102213163D

 26 25  0     1  0  0  0  0  0999 V2000
   -3.0232   -3.6924    1.0038 H   0  0  0  0  0  0  0  0  0  0  0  0
   -3.0082   -2.6684    0.6318 C   0  0  0  0  0  0  0  0  0  0  0  0
   -3.6332   -2.0414    1.2658 H   0  0  0  0  0  0  0  0  0  0  0  0
   -3.3762   -2.6444   -0.3912 H   0  0  0  0  0  0  0  0  0  0  0  0
   -1.5882   -2.1554    0.6658 C   0  0  0  0  0  0  0  0  0  0  0  0
   -0.6832   -2.8764    1.0638 O   0  0  0  0  0  0  0  0  0  0  0  0
   -1.3952   -0.9084    0.2428 N   0  0  0  0  0  0  0  0  0  0  0  0
   -2.1972   -0.3644   -0.0422 H   0  0  0  0  0  0  0  0  0  0  0  0
   -0.1122   -0.1994    0.2658 C   0  0  1  0  0  0  0  0  0  0  0  0
    0.6131   -0.7748   -0.3153 H   0  0  0  0  0  0  0  0  0  0  0  0
   -0.2973    1.1841   -0.3966 C   0  0  0  0  0  0  0  0  0  0  0  0
   -1.3618    1.3987   -0.4844 H   0  0  0  0  0  0  0  0  0  0  0  0
    0.1550    1.9477    0.2344 H   0  0  0  0  0  0  0  0  0  0  0  0
    0.2890    1.2831   -1.7957 C   0  0  0  0  0  0  0  0  0  0  0  0
    0.3676    0.3300   -2.5510 O   0  0  0  0  0  0  0  0  0  0  0  0
    0.7346    2.4509   -2.1909 N   0  0  0  0  0  0  0  0  0  0  0  0
    1.1003    2.4901   -3.1260 H   0  0  0  0  0  0  0  0  0  0  0  0
    0.6641    3.2544   -1.5956 H   0  0  0  0  0  0  0  0  0  0  0  0
    0.4075   -0.0985    1.7169 C   0  0  0  0  0  0  0  0  0  0  0  0
    1.5860   -0.3526    1.9662 O   0  0  0  0  0  0  0  0  0  0  0  0
   -0.4625    0.2583    2.6666 N   0  0  0  0  0  0  0  0  0  0  0  0
   -1.4309    0.3754    2.3860 H   0  0  0  0  0  0  0  0  0  0  0  0
   -0.1275    0.4111    4.0813 C   0  0  0  0  0  0  0  0  0  0  0  0
    0.6862    1.1312    4.1910 H   0  0  0  0  0  0  0  0  0  0  0  0
   -0.9980    0.7641    4.6360 H   0  0  0  0  0  0  0  0  0  0  0  0
    0.1959   -0.5481    4.4891 H   0  0  0  0  0  0  0  0  0  0  0  0
  5  6  2  0  0  0  0
  5  7  1  0  0  0  0
  2  3  1  0  0  0  0
  2  4  1  0  0  0  0
  2  5  1  0  0  0  0
  1  2  1  0  0  0  0
 19 20  2  0  0  0  0
 19 21  1  0  0  0  0
 16 17  1  0  0  0  0
 16 18  1  0  0  0  0
 14 15  2  0  0  0  0
 14 16  1  0  0  0  0
 11 12  1  0  0  0  0
 11 13  1  0  0  0  0
 11 14  1  0  0  0  0
  9 10  1  0  0  0  0
  9 11  1  0  0  0  0
  9 19  1  0  0  0  0
  7  8  1  0  0  0  0
  7  9  1  0  0  0  0
 23 24  1  0  0  0  0
 23 25  1  0  0  0  0
 23 26  1  0  0  0  0
 21 22  1  0  0  0  0
 21 23  1  0  0  0  0
M  END
$$$$
default_name
  -OEChem-02102213163D

 26 25  0     1  0  0  0  0  0999 V2000
   -3.0232   -3.6924    1.0038 H   0  0  0  0  0  0  0  0  0  0  0  0
   -3.0082   -2.6684    0.6318 C   0  0  0  0  0  0  0  0  0  0  0  0
   -3.6332   -2.0414    1.2658 H   0  0  0  0  0  0  0  0  0  0  0  0
   -3.3762   -2.6444   -0.3912 H   0  0  0  0  0  0  0  0  0  0  0  0
   -1.5882   -2.1554    0.6658 C   0  0  0  0  0  0  0  0  0  0  0  0
   -0.6832   -2.8764    1.0638 O   0  0  0  0  0  0  0  0  0  0  0  0
   -1.3952   -0.9084    0.2428 N   0  0  0  0  0  0  0  0  0  0  0  0
   -2.1972   -0.3644   -0.0422 H   0  0  0  0  0  0  0  0  0  0  0  0
   -0.1122   -0.1994    0.2658 C   0  0  1  0  0  0  0  0  0  0  0  0
    0.6131   -0.7748   -0.3153 H   0  0  0  0  0  0  0  0  0  0  0  0
   -0.2973    1.1841   -0.3966 C   0  0  0  0  0  0  0  0  0  0  0  0
   -1.3618    1.3987   -0.4844 H   0  0  0  0  0  0  0  0  0  0  0  0
    0.1550    1.9477    0.2344 H   0  0  0  0  0  0  0  0  0  0  0  0
    0.2890    1.2831   -1.7957 C   0  0  0  0  0  0  0  0  0  0  0  0
    0.1339    0.4207   -2.6426 O   0  0  0  0  0  0  0  0  0  0  0  0
    0.9990    2.3458   -2.0876 N   0  0  0  0  0  0  0  0  0  0  0  0
    1.3590    2.3921   -3.0245 H   0  0  0  0  0  0  0  0  0  0  0  0
    1.1254    3.0781   -1.4147 H   0  0  0  0  0  0  0  0  0  0  0  0
    0.4075   -0.0985    1.7169 C   0  0  0  0  0  0  0  0  0  0  0  0
    1.5860   -0.3526    1.9662 O   0  0  0  0  0  0  0  0  0  0  0  0
   -0.4625    0.2583    2.6666 N   0  0  0  0  0  0  0  0  0  0  0  0
   -1.4309    0.3754    2.3860 H   0  0  0  0  0  0  0  0  0  0  0  0
   -0.1275    0.4111    4.0813 C   0  0  0  0  0  0  0  0  0  0  0  0
    0.6862    1.1312    4.1910 H   0  0  0  0  0  0  0  0  0  0  0  0
   -0.9980    0.7641    4.6360 H   0  0  0  0  0  0  0  0  0  0  0  0
    0.1959   -0.5481    4.4891 H   0  0  0  0  0  0  0  0  0  0  0  0
  5  6  2  0  0  0  0
  5  7  1  0  0  0  0
  2  3  1  0  0  0  0
  2  4  1  0  0  0  0
  2  5  1  0  0  0  0
  1  2  1  0  0  0  0
 19 20  2  0  0  0  0
 19 21  1  0  0  0  0
 16 17  1  0  0  0  0
 16 18  1  0  0  0  0
 14 15  2  0  0  0  0
 14 16  1  0  0  0  0
 11 12  1  0  0  0  0
 11 13  1  0  0  0  0
 11 14  1  0  0  0  0
  9 10  1  0  0  0  0
  9 11  1  0  0  0  0
  9 19  1  0  0  0  0
  7  8  1  0  0  0  0
  7  9  1  0  0  0  0
 23 24  1  0  0  0  0
 23 25  1  0  0  0  0
 23 26  1  0  0  0  0
 21 22  1  0  0  0  0
 21 23  1  0  0  0  0
M  END
$$$$
default_name
  -OEChem-02102213163D

 26 25  0     1  0  0  0  0  0999 V2000
   -3.0232   -3.6924    1.0038 H   0  0  0  0  0  0  0  0  0  0  0  0
   -3.0082   -2.6684    0.6318 C   0  0  0  0  0  0  0  0  0  0  0  0
   -3.6332   -2.0414    1.2658 H   0  0  0  0  0  0  0  0  0  0  0  0
   -3.3762   -2.6444   -0.3912 H   0  0  0  0  0  0  0  0  0  0  0  0
   -1.5882   -2.1554    0.6658 C   0  0  0  0  0  0  0  0  0  0  0  0
   -0.6832   -2.8764    1.0638 O   0  0  0  0  0  0  0  0  0  0  0  0
   -1.3952   -0.9084    0.2428 N   0  0  0  0  0  0  0  0  0  0  0  0
   -2.1972   -0.3644   -0.0422 H   0  0  0  0  0  0  0  0  0  0  0  0
   -0.1122   -0.1994    0.2658 C   0  0  1  0  0  0  0  0  0  0  0  0
    0.6131   -0.7748   -0.3153 H   0  0  0  0  0  0  0  0  0  0  0  0
   -0.2973    1.1841   -0.3966 C   0  0  0  0  0  0  0  0  0  0  0  0
   -1.3618    1.3987   -0.4844 H   0  0  0  0  0  0  0  0  0  0  0  0
    0.1550    1.9477    0.2344 H   0  0  0  0  0  0  0  0  0  0  0  0
    0.2890    1.2831   -1.7957 C   0  0  0  0  0  0  0  0  0  0  0  0
   -0.0718    0.5730   -2.7180 O   0  0  0  0  0  0  0  0  0  0  0  0
    1.2310    2.1710   -2.0027 N   0  0  0  0  0  0  0  0  0  0  0  0
    1.5872    2.2257   -2.9407 H   0  0  0  0  0  0  0  0  0  0  0  0
    1.5320    2.7799   -1.2654 H   0  0  0  0  0  0  0  0  0  0  0  0
    0.4075   -0.0985    1.7169 C   0  0  0  0  0  0  0  0  0  0  0  0
    1.5860   -0.3526    1.9662 O   0  0  0  0  0  0  0  0  0  0  0  0
   -0.4625    0.2583    2.6666 N   0  0  0  0  0  0  0  0  0  0  0  0
   -1.4309    0.3754    2.3860 H   0  0  0  0  0  0  0  0  0  0  0  0
   -0.1275    0.4111    4.0813 C   0  0  0  0  0  0  0  0  0  0  0  0
    0.6862    1.1312    4.1910 H   0  0  0  0  0  0  0  0  0  0  0  0
   -0.9980    0.7641    4.6360 H   0  0  0  0  0  0  0  0  0  0  0  0
    0.1959   -0.5481    4.4891 H   0  0  0  0  0  0  0  0  0  0  0  0
  5  6  2  0  0  0  0
  5  7  1  0  0  0  0
  2  3  1  0  0  0  0
  2  4  1  0  0  0  0
  2  5  1  0  0  0  0
  1  2  1  0  0  0  0
 19 20  2  0  0  0  0
 19 21  1  0  0  0  0
 16 17  1  0  0  0  0
 16 18  1  0  0  0  0
 14 15  2  0  0  0  0
 14 16  1  0  0  0  0
 11 12  1  0  0  0  0
 11 13  1  0  0  0  0
 11 14  1  0  0  0  0
  9 10  1  0  0  0  0
  9 11  1  0  0  0  0
  9 19  1  0  0  0  0
  7  8  1  0  0  0  0
  7  9  1  0  0  0  0
 23 24  1  0  0  0  0
 23 25  1  0  0  0  0
 23 26  1  0  0  0  0
 21 22  1  0  0  0  0
 21 23  1  0  0  0  0
M  END
$$$$
default_name
  -OEChem-02102213163D

 26 25  0     1  0  0  0  0  0999 V2000
   -3.0232   -3.6924    1.0038 H   0  0  0  0  0  0  0  0  0  0  0  0
   -3.0082   -2.6684    0.6318 C   0  0  0  0  0  0  0  0  0  0  0  0
   -3.6332   -2.0414    1.2658 H   0  0  0  0  0  0  0  0  0  0  0  0
   -3.3762   -2.6444   -0.3912 H   0  0  0  0  0  0  0  0  0  0  0  0
   -1.5882   -2.1554    0.6658 C   0  0  0  0  0  0  0  0  0  0  0  0
   -0.6832   -2.8764    1.0638 O   0  0  0  0  0  0  0  0  0  0  0  0
   -1.3952   -0.9084    0.2428 N   0  0  0  0  0  0  0  0  0  0  0  0
   -2.1972   -0.3644   -0.0422 H   0  0  0  0  0  0  0  0  0  0  0  0
   -0.1122   -0.1994    0.2658 C   0  0  1  0  0  0  0  0  0  0  0  0
    0.6131   -0.7748   -0.3153 H   0  0  0  0  0  0  0  0  0  0  0  0
   -0.2973    1.1841   -0.3966 C   0  0  0  0  0  0  0  0  0  0  0  0
   -1.3618    1.3987   -0.4844 H   0  0  0  0  0  0  0  0  0  0  0  0
    0.1550    1.9477    0.2344 H   0  0  0  0  0  0  0  0  0  0  0  0
    0.2890    1.2831   -1.7957 C   0  0  0  0  0  0  0  0  0  0  0  0
   -0.2355    0.7767   -2.7722 O   0  0  0  0  0  0  0  0  0  0  0  0
    1.4149    1.9384   -1.9421 N   0  0  0  0  0  0  0  0  0  0  0  0
    1.7694    2.0023   -2.8801 H   0  0  0  0  0  0  0  0  0  0  0  0
    1.8563    2.3801   -1.1578 H   0  0  0  0  0  0  0  0  0  0  0  0
    0.4075   -0.0985    1.7169 C   0  0  0  0  0  0  0  0  0  0  0  0
    1.5860   -0.3526    1.9662 O   0  0  0  0  0  0  0  0  0  0  0  0
   -0.4625    0.2583    2.6666 N   0  0  0  0  0  0  0  0  0  0  0  0
   -1.4309    0.3754    2.3860 H   0  0  0  0  0  0  0  0  0  0  0  0
   -0.1275    0.4111    4.0813 C   0  0  0  0  0  0  0  0  0  0  0  0
    0.6862    1.1312    4.1910 H   0  0  0  0  0  0  0  0  0  0  0  0
   -0.9980    0.7641    4.6360 H   0  0  0  0  0  0  0  0  0  0  0  0
    0.1959   -0.5481    4.4891 H   0  0  0  0  0  0  0  0  0  0  0  0
  5  6  2  0  0  0  0
  5  7  1  0  0  0  0
  2  3  1  0  0  0  0
  2  4  1  0  0  0  0
  2  5  1  0  0  0  0
  1  2  1  0  0  0  0
 19 20  2  0  0  0  0
 19 21  1  0  0  0  0
 16 17  1  0  0  0  0
 16 18  1  0  0  0  0
 14 15  2  0  0  0  0
 14 16  1  0  0  0  0
 11 12  1  0  0  0  0
 11 13  1  0  0  0  0
 11 14  1  0  0  0  0
  9 10  1  0  0  0  0
  9 11  1  0  0  0  0
  9 19  1  0  0  0  0
  7  8  1  0  0  0  0
  7  9  1  0  0  0  0
 23 24  1  0  0  0  0
 23 25  1  0  0  0  0
 23 26  1  0  0  0  0
 21 22  1  0  0  0  0
 21 23  1  0  0  0  0
M  END
$$$$
default_name
  -OEChem-02102213163D

 26 25  0     1  0  0  0  0  0999 V2000
   -3.0232   -3.6924    1.0038 H   0  0  0  0  0  0  0  0  0  0  0  0
   -3.0082   -2.6684    0.6318 C   0  0  0  0  0  0  0  0  0  0  0  0
   -3.6332   -2.0414    1.2658 H   0  0  0  0  0  0  0  0  0  0  0  0
   -3.3762   -2.6444   -0.3912 H   0  0  0  0  0  0  0  0  0  0  0  0
   -1.5882   -2.1554    0.6658 C   0  0  0  0  0  0  0  0  0  0  0  0
   -0.6832   -2.8764    1.0638 O   0  0  0  0  0  0  0  0  0  0  0  0
   -1.3952   -0.9084    0.2428 N   0  0  0  0  0  0  0  0  0  0  0  0
   -2.1972   -0.3644   -0.0422 H   0  0  0  0  0  0  0  0  0  0  0  0
   -0.1122   -0.1994    0.2658 C   0  0  1  0  0  0  0  0  0  0  0  0
    0.6131   -0.7748   -0.3153 H   0  0  0  0  0  0  0  0  0  0  0  0
   -0.2973    1.1841   -0.3966 C   0  0  0  0  0  0  0  0  0  0  0  0
   -1.3618    1.3987   -0.4844 H   0  0  0  0  0  0  0  0  0  0  0  0
    0.1550    1.9477    0.2344 H   0  0  0  0  0  0  0  0  0  0  0  0
    0.2890    1.2831   -1.7957 C   0  0  0  0  0  0  0  0  0  0  0  0
   -0.3460    1.0179   -2.8014 O   0  0  0  0  0  0  0  0  0  0  0  0
    1.5382    1.6638   -1.9099 N   0  0  0  0  0  0  0  0  0  0  0  0
    1.8932    1.7370   -2.8470 H   0  0  0  0  0  0  0  0  0  0  0  0
    2.0761    1.9060   -1.0993 H   0  0  0  0  0  0  0  0  0  0  0  0
    0.4075   -0.0985    1.7169 C   0  0  0  0  0  0  0  0  0  0  0  0
    1.5860   -0.3526    1.9662 O   0  0  0  0  0  0  0  0  0  0  0  0
   -0.4625    0.2583    2.6666 N   0  0  0  0  0  0  0  0  0  0  0  0
   -1.4309    0.3754    2.3860 H   0  0  0  0  0  0  0  0  0  0  0  0
   -0.1275    0.4111    4.0813 C   0  0  0  0  0  0  0  0  0  0  0  0
    0.6862    1.1312    4.1910 H   0  0  0  0  0  0  0  0  0  0  0  0
   -0.9980    0.7641    4.6360 H   0  0  0  0  0  0  0  0  0  0  0  0
    0.1959   -0.5481    4.4891 H   0  0  0  0  0  0  0  0  0  0  0  0
  5  6  2  0  0  0  0
  5  7  1  0  0  0  0
  2  3  1  0  0  0  0
  2  4  1  0  0  0  0
  2  5  1  0  0  0  0
  1  2  1  0  0  0  0
 19 20  2  0  0  0  0
 19 21  1  0  0  0  0
 16 17  1  0  0  0  0
 16 18  1  0  0  0  0
 14 15  2  0  0  0  0
 14 16  1  0  0  0  0
 11 12  1  0  0  0  0
 11 13  1  0  0  0  0
 11 14  1  0  0  0  0
  9 10  1  0  0  0  0
  9 11  1  0  0  0  0
  9 19  1  0  0  0  0
  7  8  1  0  0  0  0
  7  9  1  0  0  0  0
 23 24  1  0  0  0  0
 23 25  1  0  0  0  0
 23 26  1  0  0  0  0
 21 22  1  0  0  0  0
 21 23  1  0  0  0  0
M  END
$$$$
default_name
  -OEChem-02102213163D

 26 25  0     1  0  0  0  0  0999 V2000
   -3.0232   -3.6924    1.0038 H   0  0  0  0  0  0  0  0  0  0  0  0
   -3.0082   -2.6684    0.6318 C   0  0  0  0  0  0  0  0  0  0  0  0
   -3.6332   -2.0414    1.2658 H   0  0  0  0  0  0  0  0  0  0  0  0
   -3.3762   -2.6444   -0.3912 H   0  0  0  0  0  0  0  0  0  0  0  0
   -1.5882   -2.1554    0.6658 C   0  0  0  0  0  0  0  0  0  0  0  0
   -0.6832   -2.8764    1.0638 O   0  0  0  0  0  0  0  0  0  0  0  0
   -1.3952   -0.9084    0.2428 N   0  0  0  0  0  0  0  0  0  0  0  0
   -2.1972   -0.3644   -0.0422 H   0  0  0  0  0  0  0  0  0  0  0  0
   -0.1122   -0.1994    0.2658 C   0  0  1  0  0  0  0  0  0  0  0  0
    0.6131   -0.7748   -0.3153 H   0  0  0  0  0  0  0  0  0  0  0  0
   -0.2973    1.1841   -0.3966 C   0  0  0  0  0  0  0  0  0  0  0  0
   -1.3618    1.3987   -0.4844 H   0  0  0  0  0  0  0  0  0  0  0  0
    0.1550    1.9477    0.2344 H   0  0  0  0  0  0  0  0  0  0  0  0
    0.2890    1.2831   -1.7957 C   0  0  0  0  0  0  0  0  0  0  0  0
   -0.3958    1.2801   -2.8037 O   0  0  0  0  0  0  0  0  0  0  0  0
    1.5924    1.3661   -1.9082 N   0  0  0  0  0  0  0  0  0  0  0  0
    1.9502    1.4480   -2.8436 H   0  0  0  0  0  0  0  0  0  0  0  0
    2.1765    1.3897   -1.0937 H   0  0  0  0  0  0  0  0  0  0  0  0
    0.4075   -0.0985    1.7169 C   0  0  0  0  0  0  0  0  0  0  0  0
    1.5860   -0.3526    1.9662 O   0  0  0  0  0  0  0  0  0  0  0  0
   -0.4625    0.2583    2.6666 N   0  0  0  0  0  0  0  0  0  0  0  0
   -1.4309    0.3754    2.3860 H   0  0  0  0  0  0  0  0  0  0  0  0
   -0.1275    0.4111    4.0813 C   0  0  0  0  0  0  0  0  0  0  0  0
    0.6862    1.1312    4.1910 H   0  0  0  0  0  0  0  0  0  0  0  0
   -0.9980    0.7641    4.6360 H   0  0  0  0  0  0  0  0  0  0  0  0
    0.1959   -0.5481    4.4891 H   0  0  0  0  0  0  0  0  0  0  0  0
  5  6  2  0  0  0  0
  5  7  1  0  0  0  0
  2  3  1  0  0  0  0
  2  4  1  0  0  0  0
  2  5  1  0  0  0  0
  1  2  1  0  0  0  0
 19 20  2  0  0  0  0
 19 21  1  0  0  0  0
 16 17  1  0  0  0  0
 16 18  1  0  0  0  0
 14 15  2  0  0  0  0
 14 16  1  0  0  0  0
 11 12  1  0  0  0  0
 11 13  1  0  0  0  0
 11 14  1  0  0  0  0
  9 10  1  0  0  0  0
  9 11  1  0  0  0  0
  9 19  1  0  0  0  0
  7  8  1  0  0  0  0
  7  9  1  0  0  0  0
 23 24  1  0  0  0  0
 23 25  1  0  0  0  0
 23 26  1  0  0  0  0
 21 22  1  0  0  0  0
 21 23  1  0  0  0  0
M  END
$$$$
default_name
  -OEChem-02102213163D

 26 25  0     1  0  0  0  0  0999 V2000
   -3.0232   -3.6924    1.0038 H   0  0  0  0  0  0  0  0  0  0  0  0
   -3.0082   -2.6684    0.6318 C   0  0  0  0  0  0  0  0  0  0  0  0
   -3.6332   -2.0414    1.2658 H   0  0  0  0  0  0  0  0  0  0  0  0
   -3.3762   -2.6444   -0.3912 H   0  0  0  0  0  0  0  0  0  0  0  0
   -1.5882   -2.1554    0.6658 C   0  0  0  0  0  0  0  0  0  0  0  0
   -0.6832   -2.8764    1.0638 O   0  0  0  0  0  0  0  0  0  0  0  0
   -1.3952   -0.9084    0.2428 N   0  0  0  0  0  0  0  0  0  0  0  0
   -2.1972   -0.3644   -0.0422 H   0  0  0  0  0  0  0  0  0  0  0  0
   -0.1122   -0.1994    0.2658 C   0  0  1  0  0  0  0  0  0  0  0  0
    0.6131   -0.7748   -0.3153 H   0  0  0  0  0  0  0  0  0  0  0  0
   -0.2973    1.1841   -0.3966 C   0  0  0  0  0  0  0  0  0  0  0  0
   -1.3618    1.3987   -0.4844 H   0  0  0  0  0  0  0  0  0  0  0  0
    0.1550    1.9477    0.2344 H   0  0  0  0  0  0  0  0  0  0  0  0
    0.2890    1.2831   -1.7957 C   0  0  0  0  0  0  0  0  0  0  0  0
   -0.3815    1.5454   -2.7789 O   0  0  0  0  0  0  0  0  0  0  0  0
    1.5739    1.0654   -1.9373 N   0  0  0  0  0  0  0  0  0  0  0  0
    1.9364    1.1549   -2.8701 H   0  0  0  0  0  0  0  0  0  0  0  0
    2.1506    0.8667   -1.1416 H   0  0  0  0  0  0  0  0  0  0  0  0
    0.4075   -0.0985    1.7169 C   0  0  0  0  0  0  0  0  0  0  0  0
    1.5860   -0.3526    1.9662 O   0  0  0  0  0  0  0  0  0  0  0  0
   -0.4625    0.2583    2.6666 N   0  0  0  0  0  0  0  0  0  0  0  0
   -1.4309    0.3754    2.3860 H   0  0  0  0  0  0  0  0  0  0  0  0
   -0.1275    0.4111    4.0813 C   0  0  0  0  0  0  0  0  0  0  0  0
    0.6862    1.1312    4.1910 H   0  0  0  0  0  0  0  0  0  0  0  0
   -0.9980    0.7641    4.6360 H   0  0  0  0  0  0  0  0  0  0  0  0
    0.1959   -0.5481    4.4891 H   0  0  0  0  0  0  0  0  0  0  0  0
  5  6  2  0  0  0  0
  5  7  1  0  0  0  0
  2  3  1  0  0  0  0
  2  4  1  0  0  0  0
  2  5  1  0  0  0  0
  1  2  1  0  0  0  0
 19 20  2  0  0  0  0
 19 21  1  0  0  0  0
 16 17  1  0  0  0  0
 16 18  1  0  0  0  0
 14 15  2  0  0  0  0
 14 16  1  0  0  0  0
 11 12  1  0  0  0  0
 11 13  1  0  0  0  0
 11 14  1  0  0  0  0
  9 10  1  0  0  0  0
  9 11  1  0  0  0  0
  9 19  1  0  0  0  0
  7  8  1  0  0  0  0
  7  9  1  0  0  0  0
 23 24  1  0  0  0  0
 23 25  1  0  0  0  0
 23 26  1  0  0  0  0
 21 22  1  0  0  0  0
 21 23  1  0  0  0  0
M  END
$$$$
default_name
  -OEChem-02102213163D

 26 25  0     1  0  0  0  0  0999 V2000
   -3.0232   -3.6924    1.0038 H   0  0  0  0  0  0  0  0  0  0  0  0
   -3.0082   -2.6684    0.6318 C   0  0  0  0  0  0  0  0  0  0  0  0
   -3.6332   -2.0414    1.2658 H   0  0  0  0  0  0  0  0  0  0  0  0
   -3.3762   -2.6444   -0.3912 H   0  0  0  0  0  0  0  0  0  0  0  0
   -1.5882   -2.1554    0.6658 C   0  0  0  0  0  0  0  0  0  0  0  0
   -0.6832   -2.8764    1.0638 O   0  0  0  0  0  0  0  0  0  0  0  0
   -1.3952   -0.9084    0.2428 N   0  0  0  0  0  0  0  0  0  0  0  0
   -2.1972   -0.3644   -0.0422 H   0  0  0  0  0  0  0  0  0  0  0  0
   -0.1122   -0.1994    0.2658 C   0  0  1  0  0  0  0  0  0  0  0  0
    0.6131   -0.7748   -0.3153 H   0  0  0  0  0  0  0  0  0  0  0  0
   -0.2973    1.1841   -0.3966 C   0  0  0  0  0  0  0  0  0  0  0  0
   -1.3618    1.3987   -0.4844 H   0  0  0  0  0  0  0  0  0  0  0  0
    0.1550    1.9477    0.2344 H   0  0  0  0  0  0  0  0  0  0  0  0
    0.2890    1.2831   -1.7957 C   0  0  0  0  0  0  0  0  0  0  0  0
   -0.3040    1.7958   -2.7287 O   0  0  0  0  0  0  0  0  0  0  0  0
    1.4839    0.7823   -1.9950 N   0  0  0  0  0  0  0  0  0  0  0  0
    1.8529    0.8777   -2.9248 H   0  0  0  0  0  0  0  0  0  0  0  0
    2.0001    0.3724   -1.2397 H   0  0  0  0  0  0  0  0  0  0  0  0
    0.4075   -0.0985    1.7169 C   0  0  0  0  0  0  0  0  0  0  0  0
    1.5860   -0.3526    1.9662 O   0  0  0  0  0  0  0  0  0  0  0  0
   -0.4625    0.2583    2.6666 N   0  0  0  0  0  0  0  0  0  0  0  0
   -1.4309    0.3754    2.3860 H   0  0  0  0  0  0  0  0  0  0  0  0
   -0.1275    0.4111    4.0813 C   0  0  0  0  0  0  0  0  0  0  0  0
    0.6862    1.1312    4.1910 H   0  0  0  0  0  0  0  0  0  0  0  0
   -0.9980    0.7641    4.6360 H   0  0  0  0  0  0  0  0  0  0  0  0
    0.1959   -0.5481    4.4891 H   0  0  0  0  0  0  0  0  0  0  0  0
  5  6  2  0  0  0  0
  5  7  1  0  0  0  0
  2  3  1  0  0  0  0
  2  4  1  0  0  0  0
  2  5  1  0  0  0  0
  1  2  1  0  0  0  0
 19 20  2  0  0  0  0
 19 21  1  0  0  0  0
 16 17  1  0  0  0  0
 16 18  1  0  0  0  0
 14 15  2  0  0  0  0
 14 16  1  0  0  0  0
 11 12  1  0  0  0  0
 11 13  1  0  0  0  0
 11 14  1  0  0  0  0
  9 10  1  0  0  0  0
  9 11  1  0  0  0  0
  9 19  1  0  0  0  0
  7  8  1  0  0  0  0
  7  9  1  0  0  0  0
 23 24  1  0  0  0  0
 23 25  1  0  0  0  0
 23 26  1  0  0  0  0
 21 22  1  0  0  0  0
 21 23  1  0  0  0  0
M  END
$$$$
default_name
  -OEChem-02102213163D

 26 25  0     1  0  0  0  0  0999 V2000
   -3.0232   -3.6924    1.0038 H   0  0  0  0  0  0  0  0  0  0  0  0
   -3.0082   -2.6684    0.6318 C   0  0  0  0  0  0  0  0  0  0  0  0
   -3.6332   -2.0414    1.2658 H   0  0  0  0  0  0  0  0  0  0  0  0
   -3.3762   -2.6444   -0.3912 H   0  0  0  0  0  0  0  0  0  0  0  0
   -1.5882   -2.1554    0.6658 C   0  0  0  0  0  0  0  0  0  0  0  0
   -0.6832   -2.8764    1.0638 O   0  0  0  0  0  0  0  0  0  0  0  0
   -1.3952   -0.9084    0.2428 N   0  0  0  0  0  0  0  0  0  0  0  0
   -2.1972   -0.3644   -0.0422 H   0  0  0  0  0  0  0  0  0  0  0  0
   -0.1122   -0.1994    0.2658 C   0  0  1  0  0  0  0  0  0  0  0  0
    0.6131   -0.7748   -0.3153 H   0  0  0  0  0  0  0  0  0  0  0  0
   -0.2973    1.1841   -0.3966 C   0  0  0  0  0  0  0  0  0  0  0  0
   -1.3618    1.3987   -0.4844 H   0  0  0  0  0  0  0  0  0  0  0  0
    0.1550    1.9477    0.2344 H   0  0  0  0  0  0  0  0  0  0  0  0
    0.2890    1.2831   -1.7957 C   0  0  0  0  0  0  0  0  0  0  0  0
   -0.1687    2.0143   -2.6566 O   0  0  0  0  0  0  0  0  0  0  0  0
    1.3286    0.5360   -2.0776 N   0  0  0  0  0  0  0  0  0  0  0  0
    1.7052    0.6354   -3.0038 H   0  0  0  0  0  0  0  0  0  0  0  0
    1.7354   -0.0595   -1.3812 H   0  0  0  0  0  0  0  0  0  0  0  0
    0.4075   -0.0985    1.7169 C   0  0  0  0  0  0  0  0  0  0  0  0
    1.5860   -0.3526    1.9662 O   0  0  0  0  0  0  0  0  0  0  0  0
   -0.4625    0.2583    2.6666 N   0  0  0  0  0  0  0  0  0  0  0  0
   -1.4309    0.3754    2.3860 H   0  0  0  0  0  0  0  0  0  0  0  0
   -0.1275    0.4111    4.0813 C   0  0  0  0  0  0  0  0  0  0  0  0
    0.6862    1.1312    4.1910 H   0  0  0  0  0  0  0  0  0  0  0  0
   -0.9980    0.7641    4.6360 H   0  0  0  0  0  0  0  0  0  0  0  0
    0.1959   -0.5481    4.4891 H   0  0  0  0  0  0  0  0  0  0  0  0
  5  6  2  0  0  0  0
  5  7  1  0  0  0  0
  2  3  1  0  0  0  0
  2  4  1  0  0  0  0
  2  5  1  0  0  0  0
  1  2  1  0  0  0  0
 19 20  2  0  0  0  0
 19 21  1  0  0  0  0
 16 17  1  0  0  0  0
 16 18  1  0  0  0  0
 14 15  2  0  0  0  0
 14 16  1  0  0  0  0
 11 12  1  0  0  0  0
 11 13  1  0  0  0  0
 11 14  1  0  0  0  0
  9 10  1  0  0  0  0
  9 11  1  0  0  0  0
  9 19  1  0  0  0  0
  7  8  1  0  0  0  0
  7  9  1  0  0  0  0
 23 24  1  0  0  0  0
 23 25  1  0  0  0  0
 23 26  1  0  0  0  0
 21 22  1  0  0  0  0
 21 23  1  0  0  0  0
M  END
$$$$
default_name
  -OEChem-02102213163D

 26 25  0     1  0  0  0  0  0999 V2000
   -3.0232   -3.6924    1.0038 H   0  0  0  0  0  0  0  0  0  0  0  0
   -3.0082   -2.6684    0.6318 C   0  0  0  0  0  0  0  0  0  0  0  0
   -3.6332   -2.0414    1.2658 H   0  0  0  0  0  0  0  0  0  0  0  0
   -3.3762   -2.6444   -0.3912 H   0  0  0  0  0  0  0  0  0  0  0  0
   -1.5882   -2.1554    0.6658 C   0  0  0  0  0  0  0  0  0  0  0  0
   -0.6832   -2.8764    1.0638 O   0  0  0  0  0  0  0  0  0  0  0  0
   -1.3952   -0.9084    0.2428 N   0  0  0  0  0  0  0  0  0  0  0  0
   -2.1972   -0.3644   -0.0422 H   0  0  0  0  0  0  0  0  0  0  0  0
   -0.1122   -0.1994    0.2658 C   0  0  1  0  0  0  0  0  0  0  0  0
    0.6131   -0.7748   -0.3153 H   0  0  0  0  0  0  0  0  0  0  0  0
   -0.2973    1.1841   -0.3966 C   0  0  0  0  0  0  0  0  0  0  0  0
   -1.3618    1.3987   -0.4844 H   0  0  0  0  0  0  0  0  0  0  0  0
    0.1550    1.9477    0.2344 H   0  0  0  0  0  0  0  0  0  0  0  0
    0.2890    1.2831   -1.7957 C   0  0  0  0  0  0  0  0  0  0  0  0
    0.0152    2.1858   -2.5673 O   0  0  0  0  0  0  0  0  0  0  0  0
    1.1185    0.3433   -2.1793 N   0  0  0  0  0  0  0  0  0  0  0  0
    1.5035    0.4443   -3.1019 H   0  0  0  0  0  0  0  0  0  0  0  0
    1.3745   -0.3994   -1.5565 H   0  0  0  0  0  0  0  0  0  0  0  0
    0.4075   -0.0985    1.7169 C   0  0  0  0  0  0  0  0  0  0  0  0
    1.5860   -0.3526    1.9662 O   0  0  0  0  0  0  0  0  0  0  0  0
   -0.4625    0.2583    2.6666 N   0  0  0  0  0  0  0  0  0  0  0  0
   -1.4309    0.3754    2.3860 H   0  0  0  0  0  0  0  0  0  0  0  0
   -0.1275    0.4111    4.0813 C   0  0  0  0  0  0  0  0  0  0  0  0
    0.6862    1.1312    4.1910 H   0  0  0  0  0  0  0  0  0  0  0  0
   -0.9980    0.7641    4.6360 H   0  0  0  0  0  0  0  0  0  0  0  0
    0.1959   -0.5481    4.4891 H   0  0  0  0  0  0  0  0  0  0  0  0
  5  6  2  0  0  0  0
  5  7  1  0  0  0  0
  2  3  1  0  0  0  0
  2  4  1  0  0  0  0
  2  5  1  0  0  0  0
  1  2  1  0  0  0  0
 19 20  2  0  0  0  0
 19 21  1  0  0  0  0
 16 17  1  0  0  0  0
 16 18  1  0  0  0  0
 14 15  2  0  0  0  0
 14 16  1  0  0  0  0
 11 12  1  0  0  0  0
 11 13  1  0  0  0  0
 11 14  1  0  0  0  0
  9 10  1  0  0  0  0
  9 11  1  0  0  0  0
  9 19  1  0  0  0  0
  7  8  1  0  0  0  0
  7  9  1  0  0  0  0
 23 24  1  0  0  0  0
 23 25  1  0  0  0  0
 23 26  1  0  0  0  0
 21 22  1  0  0  0  0
 21 23  1  0  0  0  0
M  END
$$$$
default_name
  -OEChem-02102213163D

 26 25  0     1  0  0  0  0  0999 V2000
   -3.0232   -3.6924    1.0038 H   0  0  0  0  0  0  0  0  0  0  0  0
   -3.0082   -2.6684    0.6318 C   0  0  0  0  0  0  0  0  0  0  0  0
   -3.6332   -2.0414    1.2658 H   0  0  0  0  0  0  0  0  0  0  0  0
   -3.3762   -2.6444   -0.3912 H   0  0  0  0  0  0  0  0  0  0  0  0
   -1.5882   -2.1554    0.6658 C   0  0  0  0  0  0  0  0  0  0  0  0
   -0.6832   -2.8764    1.0638 O   0  0  0  0  0  0  0  0  0  0  0  0
   -1.3952   -0.9084    0.2428 N   0  0  0  0  0  0  0  0  0  0  0  0
   -2.1972   -0.3644   -0.0422 H   0  0  0  0  0  0  0  0  0  0  0  0
   -0.1122   -0.1994    0.2658 C   0  0  1  0  0  0  0  0  0  0  0  0
    0.6131   -0.7748   -0.3153 H   0  0  0  0  0  0  0  0  0  0  0  0
   -0.2973    1.1841   -0.3966 C   0  0  0  0  0  0  0  0  0  0  0  0
   -1.3235    1.5177   -0.2466 H   0  0  0  0  0  0  0  0  0  0  0  0
    0.3691    1.9021    0.0791 H   0  0  0  0  0  0  0  0  0  0  0  0
   -0.0467    1.1902   -1.8960 C   0  0  0  0  0  0  0  0  0  0  0  0
   -0.1465    2.1931   -2.5812 O   0  0  0  0  0  0  0  0  0  0  0  0
    0.2822    0.0564   -2.4658 N   0  0  0  0  0  0  0  0  0  0  0  0
    0.4587    0.0943   -3.4543 H   0  0  0  0  0  0  0  0  0  0  0  0
    0.3893   -0.7785   -1.9213 H   0  0  0  0  0  0  0  0  0  0  0  0
    0.4075   -0.0985    1.7169 C   0  0  0  0  0  0  0  0  0  0  0  0
    1.5860   -0.3526    1.9662 O   0  0  0  0  0  0  0  0  0  0  0  0
   -0.4625    0.2583    2.6666 N   0  0  0  0  0  0  0  0  0  0  0  0
   -1.4309    0.3754    2.3860 H   0  0  0  0  0  0  0  0  0  0  0  0
   -0.1275    0.4111    4.0813 C   0  0  0  0  0  0  0  0  0  0  0  0
    0.6862    1.1312    4.1910 H   0  0  0  0  0  0  0  0  0  0  0  0
   -0.9980    0.7641    4.6360 H   0  0  0  0  0  0  0  0  0  0  0  0
    0.1959   -0.5481    4.4891 H   0  0  0  0  0  0  0  0  0  0  0  0
  5  6  2  0  0  0  0
  5  7  1  0  0  0  0
  2  3  1  0  0  0  0
  2  4  1  0  0  0  0
  2  5  1  0  0  0  0
  1  2  1  0  0  0  0
 19 20  2  0  0  0  0
 19 21  1  0  0  0  0
 16 17  1  0  0  0  0
 16 18  1  0  0  0  0
 14 15  2  0  0  0  0
 14 16  1  0  0  0  0
 11 12  1  0  0  0  0
 11 13  1  0  0  0  0
 11 14  1  0  0  0  0
  9 10  1  0  0  0  0
  9 11  1  0  0  0  0
  9 19  1  0  0  0  0
  7  8  1  0  0  0  0
  7  9  1  0  0  0  0
 23 24  1  0  0  0  0
 23 25  1  0  0  0  0
 23 26  1  0  0  0  0
 21 22  1  0  0  0  0
 21 23  1  0  0  0  0
M  END
$$$$
default_name
  -OEChem-02102213163D

 26 25  0     1  0  0  0  0  0999 V2000
   -3.0232   -3.6924    1.0038 H   0  0  0  0  0  0  0  0  0  0  0  0
   -3.0082   -2.6684    0.6318 C   0  0  0  0  0  0  0  0  0  0  0  0
   -3.6332   -2.0414    1.2658 H   0  0  0  0  0  0  0  0  0  0  0  0
   -3.3762   -2.6444   -0.3912 H   0  0  0  0  0  0  0  0  0  0  0  0
   -1.5882   -2.1554    0.6658 C   0  0  0  0  0  0  0  0  0  0  0  0
   -0.6832   -2.8764    1.0638 O   0  0  0  0  0  0  0  0  0  0  0  0
   -1.3952   -0.9084    0.2428 N   0  0  0  0  0  0  0  0  0  0  0  0
   -2.1972   -0.3644   -0.0422 H   0  0  0  0  0  0  0  0  0  0  0  0
   -0.1122   -0.1994    0.2658 C   0  0  1  0  0  0  0  0  0  0  0  0
    0.6131   -0.7748   -0.3153 H   0  0  0  0  0  0  0  0  0  0  0  0
   -0.2973    1.1841   -0.3966 C   0  0  0  0  0  0  0  0  0  0  0  0
   -1.3235    1.5177   -0.2466 H   0  0  0  0  0  0  0  0  0  0  0  0
    0.3691    1.9021    0.0791 H   0  0  0  0  0  0  0  0  0  0  0  0
   -0.0467    1.1902   -1.8960 C   0  0  0  0  0  0  0  0  0  0  0  0
    0.1159    2.2137   -2.5372 O   0  0  0  0  0  0  0  0  0  0  0  0
   -0.0156    0.0355   -2.5157 N   0  0  0  0  0  0  0  0  0  0  0  0
    0.1692    0.0693   -3.5028 H   0  0  0  0  0  0  0  0  0  0  0  0
   -0.1276   -0.8216   -2.0079 H   0  0  0  0  0  0  0  0  0  0  0  0
    0.4075   -0.0985    1.7169 C   0  0  0  0  0  0  0  0  0  0  0  0
    1.5860   -0.3526    1.9662 O   0  0  0  0  0  0  0  0  0  0  0  0
   -0.4625    0.2583    2.6666 N   0  0  0  0  0  0  0  0  0  0  0  0
   -1.4309    0.3754    2.3860 H   0  0  0  0  0  0  0  0  0  0  0  0
   -0.1275    0.4111    4.0813 C   0  0  0  0  0  0  0  0  0  0  0  0
    0.6862    1.1312    4.1910 H   0  0  0  0  0  0  0  0  0  0  0  0
   -0.9980    0.7641    4.6360 H   0  0  0  0  0  0  0  0  0  0  0  0
    0.1959   -0.5481    4.4891 H   0  0  0  0  0  0  0  0  0  0  0  0
  5  6  2  0  0  0  0
  5  7  1  0  0  0  0
  2  3  1  0  0  0  0
  2  4  1  0  0  0  0
  2  5  1  0  0  0  0
  1  2  1  0  0  0  0
 19 20  2  0  0  0  0
 19 21  1  0  0  0  0
 16 17  1  0  0  0  0
 16 18  1  0  0  0  0
 14 15  2  0  0  0  0
 14 16  1  0  0  0  0
 11 12  1  0  0  0  0
 11 13  1  0  0  0  0
 11 14  1  0  0  0  0
  9 10  1  0  0  0  0
  9 11  1  0  0  0  0
  9 19  1  0  0  0  0
  7  8  1  0  0  0  0
  7  9  1  0  0  0  0
 23 24  1  0  0  0  0
 23 25  1  0  0  0  0
 23 26  1  0  0  0  0
 21 22  1  0  0  0  0
 21 23  1  0  0  0  0
M  END
$$$$
default_name
  -OEChem-02102213163D

 26 25  0     1  0  0  0  0  0999 V2000
   -3.0232   -3.6924    1.0038 H   0  0  0  0  0  0  0  0  0  0  0  0
   -3.0082   -2.6684    0.6318 C   0  0  0  0  0  0  0  0  0  0  0  0
   -3.6332   -2.0414    1.2658 H   0  0  0  0  0  0  0  0  0  0  0  0
   -3.3762   -2.6444   -0.3912 H   0  0  0  0  0  0  0  0  0  0  0  0
   -1.5882   -2.1554    0.6658 C   0  0  0  0  0  0  0  0  0  0  0  0
   -0.6832   -2.8764    1.0638 O   0  0  0  0  0  0  0  0  0  0  0  0
   -1.3952   -0.9084    0.2428 N   0  0  0  0  0  0  0  0  0  0  0  0
   -2.1972   -0.3644   -0.0422 H   0  0  0  0  0  0  0  0  0  0  0  0
   -0.1122   -0.1994    0.2658 C   0  0  1  0  0  0  0  0  0  0  0  0
    0.6131   -0.7748   -0.3153 H   0  0  0  0  0  0  0  0  0  0  0  0
   -0.2973    1.1841   -0.3966 C   0  0  0  0  0  0  0  0  0  0  0  0
   -1.3235    1.5177   -0.2466 H   0  0  0  0  0  0  0  0  0  0  0  0
    0.3691    1.9021    0.0791 H   0  0  0  0  0  0  0  0  0  0  0  0
   -0.0467    1.1902   -1.8960 C   0  0  0  0  0  0  0  0  0  0  0  0
    0.3747    2.1647   -2.4942 O   0  0  0  0  0  0  0  0  0  0  0  0
   -0.3086    0.0934   -2.5644 N   0  0  0  0  0  0  0  0  0  0  0  0
   -0.1169    0.1212   -3.5504 H   0  0  0  0  0  0  0  0  0  0  0  0
   -0.6380   -0.7276   -2.0928 H   0  0  0  0  0  0  0  0  0  0  0  0
    0.4075   -0.0985    1.7169 C   0  0  0  0  0  0  0  0  0  0  0  0
    1.5860   -0.3526    1.9662 O   0  0  0  0  0  0  0  0  0  0  0  0
   -0.4625    0.2583    2.6666 N   0  0  0  0  0  0  0  0  0  0  0  0
   -1.4309    0.3754    2.3860 H   0  0  0  0  0  0  0  0  0  0  0  0
   -0.1275    0.4111    4.0813 C   0  0  0  0  0  0  0  0  0  0  0  0
    0.6862    1.1312    4.1910 H   0  0  0  0  0  0  0  0  0  0  0  0
   -0.9980    0.7641    4.6360 H   0  0  0  0  0  0  0  0  0  0  0  0
    0.1959   -0.5481    4.4891 H   0  0  0  0  0  0  0  0  0  0  0  0
  5  6  2  0  0  0  0
  5  7  1  0  0  0  0
  2  3  1  0  0  0  0
  2  4  1  0  0  0  0
  2  5  1  0  0  0  0
  1  2  1  0  0  0  0
 19 20  2  0  0  0  0
 19 21  1  0  0  0  0
 16 17  1  0  0  0  0
 16 18  1  0  0  0  0
 14 15  2  0  0  0  0
 14 16  1  0  0  0  0
 11 12  1  0  0  0  0
 11 13  1  0  0  0  0
 11 14  1  0  0  0  0
  9 10  1  0  0  0  0
  9 11  1  0  0  0  0
  9 19  1  0  0  0  0
  7  8  1  0  0  0  0
  7  9  1  0  0  0  0
 23 24  1  0  0  0  0
 23 25  1  0  0  0  0
 23 26  1  0  0  0  0
 21 22  1  0  0  0  0
 21 23  1  0  0  0  0
M  END
$$$$
default_name
  -OEChem-02102213163D

 26 25  0     1  0  0  0  0  0999 V2000
   -3.0232   -3.6924    1.0038 H   0  0  0  0  0  0  0  0  0  0  0  0
   -3.0082   -2.6684    0.6318 C   0  0  0  0  0  0  0  0  0  0  0  0
   -3.6332   -2.0414    1.2658 H   0  0  0  0  0  0  0  0  0  0  0  0
   -3.3762   -2.6444   -0.3912 H   0  0  0  0  0  0  0  0  0  0  0  0
   -1.5882   -2.1554    0.6658 C   0  0  0  0  0  0  0  0  0  0  0  0
   -0.6832   -2.8764    1.0638 O   0  0  0  0  0  0  0  0  0  0  0  0
   -1.3952   -0.9084    0.2428 N   0  0  0  0  0  0  0  0  0  0  0  0
   -2.1972   -0.3644   -0.0422 H   0  0  0  0  0  0  0  0  0  0  0  0
   -0.1122   -0.1994    0.2658 C   0  0  1  0  0  0  0  0  0  0  0  0
    0.6131   -0.7748   -0.3153 H   0  0  0  0  0  0  0  0  0  0  0  0
   -0.2973    1.1841   -0.3966 C   0  0  0  0  0  0  0  0  0  0  0  0
   -1.3235    1.5177   -0.2466 H   0  0  0  0  0  0  0  0  0  0  0  0
    0.3691    1.9021    0.0791 H   0  0  0  0  0  0  0  0  0  0  0  0
   -0.0467    1.1902   -1.8960 C   0  0  0  0  0  0  0  0  0  0  0  0
    0.6123    2.0496   -2.4549 O   0  0  0  0  0  0  0  0  0  0  0  0
   -0.5770    0.2262   -2.6087 N   0  0  0  0  0  0  0  0  0  0  0  0
   -0.3800    0.2463   -3.5939 H   0  0  0  0  0  0  0  0  0  0  0  0
   -1.1072   -0.5029   -2.1703 H   0  0  0  0  0  0  0  0  0  0  0  0
    0.4075   -0.0985    1.7169 C   0  0  0  0  0  0  0  0  0  0  0  0
    1.5860   -0.3526    1.9662 O   0  0  0  0  0  0  0  0  0  0  0  0
   -0.4625    0.2583    2.6666 N   0  0  0  0  0  0  0  0  0  0  0  0
   -1.4309    0.3754    2.3860 H   0  0  0  0  0  0  0  0  0  0  0  0
   -0.1275    0.4111    4.0813 C   0  0  0  0  0  0  0  0  0  0  0  0
    0.6862    1.1312    4.1910 H   0  0  0  0  0  0  0  0  0  0  0  0
   -0.9980    0.7641    4.6360 H   0  0  0  0  0  0  0  0  0  0  0  0
    0.1959   -0.5481    4.4891 H   0  0  0  0  0  0  0  0  0  0  0  0
  5  6  2  0  0  0  0
  5  7  1  0  0  0  0
  2  3  1  0  0  0  0
  2  4  1  0  0  0  0
  2  5  1  0  0  0  0
  1  2  1  0  0  0  0
 19 20  2  0  0  0  0
 19 21  1  0  0  0  0
 16 17  1  0  0  0  0
 16 18  1  0  0  0  0
 14 15  2  0  0  0  0
 14 16  1  0  0  0  0
 11 12  1  0  0  0  0
 11 13  1  0  0  0  0
 11 14  1  0  0  0  0
  9 10  1  0  0  0  0
  9 11  1  0  0  0  0
  9 19  1  0  0  0  0
  7  8  1  0  0  0  0
  7  9  1  0  0  0  0
 23 24  1  0  0  0  0
 23 25  1  0  0  0  0
 23 26  1  0  0  0  0
 21 22  1  0  0  0  0
 21 23  1  0  0  0  0
M  END
$$$$
default_name
  -OEChem-02102213163D

 26 25  0     1  0  0  0  0  0999 V2000
   -3.0232   -3.6924    1.0038 H   0  0  0  0  0  0  0  0  0  0  0  0
   -3.0082   -2.6684    0.6318 C   0  0  0  0  0  0  0  0  0  0  0  0
   -3.6332   -2.0414    1.2658 H   0  0  0  0  0  0  0  0  0  0  0  0
   -3.3762   -2.6444   -0.3912 H   0  0  0  0  0  0  0  0  0  0  0  0
   -1.5882   -2.1554    0.6658 C   0  0  0  0  0  0  0  0  0  0  0  0
   -0.6832   -2.8764    1.0638 O   0  0  0  0  0  0  0  0  0  0  0  0
   -1.3952   -0.9084    0.2428 N   0  0  0  0  0  0  0  0  0  0  0  0
   -2.1972   -0.3644   -0.0422 H   0  0  0  0  0  0  0  0  0  0  0  0
   -0.1122   -0.1994    0.2658 C   0  0  1  0  0  0  0  0  0  0  0  0
    0.6131   -0.7748   -0.3153 H   0  0  0  0  0  0  0  0  0  0  0  0
   -0.2973    1.1841   -0.3966 C   0  0  0  0  0  0  0  0  0  0  0  0
   -1.3235    1.5177   -0.2466 H   0  0  0  0  0  0  0  0  0  0  0  0
    0.3691    1.9021    0.0791 H   0  0  0  0  0  0  0  0  0  0  0  0
   -0.0467    1.1902   -1.8960 C   0  0  0  0  0  0  0  0  0  0  0  0
    0.8123    1.8760   -2.4222 O   0  0  0  0  0  0  0  0  0  0  0  0
   -0.8023    0.4249   -2.6456 N   0  0  0  0  0  0  0  0  0  0  0  0
   -0.6023    0.4362   -3.6302 H   0  0  0  0  0  0  0  0  0  0  0  0
   -1.5030   -0.1628   -2.2351 H   0  0  0  0  0  0  0  0  0  0  0  0
    0.4075   -0.0985    1.7169 C   0  0  0  0  0  0  0  0  0  0  0  0
    1.5860   -0.3526    1.9662 O   0  0  0  0  0  0  0  0  0  0  0  0
   -0.4625    0.2583    2.6666 N   0  0  0  0  0  0  0  0  0  0  0  0
   -1.4309    0.3754    2.3860 H   0  0  0  0  0  0  0  0  0  0  0  0
   -0.1275    0.4111    4.0813 C   0  0  0  0  0  0  0  0  0  0  0  0
    0.6862    1.1312    4.1910 H   0  0  0  0  0  0  0  0  0  0  0  0
   -0.9980    0.7641    4.6360 H   0  0  0  0  0  0  0  0  0  0  0  0
    0.1959   -0.5481    4.4891 H   0  0  0  0  0  0  0  0  0  0  0  0
  5  6  2  0  0  0  0
  5  7  1  0  0  0  0
  2  3  1  0  0  0  0
  2  4  1  0  0  0  0
  2  5  1  0  0  0  0
  1  2  1  0  0  0  0
 19 20  2  0  0  0  0
 19 21  1  0  0  0  0
 16 17  1  0  0  0  0
 16 18  1  0  0  0  0
 14 15  2  0  0  0  0
 14 16  1  0  0  0  0
 11 12  1  0  0  0  0
 11 13  1  0  0  0  0
 11 14  1  0  0  0  0
  9 10  1  0  0  0  0
  9 11  1  0  0  0  0
  9 19  1  0  0  0  0
  7  8  1  0  0  0  0
  7  9  1  0  0  0  0
 23 24  1  0  0  0  0
 23 25  1  0  0  0  0
 23 26  1  0  0  0  0
 21 22  1  0  0  0  0
 21 23  1  0  0  0  0
M  END
$$$$
default_name
  -OEChem-02102213163D

 26 25  0     1  0  0  0  0  0999 V2000
   -3.0232   -3.6924    1.0038 H   0  0  0  0  0  0  0  0  0  0  0  0
   -3.0082   -2.6684    0.6318 C   0  0  0  0  0  0  0  0  0  0  0  0
   -3.6332   -2.0414    1.2658 H   0  0  0  0  0  0  0  0  0  0  0  0
   -3.3762   -2.6444   -0.3912 H   0  0  0  0  0  0  0  0  0  0  0  0
   -1.5882   -2.1554    0.6658 C   0  0  0  0  0  0  0  0  0  0  0  0
   -0.6832   -2.8764    1.0638 O   0  0  0  0  0  0  0  0  0  0  0  0
   -1.3952   -0.9084    0.2428 N   0  0  0  0  0  0  0  0  0  0  0  0
   -2.1972   -0.3644   -0.0422 H   0  0  0  0  0  0  0  0  0  0  0  0
   -0.1122   -0.1994    0.2658 C   0  0  1  0  0  0  0  0  0  0  0  0
    0.6131   -0.7748   -0.3153 H   0  0  0  0  0  0  0  0  0  0  0  0
   -0.2973    1.1841   -0.3966 C   0  0  0  0  0  0  0  0  0  0  0  0
   -1.3235    1.5177   -0.2466 H   0  0  0  0  0  0  0  0  0  0  0  0
    0.3691    1.9021    0.0791 H   0  0  0  0  0  0  0  0  0  0  0  0
   -0.0467    1.1902   -1.8960 C   0  0  0  0  0  0  0  0  0  0  0  0
    0.9613    1.6559   -2.3982 O   0  0  0  0  0  0  0  0  0  0  0  0
   -0.9692    0.6760   -2.6725 N   0  0  0  0  0  0  0  0  0  0  0  0
   -0.7685    0.6779   -3.6570 H   0  0  0  0  0  0  0  0  0  0  0  0
   -1.7986    0.2695   -2.2828 H   0  0  0  0  0  0  0  0  0  0  0  0
    0.4075   -0.0985    1.7169 C   0  0  0  0  0  0  0  0  0  0  0  0
    1.5860   -0.3526    1.9662 O   0  0  0  0  0  0  0  0  0  0  0  0
   -0.4625    0.2583    2.6666 N   0  0  0  0  0  0  0  0  0  0  0  0
   -1.4309    0.3754    2.3860 H   0  0  0  0  0  0  0  0  0  0  0  0
   -0.1275    0.4111    4.0813 C   0  0  0  0  0  0  0  0  0  0  0  0
    0.6862    1.1312    4.1910 H   0  0  0  0  0  0  0  0  0  0  0  0
   -0.9980    0.7641    4.6360 H   0  0  0  0  0  0  0  0  0  0  0  0
    0.1959   -0.5481    4.4891 H   0  0  0  0  0  0  0  0  0  0  0  0
  5  6  2  0  0  0  0
  5  7  1  0  0  0  0
  2  3  1  0  0  0  0
  2  4  1  0  0  0  0
  2  5  1  0  0  0  0
  1  2  1  0  0  0  0
 19 20  2  0  0  0  0
 19 21  1  0  0  0  0
 16 17  1  0  0  0  0
 16 18  1  0  0  0  0
 14 15  2  0  0  0  0
 14 16  1  0  0  0  0
 11 12  1  0  0  0  0
 11 13  1  0  0  0  0
 11 14  1  0  0  0  0
  9 10  1  0  0  0  0
  9 11  1  0  0  0  0
  9 19  1  0  0  0  0
  7  8  1  0  0  0  0
  7  9  1  0  0  0  0
 23 24  1  0  0  0  0
 23 25  1  0  0  0  0
 23 26  1  0  0  0  0
 21 22  1  0  0  0  0
 21 23  1  0  0  0  0
M  END
$$$$
default_name
  -OEChem-02102213163D

 26 25  0     1  0  0  0  0  0999 V2000
   -3.0232   -3.6924    1.0038 H   0  0  0  0  0  0  0  0  0  0  0  0
   -3.0082   -2.6684    0.6318 C   0  0  0  0  0  0  0  0  0  0  0  0
   -3.6332   -2.0414    1.2658 H   0  0  0  0  0  0  0  0  0  0  0  0
   -3.3762   -2.6444   -0.3912 H   0  0  0  0  0  0  0  0  0  0  0  0
   -1.5882   -2.1554    0.6658 C   0  0  0  0  0  0  0  0  0  0  0  0
   -0.6832   -2.8764    1.0638 O   0  0  0  0  0  0  0  0  0  0  0  0
   -1.3952   -0.9084    0.2428 N   0  0  0  0  0  0  0  0  0  0  0  0
   -2.1972   -0.3644   -0.0422 H   0  0  0  0  0  0  0  0  0  0  0  0
   -0.1122   -0.1994    0.2658 C   0  0  1  0  0  0  0  0  0  0  0  0
    0.6131   -0.7748   -0.3153 H   0  0  0  0  0  0  0  0  0  0  0  0
   -0.2973    1.1841   -0.3966 C   0  0  0  0  0  0  0  0  0  0  0  0
   -1.3235    1.5177   -0.2466 H   0  0  0  0  0  0  0  0  0  0  0  0
    0.3691    1.9021    0.0791 H   0  0  0  0  0  0  0  0  0  0  0  0
   -0.0467    1.1902   -1.8960 C   0  0  0  0  0  0  0  0  0  0  0  0
    1.0491    1.4042   -2.3846 O   0  0  0  0  0  0  0  0  0  0  0  0
   -1.0664    0.9622   -2.6876 N   0  0  0  0  0  0  0  0  0  0  0  0
   -0.8675    0.9550   -3.6725 H   0  0  0  0  0  0  0  0  0  0  0  0
   -1.9739    0.7646   -2.3100 H   0  0  0  0  0  0  0  0  0  0  0  0
    0.4075   -0.0985    1.7169 C   0  0  0  0  0  0  0  0  0  0  0  0
    1.5860   -0.3526    1.9662 O   0  0  0  0  0  0  0  0  0  0  0  0
   -0.4625    0.2583    2.6666 N   0  0  0  0  0  0  0  0  0  0  0  0
   -1.4309    0.3754    2.3860 H   0  0  0  0  0  0  0  0  0  0  0  0
   -0.1275    0.4111    4.0813 C   0  0  0  0  0  0  0  0  0  0  0  0
    0.6862    1.1312    4.1910 H   0  0  0  0  0  0  0  0  0  0  0  0
   -0.9980    0.7641    4.6360 H   0  0  0  0  0  0  0  0  0  0  0  0
    0.1959   -0.5481    4.4891 H   0  0  0  0  0  0  0  0  0  0  0  0
  5  6  2  0  0  0  0
  5  7  1  0  0  0  0
  2  3  1  0  0  0  0
  2  4  1  0  0  0  0
  2  5  1  0  0  0  0
  1  2  1  0  0  0  0
 19 20  2  0  0  0  0
 19 21  1  0  0  0  0
 16 17  1  0  0  0  0
 16 18  1  0  0  0  0
 14 15  2  0  0  0  0
 14 16  1  0  0  0  0
 11 12  1  0  0  0  0
 11 13  1  0  0  0  0
 11 14  1  0  0  0  0
  9 10  1  0  0  0  0
  9 11  1  0  0  0  0
  9 19  1  0  0  0  0
  7  8  1  0  0  0  0
  7  9  1  0  0  0  0
 23 24  1  0  0  0  0
 23 25  1  0  0  0  0
 23 26  1  0  0  0  0
 21 22  1  0  0  0  0
 21 23  1  0  0  0  0
M  END
$$$$
default_name
  -OEChem-02102213163D

 26 25  0     1  0  0  0  0  0999 V2000
   -3.0232   -3.6924    1.0038 H   0  0  0  0  0  0  0  0  0  0  0  0
   -3.0082   -2.6684    0.6318 C   0  0  0  0  0  0  0  0  0  0  0  0
   -3.6332   -2.0414    1.2658 H   0  0  0  0  0  0  0  0  0  0  0  0
   -3.3762   -2.6444   -0.3912 H   0  0  0  0  0  0  0  0  0  0  0  0
   -1.5882   -2.1554    0.6658 C   0  0  0  0  0  0  0  0  0  0  0  0
   -0.6832   -2.8764    1.0638 O   0  0  0  0  0  0  0  0  0  0  0  0
   -1.3952   -0.9084    0.2428 N   0  0  0  0  0  0  0  0  0  0  0  0
   -2.1972   -0.3644   -0.0422 H   0  0  0  0  0  0  0  0  0  0  0  0
   -0.1122   -0.1994    0.2658 C   0  0  1  0  0  0  0  0  0  0  0  0
    0.6131   -0.7748   -0.3153 H   0  0  0  0  0  0  0  0  0  0  0  0
   -0.2973    1.1841   -0.3966 C   0  0  0  0  0  0  0  0  0  0  0  0
   -1.3235    1.5177   -0.2466 H   0  0  0  0  0  0  0  0  0  0  0  0
    0.3691    1.9021    0.0791 H   0  0  0  0  0  0  0  0  0  0  0  0
   -0.0467    1.1902   -1.8960 C   0  0  0  0  0  0  0  0  0  0  0  0
    1.0696    1.1381   -2.3822 O   0  0  0  0  0  0  0  0  0  0  0  0
   -1.0872    1.2641   -2.6898 N   0  0  0  0  0  0  0  0  0  0  0  0
   -0.8923    1.2486   -3.6754 H   0  0  0  0  0  0  0  0  0  0  0  0
   -2.0168    1.2888   -2.3151 H   0  0  0  0  0  0  0  0  0  0  0  0
    0.4075   -0.0985    1.7169 C   0  0  0  0  0  0  0  0  0  0  0  0
    1.5860   -0.3526    1.9662 O   0  0  0  0  0  0  0  0  0  0  0  0
   -0.4625    0.2583    2.6666 N   0  0  0  0  0  0  0  0  0  0  0  0
   -1.4309    0.3754    2.3860 H   0  0  0  0  0  0  0  0  0  0  0  0
   -0.1275    0.4111    4.0813 C   0  0  0  0  0  0  0  0  0  0  0  0
    0.6862    1.1312    4.1910 H   0  0  0  0  0  0  0  0  0  0  0  0
   -0.9980    0.7641    4.6360 H   0  0  0  0  0  0  0  0  0  0  0  0
    0.1959   -0.5481    4.4891 H   0  0  0  0  0  0  0  0  0  0  0  0
  5  6  2  0  0  0  0
  5  7  1  0  0  0  0
  2  3  1  0  0  0  0
  2  4  1  0  0  0  0
  2  5  1  0  0  0  0
  1  2  1  0  0  0  0
 19 20  2  0  0  0  0
 19 21  1  0  0  0  0
 16 17  1  0  0  0  0
 16 18  1  0  0  0  0
 14 15  2  0  0  0  0
 14 16  1  0  0  0  0
 11 12  1  0  0  0  0
 11 13  1  0  0  0  0
 11 14  1  0  0  0  0
  9 10  1  0  0  0  0
  9 11  1  0  0  0  0
  9 19  1  0  0  0  0
  7  8  1  0  0  0  0
  7  9  1  0  0  0  0
 23 24  1  0  0  0  0
 23 25  1  0  0  0  0
 23 26  1  0  0  0  0
 21 22  1  0  0  0  0
 21 23  1  0  0  0  0
M  END
$$$$
default_name
  -OEChem-02102213163D

 26 25  0     1  0  0  0  0  0999 V2000
   -3.0232   -3.6924    1.0038 H   0  0  0  0  0  0  0  0  0  0  0  0
   -3.0082   -2.6684    0.6318 C   0  0  0  0  0  0  0  0  0  0  0  0
   -3.6332   -2.0414    1.2658 H   0  0  0  0  0  0  0  0  0  0  0  0
   -3.3762   -2.6444   -0.3912 H   0  0  0  0  0  0  0  0  0  0  0  0
   -1.5882   -2.1554    0.6658 C   0  0  0  0  0  0  0  0  0  0  0  0
   -0.6832   -2.8764    1.0638 O   0  0  0  0  0  0  0  0  0  0  0  0
   -1.3952   -0.9084    0.2428 N   0  0  0  0  0  0  0  0  0  0  0  0
   -2.1972   -0.3644   -0.0422 H   0  0  0  0  0  0  0  0  0  0  0  0
   -0.1122   -0.1994    0.2658 C   0  0  1  0  0  0  0  0  0  0  0  0
    0.6131   -0.7748   -0.3153 H   0  0  0  0  0  0  0  0  0  0  0  0
   -0.2973    1.1841   -0.3966 C   0  0  0  0  0  0  0  0  0  0  0  0
   -1.3235    1.5177   -0.2466 H   0  0  0  0  0  0  0  0  0  0  0  0
    0.3691    1.9021    0.0791 H   0  0  0  0  0  0  0  0  0  0  0  0
   -0.0467    1.1902   -1.8960 C   0  0  0  0  0  0  0  0  0  0  0  0
    1.0215    0.8758   -2.3913 O   0  0  0  0  0  0  0  0  0  0  0  0
   -1.0303    1.5612   -2.6791 N   0  0  0  0  0  0  0  0  0  0  0  0
   -0.8413    1.5386   -3.6657 H   0  0  0  0  0  0  0  0  0  0  0  0
   -1.9244    1.8062   -2.2975 H   0  0  0  0  0  0  0  0  0  0  0  0
    0.4075   -0.0985    1.7169 C   0  0  0  0  0  0  0  0  0  0  0  0
    1.5860   -0.3526    1.9662 O   0  0  0  0  0  0  0  0  0  0  0  0
   -0.4625    0.2583    2.6666 N   0  0  0  0  0  0  0  0  0  0  0  0
   -1.4309    0.3754    2.3860 H   0  0  0  0  0  0  0  0  0  0  0  0
   -0.1275    0.4111    4.0813 C   0  0  0  0  0  0  0  0  0  0  0  0
    0.6862    1.1312    4.1910 H   0  0  0  0  0  0  0  0  0  0  0  0
   -0.9980    0.7641    4.6360 H   0  0  0  0  0  0  0  0  0  0  0  0
    0.1959   -0.5481    4.4891 H   0  0  0  0  0  0  0  0  0  0  0  0
  5  6  2  0  0  0  0
  5  7  1  0  0  0  0
  2  3  1  0  0  0  0
  2  4  1  0  0  0  0
  2  5  1  0  0  0  0
  1  2  1  0  0  0  0
 19 20  2  0  0  0  0
 19 21  1  0  0  0  0
 16 17  1  0  0  0  0
 16 18  1  0  0  0  0
 14 15  2  0  0  0  0
 14 16  1  0  0  0  0
 11 12  1  0  0  0  0
 11 13  1  0  0  0  0
 11 14  1  0  0  0  0
  9 10  1  0  0  0  0
  9 11  1  0  0  0  0
  9 19  1  0  0  0  0
  7  8  1  0  0  0  0
  7  9  1  0  0  0  0
 23 24  1  0  0  0  0
 23 25  1  0  0  0  0
 23 26  1  0  0  0  0
 21 22  1  0  0  0  0
 21 23  1  0  0  0  0
M  END
$$$$
default_name
  -OEChem-02102213163D

 26 25  0     1  0  0  0  0  0999 V2000
   -3.0232   -3.6924    1.0038 H   0  0  0  0  0  0  0  0  0  0  0  0
   -3.0082   -2.6684    0.6318 C   0  0  0  0  0  0  0  0  0  0  0  0
   -3.6332   -2.0414    1.2658 H   0  0  0  0  0  0  0  0  0  0  0  0
   -3.3762   -2.6444   -0.3912 H   0  0  0  0  0  0  0  0  0  0  0  0
   -1.5882   -2.1554    0.6658 C   0  0  0  0  0  0  0  0  0  0  0  0
   -0.6832   -2.8764    1.0638 O   0  0  0  0  0  0  0  0  0  0  0  0
   -1.3952   -0.9084    0.2428 N   0  0  0  0  0  0  0  0  0  0  0  0
   -2.1972   -0.3644   -0.0422 H   0  0  0  0  0  0  0  0  0  0  0  0
   -0.1122   -0.1994    0.2658 C   0  0  1  0  0  0  0  0  0  0  0  0
    0.6131   -0.7748   -0.3153 H   0  0  0  0  0  0  0  0  0  0  0  0
   -0.2973    1.1841   -0.3966 C   0  0  0  0  0  0  0  0  0  0  0  0
   -1.3235    1.5177   -0.2466 H   0  0  0  0  0  0  0  0  0  0  0  0
    0.3691    1.9021    0.0791 H   0  0  0  0  0  0  0  0  0  0  0  0
   -0.0467    1.1902   -1.8960 C   0  0  0  0  0  0  0  0  0  0  0  0
    0.9080    0.6350   -2.4113 O   0  0  0  0  0  0  0  0  0  0  0  0
   -0.8995    1.8331   -2.6561 N   0  0  0  0  0  0  0  0  0  0  0  0
   -0.7181    1.8053   -3.6440 H   0  0  0  0  0  0  0  0  0  0  0  0
   -1.7031    2.2817   -2.2586 H   0  0  0  0  0  0  0  0  0  0  0  0
    0.4075   -0.0985    1.7169 C   0  0  0  0  0  0  0  0  0  0  0  0
    1.5860   -0.3526    1.9662 O   0  0  0  0  0  0  0  0  0  0  0  0
   -0.4625    0.2583    2.6666 N   0  0  0  0  0  0  0  0  0  0  0  0
   -1.4309    0.3754    2.3860 H   0  0  0  0  0  0  0  0  0  0  0  0
   -0.1275    0.4111    4.0813 C   0  0  0  0  0  0  0  0  0  0  0  0
    0.6862    1.1312    4.1910 H   0  0  0  0  0  0  0  0  0  0  0  0
   -0.9980    0.7641    4.6360 H   0  0  0  0  0  0  0  0  0  0  0  0
    0.1959   -0.5481    4.4891 H   0  0  0  0  0  0  0  0  0  0  0  0
  5  6  2  0  0  0  0
  5  7  1  0  0  0  0
  2  3  1  0  0  0  0
  2  4  1  0  0  0  0
  2  5  1  0  0  0  0
  1  2  1  0  0  0  0
 19 20  2  0  0  0  0
 19 21  1  0  0  0  0
 16 17  1  0  0  0  0
 16 18  1  0  0  0  0
 14 15  2  0  0  0  0
 14 16  1  0  0  0  0
 11 12  1  0  0  0  0
 11 13  1  0  0  0  0
 11 14  1  0  0  0  0
  9 10  1  0  0  0  0
  9 11  1  0  0  0  0
  9 19  1  0  0  0  0
  7  8  1  0  0  0  0
  7  9  1  0  0  0  0
 23 24  1  0  0  0  0
 23 25  1  0  0  0  0
 23 26  1  0  0  0  0
 21 22  1  0  0  0  0
 21 23  1  0  0  0  0
M  END
$$$$
default_name
  -OEChem-02102213163D

 26 25  0     1  0  0  0  0  0999 V2000
   -3.0232   -3.6924    1.0038 H   0  0  0  0  0  0  0  0  0  0  0  0
   -3.0082   -2.6684    0.6318 C   0  0  0  0  0  0  0  0  0  0  0  0
   -3.6332   -2.0414    1.2658 H   0  0  0  0  0  0  0  0  0  0  0  0
   -3.3762   -2.6444   -0.3912 H   0  0  0  0  0  0  0  0  0  0  0  0
   -1.5882   -2.1554    0.6658 C   0  0  0  0  0  0  0  0  0  0  0  0
   -0.6832   -2.8764    1.0638 O   0  0  0  0  0  0  0  0  0  0  0  0
   -1.3952   -0.9084    0.2428 N   0  0  0  0  0  0  0  0  0  0  0  0
   -2.1972   -0.3644   -0.0422 H   0  0  0  0  0  0  0  0  0  0  0  0
   -0.1122   -0.1994    0.2658 C   0  0  1  0  0  0  0  0  0  0  0  0
    0.6131   -0.7748   -0.3153 H   0  0  0  0  0  0  0  0  0  0  0  0
   -0.2973    1.1841   -0.3966 C   0  0  0  0  0  0  0  0  0  0  0  0
   -1.3235    1.5177   -0.2466 H   0  0  0  0  0  0  0  0  0  0  0  0
    0.3691    1.9021    0.0791 H   0  0  0  0  0  0  0  0  0  0  0  0
   -0.0467    1.1902   -1.8960 C   0  0  0  0  0  0  0  0  0  0  0  0
    0.7370    0.4323   -2.4407 O   0  0  0  0  0  0  0  0  0  0  0  0
   -0.7036    2.0614   -2.6225 N   0  0  0  0  0  0  0  0  0  0  0  0
   -0.5309    2.0305   -3.6118 H   0  0  0  0  0  0  0  0  0  0  0  0
   -1.3679    2.6828   -2.2010 H   0  0  0  0  0  0  0  0  0  0  0  0
    0.4075   -0.0985    1.7169 C   0  0  0  0  0  0  0  0  0  0  0  0
    1.5860   -0.3526    1.9662 O   0  0  0  0  0  0  0  0  0  0  0  0
   -0.4625    0.2583    2.6666 N   0  0  0  0  0  0  0  0  0  0  0  0
   -1.4309    0.3754    2.3860 H   0  0  0  0  0  0  0  0  0  0  0  0
   -0.1275    0.4111    4.0813 C   0  0  0  0  0  0  0  0  0  0  0  0
    0.6862    1.1312    4.1910 H   0  0  0  0  0  0  0  0  0  0  0  0
   -0.9980    0.7641    4.6360 H   0  0  0  0  0  0  0  0  0  0  0  0
    0.1959   -0.5481    4.4891 H   0  0  0  0  0  0  0  0  0  0  0  0
  5  6  2  0  0  0  0
  5  7  1  0  0  0  0
  2  3  1  0  0  0  0
  2  4  1  0  0  0  0
  2  5  1  0  0  0  0
  1  2  1  0  0  0  0
 19 20  2  0  0  0  0
 19 21  1  0  0  0  0
 16 17  1  0  0  0  0
 16 18  1  0  0  0  0
 14 15  2  0  0  0  0
 14 16  1  0  0  0  0
 11 12  1  0  0  0  0
 11 13  1  0  0  0  0
 11 14  1  0  0  0  0
  9 10  1  0  0  0  0
  9 11  1  0  0  0  0
  9 19  1  0  0  0  0
  7  8  1  0  0  0  0
  7  9  1  0  0  0  0
 23 24  1  0  0  0  0
 23 25  1  0  0  0  0
 23 26  1  0  0  0  0
 21 22  1  0  0  0  0
 21 23  1  0  0  0  0
M  END
$$$$
default_name
  -OEChem-02102213163D

 26 25  0     1  0  0  0  0  0999 V2000
   -3.0232   -3.6924    1.0038 H   0  0  0  0  0  0  0  0  0  0  0  0
   -3.0082   -2.6684    0.6318 C   0  0  0  0  0  0  0  0  0  0  0  0
   -3.6332   -2.0414    1.2658 H   0  0  0  0  0  0  0  0  0  0  0  0
   -3.3762   -2.6444   -0.3912 H   0  0  0  0  0  0  0  0  0  0  0  0
   -1.5882   -2.1554    0.6658 C   0  0  0  0  0  0  0  0  0  0  0  0
   -0.6832   -2.8764    1.0638 O   0  0  0  0  0  0  0  0  0  0  0  0
   -1.3952   -0.9084    0.2428 N   0  0  0  0  0  0  0  0  0  0  0  0
   -2.1972   -0.3644   -0.0422 H   0  0  0  0  0  0  0  0  0  0  0  0
   -0.1122   -0.1994    0.2658 C   0  0  1  0  0  0  0  0  0  0  0  0
    0.6131   -0.7748   -0.3153 H   0  0  0  0  0  0  0  0  0  0  0  0
   -0.2973    1.1841   -0.3966 C   0  0  0  0  0  0  0  0  0  0  0  0
   -1.3235    1.5177   -0.2466 H   0  0  0  0  0  0  0  0  0  0  0  0
    0.3691    1.9021    0.0791 H   0  0  0  0  0  0  0  0  0  0  0  0
   -0.0467    1.1902   -1.8960 C   0  0  0  0  0  0  0  0  0  0  0  0
    0.5199    0.2814   -2.4776 O   0  0  0  0  0  0  0  0  0  0  0  0
   -0.4562    2.2305   -2.5804 N   0  0  0  0  0  0  0  0  0  0  0  0
   -0.2926    2.1989   -3.5713 H   0  0  0  0  0  0  0  0  0  0  0  0
   -0.9417    2.9822   -2.1285 H   0  0  0  0  0  0  0  0  0  0  0  0
    0.4075   -0.0985    1.7169 C   0  0  0  0  0  0  0  0  0  0  0  0
    1.5860   -0.3526    1.9662 O   0  0  0  0  0  0  0  0  0  0  0  0
   -0.4625    0.2583    2.6666 N   0  0  0  0  0  0  0  0  0  0  0  0
   -1.4309    0.3754    2.3860 H   0  0  0  0  0  0  0  0  0  0  0  0
   -0.1275    0.4111    4.0813 C   0  0  0  0  0  0  0  0  0  0  0  0
    0.6862    1.1312    4.1910 H   0  0  0  0  0  0  0  0  0  0  0  0
   -0.9980    0.7641    4.6360 H   0  0  0  0  0  0  0  0  0  0  0  0
    0.1959   -0.5481    4.4891 H   0  0  0  0  0  0  0  0  0  0  0  0
  5  6  2  0  0  0  0
  5  7  1  0  0  0  0
  2  3  1  0  0  0  0
  2  4  1  0  0  0  0
  2  5  1  0  0  0  0
  1  2  1  0  0  0  0
 19 20  2  0  0  0  0
 19 21  1  0  0  0  0
 16 17  1  0  0  0  0
 16 18  1  0  0  0  0
 14 15  2  0  0  0  0
 14 16  1  0  0  0  0
 11 12  1  0  0  0  0
 11 13  1  0  0  0  0
 11 14  1  0  0  0  0
  9 10  1  0  0  0  0
  9 11  1  0  0  0  0
  9 19  1  0  0  0  0
  7  8  1  0  0  0  0
  7  9  1  0  0  0  0
 23 24  1  0  0  0  0
 23 25  1  0  0  0  0
 23 26  1  0  0  0  0
 21 22  1  0  0  0  0
 21 23  1  0  0  0  0
M  END
$$$$
default_name
  -OEChem-02102213163D

 26 25  0     1  0  0  0  0  0999 V2000
   -3.0232   -3.6924    1.0038 H   0  0  0  0  0  0  0  0  0  0  0  0
   -3.0082   -2.6684    0.6318 C   0  0  0  0  0  0  0  0  0  0  0  0
   -3.6332   -2.0414    1.2658 H   0  0  0  0  0  0  0  0  0  0  0  0
   -3.3762   -2.6444   -0.3912 H   0  0  0  0  0  0  0  0  0  0  0  0
   -1.5882   -2.1554    0.6658 C   0  0  0  0  0  0  0  0  0  0  0  0
   -0.6832   -2.8764    1.0638 O   0  0  0  0  0  0  0  0  0  0  0  0
   -1.3952   -0.9084    0.2428 N   0  0  0  0  0  0  0  0  0  0  0  0
   -2.1972   -0.3644   -0.0422 H   0  0  0  0  0  0  0  0  0  0  0  0
   -0.1122   -0.1994    0.2658 C   0  0  1  0  0  0  0  0  0  0  0  0
    0.6131   -0.7748   -0.3153 H   0  0  0  0  0  0  0  0  0  0  0  0
   -0.2973    1.1841   -0.3966 C   0  0  0  0  0  0  0  0  0  0  0  0
   -1.3235    1.5177   -0.2466 H   0  0  0  0  0  0  0  0  0  0  0  0
    0.3691    1.9021    0.0791 H   0  0  0  0  0  0  0  0  0  0  0  0
   -0.0467    1.1902   -1.8960 C   0  0  0  0  0  0  0  0  0  0  0  0
    0.2718    0.1926   -2.5194 O   0  0  0  0  0  0  0  0  0  0  0  0
   -0.1739    2.3288   -2.5328 N   0  0  0  0  0  0  0  0  0  0  0  0
   -0.0194    2.2990   -3.5253 H   0  0  0  0  0  0  0  0  0  0  0  0
   -0.4534    3.1596   -2.0462 H   0  0  0  0  0  0  0  0  0  0  0  0
    0.4075   -0.0985    1.7169 C   0  0  0  0  0  0  0  0  0  0  0  0
    1.5860   -0.3526    1.9662 O   0  0  0  0  0  0  0  0  0  0  0  0
   -0.4625    0.2583    2.6666 N   0  0  0  0  0  0  0  0  0  0  0  0
   -1.4309    0.3754    2.3860 H   0  0  0  0  0  0  0  0  0  0  0  0
   -0.1275    0.4111    4.0813 C   0  0  0  0  0  0  0  0  0  0  0  0
    0.6862    1.1312    4.1910 H   0  0  0  0  0  0  0  0  0  0  0  0
   -0.9980    0.7641    4.6360 H   0  0  0  0  0  0  0  0  0  0  0  0
    0.1959   -0.5481    4.4891 H   0  0  0  0  0  0  0  0  0  0  0  0
  5  6  2  0  0  0  0
  5  7  1  0  0  0  0
  2  3  1  0  0  0  0
  2  4  1  0  0  0  0
  2  5  1  0  0  0  0
  1  2  1  0  0  0  0
 19 20  2  0  0  0  0
 19 21  1  0  0  0  0
 16 17  1  0  0  0  0
 16 18  1  0  0  0  0
 14 15  2  0  0  0  0
 14 16  1  0  0  0  0
 11 12  1  0  0  0  0
 11 13  1  0  0  0  0
 11 14  1  0  0  0  0
  9 10  1  0  0  0  0
  9 11  1  0  0  0  0
  9 19  1  0  0  0  0
  7  8  1  0  0  0  0
  7  9  1  0  0  0  0
 23 24  1  0  0  0  0
 23 25  1  0  0  0  0
 23 26  1  0  0  0  0
 21 22  1  0  0  0  0
 21 23  1  0  0  0  0
M  END
$$$$
default_name
  -OEChem-02102213163D

 26 25  0     1  0  0  0  0  0999 V2000
   -3.0232   -3.6924    1.0038 H   0  0  0  0  0  0  0  0  0  0  0  0
   -3.0082   -2.6684    0.6318 C   0  0  0  0  0  0  0  0  0  0  0  0
   -3.6332   -2.0414    1.2658 H   0  0  0  0  0  0  0  0  0  0  0  0
   -3.3762   -2.6444   -0.3912 H   0  0  0  0  0  0  0  0  0  0  0  0
   -1.5882   -2.1554    0.6658 C   0  0  0  0  0  0  0  0  0  0  0  0
   -0.6832   -2.8764    1.0638 O   0  0  0  0  0  0  0  0  0  0  0  0
   -1.3952   -0.9084    0.2428 N   0  0  0  0  0  0  0  0  0  0  0  0
   -2.1972   -0.3644   -0.0422 H   0  0  0  0  0  0  0  0  0  0  0  0
   -0.1122   -0.1994    0.2658 C   0  0  1  0  0  0  0  0  0  0  0  0
    0.6131   -0.7748   -0.3153 H   0  0  0  0  0  0  0  0  0  0  0  0
   -0.2973    1.1841   -0.3966 C   0  0  0  0  0  0  0  0  0  0  0  0
   -1.3235    1.5177   -0.2466 H   0  0  0  0  0  0  0  0  0  0  0  0
    0.3691    1.9021    0.0791 H   0  0  0  0  0  0  0  0  0  0  0  0
   -0.0467    1.1902   -1.8960 C   0  0  0  0  0  0  0  0  0  0  0  0
    0.0093    0.1720   -2.5633 O   0  0  0  0  0  0  0  0  0  0  0  0
    0.1239    2.3498   -2.4830 N   0  0  0  0  0  0  0  0  0  0  0  0
    0.2701    2.3240   -3.4768 H   0  0  0  0  0  0  0  0  0  0  0  0
    0.0635    3.2027   -1.9596 H   0  0  0  0  0  0  0  0  0  0  0  0
    0.4075   -0.0985    1.7169 C   0  0  0  0  0  0  0  0  0  0  0  0
    1.5860   -0.3526    1.9662 O   0  0  0  0  0  0  0  0  0  0  0  0
   -0.4625    0.2583    2.6666 N   0  0  0  0  0  0  0  0  0  0  0  0
   -1.4309    0.3754    2.3860 H   0  0  0  0  0  0  0  0  0  0  0  0
   -0.1275    0.4111    4.0813 C   0  0  0  0  0  0  0  0  0  0  0  0
    0.6862    1.1312    4.1910 H   0  0  0  0  0  0  0  0  0  0  0  0
   -0.9980    0.7641    4.6360 H   0  0  0  0  0  0  0  0  0  0  0  0
    0.1959   -0.5481    4.4891 H   0  0  0  0  0  0  0  0  0  0  0  0
  5  6  2  0  0  0  0
  5  7  1  0  0  0  0
  2  3  1  0  0  0  0
  2  4  1  0  0  0  0
  2  5  1  0  0  0  0
  1  2  1  0  0  0  0
 19 20  2  0  0  0  0
 19 21  1  0  0  0  0
 16 17  1  0  0  0  0
 16 18  1  0  0  0  0
 14 15  2  0  0  0  0
 14 16  1  0  0  0  0
 11 12  1  0  0  0  0
 11 13  1  0  0  0  0
 11 14  1  0  0  0  0
  9 10  1  0  0  0  0
  9 11  1  0  0  0  0
  9 19  1  0  0  0  0
  7  8  1  0  0  0  0
  7  9  1  0  0  0  0
 23 24  1  0  0  0  0
 23 25  1  0  0  0  0
 23 26  1  0  0  0  0
 21 22  1  0  0  0  0
 21 23  1  0  0  0  0
M  END
$$$$
default_name
  -OEChem-02102213163D

 26 25  0     1  0  0  0  0  0999 V2000
   -3.0232   -3.6924    1.0038 H   0  0  0  0  0  0  0  0  0  0  0  0
   -3.0082   -2.6684    0.6318 C   0  0  0  0  0  0  0  0  0  0  0  0
   -3.6332   -2.0414    1.2658 H   0  0  0  0  0  0  0  0  0  0  0  0
   -3.3762   -2.6444   -0.3912 H   0  0  0  0  0  0  0  0  0  0  0  0
   -1.5882   -2.1554    0.6658 C   0  0  0  0  0  0  0  0  0  0  0  0
   -0.6832   -2.8764    1.0638 O   0  0  0  0  0  0  0  0  0  0  0  0
   -1.3952   -0.9084    0.2428 N   0  0  0  0  0  0  0  0  0  0  0  0
   -2.1972   -0.3644   -0.0422 H   0  0  0  0  0  0  0  0  0  0  0  0
   -0.1122   -0.1994    0.2658 C   0  0  1  0  0  0  0  0  0  0  0  0
    0.6131   -0.7748   -0.3153 H   0  0  0  0  0  0  0  0  0  0  0  0
   -0.2973    1.1841   -0.3966 C   0  0  0  0  0  0  0  0  0  0  0  0
   -1.3235    1.5177   -0.2466 H   0  0  0  0  0  0  0  0  0  0  0  0
    0.3691    1.9021    0.0791 H   0  0  0  0  0  0  0  0  0  0  0  0
   -0.0467    1.1902   -1.8960 C   0  0  0  0  0  0  0  0  0  0  0  0
   -0.2495    0.2209   -2.6064 O   0  0  0  0  0  0  0  0  0  0  0  0
    0.4169    2.2918   -2.4342 N   0  0  0  0  0  0  0  0  0  0  0  0
    0.5562    2.2721   -3.4292 H   0  0  0  0  0  0  0  0  0  0  0  0
    0.5739    3.1087   -1.8747 H   0  0  0  0  0  0  0  0  0  0  0  0
    0.4075   -0.0985    1.7169 C   0  0  0  0  0  0  0  0  0  0  0  0
    1.5860   -0.3526    1.9662 O   0  0  0  0  0  0  0  0  0  0  0  0
   -0.4625    0.2583    2.6666 N   0  0  0  0  0  0  0  0  0  0  0  0
   -1.4309    0.3754    2.3860 H   0  0  0  0  0  0  0  0  0  0  0  0
   -0.1275    0.4111    4.0813 C   0  0  0  0  0  0  0  0  0  0  0  0
    0.6862    1.1312    4.1910 H   0  0  0  0  0  0  0  0  0  0  0  0
   -0.9980    0.7641    4.6360 H   0  0  0  0  0  0  0  0  0  0  0  0
    0.1959   -0.5481    4.4891 H   0  0  0  0  0  0  0  0  0  0  0  0
  5  6  2  0  0  0  0
  5  7  1  0  0  0  0
  2  3  1  0  0  0  0
  2  4  1  0  0  0  0
  2  5  1  0  0  0  0
  1  2  1  0  0  0  0
 19 20  2  0  0  0  0
 19 21  1  0  0  0  0
 16 17  1  0  0  0  0
 16 18  1  0  0  0  0
 14 15  2  0  0  0  0
 14 16  1  0  0  0  0
 11 12  1  0  0  0  0
 11 13  1  0  0  0  0
 11 14  1  0  0  0  0
  9 10  1  0  0  0  0
  9 11  1  0  0  0  0
  9 19  1  0  0  0  0
  7  8  1  0  0  0  0
  7  9  1  0  0  0  0
 23 24  1  0  0  0  0
 23 25  1  0  0  0  0
 23 26  1  0  0  0  0
 21 22  1  0  0  0  0
 21 23  1  0  0  0  0
M  END
$$$$
default_name
  -OEChem-02102213163D

 26 25  0     1  0  0  0  0  0999 V2000
   -3.0232   -3.6924    1.0038 H   0  0  0  0  0  0  0  0  0  0  0  0
   -3.0082   -2.6684    0.6318 C   0  0  0  0  0  0  0  0  0  0  0  0
   -3.6332   -2.0414    1.2658 H   0  0  0  0  0  0  0  0  0  0  0  0
   -3.3762   -2.6444   -0.3912 H   0  0  0  0  0  0  0  0  0  0  0  0
   -1.5882   -2.1554    0.6658 C   0  0  0  0  0  0  0  0  0  0  0  0
   -0.6832   -2.8764    1.0638 O   0  0  0  0  0  0  0  0  0  0  0  0
   -1.3952   -0.9084    0.2428 N   0  0  0  0  0  0  0  0  0  0  0  0
   -2.1972   -0.3644   -0.0422 H   0  0  0  0  0  0  0  0  0  0  0  0
   -0.1122   -0.1994    0.2658 C   0  0  1  0  0  0  0  0  0  0  0  0
    0.6131   -0.7748   -0.3153 H   0  0  0  0  0  0  0  0  0  0  0  0
   -0.2973    1.1841   -0.3966 C   0  0  0  0  0  0  0  0  0  0  0  0
   -1.3235    1.5177   -0.2466 H   0  0  0  0  0  0  0  0  0  0  0  0
    0.3691    1.9021    0.0791 H   0  0  0  0  0  0  0  0  0  0  0  0
   -0.0467    1.1902   -1.8960 C   0  0  0  0  0  0  0  0  0  0  0  0
   -0.4870    0.3361   -2.6456 O   0  0  0  0  0  0  0  0  0  0  0  0
    0.6852    2.1590   -2.3899 N   0  0  0  0  0  0  0  0  0  0  0  0
    0.8193    2.1470   -3.3857 H   0  0  0  0  0  0  0  0  0  0  0  0
    1.0431    2.8840   -1.7972 H   0  0  0  0  0  0  0  0  0  0  0  0
    0.4075   -0.0985    1.7169 C   0  0  0  0  0  0  0  0  0  0  0  0
    1.5860   -0.3526    1.9662 O   0  0  0  0  0  0  0  0  0  0  0  0
   -0.4625    0.2583    2.6666 N   0  0  0  0  0  0  0  0  0  0  0  0
   -1.4309    0.3754    2.3860 H   0  0  0  0  0  0  0  0  0  0  0  0
   -0.1275    0.4111    4.0813 C   0  0  0  0  0  0  0  0  0  0  0  0
    0.6862    1.1312    4.1910 H   0  0  0  0  0  0  0  0  0  0  0  0
   -0.9980    0.7641    4.6360 H   0  0  0  0  0  0  0  0  0  0  0  0
    0.1959   -0.5481    4.4891 H   0  0  0  0  0  0  0  0  0  0  0  0
  5  6  2  0  0  0  0
  5  7  1  0  0  0  0
  2  3  1  0  0  0  0
  2  4  1  0  0  0  0
  2  5  1  0  0  0  0
  1  2  1  0  0  0  0
 19 20  2  0  0  0  0
 19 21  1  0  0  0  0
 16 17  1  0  0  0  0
 16 18  1  0  0  0  0
 14 15  2  0  0  0  0
 14 16  1  0  0  0  0
 11 12  1  0  0  0  0
 11 13  1  0  0  0  0
 11 14  1  0  0  0  0
  9 10  1  0  0  0  0
  9 11  1  0  0  0  0
  9 19  1  0  0  0  0
  7  8  1  0  0  0  0
  7  9  1  0  0  0  0
 23 24  1  0  0  0  0
 23 25  1  0  0  0  0
 23 26  1  0  0  0  0
 21 22  1  0  0  0  0
 21 23  1  0  0  0  0
M  END
$$$$
default_name
  -OEChem-02102213163D

 26 25  0     1  0  0  0  0  0999 V2000
   -3.0232   -3.6924    1.0038 H   0  0  0  0  0  0  0  0  0  0  0  0
   -3.0082   -2.6684    0.6318 C   0  0  0  0  0  0  0  0  0  0  0  0
   -3.6332   -2.0414    1.2658 H   0  0  0  0  0  0  0  0  0  0  0  0
   -3.3762   -2.6444   -0.3912 H   0  0  0  0  0  0  0  0  0  0  0  0
   -1.5882   -2.1554    0.6658 C   0  0  0  0  0  0  0  0  0  0  0  0
   -0.6832   -2.8764    1.0638 O   0  0  0  0  0  0  0  0  0  0  0  0
   -1.3952   -0.9084    0.2428 N   0  0  0  0  0  0  0  0  0  0  0  0
   -2.1972   -0.3644   -0.0422 H   0  0  0  0  0  0  0  0  0  0  0  0
   -0.1122   -0.1994    0.2658 C   0  0  1  0  0  0  0  0  0  0  0  0
    0.6131   -0.7748   -0.3153 H   0  0  0  0  0  0  0  0  0  0  0  0
   -0.2973    1.1841   -0.3966 C   0  0  0  0  0  0  0  0  0  0  0  0
   -1.3235    1.5177   -0.2466 H   0  0  0  0  0  0  0  0  0  0  0  0
    0.3691    1.9021    0.0791 H   0  0  0  0  0  0  0  0  0  0  0  0
   -0.0467    1.1902   -1.8960 C   0  0  0  0  0  0  0  0  0  0  0  0
   -0.6871    0.5097   -2.6784 O   0  0  0  0  0  0  0  0  0  0  0  0
    0.9105    1.9603   -2.3531 N   0  0  0  0  0  0  0  0  0  0  0  0
    1.0416    1.9571   -3.3493 H   0  0  0  0  0  0  0  0  0  0  0  0
    1.4389    2.5439   -1.7324 H   0  0  0  0  0  0  0  0  0  0  0  0
    0.4075   -0.0985    1.7169 C   0  0  0  0  0  0  0  0  0  0  0  0
    1.5860   -0.3526    1.9662 O   0  0  0  0  0  0  0  0  0  0  0  0
   -0.4625    0.2583    2.6666 N   0  0  0  0  0  0  0  0  0  0  0  0
   -1.4309    0.3754    2.3860 H   0  0  0  0  0  0  0  0  0  0  0  0
   -0.1275    0.4111    4.0813 C   0  0  0  0  0  0  0  0  0  0  0  0
    0.6862    1.1312    4.1910 H   0  0  0  0  0  0  0  0  0  0  0  0
   -0.9980    0.7641    4.6360 H   0  0  0  0  0  0  0  0  0  0  0  0
    0.1959   -0.5481    4.4891 H   0  0  0  0  0  0  0  0  0  0  0  0
  5  6  2  0  0  0  0
  5  7  1  0  0  0  0
  2  3  1  0  0  0  0
  2  4  1  0  0  0  0
  2  5  1  0  0  0  0
  1  2  1  0  0  0  0
 19 20  2  0  0  0  0
 19 21  1  0  0  0  0
 16 17  1  0  0  0  0
 16 18  1  0  0  0  0
 14 15  2  0  0  0  0
 14 16  1  0  0  0  0
 11 12  1  0  0  0  0
 11 13  1  0  0  0  0
 11 14  1  0  0  0  0
  9 10  1  0  0  0  0
  9 11  1  0  0  0  0
  9 19  1  0  0  0  0
  7  8  1  0  0  0  0
  7  9  1  0  0  0  0
 23 24  1  0  0  0  0
 23 25  1  0  0  0  0
 23 26  1  0  0  0  0
 21 22  1  0  0  0  0
 21 23  1  0  0  0  0
M  END
$$$$
default_name
  -OEChem-02102213163D

 26 25  0     1  0  0  0  0  0999 V2000
   -3.0232   -3.6924    1.0038 H   0  0  0  0  0  0  0  0  0  0  0  0
   -3.0082   -2.6684    0.6318 C   0  0  0  0  0  0  0  0  0  0  0  0
   -3.6332   -2.0414    1.2658 H   0  0  0  0  0  0  0  0  0  0  0  0
   -3.3762   -2.6444   -0.3912 H   0  0  0  0  0  0  0  0  0  0  0  0
   -1.5882   -2.1554    0.6658 C   0  0  0  0  0  0  0  0  0  0  0  0
   -0.6832   -2.8764    1.0638 O   0  0  0  0  0  0  0  0  0  0  0  0
   -1.3952   -0.9084    0.2428 N   0  0  0  0  0  0  0  0  0  0  0  0
   -2.1972   -0.3644   -0.0422 H   0  0  0  0  0  0  0  0  0  0  0  0
   -0.1122   -0.1994    0.2658 C   0  0  1  0  0  0  0  0  0  0  0  0
    0.6131   -0.7748   -0.3153 H   0  0  0  0  0  0  0  0  0  0  0  0
   -0.2973    1.1841   -0.3966 C   0  0  0  0  0  0  0  0  0  0  0  0
   -1.3235    1.5177   -0.2466 H   0  0  0  0  0  0  0  0  0  0  0  0
    0.3691    1.9021    0.0791 H   0  0  0  0  0  0  0  0  0  0  0  0
   -0.0467    1.1902   -1.8960 C   0  0  0  0  0  0  0  0  0  0  0  0
   -0.8360    0.7298   -2.7024 O   0  0  0  0  0  0  0  0  0  0  0  0
    1.0775    1.7093   -2.3262 N   0  0  0  0  0  0  0  0  0  0  0  0
    1.2079    1.7154   -3.3225 H   0  0  0  0  0  0  0  0  0  0  0  0
    1.7345    2.1116   -1.6847 H   0  0  0  0  0  0  0  0  0  0  0  0
    0.4075   -0.0985    1.7169 C   0  0  0  0  0  0  0  0  0  0  0  0
    1.5860   -0.3526    1.9662 O   0  0  0  0  0  0  0  0  0  0  0  0
   -0.4625    0.2583    2.6666 N   0  0  0  0  0  0  0  0  0  0  0  0
   -1.4309    0.3754    2.3860 H   0  0  0  0  0  0  0  0  0  0  0  0
   -0.1275    0.4111    4.0813 C   0  0  0  0  0  0  0  0  0  0  0  0
    0.6862    1.1312    4.1910 H   0  0  0  0  0  0  0  0  0  0  0  0
   -0.9980    0.7641    4.6360 H   0  0  0  0  0  0  0  0  0  0  0  0
    0.1959   -0.5481    4.4891 H   0  0  0  0  0  0  0  0  0  0  0  0
  5  6  2  0  0  0  0
  5  7  1  0  0  0  0
  2  3  1  0  0  0  0
  2  4  1  0  0  0  0
  2  5  1  0  0  0  0
  1  2  1  0  0  0  0
 19 20  2  0  0  0  0
 19 21  1  0  0  0  0
 16 17  1  0  0  0  0
 16 18  1  0  0  0  0
 14 15  2  0  0  0  0
 14 16  1  0  0  0  0
 11 12  1  0  0  0  0
 11 13  1  0  0  0  0
 11 14  1  0  0  0  0
  9 10  1  0  0  0  0
  9 11  1  0  0  0  0
  9 19  1  0  0  0  0
  7  8  1  0  0  0  0
  7  9  1  0  0  0  0
 23 24  1  0  0  0  0
 23 25  1  0  0  0  0
 23 26  1  0  0  0  0
 21 22  1  0  0  0  0
 21 23  1  0  0  0  0
M  END
$$$$
default_name
  -OEChem-02102213163D

 26 25  0     1  0  0  0  0  0999 V2000
   -3.0232   -3.6924    1.0038 H   0  0  0  0  0  0  0  0  0  0  0  0
   -3.0082   -2.6684    0.6318 C   0  0  0  0  0  0  0  0  0  0  0  0
   -3.6332   -2.0414    1.2658 H   0  0  0  0  0  0  0  0  0  0  0  0
   -3.3762   -2.6444   -0.3912 H   0  0  0  0  0  0  0  0  0  0  0  0
   -1.5882   -2.1554    0.6658 C   0  0  0  0  0  0  0  0  0  0  0  0
   -0.6832   -2.8764    1.0638 O   0  0  0  0  0  0  0  0  0  0  0  0
   -1.3952   -0.9084    0.2428 N   0  0  0  0  0  0  0  0  0  0  0  0
   -2.1972   -0.3644   -0.0422 H   0  0  0  0  0  0  0  0  0  0  0  0
   -0.1122   -0.1994    0.2658 C   0  0  1  0  0  0  0  0  0  0  0  0
    0.6131   -0.7748   -0.3153 H   0  0  0  0  0  0  0  0  0  0  0  0
   -0.2973    1.1841   -0.3966 C   0  0  0  0  0  0  0  0  0  0  0  0
   -1.3235    1.5177   -0.2466 H   0  0  0  0  0  0  0  0  0  0  0  0
    0.3691    1.9021    0.0791 H   0  0  0  0  0  0  0  0  0  0  0  0
   -0.0467    1.1902   -1.8960 C   0  0  0  0  0  0  0  0  0  0  0  0
   -0.9238    0.9815   -2.7160 O   0  0  0  0  0  0  0  0  0  0  0  0
    1.1747    1.4231   -2.3111 N   0  0  0  0  0  0  0  0  0  0  0  0
    1.3068    1.4383   -3.3071 H   0  0  0  0  0  0  0  0  0  0  0  0
    1.9098    1.6164   -1.6575 H   0  0  0  0  0  0  0  0  0  0  0  0
    0.4075   -0.0985    1.7169 C   0  0  0  0  0  0  0  0  0  0  0  0
    1.5860   -0.3526    1.9662 O   0  0  0  0  0  0  0  0  0  0  0  0
   -0.4625    0.2583    2.6666 N   0  0  0  0  0  0  0  0  0  0  0  0
   -1.4309    0.3754    2.3860 H   0  0  0  0  0  0  0  0  0  0  0  0
   -0.1275    0.4111    4.0813 C   0  0  0  0  0  0  0  0  0  0  0  0
    0.6862    1.1312    4.1910 H   0  0  0  0  0  0  0  0  0  0  0  0
   -0.9980    0.7641    4.6360 H   0  0  0  0  0  0  0  0  0  0  0  0
    0.1959   -0.5481    4.4891 H   0  0  0  0  0  0  0  0  0  0  0  0
  5  6  2  0  0  0  0
  5  7  1  0  0  0  0
  2  3  1  0  0  0  0
  2  4  1  0  0  0  0
  2  5  1  0  0  0  0
  1  2  1  0  0  0  0
 19 20  2  0  0  0  0
 19 21  1  0  0  0  0
 16 17  1  0  0  0  0
 16 18  1  0  0  0  0
 14 15  2  0  0  0  0
 14 16  1  0  0  0  0
 11 12  1  0  0  0  0
 11 13  1  0  0  0  0
 11 14  1  0  0  0  0
  9 10  1  0  0  0  0
  9 11  1  0  0  0  0
  9 19  1  0  0  0  0
  7  8  1  0  0  0  0
  7  9  1  0  0  0  0
 23 24  1  0  0  0  0
 23 25  1  0  0  0  0
 23 26  1  0  0  0  0
 21 22  1  0  0  0  0
 21 23  1  0  0  0  0
M  END
$$$$
default_name
  -OEChem-02102213163D

 26 25  0     1  0  0  0  0  0999 V2000
   -3.0232   -3.6924    1.0038 H   0  0  0  0  0  0  0  0  0  0  0  0
   -3.0082   -2.6684    0.6318 C   0  0  0  0  0  0  0  0  0  0  0  0
   -3.6332   -2.0414    1.2658 H   0  0  0  0  0  0  0  0  0  0  0  0
   -3.3762   -2.6444   -0.3912 H   0  0  0  0  0  0  0  0  0  0  0  0
   -1.5882   -2.1554    0.6658 C   0  0  0  0  0  0  0  0  0  0  0  0
   -0.6832   -2.8764    1.0638 O   0  0  0  0  0  0  0  0  0  0  0  0
   -1.3952   -0.9084    0.2428 N   0  0  0  0  0  0  0  0  0  0  0  0
   -2.1972   -0.3644   -0.0422 H   0  0  0  0  0  0  0  0  0  0  0  0
   -0.1122   -0.1994    0.2658 C   0  0  1  0  0  0  0  0  0  0  0  0
    0.6131   -0.7748   -0.3153 H   0  0  0  0  0  0  0  0  0  0  0  0
   -0.2973    1.1841   -0.3966 C   0  0  0  0  0  0  0  0  0  0  0  0
   -1.3235    1.5177   -0.2466 H   0  0  0  0  0  0  0  0  0  0  0  0
    0.3691    1.9021    0.0791 H   0  0  0  0  0  0  0  0  0  0  0  0
   -0.0467    1.1902   -1.8960 C   0  0  0  0  0  0  0  0  0  0  0  0
   -0.9443    1.2476   -2.7184 O   0  0  0  0  0  0  0  0  0  0  0  0
    1.1955    1.1211   -2.3088 N   0  0  0  0  0  0  0  0  0  0  0  0
    1.3316    1.1447   -3.3041 H   0  0  0  0  0  0  0  0  0  0  0  0
    1.9527    1.0923   -1.6524 H   0  0  0  0  0  0  0  0  0  0  0  0
    0.4075   -0.0985    1.7169 C   0  0  0  0  0  0  0  0  0  0  0  0
    1.5860   -0.3526    1.9662 O   0  0  0  0  0  0  0  0  0  0  0  0
   -0.4625    0.2583    2.6666 N   0  0  0  0  0  0  0  0  0  0  0  0
   -1.4309    0.3754    2.3860 H   0  0  0  0  0  0  0  0  0  0  0  0
   -0.1275    0.4111    4.0813 C   0  0  0  0  0  0  0  0  0  0  0  0
    0.6862    1.1312    4.1910 H   0  0  0  0  0  0  0  0  0  0  0  0
   -0.9980    0.7641    4.6360 H   0  0  0  0  0  0  0  0  0  0  0  0
    0.1959   -0.5481    4.4891 H   0  0  0  0  0  0  0  0  0  0  0  0
  5  6  2  0  0  0  0
  5  7  1  0  0  0  0
  2  3  1  0  0  0  0
  2  4  1  0  0  0  0
  2  5  1  0  0  0  0
  1  2  1  0  0  0  0
 19 20  2  0  0  0  0
 19 21  1  0  0  0  0
 16 17  1  0  0  0  0
 16 18  1  0  0  0  0
 14 15  2  0  0  0  0
 14 16  1  0  0  0  0
 11 12  1  0  0  0  0
 11 13  1  0  0  0  0
 11 14  1  0  0  0  0
  9 10  1  0  0  0  0
  9 11  1  0  0  0  0
  9 19  1  0  0  0  0
  7  8  1  0  0  0  0
  7  9  1  0  0  0  0
 23 24  1  0  0  0  0
 23 25  1  0  0  0  0
 23 26  1  0  0  0  0
 21 22  1  0  0  0  0
 21 23  1  0  0  0  0
M  END
$$$$
default_name
  -OEChem-02102213163D

 26 25  0     1  0  0  0  0  0999 V2000
   -3.0232   -3.6924    1.0038 H   0  0  0  0  0  0  0  0  0  0  0  0
   -3.0082   -2.6684    0.6318 C   0  0  0  0  0  0  0  0  0  0  0  0
   -3.6332   -2.0414    1.2658 H   0  0  0  0  0  0  0  0  0  0  0  0
   -3.3762   -2.6444   -0.3912 H   0  0  0  0  0  0  0  0  0  0  0  0
   -1.5882   -2.1554    0.6658 C   0  0  0  0  0  0  0  0  0  0  0  0
   -0.6832   -2.8764    1.0638 O   0  0  0  0  0  0  0  0  0  0  0  0
   -1.3952   -0.9084    0.2428 N   0  0  0  0  0  0  0  0  0  0  0  0
   -2.1972   -0.3644   -0.0422 H   0  0  0  0  0  0  0  0  0  0  0  0
   -0.1122   -0.1994    0.2658 C   0  0  1  0  0  0  0  0  0  0  0  0
    0.6131   -0.7748   -0.3153 H   0  0  0  0  0  0  0  0  0  0  0  0
   -0.2973    1.1841   -0.3966 C   0  0  0  0  0  0  0  0  0  0  0  0
   -1.3235    1.5177   -0.2466 H   0  0  0  0  0  0  0  0  0  0  0  0
    0.3691    1.9021    0.0791 H   0  0  0  0  0  0  0  0  0  0  0  0
   -0.0467    1.1902   -1.8960 C   0  0  0  0  0  0  0  0  0  0  0  0
   -0.8962    1.5099   -2.7093 O   0  0  0  0  0  0  0  0  0  0  0  0
    1.1386    0.8241   -2.3196 N   0  0  0  0  0  0  0  0  0  0  0  0
    1.2807    0.8547   -3.3138 H   0  0  0  0  0  0  0  0  0  0  0  0
    1.8603    0.5749   -1.6700 H   0  0  0  0  0  0  0  0  0  0  0  0
    0.4075   -0.0985    1.7169 C   0  0  0  0  0  0  0  0  0  0  0  0
    1.5860   -0.3526    1.9662 O   0  0  0  0  0  0  0  0  0  0  0  0
   -0.4625    0.2583    2.6666 N   0  0  0  0  0  0  0  0  0  0  0  0
   -1.4309    0.3754    2.3860 H   0  0  0  0  0  0  0  0  0  0  0  0
   -0.1275    0.4111    4.0813 C   0  0  0  0  0  0  0  0  0  0  0  0
    0.6862    1.1312    4.1910 H   0  0  0  0  0  0  0  0  0  0  0  0
   -0.9980    0.7641    4.6360 H   0  0  0  0  0  0  0  0  0  0  0  0
    0.1959   -0.5481    4.4891 H   0  0  0  0  0  0  0  0  0  0  0  0
  5  6  2  0  0  0  0
  5  7  1  0  0  0  0
  2  3  1  0  0  0  0
  2  4  1  0  0  0  0
  2  5  1  0  0  0  0
  1  2  1  0  0  0  0
 19 20  2  0  0  0  0
 19 21  1  0  0  0  0
 16 17  1  0  0  0  0
 16 18  1  0  0  0  0
 14 15  2  0  0  0  0
 14 16  1  0  0  0  0
 11 12  1  0  0  0  0
 11 13  1  0  0  0  0
 11 14  1  0  0  0  0
  9 10  1  0  0  0  0
  9 11  1  0  0  0  0
  9 19  1  0  0  0  0
  7  8  1  0  0  0  0
  7  9  1  0  0  0  0
 23 24  1  0  0  0  0
 23 25  1  0  0  0  0
 23 26  1  0  0  0  0
 21 22  1  0  0  0  0
 21 23  1  0  0  0  0
M  END
$$$$
default_name
  -OEChem-02102213163D

 26 25  0     1  0  0  0  0  0999 V2000
   -3.0232   -3.6924    1.0038 H   0  0  0  0  0  0  0  0  0  0  0  0
   -3.0082   -2.6684    0.6318 C   0  0  0  0  0  0  0  0  0  0  0  0
   -3.6332   -2.0414    1.2658 H   0  0  0  0  0  0  0  0  0  0  0  0
   -3.3762   -2.6444   -0.3912 H   0  0  0  0  0  0  0  0  0  0  0  0
   -1.5882   -2.1554    0.6658 C   0  0  0  0  0  0  0  0  0  0  0  0
   -0.6832   -2.8764    1.0638 O   0  0  0  0  0  0  0  0  0  0  0  0
   -1.3952   -0.9084    0.2428 N   0  0  0  0  0  0  0  0  0  0  0  0
   -2.1972   -0.3644   -0.0422 H   0  0  0  0  0  0  0  0  0  0  0  0
   -0.1122   -0.1994    0.2658 C   0  0  1  0  0  0  0  0  0  0  0  0
    0.6131   -0.7748   -0.3153 H   0  0  0  0  0  0  0  0  0  0  0  0
   -0.2973    1.1841   -0.3966 C   0  0  0  0  0  0  0  0  0  0  0  0
   -1.3235    1.5177   -0.2466 H   0  0  0  0  0  0  0  0  0  0  0  0
    0.3691    1.9021    0.0791 H   0  0  0  0  0  0  0  0  0  0  0  0
   -0.0467    1.1902   -1.8960 C   0  0  0  0  0  0  0  0  0  0  0  0
   -0.7827    1.7507   -2.6893 O   0  0  0  0  0  0  0  0  0  0  0  0
    1.0077    0.5521   -2.3425 N   0  0  0  0  0  0  0  0  0  0  0  0
    1.1574    0.5880   -3.3355 H   0  0  0  0  0  0  0  0  0  0  0  0
    1.6390    0.0994   -1.7089 H   0  0  0  0  0  0  0  0  0  0  0  0
    0.4075   -0.0985    1.7169 C   0  0  0  0  0  0  0  0  0  0  0  0
    1.5860   -0.3526    1.9662 O   0  0  0  0  0  0  0  0  0  0  0  0
   -0.4625    0.2583    2.6666 N   0  0  0  0  0  0  0  0  0  0  0  0
   -1.4309    0.3754    2.3860 H   0  0  0  0  0  0  0  0  0  0  0  0
   -0.1275    0.4111    4.0813 C   0  0  0  0  0  0  0  0  0  0  0  0
    0.6862    1.1312    4.1910 H   0  0  0  0  0  0  0  0  0  0  0  0
   -0.9980    0.7641    4.6360 H   0  0  0  0  0  0  0  0  0  0  0  0
    0.1959   -0.5481    4.4891 H   0  0  0  0  0  0  0  0  0  0  0  0
  5  6  2  0  0  0  0
  5  7  1  0  0  0  0
  2  3  1  0  0  0  0
  2  4  1  0  0  0  0
  2  5  1  0  0  0  0
  1  2  1  0  0  0  0
 19 20  2  0  0  0  0
 19 21  1  0  0  0  0
 16 17  1  0  0  0  0
 16 18  1  0  0  0  0
 14 15  2  0  0  0  0
 14 16  1  0  0  0  0
 11 12  1  0  0  0  0
 11 13  1  0  0  0  0
 11 14  1  0  0  0  0
  9 10  1  0  0  0  0
  9 11  1  0  0  0  0
  9 19  1  0  0  0  0
  7  8  1  0  0  0  0
  7  9  1  0  0  0  0
 23 24  1  0  0  0  0
 23 25  1  0  0  0  0
 23 26  1  0  0  0  0
 21 22  1  0  0  0  0
 21 23  1  0  0  0  0
M  END
$$$$
default_name
  -OEChem-02102213163D

 26 25  0     1  0  0  0  0  0999 V2000
   -3.0232   -3.6924    1.0038 H   0  0  0  0  0  0  0  0  0  0  0  0
   -3.0082   -2.6684    0.6318 C   0  0  0  0  0  0  0  0  0  0  0  0
   -3.6332   -2.0414    1.2658 H   0  0  0  0  0  0  0  0  0  0  0  0
   -3.3762   -2.6444   -0.3912 H   0  0  0  0  0  0  0  0  0  0  0  0
   -1.5882   -2.1554    0.6658 C   0  0  0  0  0  0  0  0  0  0  0  0
   -0.6832   -2.8764    1.0638 O   0  0  0  0  0  0  0  0  0  0  0  0
   -1.3952   -0.9084    0.2428 N   0  0  0  0  0  0  0  0  0  0  0  0
   -2.1972   -0.3644   -0.0422 H   0  0  0  0  0  0  0  0  0  0  0  0
   -0.1122   -0.1994    0.2658 C   0  0  1  0  0  0  0  0  0  0  0  0
    0.6131   -0.7748   -0.3153 H   0  0  0  0  0  0  0  0  0  0  0  0
   -0.2973    1.1841   -0.3966 C   0  0  0  0  0  0  0  0  0  0  0  0
   -1.3235    1.5177   -0.2466 H   0  0  0  0  0  0  0  0  0  0  0  0
    0.3691    1.9021    0.0791 H   0  0  0  0  0  0  0  0  0  0  0  0
   -0.0467    1.1902   -1.8960 C   0  0  0  0  0  0  0  0  0  0  0  0
   -0.6117    1.9534   -2.6599 O   0  0  0  0  0  0  0  0  0  0  0  0
    0.8119    0.3239   -2.3762 N   0  0  0  0  0  0  0  0  0  0  0  0
    0.9703    0.3628   -3.3677 H   0  0  0  0  0  0  0  0  0  0  0  0
    1.3038   -0.3017   -1.7665 H   0  0  0  0  0  0  0  0  0  0  0  0
    0.4075   -0.0985    1.7169 C   0  0  0  0  0  0  0  0  0  0  0  0
    1.5860   -0.3526    1.9662 O   0  0  0  0  0  0  0  0  0  0  0  0
   -0.4625    0.2583    2.6666 N   0  0  0  0  0  0  0  0  0  0  0  0
   -1.4309    0.3754    2.3860 H   0  0  0  0  0  0  0  0  0  0  0  0
   -0.1275    0.4111    4.0813 C   0  0  0  0  0  0  0  0  0  0  0  0
    0.6862    1.1312    4.1910 H   0  0  0  0  0  0  0  0  0  0  0  0
   -0.9980    0.7641    4.6360 H   0  0  0  0  0  0  0  0  0  0  0  0
    0.1959   -0.5481    4.4891 H   0  0  0  0  0  0  0  0  0  0  0  0
  5  6  2  0  0  0  0
  5  7  1  0  0  0  0
  2  3  1  0  0  0  0
  2  4  1  0  0  0  0
  2  5  1  0  0  0  0
  1  2  1  0  0  0  0
 19 20  2  0  0  0  0
 19 21  1  0  0  0  0
 16 17  1  0  0  0  0
 16 18  1  0  0  0  0
 14 15  2  0  0  0  0
 14 16  1  0  0  0  0
 11 12  1  0  0  0  0
 11 13  1  0  0  0  0
 11 14  1  0  0  0  0
  9 10  1  0  0  0  0
  9 11  1  0  0  0  0
  9 19  1  0  0  0  0
  7  8  1  0  0  0  0
  7  9  1  0  0  0  0
 23 24  1  0  0  0  0
 23 25  1  0  0  0  0
 23 26  1  0  0  0  0
 21 22  1  0  0  0  0
 21 23  1  0  0  0  0
M  END
$$$$
default_name
  -OEChem-02102213163D

 26 25  0     1  0  0  0  0  0999 V2000
   -3.0232   -3.6924    1.0038 H   0  0  0  0  0  0  0  0  0  0  0  0
   -3.0082   -2.6684    0.6318 C   0  0  0  0  0  0  0  0  0  0  0  0
   -3.6332   -2.0414    1.2658 H   0  0  0  0  0  0  0  0  0  0  0  0
   -3.3762   -2.6444   -0.3912 H   0  0  0  0  0  0  0  0  0  0  0  0
   -1.5882   -2.1554    0.6658 C   0  0  0  0  0  0  0  0  0  0  0  0
   -0.6832   -2.8764    1.0638 O   0  0  0  0  0  0  0  0  0  0  0  0
   -1.3952   -0.9084    0.2428 N   0  0  0  0  0  0  0  0  0  0  0  0
   -2.1972   -0.3644   -0.0422 H   0  0  0  0  0  0  0  0  0  0  0  0
   -0.1122   -0.1994    0.2658 C   0  0  1  0  0  0  0  0  0  0  0  0
    0.6131   -0.7748   -0.3153 H   0  0  0  0  0  0  0  0  0  0  0  0
   -0.2973    1.1841   -0.3966 C   0  0  0  0  0  0  0  0  0  0  0  0
   -1.3235    1.5177   -0.2466 H   0  0  0  0  0  0  0  0  0  0  0  0
    0.3691    1.9021    0.0791 H   0  0  0  0  0  0  0  0  0  0  0  0
   -0.0467    1.1902   -1.8960 C   0  0  0  0  0  0  0  0  0  0  0  0
   -0.3947    2.1043   -2.6230 O   0  0  0  0  0  0  0  0  0  0  0  0
    0.5644    0.1548   -2.4183 N   0  0  0  0  0  0  0  0  0  0  0  0
    0.7320    0.1944   -3.4082 H   0  0  0  0  0  0  0  0  0  0  0  0
    0.8776   -0.6012   -1.8390 H   0  0  0  0  0  0  0  0  0  0  0  0
    0.4075   -0.0985    1.7169 C   0  0  0  0  0  0  0  0  0  0  0  0
    1.5860   -0.3526    1.9662 O   0  0  0  0  0  0  0  0  0  0  0  0
   -0.4625    0.2583    2.6666 N   0  0  0  0  0  0  0  0  0  0  0  0
   -1.4309    0.3754    2.3860 H   0  0  0  0  0  0  0  0  0  0  0  0
   -0.1275    0.4111    4.0813 C   0  0  0  0  0  0  0  0  0  0  0  0
    0.6862    1.1312    4.1910 H   0  0  0  0  0  0  0  0  0  0  0  0
   -0.9980    0.7641    4.6360 H   0  0  0  0  0  0  0  0  0  0  0  0
    0.1959   -0.5481    4.4891 H   0  0  0  0  0  0  0  0  0  0  0  0
  5  6  2  0  0  0  0
  5  7  1  0  0  0  0
  2  3  1  0  0  0  0
  2  4  1  0  0  0  0
  2  5  1  0  0  0  0
  1  2  1  0  0  0  0
 19 20  2  0  0  0  0
 19 21  1  0  0  0  0
 16 17  1  0  0  0  0
 16 18  1  0  0  0  0
 14 15  2  0  0  0  0
 14 16  1  0  0  0  0
 11 12  1  0  0  0  0
 11 13  1  0  0  0  0
 11 14  1  0  0  0  0
  9 10  1  0  0  0  0
  9 11  1  0  0  0  0
  9 19  1  0  0  0  0
  7  8  1  0  0  0  0
  7  9  1  0  0  0  0
 23 24  1  0  0  0  0
 23 25  1  0  0  0  0
 23 26  1  0  0  0  0
 21 22  1  0  0  0  0
 21 23  1  0  0  0  0
M  END
$$$$
default_name
  -OEChem-02102213163D

 26 25  0     1  0  0  0  0  0999 V2000
   -3.0232   -3.6924    1.0038 H   0  0  0  0  0  0  0  0  0  0  0  0
   -3.0082   -2.6684    0.6318 C   0  0  0  0  0  0  0  0  0  0  0  0
   -3.6332   -2.0414    1.2658 H   0  0  0  0  0  0  0  0  0  0  0  0
   -3.3762   -2.6444   -0.3912 H   0  0  0  0  0  0  0  0  0  0  0  0
   -1.5882   -2.1554    0.6658 C   0  0  0  0  0  0  0  0  0  0  0  0
   -0.6832   -2.8764    1.0638 O   0  0  0  0  0  0  0  0  0  0  0  0
   -1.3952   -0.9084    0.2428 N   0  0  0  0  0  0  0  0  0  0  0  0
   -2.1972   -0.3644   -0.0422 H   0  0  0  0  0  0  0  0  0  0  0  0
   -0.1122   -0.1994    0.2658 C   0  0  1  0  0  0  0  0  0  0  0  0
    0.6131   -0.7748   -0.3153 H   0  0  0  0  0  0  0  0  0  0  0  0
   -0.2973    1.1841   -0.3966 C   0  0  0  0  0  0  0  0  0  0  0  0
   -1.2182    1.6358   -0.0294 H   0  0  0  0  0  0  0  0  0  0  0  0
    0.5348    1.8294   -0.1191 H   0  0  0  0  0  0  0  0  0  0  0  0
   -0.4046    1.1345   -1.9122 C   0  0  0  0  0  0  0  0  0  0  0  0
   -0.5534    2.1298   -2.5996 O   0  0  0  0  0  0  0  0  0  0  0  0
   -0.3415   -0.0395   -2.4918 N   0  0  0  0  0  0  0  0  0  0  0  0
   -0.3976   -0.0398   -3.4951 H   0  0  0  0  0  0  0  0  0  0  0  0
   -0.2004   -0.8713   -1.9503 H   0  0  0  0  0  0  0  0  0  0  0  0
    0.4075   -0.0985    1.7169 C   0  0  0  0  0  0  0  0  0  0  0  0
    1.5860   -0.3526    1.9662 O   0  0  0  0  0  0  0  0  0  0  0  0
   -0.4625    0.2583    2.6666 N   0  0  0  0  0  0  0  0  0  0  0  0
   -1.4309    0.3754    2.3860 H   0  0  0  0  0  0  0  0  0  0  0  0
   -0.1275    0.4111    4.0813 C   0  0  0  0  0  0  0  0  0  0  0  0
    0.6862    1.1312    4.1910 H   0  0  0  0  0  0  0  0  0  0  0  0
   -0.9980    0.7641    4.6360 H   0  0  0  0  0  0  0  0  0  0  0  0
    0.1959   -0.5481    4.4891 H   0  0  0  0  0  0  0  0  0  0  0  0
  5  6  2  0  0  0  0
  5  7  1  0  0  0  0
  2  3  1  0  0  0  0
  2  4  1  0  0  0  0
  2  5  1  0  0  0  0
  1  2  1  0  0  0  0
 19 20  2  0  0  0  0
 19 21  1  0  0  0  0
 16 17  1  0  0  0  0
 16 18  1  0  0  0  0
 14 15  2  0  0  0  0
 14 16  1  0  0  0  0
 11 12  1  0  0  0  0
 11 13  1  0  0  0  0
 11 14  1  0  0  0  0
  9 10  1  0  0  0  0
  9 11  1  0  0  0  0
  9 19  1  0  0  0  0
  7  8  1  0  0  0  0
  7  9  1  0  0  0  0
 23 24  1  0  0  0  0
 23 25  1  0  0  0  0
 23 26  1  0  0  0  0
 21 22  1  0  0  0  0
 21 23  1  0  0  0  0
M  END
$$$$
default_name
  -OEChem-02102213163D

 26 25  0     1  0  0  0  0  0999 V2000
   -3.0232   -3.6924    1.0038 H   0  0  0  0  0  0  0  0  0  0  0  0
   -3.0082   -2.6684    0.6318 C   0  0  0  0  0  0  0  0  0  0  0  0
   -3.6332   -2.0414    1.2658 H   0  0  0  0  0  0  0  0  0  0  0  0
   -3.3762   -2.6444   -0.3912 H   0  0  0  0  0  0  0  0  0  0  0  0
   -1.5882   -2.1554    0.6658 C   0  0  0  0  0  0  0  0  0  0  0  0
   -0.6832   -2.8764    1.0638 O   0  0  0  0  0  0  0  0  0  0  0  0
   -1.3952   -0.9084    0.2428 N   0  0  0  0  0  0  0  0  0  0  0  0
   -2.1972   -0.3644   -0.0422 H   0  0  0  0  0  0  0  0  0  0  0  0
   -0.1122   -0.1994    0.2658 C   0  0  1  0  0  0  0  0  0  0  0  0
    0.6131   -0.7748   -0.3153 H   0  0  0  0  0  0  0  0  0  0  0  0
   -0.2973    1.1841   -0.3966 C   0  0  0  0  0  0  0  0  0  0  0  0
   -1.2182    1.6358   -0.0294 H   0  0  0  0  0  0  0  0  0  0  0  0
    0.5348    1.8294   -0.1191 H   0  0  0  0  0  0  0  0  0  0  0  0
   -0.4046    1.1345   -1.9122 C   0  0  0  0  0  0  0  0  0  0  0  0
   -0.2873    2.1210   -2.6182 O   0  0  0  0  0  0  0  0  0  0  0  0
   -0.6432   -0.0271   -2.4709 N   0  0  0  0  0  0  0  0  0  0  0  0
   -0.6914   -0.0323   -3.4745 H   0  0  0  0  0  0  0  0  0  0  0  0
   -0.7248   -0.8564   -1.9137 H   0  0  0  0  0  0  0  0  0  0  0  0
    0.4075   -0.0985    1.7169 C   0  0  0  0  0  0  0  0  0  0  0  0
    1.5860   -0.3526    1.9662 O   0  0  0  0  0  0  0  0  0  0  0  0
   -0.4625    0.2583    2.6666 N   0  0  0  0  0  0  0  0  0  0  0  0
   -1.4309    0.3754    2.3860 H   0  0  0  0  0  0  0  0  0  0  0  0
   -0.1275    0.4111    4.0813 C   0  0  0  0  0  0  0  0  0  0  0  0
    0.6862    1.1312    4.1910 H   0  0  0  0  0  0  0  0  0  0  0  0
   -0.9980    0.7641    4.6360 H   0  0  0  0  0  0  0  0  0  0  0  0
    0.1959   -0.5481    4.4891 H   0  0  0  0  0  0  0  0  0  0  0  0
  5  6  2  0  0  0  0
  5  7  1  0  0  0  0
  2  3  1  0  0  0  0
  2  4  1  0  0  0  0
  2  5  1  0  0  0  0
  1  2  1  0  0  0  0
 19 20  2  0  0  0  0
 19 21  1  0  0  0  0
 16 17  1  0  0  0  0
 16 18  1  0  0  0  0
 14 15  2  0  0  0  0
 14 16  1  0  0  0  0
 11 12  1  0  0  0  0
 11 13  1  0  0  0  0
 11 14  1  0  0  0  0
  9 10  1  0  0  0  0
  9 11  1  0  0  0  0
  9 19  1  0  0  0  0
  7  8  1  0  0  0  0
  7  9  1  0  0  0  0
 23 24  1  0  0  0  0
 23 25  1  0  0  0  0
 23 26  1  0  0  0  0
 21 22  1  0  0  0  0
 21 23  1  0  0  0  0
M  END
$$$$
default_name
  -OEChem-02102213163D

 26 25  0     1  0  0  0  0  0999 V2000
   -3.0232   -3.6924    1.0038 H   0  0  0  0  0  0  0  0  0  0  0  0
   -3.0082   -2.6684    0.6318 C   0  0  0  0  0  0  0  0  0  0  0  0
   -3.6332   -2.0414    1.2658 H   0  0  0  0  0  0  0  0  0  0  0  0
   -3.3762   -2.6444   -0.3912 H   0  0  0  0  0  0  0  0  0  0  0  0
   -1.5882   -2.1554    0.6658 C   0  0  0  0  0  0  0  0  0  0  0  0
   -0.6832   -2.8764    1.0638 O   0  0  0  0  0  0  0  0  0  0  0  0
   -1.3952   -0.9084    0.2428 N   0  0  0  0  0  0  0  0  0  0  0  0
   -2.1972   -0.3644   -0.0422 H   0  0  0  0  0  0  0  0  0  0  0  0
   -0.1122   -0.1994    0.2658 C   0  0  1  0  0  0  0  0  0  0  0  0
    0.6131   -0.7748   -0.3153 H   0  0  0  0  0  0  0  0  0  0  0  0
   -0.2973    1.1841   -0.3966 C   0  0  0  0  0  0  0  0  0  0  0  0
   -1.2182    1.6358   -0.0294 H   0  0  0  0  0  0  0  0  0  0  0  0
    0.5348    1.8294   -0.1191 H   0  0  0  0  0  0  0  0  0  0  0  0
   -0.4046    1.1345   -1.9122 C   0  0  0  0  0  0  0  0  0  0  0  0
   -0.0324    2.0435   -2.6337 O   0  0  0  0  0  0  0  0  0  0  0  0
   -0.9315    0.0632   -2.4534 N   0  0  0  0  0  0  0  0  0  0  0  0
   -0.9734    0.0511   -3.4573 H   0  0  0  0  0  0  0  0  0  0  0  0
   -1.2278   -0.7061   -1.8830 H   0  0  0  0  0  0  0  0  0  0  0  0
    0.4075   -0.0985    1.7169 C   0  0  0  0  0  0  0  0  0  0  0  0
    1.5860   -0.3526    1.9662 O   0  0  0  0  0  0  0  0  0  0  0  0
   -0.4625    0.2583    2.6666 N   0  0  0  0  0  0  0  0  0  0  0  0
   -1.4309    0.3754    2.3860 H   0  0  0  0  0  0  0  0  0  0  0  0
   -0.1275    0.4111    4.0813 C   0  0  0  0  0  0  0  0  0  0  0  0
    0.6862    1.1312    4.1910 H   0  0  0  0  0  0  0  0  0  0  0  0
   -0.9980    0.7641    4.6360 H   0  0  0  0  0  0  0  0  0  0  0  0
    0.1959   -0.5481    4.4891 H   0  0  0  0  0  0  0  0  0  0  0  0
  5  6  2  0  0  0  0
  5  7  1  0  0  0  0
  2  3  1  0  0  0  0
  2  4  1  0  0  0  0
  2  5  1  0  0  0  0
  1  2  1  0  0  0  0
 19 20  2  0  0  0  0
 19 21  1  0  0  0  0
 16 17  1  0  0  0  0
 16 18  1  0  0  0  0
 14 15  2  0  0  0  0
 14 16  1  0  0  0  0
 11 12  1  0  0  0  0
 11 13  1  0  0  0  0
 11 14  1  0  0  0  0
  9 10  1  0  0  0  0
  9 11  1  0  0  0  0
  9 19  1  0  0  0  0
  7  8  1  0  0  0  0
  7  9  1  0  0  0  0
 23 24  1  0  0  0  0
 23 25  1  0  0  0  0
 23 26  1  0  0  0  0
 21 22  1  0  0  0  0
 21 23  1  0  0  0  0
M  END
$$$$
default_name
  -OEChem-02102213163D

 26 25  0     1  0  0  0  0  0999 V2000
   -3.0232   -3.6924    1.0038 H   0  0  0  0  0  0  0  0  0  0  0  0
   -3.0082   -2.6684    0.6318 C   0  0  0  0  0  0  0  0  0  0  0  0
   -3.6332   -2.0414    1.2658 H   0  0  0  0  0  0  0  0  0  0  0  0
   -3.3762   -2.6444   -0.3912 H   0  0  0  0  0  0  0  0  0  0  0  0
   -1.5882   -2.1554    0.6658 C   0  0  0  0  0  0  0  0  0  0  0  0
   -0.6832   -2.8764    1.0638 O   0  0  0  0  0  0  0  0  0  0  0  0
   -1.3952   -0.9084    0.2428 N   0  0  0  0  0  0  0  0  0  0  0  0
   -2.1972   -0.3644   -0.0422 H   0  0  0  0  0  0  0  0  0  0  0  0
   -0.1122   -0.1994    0.2658 C   0  0  1  0  0  0  0  0  0  0  0  0
    0.6131   -0.7748   -0.3153 H   0  0  0  0  0  0  0  0  0  0  0  0
   -0.2973    1.1841   -0.3966 C   0  0  0  0  0  0  0  0  0  0  0  0
   -1.2182    1.6358   -0.0294 H   0  0  0  0  0  0  0  0  0  0  0  0
    0.5348    1.8294   -0.1191 H   0  0  0  0  0  0  0  0  0  0  0  0
   -0.4046    1.1345   -1.9122 C   0  0  0  0  0  0  0  0  0  0  0  0
    0.1939    1.9025   -2.6451 O   0  0  0  0  0  0  0  0  0  0  0  0
   -1.1869    0.2251   -2.4407 N   0  0  0  0  0  0  0  0  0  0  0  0
   -1.2245    0.2048   -3.4446 H   0  0  0  0  0  0  0  0  0  0  0  0
   -1.6752   -0.4305   -1.8603 H   0  0  0  0  0  0  0  0  0  0  0  0
    0.4075   -0.0985    1.7169 C   0  0  0  0  0  0  0  0  0  0  0  0
    1.5860   -0.3526    1.9662 O   0  0  0  0  0  0  0  0  0  0  0  0
   -0.4625    0.2583    2.6666 N   0  0  0  0  0  0  0  0  0  0  0  0
   -1.4309    0.3754    2.3860 H   0  0  0  0  0  0  0  0  0  0  0  0
   -0.1275    0.4111    4.0813 C   0  0  0  0  0  0  0  0  0  0  0  0
    0.6862    1.1312    4.1910 H   0  0  0  0  0  0  0  0  0  0  0  0
   -0.9980    0.7641    4.6360 H   0  0  0  0  0  0  0  0  0  0  0  0
    0.1959   -0.5481    4.4891 H   0  0  0  0  0  0  0  0  0  0  0  0
  5  6  2  0  0  0  0
  5  7  1  0  0  0  0
  2  3  1  0  0  0  0
  2  4  1  0  0  0  0
  2  5  1  0  0  0  0
  1  2  1  0  0  0  0
 19 20  2  0  0  0  0
 19 21  1  0  0  0  0
 16 17  1  0  0  0  0
 16 18  1  0  0  0  0
 14 15  2  0  0  0  0
 14 16  1  0  0  0  0
 11 12  1  0  0  0  0
 11 13  1  0  0  0  0
 11 14  1  0  0  0  0
  9 10  1  0  0  0  0
  9 11  1  0  0  0  0
  9 19  1  0  0  0  0
  7  8  1  0  0  0  0
  7  9  1  0  0  0  0
 23 24  1  0  0  0  0
 23 25  1  0  0  0  0
 23 26  1  0  0  0  0
 21 22  1  0  0  0  0
 21 23  1  0  0  0  0
M  END
$$$$
default_name
  -OEChem-02102213163D

 26 25  0     1  0  0  0  0  0999 V2000
   -3.0232   -3.6924    1.0038 H   0  0  0  0  0  0  0  0  0  0  0  0
   -3.0082   -2.6684    0.6318 C   0  0  0  0  0  0  0  0  0  0  0  0
   -3.6332   -2.0414    1.2658 H   0  0  0  0  0  0  0  0  0  0  0  0
   -3.3762   -2.6444   -0.3912 H   0  0  0  0  0  0  0  0  0  0  0  0
   -1.5882   -2.1554    0.6658 C   0  0  0  0  0  0  0  0  0  0  0  0
   -0.6832   -2.8764    1.0638 O   0  0  0  0  0  0  0  0  0  0  0  0
   -1.3952   -0.9084    0.2428 N   0  0  0  0  0  0  0  0  0  0  0  0
   -2.1972   -0.3644   -0.0422 H   0  0  0  0  0  0  0  0  0  0  0  0
   -0.1122   -0.1994    0.2658 C   0  0  1  0  0  0  0  0  0  0  0  0
    0.6131   -0.7748   -0.3153 H   0  0  0  0  0  0  0  0  0  0  0  0
   -0.2973    1.1841   -0.3966 C   0  0  0  0  0  0  0  0  0  0  0  0
   -1.2182    1.6358   -0.0294 H   0  0  0  0  0  0  0  0  0  0  0  0
    0.5348    1.8294   -0.1191 H   0  0  0  0  0  0  0  0  0  0  0  0
   -0.4046    1.1345   -1.9122 C   0  0  0  0  0  0  0  0  0  0  0  0
    0.3763    1.7078   -2.6516 O   0  0  0  0  0  0  0  0  0  0  0  0
   -1.3919    0.4476   -2.4334 N   0  0  0  0  0  0  0  0  0  0  0  0
   -1.4274    0.4182   -3.4372 H   0  0  0  0  0  0  0  0  0  0  0  0
   -2.0364   -0.0485   -1.8473 H   0  0  0  0  0  0  0  0  0  0  0  0
    0.4075   -0.0985    1.7169 C   0  0  0  0  0  0  0  0  0  0  0  0
    1.5860   -0.3526    1.9662 O   0  0  0  0  0  0  0  0  0  0  0  0
   -0.4625    0.2583    2.6666 N   0  0  0  0  0  0  0  0  0  0  0  0
   -1.4309    0.3754    2.3860 H   0  0  0  0  0  0  0  0  0  0  0  0
   -0.1275    0.4111    4.0813 C   0  0  0  0  0  0  0  0  0  0  0  0
    0.6862    1.1312    4.1910 H   0  0  0  0  0  0  0  0  0  0  0  0
   -0.9980    0.7641    4.6360 H   0  0  0  0  0  0  0  0  0  0  0  0
    0.1959   -0.5481    4.4891 H   0  0  0  0  0  0  0  0  0  0  0  0
  5  6  2  0  0  0  0
  5  7  1  0  0  0  0
  2  3  1  0  0  0  0
  2  4  1  0  0  0  0
  2  5  1  0  0  0  0
  1  2  1  0  0  0  0
 19 20  2  0  0  0  0
 19 21  1  0  0  0  0
 16 17  1  0  0  0  0
 16 18  1  0  0  0  0
 14 15  2  0  0  0  0
 14 16  1  0  0  0  0
 11 12  1  0  0  0  0
 11 13  1  0  0  0  0
 11 14  1  0  0  0  0
  9 10  1  0  0  0  0
  9 11  1  0  0  0  0
  9 19  1  0  0  0  0
  7  8  1  0  0  0  0
  7  9  1  0  0  0  0
 23 24  1  0  0  0  0
 23 25  1  0  0  0  0
 23 26  1  0  0  0  0
 21 22  1  0  0  0  0
 21 23  1  0  0  0  0
M  END
$$$$
default_name
  -OEChem-02102213163D

 26 25  0     1  0  0  0  0  0999 V2000
   -3.0232   -3.6924    1.0038 H   0  0  0  0  0  0  0  0  0  0  0  0
   -3.0082   -2.6684    0.6318 C   0  0  0  0  0  0  0  0  0  0  0  0
   -3.6332   -2.0414    1.2658 H   0  0  0  0  0  0  0  0  0  0  0  0
   -3.3762   -2.6444   -0.3912 H   0  0  0  0  0  0  0  0  0  0  0  0
   -1.5882   -2.1554    0.6658 C   0  0  0  0  0  0  0  0  0  0  0  0
   -0.6832   -2.8764    1.0638 O   0  0  0  0  0  0  0  0  0  0  0  0
   -1.3952   -0.9084    0.2428 N   0  0  0  0  0  0  0  0  0  0  0  0
   -2.1972   -0.3644   -0.0422 H   0  0  0  0  0  0  0  0  0  0  0  0
   -0.1122   -0.1994    0.2658 C   0  0  1  0  0  0  0  0  0  0  0  0
    0.6131   -0.7748   -0.3153 H   0  0  0  0  0  0  0  0  0  0  0  0
   -0.2973    1.1841   -0.3966 C   0  0  0  0  0  0  0  0  0  0  0  0
   -1.2182    1.6358   -0.0294 H   0  0  0  0  0  0  0  0  0  0  0  0
    0.5348    1.8294   -0.1191 H   0  0  0  0  0  0  0  0  0  0  0  0
   -0.4046    1.1345   -1.9122 C   0  0  0  0  0  0  0  0  0  0  0  0
    0.5023    1.4725   -2.6528 O   0  0  0  0  0  0  0  0  0  0  0  0
   -1.5326    0.7156   -2.4322 N   0  0  0  0  0  0  0  0  0  0  0  0
   -1.5684    0.6769   -3.4357 H   0  0  0  0  0  0  0  0  0  0  0  0
   -2.2868    0.4139   -1.8447 H   0  0  0  0  0  0  0  0  0  0  0  0
    0.4075   -0.0985    1.7169 C   0  0  0  0  0  0  0  0  0  0  0  0
    1.5860   -0.3526    1.9662 O   0  0  0  0  0  0  0  0  0  0  0  0
   -0.4625    0.2583    2.6666 N   0  0  0  0  0  0  0  0  0  0  0  0
   -1.4309    0.3754    2.3860 H   0  0  0  0  0  0  0  0  0  0  0  0
   -0.1275    0.4111    4.0813 C   0  0  0  0  0  0  0  0  0  0  0  0
    0.6862    1.1312    4.1910 H   0  0  0  0  0  0  0  0  0  0  0  0
   -0.9980    0.7641    4.6360 H   0  0  0  0  0  0  0  0  0  0  0  0
    0.1959   -0.5481    4.4891 H   0  0  0  0  0  0  0  0  0  0  0  0
  5  6  2  0  0  0  0
  5  7  1  0  0  0  0
  2  3  1  0  0  0  0
  2  4  1  0  0  0  0
  2  5  1  0  0  0  0
  1  2  1  0  0  0  0
 19 20  2  0  0  0  0
 19 21  1  0  0  0  0
 16 17  1  0  0  0  0
 16 18  1  0  0  0  0
 14 15  2  0  0  0  0
 14 16  1  0  0  0  0
 11 12  1  0  0  0  0
 11 13  1  0  0  0  0
 11 14  1  0  0  0  0
  9 10  1  0  0  0  0
  9 11  1  0  0  0  0
  9 19  1  0  0  0  0
  7  8  1  0  0  0  0
  7  9  1  0  0  0  0
 23 24  1  0  0  0  0
 23 25  1  0  0  0  0
 23 26  1  0  0  0  0
 21 22  1  0  0  0  0
 21 23  1  0  0  0  0
M  END
$$$$
default_name
  -OEChem-02102213163D

 26 25  0     1  0  0  0  0  0999 V2000
   -3.0232   -3.6924    1.0038 H   0  0  0  0  0  0  0  0  0  0  0  0
   -3.0082   -2.6684    0.6318 C   0  0  0  0  0  0  0  0  0  0  0  0
   -3.6332   -2.0414    1.2658 H   0  0  0  0  0  0  0  0  0  0  0  0
   -3.3762   -2.6444   -0.3912 H   0  0  0  0  0  0  0  0  0  0  0  0
   -1.5882   -2.1554    0.6658 C   0  0  0  0  0  0  0  0  0  0  0  0
   -0.6832   -2.8764    1.0638 O   0  0  0  0  0  0  0  0  0  0  0  0
   -1.3952   -0.9084    0.2428 N   0  0  0  0  0  0  0  0  0  0  0  0
   -2.1972   -0.3644   -0.0422 H   0  0  0  0  0  0  0  0  0  0  0  0
   -0.1122   -0.1994    0.2658 C   0  0  1  0  0  0  0  0  0  0  0  0
    0.6131   -0.7748   -0.3153 H   0  0  0  0  0  0  0  0  0  0  0  0
   -0.2973    1.1841   -0.3966 C   0  0  0  0  0  0  0  0  0  0  0  0
   -1.2182    1.6358   -0.0294 H   0  0  0  0  0  0  0  0  0  0  0  0
    0.5348    1.8294   -0.1191 H   0  0  0  0  0  0  0  0  0  0  0  0
   -0.4046    1.1345   -1.9122 C   0  0  0  0  0  0  0  0  0  0  0  0
    0.5632    1.2127   -2.6487 O   0  0  0  0  0  0  0  0  0  0  0  0
   -1.5994    1.0107   -2.4372 N   0  0  0  0  0  0  0  0  0  0  0  0
   -1.6378    0.9632   -3.4401 H   0  0  0  0  0  0  0  0  0  0  0  0
   -2.4094    0.9253   -1.8527 H   0  0  0  0  0  0  0  0  0  0  0  0
    0.4075   -0.0985    1.7169 C   0  0  0  0  0  0  0  0  0  0  0  0
    1.5860   -0.3526    1.9662 O   0  0  0  0  0  0  0  0  0  0  0  0
   -0.4625    0.2583    2.6666 N   0  0  0  0  0  0  0  0  0  0  0  0
   -1.4309    0.3754    2.3860 H   0  0  0  0  0  0  0  0  0  0  0  0
   -0.1275    0.4111    4.0813 C   0  0  0  0  0  0  0  0  0  0  0  0
    0.6862    1.1312    4.1910 H   0  0  0  0  0  0  0  0  0  0  0  0
   -0.9980    0.7641    4.6360 H   0  0  0  0  0  0  0  0  0  0  0  0
    0.1959   -0.5481    4.4891 H   0  0  0  0  0  0  0  0  0  0  0  0
  5  6  2  0  0  0  0
  5  7  1  0  0  0  0
  2  3  1  0  0  0  0
  2  4  1  0  0  0  0
  2  5  1  0  0  0  0
  1  2  1  0  0  0  0
 19 20  2  0  0  0  0
 19 21  1  0  0  0  0
 16 17  1  0  0  0  0
 16 18  1  0  0  0  0
 14 15  2  0  0  0  0
 14 16  1  0  0  0  0
 11 12  1  0  0  0  0
 11 13  1  0  0  0  0
 11 14  1  0  0  0  0
  9 10  1  0  0  0  0
  9 11  1  0  0  0  0
  9 19  1  0  0  0  0
  7  8  1  0  0  0  0
  7  9  1  0  0  0  0
 23 24  1  0  0  0  0
 23 25  1  0  0  0  0
 23 26  1  0  0  0  0
 21 22  1  0  0  0  0
 21 23  1  0  0  0  0
M  END
$$$$
default_name
  -OEChem-02102213163D

 26 25  0     1  0  0  0  0  0999 V2000
   -3.0232   -3.6924    1.0038 H   0  0  0  0  0  0  0  0  0  0  0  0
   -3.0082   -2.6684    0.6318 C   0  0  0  0  0  0  0  0  0  0  0  0
   -3.6332   -2.0414    1.2658 H   0  0  0  0  0  0  0  0  0  0  0  0
   -3.3762   -2.6444   -0.3912 H   0  0  0  0  0  0  0  0  0  0  0  0
   -1.5882   -2.1554    0.6658 C   0  0  0  0  0  0  0  0  0  0  0  0
   -0.6832   -2.8764    1.0638 O   0  0  0  0  0  0  0  0  0  0  0  0
   -1.3952   -0.9084    0.2428 N   0  0  0  0  0  0  0  0  0  0  0  0
   -2.1972   -0.3644   -0.0422 H   0  0  0  0  0  0  0  0  0  0  0  0
   -0.1122   -0.1994    0.2658 C   0  0  1  0  0  0  0  0  0  0  0  0
    0.6131   -0.7748   -0.3153 H   0  0  0  0  0  0  0  0  0  0  0  0
   -0.2973    1.1841   -0.3966 C   0  0  0  0  0  0  0  0  0  0  0  0
   -1.2182    1.6358   -0.0294 H   0  0  0  0  0  0  0  0  0  0  0  0
    0.5348    1.8294   -0.1191 H   0  0  0  0  0  0  0  0  0  0  0  0
   -0.4046    1.1345   -1.9122 C   0  0  0  0  0  0  0  0  0  0  0  0
    0.5551    0.9461   -2.6394 O   0  0  0  0  0  0  0  0  0  0  0  0
   -1.5876    1.3130   -2.4479 N   0  0  0  0  0  0  0  0  0  0  0  0
   -1.6310    1.2575   -3.4502 H   0  0  0  0  0  0  0  0  0  0  0  0
   -2.3958    1.4507   -1.8709 H   0  0  0  0  0  0  0  0  0  0  0  0
    0.4075   -0.0985    1.7169 C   0  0  0  0  0  0  0  0  0  0  0  0
    1.5860   -0.3526    1.9662 O   0  0  0  0  0  0  0  0  0  0  0  0
   -0.4625    0.2583    2.6666 N   0  0  0  0  0  0  0  0  0  0  0  0
   -1.4309    0.3754    2.3860 H   0  0  0  0  0  0  0  0  0  0  0  0
   -0.1275    0.4111    4.0813 C   0  0  0  0  0  0  0  0  0  0  0  0
    0.6862    1.1312    4.1910 H   0  0  0  0  0  0  0  0  0  0  0  0
   -0.9980    0.7641    4.6360 H   0  0  0  0  0  0  0  0  0  0  0  0
    0.1959   -0.5481    4.4891 H   0  0  0  0  0  0  0  0  0  0  0  0
  5  6  2  0  0  0  0
  5  7  1  0  0  0  0
  2  3  1  0  0  0  0
  2  4  1  0  0  0  0
  2  5  1  0  0  0  0
  1  2  1  0  0  0  0
 19 20  2  0  0  0  0
 19 21  1  0  0  0  0
 16 17  1  0  0  0  0
 16 18  1  0  0  0  0
 14 15  2  0  0  0  0
 14 16  1  0  0  0  0
 11 12  1  0  0  0  0
 11 13  1  0  0  0  0
 11 14  1  0  0  0  0
  9 10  1  0  0  0  0
  9 11  1  0  0  0  0
  9 19  1  0  0  0  0
  7  8  1  0  0  0  0
  7  9  1  0  0  0  0
 23 24  1  0  0  0  0
 23 25  1  0  0  0  0
 23 26  1  0  0  0  0
 21 22  1  0  0  0  0
 21 23  1  0  0  0  0
M  END
$$$$
default_name
  -OEChem-02102213163D

 26 25  0     1  0  0  0  0  0999 V2000
   -3.0232   -3.6924    1.0038 H   0  0  0  0  0  0  0  0  0  0  0  0
   -3.0082   -2.6684    0.6318 C   0  0  0  0  0  0  0  0  0  0  0  0
   -3.6332   -2.0414    1.2658 H   0  0  0  0  0  0  0  0  0  0  0  0
   -3.3762   -2.6444   -0.3912 H   0  0  0  0  0  0  0  0  0  0  0  0
   -1.5882   -2.1554    0.6658 C   0  0  0  0  0  0  0  0  0  0  0  0
   -0.6832   -2.8764    1.0638 O   0  0  0  0  0  0  0  0  0  0  0  0
   -1.3952   -0.9084    0.2428 N   0  0  0  0  0  0  0  0  0  0  0  0
   -2.1972   -0.3644   -0.0422 H   0  0  0  0  0  0  0  0  0  0  0  0
   -0.1122   -0.1994    0.2658 C   0  0  1  0  0  0  0  0  0  0  0  0
    0.6131   -0.7748   -0.3153 H   0  0  0  0  0  0  0  0  0  0  0  0
   -0.2973    1.1841   -0.3966 C   0  0  0  0  0  0  0  0  0  0  0  0
   -1.2182    1.6358   -0.0294 H   0  0  0  0  0  0  0  0  0  0  0  0
    0.5348    1.8294   -0.1191 H   0  0  0  0  0  0  0  0  0  0  0  0
   -0.4046    1.1345   -1.9122 C   0  0  0  0  0  0  0  0  0  0  0  0
    0.4783    0.6909   -2.6256 O   0  0  0  0  0  0  0  0  0  0  0  0
   -1.4982    1.6017   -2.4636 N   0  0  0  0  0  0  0  0  0  0  0  0
   -1.5484    1.5399   -3.4653 H   0  0  0  0  0  0  0  0  0  0  0  0
   -2.2469    1.9544   -1.8979 H   0  0  0  0  0  0  0  0  0  0  0  0
    0.4075   -0.0985    1.7169 C   0  0  0  0  0  0  0  0  0  0  0  0
    1.5860   -0.3526    1.9662 O   0  0  0  0  0  0  0  0  0  0  0  0
   -0.4625    0.2583    2.6666 N   0  0  0  0  0  0  0  0  0  0  0  0
   -1.4309    0.3754    2.3860 H   0  0  0  0  0  0  0  0  0  0  0  0
   -0.1275    0.4111    4.0813 C   0  0  0  0  0  0  0  0  0  0  0  0
    0.6862    1.1312    4.1910 H   0  0  0  0  0  0  0  0  0  0  0  0
   -0.9980    0.7641    4.6360 H   0  0  0  0  0  0  0  0  0  0  0  0
    0.1959   -0.5481    4.4891 H   0  0  0  0  0  0  0  0  0  0  0  0
  5  6  2  0  0  0  0
  5  7  1  0  0  0  0
  2  3  1  0  0  0  0
  2  4  1  0  0  0  0
  2  5  1  0  0  0  0
  1  2  1  0  0  0  0
 19 20  2  0  0  0  0
 19 21  1  0  0  0  0
 16 17  1  0  0  0  0
 16 18  1  0  0  0  0
 14 15  2  0  0  0  0
 14 16  1  0  0  0  0
 11 12  1  0  0  0  0
 11 13  1  0  0  0  0
 11 14  1  0  0  0  0
  9 10  1  0  0  0  0
  9 11  1  0  0  0  0
  9 19  1  0  0  0  0
  7  8  1  0  0  0  0
  7  9  1  0  0  0  0
 23 24  1  0  0  0  0
 23 25  1  0  0  0  0
 23 26  1  0  0  0  0
 21 22  1  0  0  0  0
 21 23  1  0  0  0  0
M  END
$$$$
default_name
  -OEChem-02102213163D

 26 25  0     1  0  0  0  0  0999 V2000
   -3.0232   -3.6924    1.0038 H   0  0  0  0  0  0  0  0  0  0  0  0
   -3.0082   -2.6684    0.6318 C   0  0  0  0  0  0  0  0  0  0  0  0
   -3.6332   -2.0414    1.2658 H   0  0  0  0  0  0  0  0  0  0  0  0
   -3.3762   -2.6444   -0.3912 H   0  0  0  0  0  0  0  0  0  0  0  0
   -1.5882   -2.1554    0.6658 C   0  0  0  0  0  0  0  0  0  0  0  0
   -0.6832   -2.8764    1.0638 O   0  0  0  0  0  0  0  0  0  0  0  0
   -1.3952   -0.9084    0.2428 N   0  0  0  0  0  0  0  0  0  0  0  0
   -2.1972   -0.3644   -0.0422 H   0  0  0  0  0  0  0  0  0  0  0  0
   -0.1122   -0.1994    0.2658 C   0  0  1  0  0  0  0  0  0  0  0  0
    0.6131   -0.7748   -0.3153 H   0  0  0  0  0  0  0  0  0  0  0  0
   -0.2973    1.1841   -0.3966 C   0  0  0  0  0  0  0  0  0  0  0  0
   -1.2182    1.6358   -0.0294 H   0  0  0  0  0  0  0  0  0  0  0  0
    0.5348    1.8294   -0.1191 H   0  0  0  0  0  0  0  0  0  0  0  0
   -0.4046    1.1345   -1.9122 C   0  0  0  0  0  0  0  0  0  0  0  0
    0.3382    0.4644   -2.6083 O   0  0  0  0  0  0  0  0  0  0  0  0
   -1.3372    1.8572   -2.4834 N   0  0  0  0  0  0  0  0  0  0  0  0
   -1.3956    1.7911   -3.4843 H   0  0  0  0  0  0  0  0  0  0  0  0
   -1.9729    2.4020   -1.9319 H   0  0  0  0  0  0  0  0  0  0  0  0
    0.4075   -0.0985    1.7169 C   0  0  0  0  0  0  0  0  0  0  0  0
    1.5860   -0.3526    1.9662 O   0  0  0  0  0  0  0  0  0  0  0  0
   -0.4625    0.2583    2.6666 N   0  0  0  0  0  0  0  0  0  0  0  0
   -1.4309    0.3754    2.3860 H   0  0  0  0  0  0  0  0  0  0  0  0
   -0.1275    0.4111    4.0813 C   0  0  0  0  0  0  0  0  0  0  0  0
    0.6862    1.1312    4.1910 H   0  0  0  0  0  0  0  0  0  0  0  0
   -0.9980    0.7641    4.6360 H   0  0  0  0  0  0  0  0  0  0  0  0
    0.1959   -0.5481    4.4891 H   0  0  0  0  0  0  0  0  0  0  0  0
  5  6  2  0  0  0  0
  5  7  1  0  0  0  0
  2  3  1  0  0  0  0
  2  4  1  0  0  0  0
  2  5  1  0  0  0  0
  1  2  1  0  0  0  0
 19 20  2  0  0  0  0
 19 21  1  0  0  0  0
 16 17  1  0  0  0  0
 16 18  1  0  0  0  0
 14 15  2  0  0  0  0
 14 16  1  0  0  0  0
 11 12  1  0  0  0  0
 11 13  1  0  0  0  0
 11 14  1  0  0  0  0
  9 10  1  0  0  0  0
  9 11  1  0  0  0  0
  9 19  1  0  0  0  0
  7  8  1  0  0  0  0
  7  9  1  0  0  0  0
 23 24  1  0  0  0  0
 23 25  1  0  0  0  0
 23 26  1  0  0  0  0
 21 22  1  0  0  0  0
 21 23  1  0  0  0  0
M  END
$$$$
default_name
  -OEChem-02102213163D

 26 25  0     1  0  0  0  0  0999 V2000
   -3.0232   -3.6924    1.0038 H   0  0  0  0  0  0  0  0  0  0  0  0
   -3.0082   -2.6684    0.6318 C   0  0  0  0  0  0  0  0  0  0  0  0
   -3.6332   -2.0414    1.2658 H   0  0  0  0  0  0  0  0  0  0  0  0
   -3.3762   -2.6444   -0.3912 H   0  0  0  0  0  0  0  0  0  0  0  0
   -1.5882   -2.1554    0.6658 C   0  0  0  0  0  0  0  0  0  0  0  0
   -0.6832   -2.8764    1.0638 O   0  0  0  0  0  0  0  0  0  0  0  0
   -1.3952   -0.9084    0.2428 N   0  0  0  0  0  0  0  0  0  0  0  0
   -2.1972   -0.3644   -0.0422 H   0  0  0  0  0  0  0  0  0  0  0  0
   -0.1122   -0.1994    0.2658 C   0  0  1  0  0  0  0  0  0  0  0  0
    0.6131   -0.7748   -0.3153 H   0  0  0  0  0  0  0  0  0  0  0  0
   -0.2973    1.1841   -0.3966 C   0  0  0  0  0  0  0  0  0  0  0  0
   -1.2182    1.6358   -0.0294 H   0  0  0  0  0  0  0  0  0  0  0  0
    0.5348    1.8294   -0.1191 H   0  0  0  0  0  0  0  0  0  0  0  0
   -0.4046    1.1345   -1.9122 C   0  0  0  0  0  0  0  0  0  0  0  0
    0.1442    0.2822   -2.5886 O   0  0  0  0  0  0  0  0  0  0  0  0
   -1.1156    2.0621   -2.5058 N   0  0  0  0  0  0  0  0  0  0  0  0
   -1.1830    1.9939   -3.5060 H   0  0  0  0  0  0  0  0  0  0  0  0
   -1.5925    2.7630   -1.9706 H   0  0  0  0  0  0  0  0  0  0  0  0
    0.4075   -0.0985    1.7169 C   0  0  0  0  0  0  0  0  0  0  0  0
    1.5860   -0.3526    1.9662 O   0  0  0  0  0  0  0  0  0  0  0  0
   -0.4625    0.2583    2.6666 N   0  0  0  0  0  0  0  0  0  0  0  0
   -1.4309    0.3754    2.3860 H   0  0  0  0  0  0  0  0  0  0  0  0
   -0.1275    0.4111    4.0813 C   0  0  0  0  0  0  0  0  0  0  0  0
    0.6862    1.1312    4.1910 H   0  0  0  0  0  0  0  0  0  0  0  0
   -0.9980    0.7641    4.6360 H   0  0  0  0  0  0  0  0  0  0  0  0
    0.1959   -0.5481    4.4891 H   0  0  0  0  0  0  0  0  0  0  0  0
  5  6  2  0  0  0  0
  5  7  1  0  0  0  0
  2  3  1  0  0  0  0
  2  4  1  0  0  0  0
  2  5  1  0  0  0  0
  1  2  1  0  0  0  0
 19 20  2  0  0  0  0
 19 21  1  0  0  0  0
 16 17  1  0  0  0  0
 16 18  1  0  0  0  0
 14 15  2  0  0  0  0
 14 16  1  0  0  0  0
 11 12  1  0  0  0  0
 11 13  1  0  0  0  0
 11 14  1  0  0  0  0
  9 10  1  0  0  0  0
  9 11  1  0  0  0  0
  9 19  1  0  0  0  0
  7  8  1  0  0  0  0
  7  9  1  0  0  0  0
 23 24  1  0  0  0  0
 23 25  1  0  0  0  0
 23 26  1  0  0  0  0
 21 22  1  0  0  0  0
 21 23  1  0  0  0  0
M  END
$$$$
default_name
  -OEChem-02102213163D

 26 25  0     1  0  0  0  0  0999 V2000
   -3.0232   -3.6924    1.0038 H   0  0  0  0  0  0  0  0  0  0  0  0
   -3.0082   -2.6684    0.6318 C   0  0  0  0  0  0  0  0  0  0  0  0
   -3.6332   -2.0414    1.2658 H   0  0  0  0  0  0  0  0  0  0  0  0
   -3.3762   -2.6444   -0.3912 H   0  0  0  0  0  0  0  0  0  0  0  0
   -1.5882   -2.1554    0.6658 C   0  0  0  0  0  0  0  0  0  0  0  0
   -0.6832   -2.8764    1.0638 O   0  0  0  0  0  0  0  0  0  0  0  0
   -1.3952   -0.9084    0.2428 N   0  0  0  0  0  0  0  0  0  0  0  0
   -2.1972   -0.3644   -0.0422 H   0  0  0  0  0  0  0  0  0  0  0  0
   -0.1122   -0.1994    0.2658 C   0  0  1  0  0  0  0  0  0  0  0  0
    0.6131   -0.7748   -0.3153 H   0  0  0  0  0  0  0  0  0  0  0  0
   -0.2973    1.1841   -0.3966 C   0  0  0  0  0  0  0  0  0  0  0  0
   -1.2182    1.6358   -0.0294 H   0  0  0  0  0  0  0  0  0  0  0  0
    0.5348    1.8294   -0.1191 H   0  0  0  0  0  0  0  0  0  0  0  0
   -0.4046    1.1345   -1.9122 C   0  0  0  0  0  0  0  0  0  0  0  0
   -0.0903    0.1565   -2.5679 O   0  0  0  0  0  0  0  0  0  0  0  0
   -0.8485    2.2025   -2.5293 N   0  0  0  0  0  0  0  0  0  0  0  0
   -0.9252    2.1346   -3.5289 H   0  0  0  0  0  0  0  0  0  0  0  0
   -1.1315    3.0129   -2.0114 H   0  0  0  0  0  0  0  0  0  0  0  0
    0.4075   -0.0985    1.7169 C   0  0  0  0  0  0  0  0  0  0  0  0
    1.5860   -0.3526    1.9662 O   0  0  0  0  0  0  0  0  0  0  0  0
   -0.4625    0.2583    2.6666 N   0  0  0  0  0  0  0  0  0  0  0  0
   -1.4309    0.3754    2.3860 H   0  0  0  0  0  0  0  0  0  0  0  0
   -0.1275    0.4111    4.0813 C   0  0  0  0  0  0  0  0  0  0  0  0
    0.6862    1.1312    4.1910 H   0  0  0  0  0  0  0  0  0  0  0  0
   -0.9980    0.7641    4.6360 H   0  0  0  0  0  0  0  0  0  0  0  0
    0.1959   -0.5481    4.4891 H   0  0  0  0  0  0  0  0  0  0  0  0
  5  6  2  0  0  0  0
  5  7  1  0  0  0  0
  2  3  1  0  0  0  0
  2  4  1  0  0  0  0
  2  5  1  0  0  0  0
  1  2  1  0  0  0  0
 19 20  2  0  0  0  0
 19 21  1  0  0  0  0
 16 17  1  0  0  0  0
 16 18  1  0  0  0  0
 14 15  2  0  0  0  0
 14 16  1  0  0  0  0
 11 12  1  0  0  0  0
 11 13  1  0  0  0  0
 11 14  1  0  0  0  0
  9 10  1  0  0  0  0
  9 11  1  0  0  0  0
  9 19  1  0  0  0  0
  7  8  1  0  0  0  0
  7  9  1  0  0  0  0
 23 24  1  0  0  0  0
 23 25  1  0  0  0  0
 23 26  1  0  0  0  0
 21 22  1  0  0  0  0
 21 23  1  0  0  0  0
M  END
$$$$
default_name
  -OEChem-02102213163D

 26 25  0     1  0  0  0  0  0999 V2000
   -3.0232   -3.6924    1.0038 H   0  0  0  0  0  0  0  0  0  0  0  0
   -3.0082   -2.6684    0.6318 C   0  0  0  0  0  0  0  0  0  0  0  0
   -3.6332   -2.0414    1.2658 H   0  0  0  0  0  0  0  0  0  0  0  0
   -3.3762   -2.6444   -0.3912 H   0  0  0  0  0  0  0  0  0  0  0  0
   -1.5882   -2.1554    0.6658 C   0  0  0  0  0  0  0  0  0  0  0  0
   -0.6832   -2.8764    1.0638 O   0  0  0  0  0  0  0  0  0  0  0  0
   -1.3952   -0.9084    0.2428 N   0  0  0  0  0  0  0  0  0  0  0  0
   -2.1972   -0.3644   -0.0422 H   0  0  0  0  0  0  0  0  0  0  0  0
   -0.1122   -0.1994    0.2658 C   0  0  1  0  0  0  0  0  0  0  0  0
    0.6131   -0.7748   -0.3153 H   0  0  0  0  0  0  0  0  0  0  0  0
   -0.2973    1.1841   -0.3966 C   0  0  0  0  0  0  0  0  0  0  0  0
   -1.2182    1.6358   -0.0294 H   0  0  0  0  0  0  0  0  0  0  0  0
    0.5348    1.8294   -0.1191 H   0  0  0  0  0  0  0  0  0  0  0  0
   -0.4046    1.1345   -1.9122 C   0  0  0  0  0  0  0  0  0  0  0  0
   -0.3494    0.0960   -2.5475 O   0  0  0  0  0  0  0  0  0  0  0  0
   -0.5541    2.2687   -2.5523 N   0  0  0  0  0  0  0  0  0  0  0  0
   -0.6397    2.2035   -3.5513 H   0  0  0  0  0  0  0  0  0  0  0  0
   -0.6214    3.1345   -2.0515 H   0  0  0  0  0  0  0  0  0  0  0  0
    0.4075   -0.0985    1.7169 C   0  0  0  0  0  0  0  0  0  0  0  0
    1.5860   -0.3526    1.9662 O   0  0  0  0  0  0  0  0  0  0  0  0
   -0.4625    0.2583    2.6666 N   0  0  0  0  0  0  0  0  0  0  0  0
   -1.4309    0.3754    2.3860 H   0  0  0  0  0  0  0  0  0  0  0  0
   -0.1275    0.4111    4.0813 C   0  0  0  0  0  0  0  0  0  0  0  0
    0.6862    1.1312    4.1910 H   0  0  0  0  0  0  0  0  0  0  0  0
   -0.9980    0.7641    4.6360 H   0  0  0  0  0  0  0  0  0  0  0  0
    0.1959   -0.5481    4.4891 H   0  0  0  0  0  0  0  0  0  0  0  0
  5  6  2  0  0  0  0
  5  7  1  0  0  0  0
  2  3  1  0  0  0  0
  2  4  1  0  0  0  0
  2  5  1  0  0  0  0
  1  2  1  0  0  0  0
 19 20  2  0  0  0  0
 19 21  1  0  0  0  0
 16 17  1  0  0  0  0
 16 18  1  0  0  0  0
 14 15  2  0  0  0  0
 14 16  1  0  0  0  0
 11 12  1  0  0  0  0
 11 13  1  0  0  0  0
 11 14  1  0  0  0  0
  9 10  1  0  0  0  0
  9 11  1  0  0  0  0
  9 19  1  0  0  0  0
  7  8  1  0  0  0  0
  7  9  1  0  0  0  0
 23 24  1  0  0  0  0
 23 25  1  0  0  0  0
 23 26  1  0  0  0  0
 21 22  1  0  0  0  0
 21 23  1  0  0  0  0
M  END
$$$$
default_name
  -OEChem-02102213163D

 26 25  0     1  0  0  0  0  0999 V2000
   -3.0232   -3.6924    1.0038 H   0  0  0  0  0  0  0  0  0  0  0  0
   -3.0082   -2.6684    0.6318 C   0  0  0  0  0  0  0  0  0  0  0  0
   -3.6332   -2.0414    1.2658 H   0  0  0  0  0  0  0  0  0  0  0  0
   -3.3762   -2.6444   -0.3912 H   0  0  0  0  0  0  0  0  0  0  0  0
   -1.5882   -2.1554    0.6658 C   0  0  0  0  0  0  0  0  0  0  0  0
   -0.6832   -2.8764    1.0638 O   0  0  0  0  0  0  0  0  0  0  0  0
   -1.3952   -0.9084    0.2428 N   0  0  0  0  0  0  0  0  0  0  0  0
   -2.1972   -0.3644   -0.0422 H   0  0  0  0  0  0  0  0  0  0  0  0
   -0.1122   -0.1994    0.2658 C   0  0  1  0  0  0  0  0  0  0  0  0
    0.6131   -0.7748   -0.3153 H   0  0  0  0  0  0  0  0  0  0  0  0
   -0.2973    1.1841   -0.3966 C   0  0  0  0  0  0  0  0  0  0  0  0
   -1.2182    1.6358   -0.0294 H   0  0  0  0  0  0  0  0  0  0  0  0
    0.5348    1.8294   -0.1191 H   0  0  0  0  0  0  0  0  0  0  0  0
   -0.4046    1.1345   -1.9122 C   0  0  0  0  0  0  0  0  0  0  0  0
   -0.6155    0.1048   -2.5290 O   0  0  0  0  0  0  0  0  0  0  0  0
   -0.2524    2.2562   -2.5732 N   0  0  0  0  0  0  0  0  0  0  0  0
   -0.3459    2.1960   -3.5719 H   0  0  0  0  0  0  0  0  0  0  0  0
   -0.0970    3.1197   -2.0882 H   0  0  0  0  0  0  0  0  0  0  0  0
    0.4075   -0.0985    1.7169 C   0  0  0  0  0  0  0  0  0  0  0  0
    1.5860   -0.3526    1.9662 O   0  0  0  0  0  0  0  0  0  0  0  0
   -0.4625    0.2583    2.6666 N   0  0  0  0  0  0  0  0  0  0  0  0
   -1.4309    0.3754    2.3860 H   0  0  0  0  0  0  0  0  0  0  0  0
   -0.1275    0.4111    4.0813 C   0  0  0  0  0  0  0  0  0  0  0  0
    0.6862    1.1312    4.1910 H   0  0  0  0  0  0  0  0  0  0  0  0
   -0.9980    0.7641    4.6360 H   0  0  0  0  0  0  0  0  0  0  0  0
    0.1959   -0.5481    4.4891 H   0  0  0  0  0  0  0  0  0  0  0  0
  5  6  2  0  0  0  0
  5  7  1  0  0  0  0
  2  3  1  0  0  0  0
  2  4  1  0  0  0  0
  2  5  1  0  0  0  0
  1  2  1  0  0  0  0
 19 20  2  0  0  0  0
 19 21  1  0  0  0  0
 16 17  1  0  0  0  0
 16 18  1  0  0  0  0
 14 15  2  0  0  0  0
 14 16  1  0  0  0  0
 11 12  1  0  0  0  0
 11 13  1  0  0  0  0
 11 14  1  0  0  0  0
  9 10  1  0  0  0  0
  9 11  1  0  0  0  0
  9 19  1  0  0  0  0
  7  8  1  0  0  0  0
  7  9  1  0  0  0  0
 23 24  1  0  0  0  0
 23 25  1  0  0  0  0
 23 26  1  0  0  0  0
 21 22  1  0  0  0  0
 21 23  1  0  0  0  0
M  END
$$$$
default_name
  -OEChem-02102213163D

 26 25  0     1  0  0  0  0  0999 V2000
   -3.0232   -3.6924    1.0038 H   0  0  0  0  0  0  0  0  0  0  0  0
   -3.0082   -2.6684    0.6318 C   0  0  0  0  0  0  0  0  0  0  0  0
   -3.6332   -2.0414    1.2658 H   0  0  0  0  0  0  0  0  0  0  0  0
   -3.3762   -2.6444   -0.3912 H   0  0  0  0  0  0  0  0  0  0  0  0
   -1.5882   -2.1554    0.6658 C   0  0  0  0  0  0  0  0  0  0  0  0
   -0.6832   -2.8764    1.0638 O   0  0  0  0  0  0  0  0  0  0  0  0
   -1.3952   -0.9084    0.2428 N   0  0  0  0  0  0  0  0  0  0  0  0
   -2.1972   -0.3644   -0.0422 H   0  0  0  0  0  0  0  0  0  0  0  0
   -0.1122   -0.1994    0.2658 C   0  0  1  0  0  0  0  0  0  0  0  0
    0.6131   -0.7748   -0.3153 H   0  0  0  0  0  0  0  0  0  0  0  0
   -0.2973    1.1841   -0.3966 C   0  0  0  0  0  0  0  0  0  0  0  0
   -1.2182    1.6358   -0.0294 H   0  0  0  0  0  0  0  0  0  0  0  0
    0.5348    1.8294   -0.1191 H   0  0  0  0  0  0  0  0  0  0  0  0
   -0.4046    1.1345   -1.9122 C   0  0  0  0  0  0  0  0  0  0  0  0
   -0.8704    0.1823   -2.5135 O   0  0  0  0  0  0  0  0  0  0  0  0
    0.0360    2.1660   -2.5907 N   0  0  0  0  0  0  0  0  0  0  0  0
   -0.0638    2.1126   -3.5891 H   0  0  0  0  0  0  0  0  0  0  0  0
    0.4061    2.9694   -2.1188 H   0  0  0  0  0  0  0  0  0  0  0  0
    0.4075   -0.0985    1.7169 C   0  0  0  0  0  0  0  0  0  0  0  0
    1.5860   -0.3526    1.9662 O   0  0  0  0  0  0  0  0  0  0  0  0
   -0.4625    0.2583    2.6666 N   0  0  0  0  0  0  0  0  0  0  0  0
   -1.4309    0.3754    2.3860 H   0  0  0  0  0  0  0  0  0  0  0  0
   -0.1275    0.4111    4.0813 C   0  0  0  0  0  0  0  0  0  0  0  0
    0.6862    1.1312    4.1910 H   0  0  0  0  0  0  0  0  0  0  0  0
   -0.9980    0.7641    4.6360 H   0  0  0  0  0  0  0  0  0  0  0  0
    0.1959   -0.5481    4.4891 H   0  0  0  0  0  0  0  0  0  0  0  0
  5  6  2  0  0  0  0
  5  7  1  0  0  0  0
  2  3  1  0  0  0  0
  2  4  1  0  0  0  0
  2  5  1  0  0  0  0
  1  2  1  0  0  0  0
 19 20  2  0  0  0  0
 19 21  1  0  0  0  0
 16 17  1  0  0  0  0
 16 18  1  0  0  0  0
 14 15  2  0  0  0  0
 14 16  1  0  0  0  0
 11 12  1  0  0  0  0
 11 13  1  0  0  0  0
 11 14  1  0  0  0  0
  9 10  1  0  0  0  0
  9 11  1  0  0  0  0
  9 19  1  0  0  0  0
  7  8  1  0  0  0  0
  7  9  1  0  0  0  0
 23 24  1  0  0  0  0
 23 25  1  0  0  0  0
 23 26  1  0  0  0  0
 21 22  1  0  0  0  0
 21 23  1  0  0  0  0
M  END
$$$$
default_name
  -OEChem-02102213163D

 26 25  0     1  0  0  0  0  0999 V2000
   -3.0232   -3.6924    1.0038 H   0  0  0  0  0  0  0  0  0  0  0  0
   -3.0082   -2.6684    0.6318 C   0  0  0  0  0  0  0  0  0  0  0  0
   -3.6332   -2.0414    1.2658 H   0  0  0  0  0  0  0  0  0  0  0  0
   -3.3762   -2.6444   -0.3912 H   0  0  0  0  0  0  0  0  0  0  0  0
   -1.5882   -2.1554    0.6658 C   0  0  0  0  0  0  0  0  0  0  0  0
   -0.6832   -2.8764    1.0638 O   0  0  0  0  0  0  0  0  0  0  0  0
   -1.3952   -0.9084    0.2428 N   0  0  0  0  0  0  0  0  0  0  0  0
   -2.1972   -0.3644   -0.0422 H   0  0  0  0  0  0  0  0  0  0  0  0
   -0.1122   -0.1994    0.2658 C   0  0  1  0  0  0  0  0  0  0  0  0
    0.6131   -0.7748   -0.3153 H   0  0  0  0  0  0  0  0  0  0  0  0
   -0.2973    1.1841   -0.3966 C   0  0  0  0  0  0  0  0  0  0  0  0
   -1.2182    1.6358   -0.0294 H   0  0  0  0  0  0  0  0  0  0  0  0
    0.5348    1.8294   -0.1191 H   0  0  0  0  0  0  0  0  0  0  0  0
   -0.4046    1.1345   -1.9122 C   0  0  0  0  0  0  0  0  0  0  0  0
   -1.0968    0.3232   -2.5021 O   0  0  0  0  0  0  0  0  0  0  0  0
    0.2914    2.0041   -2.6035 N   0  0  0  0  0  0  0  0  0  0  0  0
    0.1872    1.9589   -3.6019 H   0  0  0  0  0  0  0  0  0  0  0  0
    0.8534    2.6938   -2.1415 H   0  0  0  0  0  0  0  0  0  0  0  0
    0.4075   -0.0985    1.7169 C   0  0  0  0  0  0  0  0  0  0  0  0
    1.5860   -0.3526    1.9662 O   0  0  0  0  0  0  0  0  0  0  0  0
   -0.4625    0.2583    2.6666 N   0  0  0  0  0  0  0  0  0  0  0  0
   -1.4309    0.3754    2.3860 H   0  0  0  0  0  0  0  0  0  0  0  0
   -0.1275    0.4111    4.0813 C   0  0  0  0  0  0  0  0  0  0  0  0
    0.6862    1.1312    4.1910 H   0  0  0  0  0  0  0  0  0  0  0  0
   -0.9980    0.7641    4.6360 H   0  0  0  0  0  0  0  0  0  0  0  0
    0.1959   -0.5481    4.4891 H   0  0  0  0  0  0  0  0  0  0  0  0
  5  6  2  0  0  0  0
  5  7  1  0  0  0  0
  2  3  1  0  0  0  0
  2  4  1  0  0  0  0
  2  5  1  0  0  0  0
  1  2  1  0  0  0  0
 19 20  2  0  0  0  0
 19 21  1  0  0  0  0
 16 17  1  0  0  0  0
 16 18  1  0  0  0  0
 14 15  2  0  0  0  0
 14 16  1  0  0  0  0
 11 12  1  0  0  0  0
 11 13  1  0  0  0  0
 11 14  1  0  0  0  0
  9 10  1  0  0  0  0
  9 11  1  0  0  0  0
  9 19  1  0  0  0  0
  7  8  1  0  0  0  0
  7  9  1  0  0  0  0
 23 24  1  0  0  0  0
 23 25  1  0  0  0  0
 23 26  1  0  0  0  0
 21 22  1  0  0  0  0
 21 23  1  0  0  0  0
M  END
$$$$
default_name
  -OEChem-02102213163D

 26 25  0     1  0  0  0  0  0999 V2000
   -3.0232   -3.6924    1.0038 H   0  0  0  0  0  0  0  0  0  0  0  0
   -3.0082   -2.6684    0.6318 C   0  0  0  0  0  0  0  0  0  0  0  0
   -3.6332   -2.0414    1.2658 H   0  0  0  0  0  0  0  0  0  0  0  0
   -3.3762   -2.6444   -0.3912 H   0  0  0  0  0  0  0  0  0  0  0  0
   -1.5882   -2.1554    0.6658 C   0  0  0  0  0  0  0  0  0  0  0  0
   -0.6832   -2.8764    1.0638 O   0  0  0  0  0  0  0  0  0  0  0  0
   -1.3952   -0.9084    0.2428 N   0  0  0  0  0  0  0  0  0  0  0  0
   -2.1972   -0.3644   -0.0422 H   0  0  0  0  0  0  0  0  0  0  0  0
   -0.1122   -0.1994    0.2658 C   0  0  1  0  0  0  0  0  0  0  0  0
    0.6131   -0.7748   -0.3153 H   0  0  0  0  0  0  0  0  0  0  0  0
   -0.2973    1.1841   -0.3966 C   0  0  0  0  0  0  0  0  0  0  0  0
   -1.2182    1.6358   -0.0294 H   0  0  0  0  0  0  0  0  0  0  0  0
    0.5348    1.8294   -0.1191 H   0  0  0  0  0  0  0  0  0  0  0  0
   -0.4046    1.1345   -1.9122 C   0  0  0  0  0  0  0  0  0  0  0  0
   -1.2792    0.5180   -2.4955 O   0  0  0  0  0  0  0  0  0  0  0  0
    0.4964    1.7815   -2.6107 N   0  0  0  0  0  0  0  0  0  0  0  0
    0.3901    1.7454   -3.6092 H   0  0  0  0  0  0  0  0  0  0  0  0
    1.2146    2.3117   -2.1546 H   0  0  0  0  0  0  0  0  0  0  0  0
    0.4075   -0.0985    1.7169 C   0  0  0  0  0  0  0  0  0  0  0  0
    1.5860   -0.3526    1.9662 O   0  0  0  0  0  0  0  0  0  0  0  0
   -0.4625    0.2583    2.6666 N   0  0  0  0  0  0  0  0  0  0  0  0
   -1.4309    0.3754    2.3860 H   0  0  0  0  0  0  0  0  0  0  0  0
   -0.1275    0.4111    4.0813 C   0  0  0  0  0  0  0  0  0  0  0  0
    0.6862    1.1312    4.1910 H   0  0  0  0  0  0  0  0  0  0  0  0
   -0.9980    0.7641    4.6360 H   0  0  0  0  0  0  0  0  0  0  0  0
    0.1959   -0.5481    4.4891 H   0  0  0  0  0  0  0  0  0  0  0  0
  5  6  2  0  0  0  0
  5  7  1  0  0  0  0
  2  3  1  0  0  0  0
  2  4  1  0  0  0  0
  2  5  1  0  0  0  0
  1  2  1  0  0  0  0
 19 20  2  0  0  0  0
 19 21  1  0  0  0  0
 16 17  1  0  0  0  0
 16 18  1  0  0  0  0
 14 15  2  0  0  0  0
 14 16  1  0  0  0  0
 11 12  1  0  0  0  0
 11 13  1  0  0  0  0
 11 14  1  0  0  0  0
  9 10  1  0  0  0  0
  9 11  1  0  0  0  0
  9 19  1  0  0  0  0
  7  8  1  0  0  0  0
  7  9  1  0  0  0  0
 23 24  1  0  0  0  0
 23 25  1  0  0  0  0
 23 26  1  0  0  0  0
 21 22  1  0  0  0  0
 21 23  1  0  0  0  0
M  END
$$$$
default_name
  -OEChem-02102213163D

 26 25  0     1  0  0  0  0  0999 V2000
   -3.0232   -3.6924    1.0038 H   0  0  0  0  0  0  0  0  0  0  0  0
   -3.0082   -2.6684    0.6318 C   0  0  0  0  0  0  0  0  0  0  0  0
   -3.6332   -2.0414    1.2658 H   0  0  0  0  0  0  0  0  0  0  0  0
   -3.3762   -2.6444   -0.3912 H   0  0  0  0  0  0  0  0  0  0  0  0
   -1.5882   -2.1554    0.6658 C   0  0  0  0  0  0  0  0  0  0  0  0
   -0.6832   -2.8764    1.0638 O   0  0  0  0  0  0  0  0  0  0  0  0
   -1.3952   -0.9084    0.2428 N   0  0  0  0  0  0  0  0  0  0  0  0
   -2.1972   -0.3644   -0.0422 H   0  0  0  0  0  0  0  0  0  0  0  0
   -0.1122   -0.1994    0.2658 C   0  0  1  0  0  0  0  0  0  0  0  0
    0.6131   -0.7748   -0.3153 H   0  0  0  0  0  0  0  0  0  0  0  0
   -0.2973    1.1841   -0.3966 C   0  0  0  0  0  0  0  0  0  0  0  0
   -1.2182    1.6358   -0.0294 H   0  0  0  0  0  0  0  0  0  0  0  0
    0.5348    1.8294   -0.1191 H   0  0  0  0  0  0  0  0  0  0  0  0
   -0.4046    1.1345   -1.9122 C   0  0  0  0  0  0  0  0  0  0  0  0
   -1.4051    0.7533   -2.4943 O   0  0  0  0  0  0  0  0  0  0  0  0
    0.6371    1.5136   -2.6119 N   0  0  0  0  0  0  0  0  0  0  0  0
    0.5311    1.4868   -3.6108 H   0  0  0  0  0  0  0  0  0  0  0  0
    1.4650    1.8493   -2.1572 H   0  0  0  0  0  0  0  0  0  0  0  0
    0.4075   -0.0985    1.7169 C   0  0  0  0  0  0  0  0  0  0  0  0
    1.5860   -0.3526    1.9662 O   0  0  0  0  0  0  0  0  0  0  0  0
   -0.4625    0.2583    2.6666 N   0  0  0  0  0  0  0  0  0  0  0  0
   -1.4309    0.3754    2.3860 H   0  0  0  0  0  0  0  0  0  0  0  0
   -0.1275    0.4111    4.0813 C   0  0  0  0  0  0  0  0  0  0  0  0
    0.6862    1.1312    4.1910 H   0  0  0  0  0  0  0  0  0  0  0  0
   -0.9980    0.7641    4.6360 H   0  0  0  0  0  0  0  0  0  0  0  0
    0.1959   -0.5481    4.4891 H   0  0  0  0  0  0  0  0  0  0  0  0
  5  6  2  0  0  0  0
  5  7  1  0  0  0  0
  2  3  1  0  0  0  0
  2  4  1  0  0  0  0
  2  5  1  0  0  0  0
  1  2  1  0  0  0  0
 19 20  2  0  0  0  0
 19 21  1  0  0  0  0
 16 17  1  0  0  0  0
 16 18  1  0  0  0  0
 14 15  2  0  0  0  0
 14 16  1  0  0  0  0
 11 12  1  0  0  0  0
 11 13  1  0  0  0  0
 11 14  1  0  0  0  0
  9 10  1  0  0  0  0
  9 11  1  0  0  0  0
  9 19  1  0  0  0  0
  7  8  1  0  0  0  0
  7  9  1  0  0  0  0
 23 24  1  0  0  0  0
 23 25  1  0  0  0  0
 23 26  1  0  0  0  0
 21 22  1  0  0  0  0
 21 23  1  0  0  0  0
M  END
$$$$
default_name
  -OEChem-02102213163D

 26 25  0     1  0  0  0  0  0999 V2000
   -3.0232   -3.6924    1.0038 H   0  0  0  0  0  0  0  0  0  0  0  0
   -3.0082   -2.6684    0.6318 C   0  0  0  0  0  0  0  0  0  0  0  0
   -3.6332   -2.0414    1.2658 H   0  0  0  0  0  0  0  0  0  0  0  0
   -3.3762   -2.6444   -0.3912 H   0  0  0  0  0  0  0  0  0  0  0  0
   -1.5882   -2.1554    0.6658 C   0  0  0  0  0  0  0  0  0  0  0  0
   -0.6832   -2.8764    1.0638 O   0  0  0  0  0  0  0  0  0  0  0  0
   -1.3952   -0.9084    0.2428 N   0  0  0  0  0  0  0  0  0  0  0  0
   -2.1972   -0.3644   -0.0422 H   0  0  0  0  0  0  0  0  0  0  0  0
   -0.1122   -0.1994    0.2658 C   0  0  1  0  0  0  0  0  0  0  0  0
    0.6131   -0.7748   -0.3153 H   0  0  0  0  0  0  0  0  0  0  0  0
   -0.2973    1.1841   -0.3966 C   0  0  0  0  0  0  0  0  0  0  0  0
   -1.2182    1.6358   -0.0294 H   0  0  0  0  0  0  0  0  0  0  0  0
    0.5348    1.8294   -0.1191 H   0  0  0  0  0  0  0  0  0  0  0  0
   -0.4046    1.1345   -1.9122 C   0  0  0  0  0  0  0  0  0  0  0  0
   -1.4661    1.0131   -2.4985 O   0  0  0  0  0  0  0  0  0  0  0  0
    0.7038    1.2184   -2.6070 N   0  0  0  0  0  0  0  0  0  0  0  0
    0.6006    1.2005   -3.6063 H   0  0  0  0  0  0  0  0  0  0  0  0
    1.5876    1.3379   -2.1491 H   0  0  0  0  0  0  0  0  0  0  0  0
    0.4075   -0.0985    1.7169 C   0  0  0  0  0  0  0  0  0  0  0  0
    1.5860   -0.3526    1.9662 O   0  0  0  0  0  0  0  0  0  0  0  0
   -0.4625    0.2583    2.6666 N   0  0  0  0  0  0  0  0  0  0  0  0
   -1.4309    0.3754    2.3860 H   0  0  0  0  0  0  0  0  0  0  0  0
   -0.1275    0.4111    4.0813 C   0  0  0  0  0  0  0  0  0  0  0  0
    0.6862    1.1312    4.1910 H   0  0  0  0  0  0  0  0  0  0  0  0
   -0.9980    0.7641    4.6360 H   0  0  0  0  0  0  0  0  0  0  0  0
    0.1959   -0.5481    4.4891 H   0  0  0  0  0  0  0  0  0  0  0  0
  5  6  2  0  0  0  0
  5  7  1  0  0  0  0
  2  3  1  0  0  0  0
  2  4  1  0  0  0  0
  2  5  1  0  0  0  0
  1  2  1  0  0  0  0
 19 20  2  0  0  0  0
 19 21  1  0  0  0  0
 16 17  1  0  0  0  0
 16 18  1  0  0  0  0
 14 15  2  0  0  0  0
 14 16  1  0  0  0  0
 11 12  1  0  0  0  0
 11 13  1  0  0  0  0
 11 14  1  0  0  0  0
  9 10  1  0  0  0  0
  9 11  1  0  0  0  0
  9 19  1  0  0  0  0
  7  8  1  0  0  0  0
  7  9  1  0  0  0  0
 23 24  1  0  0  0  0
 23 25  1  0  0  0  0
 23 26  1  0  0  0  0
 21 22  1  0  0  0  0
 21 23  1  0  0  0  0
M  END
$$$$
default_name
  -OEChem-02102213163D

 26 25  0     1  0  0  0  0  0999 V2000
   -3.0232   -3.6924    1.0038 H   0  0  0  0  0  0  0  0  0  0  0  0
   -3.0082   -2.6684    0.6318 C   0  0  0  0  0  0  0  0  0  0  0  0
   -3.6332   -2.0414    1.2658 H   0  0  0  0  0  0  0  0  0  0  0  0
   -3.3762   -2.6444   -0.3912 H   0  0  0  0  0  0  0  0  0  0  0  0
   -1.5882   -2.1554    0.6658 C   0  0  0  0  0  0  0  0  0  0  0  0
   -0.6832   -2.8764    1.0638 O   0  0  0  0  0  0  0  0  0  0  0  0
   -1.3952   -0.9084    0.2428 N   0  0  0  0  0  0  0  0  0  0  0  0
   -2.1972   -0.3644   -0.0422 H   0  0  0  0  0  0  0  0  0  0  0  0
   -0.1122   -0.1994    0.2658 C   0  0  1  0  0  0  0  0  0  0  0  0
    0.6131   -0.7748   -0.3153 H   0  0  0  0  0  0  0  0  0  0  0  0
   -0.2973    1.1841   -0.3966 C   0  0  0  0  0  0  0  0  0  0  0  0
   -1.2182    1.6358   -0.0294 H   0  0  0  0  0  0  0  0  0  0  0  0
    0.5348    1.8294   -0.1191 H   0  0  0  0  0  0  0  0  0  0  0  0
   -0.4046    1.1345   -1.9122 C   0  0  0  0  0  0  0  0  0  0  0  0
   -1.4579    1.2796   -2.5078 O   0  0  0  0  0  0  0  0  0  0  0  0
    0.6921    0.9162   -2.5963 N   0  0  0  0  0  0  0  0  0  0  0  0
    0.5938    0.9061   -3.5962 H   0  0  0  0  0  0  0  0  0  0  0  0
    1.5740    0.8125   -2.1310 H   0  0  0  0  0  0  0  0  0  0  0  0
    0.4075   -0.0985    1.7169 C   0  0  0  0  0  0  0  0  0  0  0  0
    1.5860   -0.3526    1.9662 O   0  0  0  0  0  0  0  0  0  0  0  0
   -0.4625    0.2583    2.6666 N   0  0  0  0  0  0  0  0  0  0  0  0
   -1.4309    0.3754    2.3860 H   0  0  0  0  0  0  0  0  0  0  0  0
   -0.1275    0.4111    4.0813 C   0  0  0  0  0  0  0  0  0  0  0  0
    0.6862    1.1312    4.1910 H   0  0  0  0  0  0  0  0  0  0  0  0
   -0.9980    0.7641    4.6360 H   0  0  0  0  0  0  0  0  0  0  0  0
    0.1959   -0.5481    4.4891 H   0  0  0  0  0  0  0  0  0  0  0  0
  5  6  2  0  0  0  0
  5  7  1  0  0  0  0
  2  3  1  0  0  0  0
  2  4  1  0  0  0  0
  2  5  1  0  0  0  0
  1  2  1  0  0  0  0
 19 20  2  0  0  0  0
 19 21  1  0  0  0  0
 16 17  1  0  0  0  0
 16 18  1  0  0  0  0
 14 15  2  0  0  0  0
 14 16  1  0  0  0  0
 11 12  1  0  0  0  0
 11 13  1  0  0  0  0
 11 14  1  0  0  0  0
  9 10  1  0  0  0  0
  9 11  1  0  0  0  0
  9 19  1  0  0  0  0
  7  8  1  0  0  0  0
  7  9  1  0  0  0  0
 23 24  1  0  0  0  0
 23 25  1  0  0  0  0
 23 26  1  0  0  0  0
 21 22  1  0  0  0  0
 21 23  1  0  0  0  0
M  END
$$$$
default_name
  -OEChem-02102213163D

 26 25  0     1  0  0  0  0  0999 V2000
   -3.0232   -3.6924    1.0038 H   0  0  0  0  0  0  0  0  0  0  0  0
   -3.0082   -2.6684    0.6318 C   0  0  0  0  0  0  0  0  0  0  0  0
   -3.6332   -2.0414    1.2658 H   0  0  0  0  0  0  0  0  0  0  0  0
   -3.3762   -2.6444   -0.3912 H   0  0  0  0  0  0  0  0  0  0  0  0
   -1.5882   -2.1554    0.6658 C   0  0  0  0  0  0  0  0  0  0  0  0
   -0.6832   -2.8764    1.0638 O   0  0  0  0  0  0  0  0  0  0  0  0
   -1.3952   -0.9084    0.2428 N   0  0  0  0  0  0  0  0  0  0  0  0
   -2.1972   -0.3644   -0.0422 H   0  0  0  0  0  0  0  0  0  0  0  0
   -0.1122   -0.1994    0.2658 C   0  0  1  0  0  0  0  0  0  0  0  0
    0.6131   -0.7748   -0.3153 H   0  0  0  0  0  0  0  0  0  0  0  0
   -0.2973    1.1841   -0.3966 C   0  0  0  0  0  0  0  0  0  0  0  0
   -1.2182    1.6358   -0.0294 H   0  0  0  0  0  0  0  0  0  0  0  0
    0.5348    1.8294   -0.1191 H   0  0  0  0  0  0  0  0  0  0  0  0
   -0.4046    1.1345   -1.9122 C   0  0  0  0  0  0  0  0  0  0  0  0
   -1.3811    1.5349   -2.5216 O   0  0  0  0  0  0  0  0  0  0  0  0
    0.6027    0.6275   -2.5805 N   0  0  0  0  0  0  0  0  0  0  0  0
    0.5111    0.6238   -3.5811 H   0  0  0  0  0  0  0  0  0  0  0  0
    1.4251    0.3088   -2.1040 H   0  0  0  0  0  0  0  0  0  0  0  0
    0.4075   -0.0985    1.7169 C   0  0  0  0  0  0  0  0  0  0  0  0
    1.5860   -0.3526    1.9662 O   0  0  0  0  0  0  0  0  0  0  0  0
   -0.4625    0.2583    2.6666 N   0  0  0  0  0  0  0  0  0  0  0  0
   -1.4309    0.3754    2.3860 H   0  0  0  0  0  0  0  0  0  0  0  0
   -0.1275    0.4111    4.0813 C   0  0  0  0  0  0  0  0  0  0  0  0
    0.6862    1.1312    4.1910 H   0  0  0  0  0  0  0  0  0  0  0  0
   -0.9980    0.7641    4.6360 H   0  0  0  0  0  0  0  0  0  0  0  0
    0.1959   -0.5481    4.4891 H   0  0  0  0  0  0  0  0  0  0  0  0
  5  6  2  0  0  0  0
  5  7  1  0  0  0  0
  2  3  1  0  0  0  0
  2  4  1  0  0  0  0
  2  5  1  0  0  0  0
  1  2  1  0  0  0  0
 19 20  2  0  0  0  0
 19 21  1  0  0  0  0
 16 17  1  0  0  0  0
 16 18  1  0  0  0  0
 14 15  2  0  0  0  0
 14 16  1  0  0  0  0
 11 12  1  0  0  0  0
 11 13  1  0  0  0  0
 11 14  1  0  0  0  0
  9 10  1  0  0  0  0
  9 11  1  0  0  0  0
  9 19  1  0  0  0  0
  7  8  1  0  0  0  0
  7  9  1  0  0  0  0
 23 24  1  0  0  0  0
 23 25  1  0  0  0  0
 23 26  1  0  0  0  0
 21 22  1  0  0  0  0
 21 23  1  0  0  0  0
M  END
$$$$
default_name
  -OEChem-02102213163D

 26 25  0     1  0  0  0  0  0999 V2000
   -3.0232   -3.6924    1.0038 H   0  0  0  0  0  0  0  0  0  0  0  0
   -3.0082   -2.6684    0.6318 C   0  0  0  0  0  0  0  0  0  0  0  0
   -3.6332   -2.0414    1.2658 H   0  0  0  0  0  0  0  0  0  0  0  0
   -3.3762   -2.6444   -0.3912 H   0  0  0  0  0  0  0  0  0  0  0  0
   -1.5882   -2.1554    0.6658 C   0  0  0  0  0  0  0  0  0  0  0  0
   -0.6832   -2.8764    1.0638 O   0  0  0  0  0  0  0  0  0  0  0  0
   -1.3952   -0.9084    0.2428 N   0  0  0  0  0  0  0  0  0  0  0  0
   -2.1972   -0.3644   -0.0422 H   0  0  0  0  0  0  0  0  0  0  0  0
   -0.1122   -0.1994    0.2658 C   0  0  1  0  0  0  0  0  0  0  0  0
    0.6131   -0.7748   -0.3153 H   0  0  0  0  0  0  0  0  0  0  0  0
   -0.2973    1.1841   -0.3966 C   0  0  0  0  0  0  0  0  0  0  0  0
   -1.2182    1.6358   -0.0294 H   0  0  0  0  0  0  0  0  0  0  0  0
    0.5348    1.8294   -0.1191 H   0  0  0  0  0  0  0  0  0  0  0  0
   -0.4046    1.1345   -1.9122 C   0  0  0  0  0  0  0  0  0  0  0  0
   -1.2410    1.7613   -2.5389 O   0  0  0  0  0  0  0  0  0  0  0  0
    0.4417    0.3719   -2.5607 N   0  0  0  0  0  0  0  0  0  0  0  0
    0.3583    0.3726   -3.5621 H   0  0  0  0  0  0  0  0  0  0  0  0
    1.1511   -0.1388   -2.0699 H   0  0  0  0  0  0  0  0  0  0  0  0
    0.4075   -0.0985    1.7169 C   0  0  0  0  0  0  0  0  0  0  0  0
    1.5860   -0.3526    1.9662 O   0  0  0  0  0  0  0  0  0  0  0  0
   -0.4625    0.2583    2.6666 N   0  0  0  0  0  0  0  0  0  0  0  0
   -1.4309    0.3754    2.3860 H   0  0  0  0  0  0  0  0  0  0  0  0
   -0.1275    0.4111    4.0813 C   0  0  0  0  0  0  0  0  0  0  0  0
    0.6862    1.1312    4.1910 H   0  0  0  0  0  0  0  0  0  0  0  0
   -0.9980    0.7641    4.6360 H   0  0  0  0  0  0  0  0  0  0  0  0
    0.1959   -0.5481    4.4891 H   0  0  0  0  0  0  0  0  0  0  0  0
  5  6  2  0  0  0  0
  5  7  1  0  0  0  0
  2  3  1  0  0  0  0
  2  4  1  0  0  0  0
  2  5  1  0  0  0  0
  1  2  1  0  0  0  0
 19 20  2  0  0  0  0
 19 21  1  0  0  0  0
 16 17  1  0  0  0  0
 16 18  1  0  0  0  0
 14 15  2  0  0  0  0
 14 16  1  0  0  0  0
 11 12  1  0  0  0  0
 11 13  1  0  0  0  0
 11 14  1  0  0  0  0
  9 10  1  0  0  0  0
  9 11  1  0  0  0  0
  9 19  1  0  0  0  0
  7  8  1  0  0  0  0
  7  9  1  0  0  0  0
 23 24  1  0  0  0  0
 23 25  1  0  0  0  0
 23 26  1  0  0  0  0
 21 22  1  0  0  0  0
 21 23  1  0  0  0  0
M  END
$$$$
default_name
  -OEChem-02102213163D

 26 25  0     1  0  0  0  0  0999 V2000
   -3.0232   -3.6924    1.0038 H   0  0  0  0  0  0  0  0  0  0  0  0
   -3.0082   -2.6684    0.6318 C   0  0  0  0  0  0  0  0  0  0  0  0
   -3.6332   -2.0414    1.2658 H   0  0  0  0  0  0  0  0  0  0  0  0
   -3.3762   -2.6444   -0.3912 H   0  0  0  0  0  0  0  0  0  0  0  0
   -1.5882   -2.1554    0.6658 C   0  0  0  0  0  0  0  0  0  0  0  0
   -0.6832   -2.8764    1.0638 O   0  0  0  0  0  0  0  0  0  0  0  0
   -1.3952   -0.9084    0.2428 N   0  0  0  0  0  0  0  0  0  0  0  0
   -2.1972   -0.3644   -0.0422 H   0  0  0  0  0  0  0  0  0  0  0  0
   -0.1122   -0.1994    0.2658 C   0  0  1  0  0  0  0  0  0  0  0  0
    0.6131   -0.7748   -0.3153 H   0  0  0  0  0  0  0  0  0  0  0  0
   -0.2973    1.1841   -0.3966 C   0  0  0  0  0  0  0  0  0  0  0  0
   -1.2182    1.6358   -0.0294 H   0  0  0  0  0  0  0  0  0  0  0  0
    0.5348    1.8294   -0.1191 H   0  0  0  0  0  0  0  0  0  0  0  0
   -0.4046    1.1345   -1.9122 C   0  0  0  0  0  0  0  0  0  0  0  0
   -1.0471    1.9436   -2.5586 O   0  0  0  0  0  0  0  0  0  0  0  0
    0.2201    0.1670   -2.5383 N   0  0  0  0  0  0  0  0  0  0  0  0
    0.1458    0.1698   -3.5404 H   0  0  0  0  0  0  0  0  0  0  0  0
    0.7707   -0.4998   -2.0312 H   0  0  0  0  0  0  0  0  0  0  0  0
    0.4075   -0.0985    1.7169 C   0  0  0  0  0  0  0  0  0  0  0  0
    1.5860   -0.3526    1.9662 O   0  0  0  0  0  0  0  0  0  0  0  0
   -0.4625    0.2583    2.6666 N   0  0  0  0  0  0  0  0  0  0  0  0
   -1.4309    0.3754    2.3860 H   0  0  0  0  0  0  0  0  0  0  0  0
   -0.1275    0.4111    4.0813 C   0  0  0  0  0  0  0  0  0  0  0  0
    0.6862    1.1312    4.1910 H   0  0  0  0  0  0  0  0  0  0  0  0
   -0.9980    0.7641    4.6360 H   0  0  0  0  0  0  0  0  0  0  0  0
    0.1959   -0.5481    4.4891 H   0  0  0  0  0  0  0  0  0  0  0  0
  5  6  2  0  0  0  0
  5  7  1  0  0  0  0
  2  3  1  0  0  0  0
  2  4  1  0  0  0  0
  2  5  1  0  0  0  0
  1  2  1  0  0  0  0
 19 20  2  0  0  0  0
 19 21  1  0  0  0  0
 16 17  1  0  0  0  0
 16 18  1  0  0  0  0
 14 15  2  0  0  0  0
 14 16  1  0  0  0  0
 11 12  1  0  0  0  0
 11 13  1  0  0  0  0
 11 14  1  0  0  0  0
  9 10  1  0  0  0  0
  9 11  1  0  0  0  0
  9 19  1  0  0  0  0
  7  8  1  0  0  0  0
  7  9  1  0  0  0  0
 23 24  1  0  0  0  0
 23 25  1  0  0  0  0
 23 26  1  0  0  0  0
 21 22  1  0  0  0  0
 21 23  1  0  0  0  0
M  END
$$$$
default_name
  -OEChem-02102213163D

 26 25  0     1  0  0  0  0  0999 V2000
   -3.0232   -3.6924    1.0038 H   0  0  0  0  0  0  0  0  0  0  0  0
   -3.0082   -2.6684    0.6318 C   0  0  0  0  0  0  0  0  0  0  0  0
   -3.6332   -2.0414    1.2658 H   0  0  0  0  0  0  0  0  0  0  0  0
   -3.3762   -2.6444   -0.3912 H   0  0  0  0  0  0  0  0  0  0  0  0
   -1.5882   -2.1554    0.6658 C   0  0  0  0  0  0  0  0  0  0  0  0
   -0.6832   -2.8764    1.0638 O   0  0  0  0  0  0  0  0  0  0  0  0
   -1.3952   -0.9084    0.2428 N   0  0  0  0  0  0  0  0  0  0  0  0
   -2.1972   -0.3644   -0.0422 H   0  0  0  0  0  0  0  0  0  0  0  0
   -0.1122   -0.1994    0.2658 C   0  0  1  0  0  0  0  0  0  0  0  0
    0.6131   -0.7748   -0.3153 H   0  0  0  0  0  0  0  0  0  0  0  0
   -0.2973    1.1841   -0.3966 C   0  0  0  0  0  0  0  0  0  0  0  0
   -1.2182    1.6358   -0.0294 H   0  0  0  0  0  0  0  0  0  0  0  0
    0.5348    1.8294   -0.1191 H   0  0  0  0  0  0  0  0  0  0  0  0
   -0.4046    1.1345   -1.9122 C   0  0  0  0  0  0  0  0  0  0  0  0
   -0.8125    2.0693   -2.5793 O   0  0  0  0  0  0  0  0  0  0  0  0
   -0.0471    0.0267   -2.5148 N   0  0  0  0  0  0  0  0  0  0  0  0
   -0.1121    0.0291   -3.5176 H   0  0  0  0  0  0  0  0  0  0  0  0
    0.3097   -0.7496   -1.9904 H   0  0  0  0  0  0  0  0  0  0  0  0
    0.4075   -0.0985    1.7169 C   0  0  0  0  0  0  0  0  0  0  0  0
    1.5860   -0.3526    1.9662 O   0  0  0  0  0  0  0  0  0  0  0  0
   -0.4625    0.2583    2.6666 N   0  0  0  0  0  0  0  0  0  0  0  0
   -1.4309    0.3754    2.3860 H   0  0  0  0  0  0  0  0  0  0  0  0
   -0.1275    0.4111    4.0813 C   0  0  0  0  0  0  0  0  0  0  0  0
    0.6862    1.1312    4.1910 H   0  0  0  0  0  0  0  0  0  0  0  0
   -0.9980    0.7641    4.6360 H   0  0  0  0  0  0  0  0  0  0  0  0
    0.1959   -0.5481    4.4891 H   0  0  0  0  0  0  0  0  0  0  0  0
  5  6  2  0  0  0  0
  5  7  1  0  0  0  0
  2  3  1  0  0  0  0
  2  4  1  0  0  0  0
  2  5  1  0  0  0  0
  1  2  1  0  0  0  0
 19 20  2  0  0  0  0
 19 21  1  0  0  0  0
 16 17  1  0  0  0  0
 16 18  1  0  0  0  0
 14 15  2  0  0  0  0
 14 16  1  0  0  0  0
 11 12  1  0  0  0  0
 11 13  1  0  0  0  0
 11 14  1  0  0  0  0
  9 10  1  0  0  0  0
  9 11  1  0  0  0  0
  9 19  1  0  0  0  0
  7  8  1  0  0  0  0
  7  9  1  0  0  0  0
 23 24  1  0  0  0  0
 23 25  1  0  0  0  0
 23 26  1  0  0  0  0
 21 22  1  0  0  0  0
 21 23  1  0  0  0  0
M  END
$$$$
default_name
  -OEChem-02102213163D

 26 25  0     1  0  0  0  0  0999 V2000
   -3.0232   -3.6924    1.0038 H   0  0  0  0  0  0  0  0  0  0  0  0
   -3.0082   -2.6684    0.6318 C   0  0  0  0  0  0  0  0  0  0  0  0
   -3.6332   -2.0414    1.2658 H   0  0  0  0  0  0  0  0  0  0  0  0
   -3.3762   -2.6444   -0.3912 H   0  0  0  0  0  0  0  0  0  0  0  0
   -1.5882   -2.1554    0.6658 C   0  0  0  0  0  0  0  0  0  0  0  0
   -0.6832   -2.8764    1.0638 O   0  0  0  0  0  0  0  0  0  0  0  0
   -1.3952   -0.9084    0.2428 N   0  0  0  0  0  0  0  0  0  0  0  0
   -2.1972   -0.3644   -0.0422 H   0  0  0  0  0  0  0  0  0  0  0  0
   -0.1122   -0.1994    0.2658 C   0  0  1  0  0  0  0  0  0  0  0  0
    0.6131   -0.7748   -0.3153 H   0  0  0  0  0  0  0  0  0  0  0  0
   -0.2973    1.1841   -0.3966 C   0  0  0  0  0  0  0  0  0  0  0  0
   -1.0531    1.7448    0.1522 H   0  0  0  0  0  0  0  0  0  0  0  0
    0.6409    1.7346   -0.3466 H   0  0  0  0  0  0  0  0  0  0  0  0
   -0.7602    1.1200   -1.8432 C   0  0  0  0  0  0  0  0  0  0  0  0
   -0.9578    2.1132   -2.5212 O   0  0  0  0  0  0  0  0  0  0  0  0
   -0.9606   -0.0638   -2.3695 N   0  0  0  0  0  0  0  0  0  0  0  0
   -1.2491   -0.0757   -3.3319 H   0  0  0  0  0  0  0  0  0  0  0  0
   -0.7870   -0.8964   -1.8388 H   0  0  0  0  0  0  0  0  0  0  0  0
    0.4075   -0.0985    1.7169 C   0  0  0  0  0  0  0  0  0  0  0  0
    1.5860   -0.3526    1.9662 O   0  0  0  0  0  0  0  0  0  0  0  0
   -0.4625    0.2583    2.6666 N   0  0  0  0  0  0  0  0  0  0  0  0
   -1.4309    0.3754    2.3860 H   0  0  0  0  0  0  0  0  0  0  0  0
   -0.1275    0.4111    4.0813 C   0  0  0  0  0  0  0  0  0  0  0  0
    0.6862    1.1312    4.1910 H   0  0  0  0  0  0  0  0  0  0  0  0
   -0.9980    0.7641    4.6360 H   0  0  0  0  0  0  0  0  0  0  0  0
    0.1959   -0.5481    4.4891 H   0  0  0  0  0  0  0  0  0  0  0  0
  5  6  2  0  0  0  0
  5  7  1  0  0  0  0
  2  3  1  0  0  0  0
  2  4  1  0  0  0  0
  2  5  1  0  0  0  0
  1  2  1  0  0  0  0
 19 20  2  0  0  0  0
 19 21  1  0  0  0  0
 16 17  1  0  0  0  0
 16 18  1  0  0  0  0
 14 15  2  0  0  0  0
 14 16  1  0  0  0  0
 11 12  1  0  0  0  0
 11 13  1  0  0  0  0
 11 14  1  0  0  0  0
  9 10  1  0  0  0  0
  9 11  1  0  0  0  0
  9 19  1  0  0  0  0
  7  8  1  0  0  0  0
  7  9  1  0  0  0  0
 23 24  1  0  0  0  0
 23 25  1  0  0  0  0
 23 26  1  0  0  0  0
 21 22  1  0  0  0  0
 21 23  1  0  0  0  0
M  END
$$$$
default_name
  -OEChem-02102213163D

 26 25  0     1  0  0  0  0  0999 V2000
   -3.0232   -3.6924    1.0038 H   0  0  0  0  0  0  0  0  0  0  0  0
   -3.0082   -2.6684    0.6318 C   0  0  0  0  0  0  0  0  0  0  0  0
   -3.6332   -2.0414    1.2658 H   0  0  0  0  0  0  0  0  0  0  0  0
   -3.3762   -2.6444   -0.3912 H   0  0  0  0  0  0  0  0  0  0  0  0
   -1.5882   -2.1554    0.6658 C   0  0  0  0  0  0  0  0  0  0  0  0
   -0.6832   -2.8764    1.0638 O   0  0  0  0  0  0  0  0  0  0  0  0
   -1.3952   -0.9084    0.2428 N   0  0  0  0  0  0  0  0  0  0  0  0
   -2.1972   -0.3644   -0.0422 H   0  0  0  0  0  0  0  0  0  0  0  0
   -0.1122   -0.1994    0.2658 C   0  0  1  0  0  0  0  0  0  0  0  0
    0.6131   -0.7748   -0.3153 H   0  0  0  0  0  0  0  0  0  0  0  0
   -0.2973    1.1841   -0.3966 C   0  0  0  0  0  0  0  0  0  0  0  0
   -1.0531    1.7448    0.1522 H   0  0  0  0  0  0  0  0  0  0  0  0
    0.6409    1.7346   -0.3466 H   0  0  0  0  0  0  0  0  0  0  0  0
   -0.7602    1.1200   -1.8432 C   0  0  0  0  0  0  0  0  0  0  0  0
   -0.7059    2.0737   -2.6000 O   0  0  0  0  0  0  0  0  0  0  0  0
   -1.2459   -0.0164   -2.2803 N   0  0  0  0  0  0  0  0  0  0  0  0
   -1.5274   -0.0342   -3.2447 H   0  0  0  0  0  0  0  0  0  0  0  0
   -1.2837   -0.8209   -1.6832 H   0  0  0  0  0  0  0  0  0  0  0  0
    0.4075   -0.0985    1.7169 C   0  0  0  0  0  0  0  0  0  0  0  0
    1.5860   -0.3526    1.9662 O   0  0  0  0  0  0  0  0  0  0  0  0
   -0.4625    0.2583    2.6666 N   0  0  0  0  0  0  0  0  0  0  0  0
   -1.4309    0.3754    2.3860 H   0  0  0  0  0  0  0  0  0  0  0  0
   -0.1275    0.4111    4.0813 C   0  0  0  0  0  0  0  0  0  0  0  0
    0.6862    1.1312    4.1910 H   0  0  0  0  0  0  0  0  0  0  0  0
   -0.9980    0.7641    4.6360 H   0  0  0  0  0  0  0  0  0  0  0  0
    0.1959   -0.5481    4.4891 H   0  0  0  0  0  0  0  0  0  0  0  0
  5  6  2  0  0  0  0
  5  7  1  0  0  0  0
  2  3  1  0  0  0  0
  2  4  1  0  0  0  0
  2  5  1  0  0  0  0
  1  2  1  0  0  0  0
 19 20  2  0  0  0  0
 19 21  1  0  0  0  0
 16 17  1  0  0  0  0
 16 18  1  0  0  0  0
 14 15  2  0  0  0  0
 14 16  1  0  0  0  0
 11 12  1  0  0  0  0
 11 13  1  0  0  0  0
 11 14  1  0  0  0  0
  9 10  1  0  0  0  0
  9 11  1  0  0  0  0
  9 19  1  0  0  0  0
  7  8  1  0  0  0  0
  7  9  1  0  0  0  0
 23 24  1  0  0  0  0
 23 25  1  0  0  0  0
 23 26  1  0  0  0  0
 21 22  1  0  0  0  0
 21 23  1  0  0  0  0
M  END
$$$$
default_name
  -OEChem-02102213163D

 26 25  0     1  0  0  0  0  0999 V2000
   -3.0232   -3.6924    1.0038 H   0  0  0  0  0  0  0  0  0  0  0  0
   -3.0082   -2.6684    0.6318 C   0  0  0  0  0  0  0  0  0  0  0  0
   -3.6332   -2.0414    1.2658 H   0  0  0  0  0  0  0  0  0  0  0  0
   -3.3762   -2.6444   -0.3912 H   0  0  0  0  0  0  0  0  0  0  0  0
   -1.5882   -2.1554    0.6658 C   0  0  0  0  0  0  0  0  0  0  0  0
   -0.6832   -2.8764    1.0638 O   0  0  0  0  0  0  0  0  0  0  0  0
   -1.3952   -0.9084    0.2428 N   0  0  0  0  0  0  0  0  0  0  0  0
   -2.1972   -0.3644   -0.0422 H   0  0  0  0  0  0  0  0  0  0  0  0
   -0.1122   -0.1994    0.2658 C   0  0  1  0  0  0  0  0  0  0  0  0
    0.6131   -0.7748   -0.3153 H   0  0  0  0  0  0  0  0  0  0  0  0
   -0.2973    1.1841   -0.3966 C   0  0  0  0  0  0  0  0  0  0  0  0
   -1.0531    1.7448    0.1522 H   0  0  0  0  0  0  0  0  0  0  0  0
    0.6409    1.7346   -0.3466 H   0  0  0  0  0  0  0  0  0  0  0  0
   -0.7602    1.1200   -1.8432 C   0  0  0  0  0  0  0  0  0  0  0  0
   -0.4715    1.9672   -2.6703 O   0  0  0  0  0  0  0  0  0  0  0  0
   -1.5108    0.1066   -2.2009 N   0  0  0  0  0  0  0  0  0  0  0  0
   -1.7870    0.0813   -3.1667 H   0  0  0  0  0  0  0  0  0  0  0  0
   -1.7465   -0.6133   -1.5443 H   0  0  0  0  0  0  0  0  0  0  0  0
    0.4075   -0.0985    1.7169 C   0  0  0  0  0  0  0  0  0  0  0  0
    1.5860   -0.3526    1.9662 O   0  0  0  0  0  0  0  0  0  0  0  0
   -0.4625    0.2583    2.6666 N   0  0  0  0  0  0  0  0  0  0  0  0
   -1.4309    0.3754    2.3860 H   0  0  0  0  0  0  0  0  0  0  0  0
   -0.1275    0.4111    4.0813 C   0  0  0  0  0  0  0  0  0  0  0  0
    0.6862    1.1312    4.1910 H   0  0  0  0  0  0  0  0  0  0  0  0
   -0.9980    0.7641    4.6360 H   0  0  0  0  0  0  0  0  0  0  0  0
    0.1959   -0.5481    4.4891 H   0  0  0  0  0  0  0  0  0  0  0  0
  5  6  2  0  0  0  0
  5  7  1  0  0  0  0
  2  3  1  0  0  0  0
  2  4  1  0  0  0  0
  2  5  1  0  0  0  0
  1  2  1  0  0  0  0
 19 20  2  0  0  0  0
 19 21  1  0  0  0  0
 16 17  1  0  0  0  0
 16 18  1  0  0  0  0
 14 15  2  0  0  0  0
 14 16  1  0  0  0  0
 11 12  1  0  0  0  0
 11 13  1  0  0  0  0
 11 14  1  0  0  0  0
  9 10  1  0  0  0  0
  9 11  1  0  0  0  0
  9 19  1  0  0  0  0
  7  8  1  0  0  0  0
  7  9  1  0  0  0  0
 23 24  1  0  0  0  0
 23 25  1  0  0  0  0
 23 26  1  0  0  0  0
 21 22  1  0  0  0  0
 21 23  1  0  0  0  0
M  END
$$$$
default_name
  -OEChem-02102213163D

 26 25  0     1  0  0  0  0  0999 V2000
   -3.0232   -3.6924    1.0038 H   0  0  0  0  0  0  0  0  0  0  0  0
   -3.0082   -2.6684    0.6318 C   0  0  0  0  0  0  0  0  0  0  0  0
   -3.6332   -2.0414    1.2658 H   0  0  0  0  0  0  0  0  0  0  0  0
   -3.3762   -2.6444   -0.3912 H   0  0  0  0  0  0  0  0  0  0  0  0
   -1.5882   -2.1554    0.6658 C   0  0  0  0  0  0  0  0  0  0  0  0
   -0.6832   -2.8764    1.0638 O   0  0  0  0  0  0  0  0  0  0  0  0
   -1.3952   -0.9084    0.2428 N   0  0  0  0  0  0  0  0  0  0  0  0
   -2.1972   -0.3644   -0.0422 H   0  0  0  0  0  0  0  0  0  0  0  0
   -0.1122   -0.1994    0.2658 C   0  0  1  0  0  0  0  0  0  0  0  0
    0.6131   -0.7748   -0.3153 H   0  0  0  0  0  0  0  0  0  0  0  0
   -0.2973    1.1841   -0.3966 C   0  0  0  0  0  0  0  0  0  0  0  0
   -1.0531    1.7448    0.1522 H   0  0  0  0  0  0  0  0  0  0  0  0
    0.6409    1.7346   -0.3466 H   0  0  0  0  0  0  0  0  0  0  0  0
   -0.7602    1.1200   -1.8432 C   0  0  0  0  0  0  0  0  0  0  0  0
   -0.2705    1.8011   -2.7272 O   0  0  0  0  0  0  0  0  0  0  0  0
   -1.7373    0.2969   -2.1369 N   0  0  0  0  0  0  0  0  0  0  0  0
   -2.0101    0.2630   -3.1034 H   0  0  0  0  0  0  0  0  0  0  0  0
   -2.1440   -0.2880   -1.4315 H   0  0  0  0  0  0  0  0  0  0  0  0
    0.4075   -0.0985    1.7169 C   0  0  0  0  0  0  0  0  0  0  0  0
    1.5860   -0.3526    1.9662 O   0  0  0  0  0  0  0  0  0  0  0  0
   -0.4625    0.2583    2.6666 N   0  0  0  0  0  0  0  0  0  0  0  0
   -1.4309    0.3754    2.3860 H   0  0  0  0  0  0  0  0  0  0  0  0
   -0.1275    0.4111    4.0813 C   0  0  0  0  0  0  0  0  0  0  0  0
    0.6862    1.1312    4.1910 H   0  0  0  0  0  0  0  0  0  0  0  0
   -0.9980    0.7641    4.6360 H   0  0  0  0  0  0  0  0  0  0  0  0
    0.1959   -0.5481    4.4891 H   0  0  0  0  0  0  0  0  0  0  0  0
  5  6  2  0  0  0  0
  5  7  1  0  0  0  0
  2  3  1  0  0  0  0
  2  4  1  0  0  0  0
  2  5  1  0  0  0  0
  1  2  1  0  0  0  0
 19 20  2  0  0  0  0
 19 21  1  0  0  0  0
 16 17  1  0  0  0  0
 16 18  1  0  0  0  0
 14 15  2  0  0  0  0
 14 16  1  0  0  0  0
 11 12  1  0  0  0  0
 11 13  1  0  0  0  0
 11 14  1  0  0  0  0
  9 10  1  0  0  0  0
  9 11  1  0  0  0  0
  9 19  1  0  0  0  0
  7  8  1  0  0  0  0
  7  9  1  0  0  0  0
 23 24  1  0  0  0  0
 23 25  1  0  0  0  0
 23 26  1  0  0  0  0
 21 22  1  0  0  0  0
 21 23  1  0  0  0  0
M  END
$$$$
default_name
  -OEChem-02102213163D

 26 25  0     1  0  0  0  0  0999 V2000
   -3.0232   -3.6924    1.0038 H   0  0  0  0  0  0  0  0  0  0  0  0
   -3.0082   -2.6684    0.6318 C   0  0  0  0  0  0  0  0  0  0  0  0
   -3.6332   -2.0414    1.2658 H   0  0  0  0  0  0  0  0  0  0  0  0
   -3.3762   -2.6444   -0.3912 H   0  0  0  0  0  0  0  0  0  0  0  0
   -1.5882   -2.1554    0.6658 C   0  0  0  0  0  0  0  0  0  0  0  0
   -0.6832   -2.8764    1.0638 O   0  0  0  0  0  0  0  0  0  0  0  0
   -1.3952   -0.9084    0.2428 N   0  0  0  0  0  0  0  0  0  0  0  0
   -2.1972   -0.3644   -0.0422 H   0  0  0  0  0  0  0  0  0  0  0  0
   -0.1122   -0.1994    0.2658 C   0  0  1  0  0  0  0  0  0  0  0  0
    0.6131   -0.7748   -0.3153 H   0  0  0  0  0  0  0  0  0  0  0  0
   -0.2973    1.1841   -0.3966 C   0  0  0  0  0  0  0  0  0  0  0  0
   -1.0531    1.7448    0.1522 H   0  0  0  0  0  0  0  0  0  0  0  0
    0.6409    1.7346   -0.3466 H   0  0  0  0  0  0  0  0  0  0  0  0
   -0.7602    1.1200   -1.8432 C   0  0  0  0  0  0  0  0  0  0  0  0
   -0.1167    1.5866   -2.7669 O   0  0  0  0  0  0  0  0  0  0  0  0
   -1.9098    0.5415   -2.0925 N   0  0  0  0  0  0  0  0  0  0  0  0
   -2.1816    0.4984   -3.0589 H   0  0  0  0  0  0  0  0  0  0  0  0
   -2.4490    0.1331   -1.3526 H   0  0  0  0  0  0  0  0  0  0  0  0
    0.4075   -0.0985    1.7169 C   0  0  0  0  0  0  0  0  0  0  0  0
    1.5860   -0.3526    1.9662 O   0  0  0  0  0  0  0  0  0  0  0  0
   -0.4625    0.2583    2.6666 N   0  0  0  0  0  0  0  0  0  0  0  0
   -1.4309    0.3754    2.3860 H   0  0  0  0  0  0  0  0  0  0  0  0
   -0.1275    0.4111    4.0813 C   0  0  0  0  0  0  0  0  0  0  0  0
    0.6862    1.1312    4.1910 H   0  0  0  0  0  0  0  0  0  0  0  0
   -0.9980    0.7641    4.6360 H   0  0  0  0  0  0  0  0  0  0  0  0
    0.1959   -0.5481    4.4891 H   0  0  0  0  0  0  0  0  0  0  0  0
  5  6  2  0  0  0  0
  5  7  1  0  0  0  0
  2  3  1  0  0  0  0
  2  4  1  0  0  0  0
  2  5  1  0  0  0  0
  1  2  1  0  0  0  0
 19 20  2  0  0  0  0
 19 21  1  0  0  0  0
 16 17  1  0  0  0  0
 16 18  1  0  0  0  0
 14 15  2  0  0  0  0
 14 16  1  0  0  0  0
 11 12  1  0  0  0  0
 11 13  1  0  0  0  0
 11 14  1  0  0  0  0
  9 10  1  0  0  0  0
  9 11  1  0  0  0  0
  9 19  1  0  0  0  0
  7  8  1  0  0  0  0
  7  9  1  0  0  0  0
 23 24  1  0  0  0  0
 23 25  1  0  0  0  0
 23 26  1  0  0  0  0
 21 22  1  0  0  0  0
 21 23  1  0  0  0  0
M  END
$$$$
default_name
  -OEChem-02102213163D

 26 25  0     1  0  0  0  0  0999 V2000
   -3.0232   -3.6924    1.0038 H   0  0  0  0  0  0  0  0  0  0  0  0
   -3.0082   -2.6684    0.6318 C   0  0  0  0  0  0  0  0  0  0  0  0
   -3.6332   -2.0414    1.2658 H   0  0  0  0  0  0  0  0  0  0  0  0
   -3.3762   -2.6444   -0.3912 H   0  0  0  0  0  0  0  0  0  0  0  0
   -1.5882   -2.1554    0.6658 C   0  0  0  0  0  0  0  0  0  0  0  0
   -0.6832   -2.8764    1.0638 O   0  0  0  0  0  0  0  0  0  0  0  0
   -1.3952   -0.9084    0.2428 N   0  0  0  0  0  0  0  0  0  0  0  0
   -2.1972   -0.3644   -0.0422 H   0  0  0  0  0  0  0  0  0  0  0  0
   -0.1122   -0.1994    0.2658 C   0  0  1  0  0  0  0  0  0  0  0  0
    0.6131   -0.7748   -0.3153 H   0  0  0  0  0  0  0  0  0  0  0  0
   -0.2973    1.1841   -0.3966 C   0  0  0  0  0  0  0  0  0  0  0  0
   -1.0531    1.7448    0.1522 H   0  0  0  0  0  0  0  0  0  0  0  0
    0.6409    1.7346   -0.3466 H   0  0  0  0  0  0  0  0  0  0  0  0
   -0.7602    1.1200   -1.8432 C   0  0  0  0  0  0  0  0  0  0  0  0
   -0.0205    1.3385   -2.7867 O   0  0  0  0  0  0  0  0  0  0  0  0
   -2.0167    0.8238   -2.0708 N   0  0  0  0  0  0  0  0  0  0  0  0
   -2.2898    0.7715   -3.0364 H   0  0  0  0  0  0  0  0  0  0  0  0
   -2.6408    0.6212   -1.3128 H   0  0  0  0  0  0  0  0  0  0  0  0
    0.4075   -0.0985    1.7169 C   0  0  0  0  0  0  0  0  0  0  0  0
    1.5860   -0.3526    1.9662 O   0  0  0  0  0  0  0  0  0  0  0  0
   -0.4625    0.2583    2.6666 N   0  0  0  0  0  0  0  0  0  0  0  0
   -1.4309    0.3754    2.3860 H   0  0  0  0  0  0  0  0  0  0  0  0
   -0.1275    0.4111    4.0813 C   0  0  0  0  0  0  0  0  0  0  0  0
    0.6862    1.1312    4.1910 H   0  0  0  0  0  0  0  0  0  0  0  0
   -0.9980    0.7641    4.6360 H   0  0  0  0  0  0  0  0  0  0  0  0
    0.1959   -0.5481    4.4891 H   0  0  0  0  0  0  0  0  0  0  0  0
  5  6  2  0  0  0  0
  5  7  1  0  0  0  0
  2  3  1  0  0  0  0
  2  4  1  0  0  0  0
  2  5  1  0  0  0  0
  1  2  1  0  0  0  0
 19 20  2  0  0  0  0
 19 21  1  0  0  0  0
 16 17  1  0  0  0  0
 16 18  1  0  0  0  0
 14 15  2  0  0  0  0
 14 16  1  0  0  0  0
 11 12  1  0  0  0  0
 11 13  1  0  0  0  0
 11 14  1  0  0  0  0
  9 10  1  0  0  0  0
  9 11  1  0  0  0  0
  9 19  1  0  0  0  0
  7  8  1  0  0  0  0
  7  9  1  0  0  0  0
 23 24  1  0  0  0  0
 23 25  1  0  0  0  0
 23 26  1  0  0  0  0
 21 22  1  0  0  0  0
 21 23  1  0  0  0  0
M  END
$$$$
default_name
  -OEChem-02102213163D

 26 25  0     1  0  0  0  0  0999 V2000
   -3.0232   -3.6924    1.0038 H   0  0  0  0  0  0  0  0  0  0  0  0
   -3.0082   -2.6684    0.6318 C   0  0  0  0  0  0  0  0  0  0  0  0
   -3.6332   -2.0414    1.2658 H   0  0  0  0  0  0  0  0  0  0  0  0
   -3.3762   -2.6444   -0.3912 H   0  0  0  0  0  0  0  0  0  0  0  0
   -1.5882   -2.1554    0.6658 C   0  0  0  0  0  0  0  0  0  0  0  0
   -0.6832   -2.8764    1.0638 O   0  0  0  0  0  0  0  0  0  0  0  0
   -1.3952   -0.9084    0.2428 N   0  0  0  0  0  0  0  0  0  0  0  0
   -2.1972   -0.3644   -0.0422 H   0  0  0  0  0  0  0  0  0  0  0  0
   -0.1122   -0.1994    0.2658 C   0  0  1  0  0  0  0  0  0  0  0  0
    0.6131   -0.7748   -0.3153 H   0  0  0  0  0  0  0  0  0  0  0  0
   -0.2973    1.1841   -0.3966 C   0  0  0  0  0  0  0  0  0  0  0  0
   -1.0531    1.7448    0.1522 H   0  0  0  0  0  0  0  0  0  0  0  0
    0.6409    1.7346   -0.3466 H   0  0  0  0  0  0  0  0  0  0  0  0
   -0.7602    1.1200   -1.8432 C   0  0  0  0  0  0  0  0  0  0  0  0
    0.0115    1.0735   -2.7852 O   0  0  0  0  0  0  0  0  0  0  0  0
   -2.0507    1.1246   -2.0733 N   0  0  0  0  0  0  0  0  0  0  0  0
   -2.3272    1.0637   -3.0374 H   0  0  0  0  0  0  0  0  0  0  0  0
   -2.7062    1.1430   -1.3150 H   0  0  0  0  0  0  0  0  0  0  0  0
    0.4075   -0.0985    1.7169 C   0  0  0  0  0  0  0  0  0  0  0  0
    1.5860   -0.3526    1.9662 O   0  0  0  0  0  0  0  0  0  0  0  0
   -0.4625    0.2583    2.6666 N   0  0  0  0  0  0  0  0  0  0  0  0
   -1.4309    0.3754    2.3860 H   0  0  0  0  0  0  0  0  0  0  0  0
   -0.1275    0.4111    4.0813 C   0  0  0  0  0  0  0  0  0  0  0  0
    0.6862    1.1312    4.1910 H   0  0  0  0  0  0  0  0  0  0  0  0
   -0.9980    0.7641    4.6360 H   0  0  0  0  0  0  0  0  0  0  0  0
    0.1959   -0.5481    4.4891 H   0  0  0  0  0  0  0  0  0  0  0  0
  5  6  2  0  0  0  0
  5  7  1  0  0  0  0
  2  3  1  0  0  0  0
  2  4  1  0  0  0  0
  2  5  1  0  0  0  0
  1  2  1  0  0  0  0
 19 20  2  0  0  0  0
 19 21  1  0  0  0  0
 16 17  1  0  0  0  0
 16 18  1  0  0  0  0
 14 15  2  0  0  0  0
 14 16  1  0  0  0  0
 11 12  1  0  0  0  0
 11 13  1  0  0  0  0
 11 14  1  0  0  0  0
  9 10  1  0  0  0  0
  9 11  1  0  0  0  0
  9 19  1  0  0  0  0
  7  8  1  0  0  0  0
  7  9  1  0  0  0  0
 23 24  1  0  0  0  0
 23 25  1  0  0  0  0
 23 26  1  0  0  0  0
 21 22  1  0  0  0  0
 21 23  1  0  0  0  0
M  END
$$$$
default_name
  -OEChem-02102213163D

 26 25  0     1  0  0  0  0  0999 V2000
   -3.0232   -3.6924    1.0038 H   0  0  0  0  0  0  0  0  0  0  0  0
   -3.0082   -2.6684    0.6318 C   0  0  0  0  0  0  0  0  0  0  0  0
   -3.6332   -2.0414    1.2658 H   0  0  0  0  0  0  0  0  0  0  0  0
   -3.3762   -2.6444   -0.3912 H   0  0  0  0  0  0  0  0  0  0  0  0
   -1.5882   -2.1554    0.6658 C   0  0  0  0  0  0  0  0  0  0  0  0
   -0.6832   -2.8764    1.0638 O   0  0  0  0  0  0  0  0  0  0  0  0
   -1.3952   -0.9084    0.2428 N   0  0  0  0  0  0  0  0  0  0  0  0
   -2.1972   -0.3644   -0.0422 H   0  0  0  0  0  0  0  0  0  0  0  0
   -0.1122   -0.1994    0.2658 C   0  0  1  0  0  0  0  0  0  0  0  0
    0.6131   -0.7748   -0.3153 H   0  0  0  0  0  0  0  0  0  0  0  0
   -0.2973    1.1841   -0.3966 C   0  0  0  0  0  0  0  0  0  0  0  0
   -1.0531    1.7448    0.1522 H   0  0  0  0  0  0  0  0  0  0  0  0
    0.6409    1.7346   -0.3466 H   0  0  0  0  0  0  0  0  0  0  0  0
   -0.7602    1.1200   -1.8432 C   0  0  0  0  0  0  0  0  0  0  0  0
   -0.0228    0.8098   -2.7626 O   0  0  0  0  0  0  0  0  0  0  0  0
   -2.0095    1.4232   -2.0997 N   0  0  0  0  0  0  0  0  0  0  0  0
   -2.2914    1.3551   -3.0618 H   0  0  0  0  0  0  0  0  0  0  0  0
   -2.6409    1.6630   -1.3590 H   0  0  0  0  0  0  0  0  0  0  0  0
    0.4075   -0.0985    1.7169 C   0  0  0  0  0  0  0  0  0  0  0  0
    1.5860   -0.3526    1.9662 O   0  0  0  0  0  0  0  0  0  0  0  0
   -0.4625    0.2583    2.6666 N   0  0  0  0  0  0  0  0  0  0  0  0
   -1.4309    0.3754    2.3860 H   0  0  0  0  0  0  0  0  0  0  0  0
   -0.1275    0.4111    4.0813 C   0  0  0  0  0  0  0  0  0  0  0  0
    0.6862    1.1312    4.1910 H   0  0  0  0  0  0  0  0  0  0  0  0
   -0.9980    0.7641    4.6360 H   0  0  0  0  0  0  0  0  0  0  0  0
    0.1959   -0.5481    4.4891 H   0  0  0  0  0  0  0  0  0  0  0  0
  5  6  2  0  0  0  0
  5  7  1  0  0  0  0
  2  3  1  0  0  0  0
  2  4  1  0  0  0  0
  2  5  1  0  0  0  0
  1  2  1  0  0  0  0
 19 20  2  0  0  0  0
 19 21  1  0  0  0  0
 16 17  1  0  0  0  0
 16 18  1  0  0  0  0
 14 15  2  0  0  0  0
 14 16  1  0  0  0  0
 11 12  1  0  0  0  0
 11 13  1  0  0  0  0
 11 14  1  0  0  0  0
  9 10  1  0  0  0  0
  9 11  1  0  0  0  0
  9 19  1  0  0  0  0
  7  8  1  0  0  0  0
  7  9  1  0  0  0  0
 23 24  1  0  0  0  0
 23 25  1  0  0  0  0
 23 26  1  0  0  0  0
 21 22  1  0  0  0  0
 21 23  1  0  0  0  0
M  END
$$$$
default_name
  -OEChem-02102213163D

 26 25  0     1  0  0  0  0  0999 V2000
   -3.0232   -3.6924    1.0038 H   0  0  0  0  0  0  0  0  0  0  0  0
   -3.0082   -2.6684    0.6318 C   0  0  0  0  0  0  0  0  0  0  0  0
   -3.6332   -2.0414    1.2658 H   0  0  0  0  0  0  0  0  0  0  0  0
   -3.3762   -2.6444   -0.3912 H   0  0  0  0  0  0  0  0  0  0  0  0
   -1.5882   -2.1554    0.6658 C   0  0  0  0  0  0  0  0  0  0  0  0
   -0.6832   -2.8764    1.0638 O   0  0  0  0  0  0  0  0  0  0  0  0
   -1.3952   -0.9084    0.2428 N   0  0  0  0  0  0  0  0  0  0  0  0
   -2.1972   -0.3644   -0.0422 H   0  0  0  0  0  0  0  0  0  0  0  0
   -0.1122   -0.1994    0.2658 C   0  0  1  0  0  0  0  0  0  0  0  0
    0.6131   -0.7748   -0.3153 H   0  0  0  0  0  0  0  0  0  0  0  0
   -0.2973    1.1841   -0.3966 C   0  0  0  0  0  0  0  0  0  0  0  0
   -1.0531    1.7448    0.1522 H   0  0  0  0  0  0  0  0  0  0  0  0
    0.6409    1.7346   -0.3466 H   0  0  0  0  0  0  0  0  0  0  0  0
   -0.7602    1.1200   -1.8432 C   0  0  0  0  0  0  0  0  0  0  0  0
   -0.1212    0.5654   -2.7202 O   0  0  0  0  0  0  0  0  0  0  0  0
   -1.8958    1.6995   -2.1484 N   0  0  0  0  0  0  0  0  0  0  0  0
   -2.1848    1.6259   -3.1079 H   0  0  0  0  0  0  0  0  0  0  0  0
   -2.4493    2.1457   -1.4417 H   0  0  0  0  0  0  0  0  0  0  0  0
    0.4075   -0.0985    1.7169 C   0  0  0  0  0  0  0  0  0  0  0  0
    1.5860   -0.3526    1.9662 O   0  0  0  0  0  0  0  0  0  0  0  0
   -0.4625    0.2583    2.6666 N   0  0  0  0  0  0  0  0  0  0  0  0
   -1.4309    0.3754    2.3860 H   0  0  0  0  0  0  0  0  0  0  0  0
   -0.1275    0.4111    4.0813 C   0  0  0  0  0  0  0  0  0  0  0  0
    0.6862    1.1312    4.1910 H   0  0  0  0  0  0  0  0  0  0  0  0
   -0.9980    0.7641    4.6360 H   0  0  0  0  0  0  0  0  0  0  0  0
    0.1959   -0.5481    4.4891 H   0  0  0  0  0  0  0  0  0  0  0  0
  5  6  2  0  0  0  0
  5  7  1  0  0  0  0
  2  3  1  0  0  0  0
  2  4  1  0  0  0  0
  2  5  1  0  0  0  0
  1  2  1  0  0  0  0
 19 20  2  0  0  0  0
 19 21  1  0  0  0  0
 16 17  1  0  0  0  0
 16 18  1  0  0  0  0
 14 15  2  0  0  0  0
 14 16  1  0  0  0  0
 11 12  1  0  0  0  0
 11 13  1  0  0  0  0
 11 14  1  0  0  0  0
  9 10  1  0  0  0  0
  9 11  1  0  0  0  0
  9 19  1  0  0  0  0
  7  8  1  0  0  0  0
  7  9  1  0  0  0  0
 23 24  1  0  0  0  0
 23 25  1  0  0  0  0
 23 26  1  0  0  0  0
 21 22  1  0  0  0  0
 21 23  1  0  0  0  0
M  END
$$$$
default_name
  -OEChem-02102213163D

 26 25  0     1  0  0  0  0  0999 V2000
   -3.0232   -3.6924    1.0038 H   0  0  0  0  0  0  0  0  0  0  0  0
   -3.0082   -2.6684    0.6318 C   0  0  0  0  0  0  0  0  0  0  0  0
   -3.6332   -2.0414    1.2658 H   0  0  0  0  0  0  0  0  0  0  0  0
   -3.3762   -2.6444   -0.3912 H   0  0  0  0  0  0  0  0  0  0  0  0
   -1.5882   -2.1554    0.6658 C   0  0  0  0  0  0  0  0  0  0  0  0
   -0.6832   -2.8764    1.0638 O   0  0  0  0  0  0  0  0  0  0  0  0
   -1.3952   -0.9084    0.2428 N   0  0  0  0  0  0  0  0  0  0  0  0
   -2.1972   -0.3644   -0.0422 H   0  0  0  0  0  0  0  0  0  0  0  0
   -0.1122   -0.1994    0.2658 C   0  0  1  0  0  0  0  0  0  0  0  0
    0.6131   -0.7748   -0.3153 H   0  0  0  0  0  0  0  0  0  0  0  0
   -0.2973    1.1841   -0.3966 C   0  0  0  0  0  0  0  0  0  0  0  0
   -1.0531    1.7448    0.1522 H   0  0  0  0  0  0  0  0  0  0  0  0
    0.6409    1.7346   -0.3466 H   0  0  0  0  0  0  0  0  0  0  0  0
   -0.7602    1.1200   -1.8432 C   0  0  0  0  0  0  0  0  0  0  0  0
   -0.2768    0.3568   -2.6612 O   0  0  0  0  0  0  0  0  0  0  0  0
   -1.7174    1.9344   -2.2159 N   0  0  0  0  0  0  0  0  0  0  0  0
   -2.0146    1.8575   -3.1726 H   0  0  0  0  0  0  0  0  0  0  0  0
   -2.1444    2.5583   -1.5575 H   0  0  0  0  0  0  0  0  0  0  0  0
    0.4075   -0.0985    1.7169 C   0  0  0  0  0  0  0  0  0  0  0  0
    1.5860   -0.3526    1.9662 O   0  0  0  0  0  0  0  0  0  0  0  0
   -0.4625    0.2583    2.6666 N   0  0  0  0  0  0  0  0  0  0  0  0
   -1.4309    0.3754    2.3860 H   0  0  0  0  0  0  0  0  0  0  0  0
   -0.1275    0.4111    4.0813 C   0  0  0  0  0  0  0  0  0  0  0  0
    0.6862    1.1312    4.1910 H   0  0  0  0  0  0  0  0  0  0  0  0
   -0.9980    0.7641    4.6360 H   0  0  0  0  0  0  0  0  0  0  0  0
    0.1959   -0.5481    4.4891 H   0  0  0  0  0  0  0  0  0  0  0  0
  5  6  2  0  0  0  0
  5  7  1  0  0  0  0
  2  3  1  0  0  0  0
  2  4  1  0  0  0  0
  2  5  1  0  0  0  0
  1  2  1  0  0  0  0
 19 20  2  0  0  0  0
 19 21  1  0  0  0  0
 16 17  1  0  0  0  0
 16 18  1  0  0  0  0
 14 15  2  0  0  0  0
 14 16  1  0  0  0  0
 11 12  1  0  0  0  0
 11 13  1  0  0  0  0
 11 14  1  0  0  0  0
  9 10  1  0  0  0  0
  9 11  1  0  0  0  0
  9 19  1  0  0  0  0
  7  8  1  0  0  0  0
  7  9  1  0  0  0  0
 23 24  1  0  0  0  0
 23 25  1  0  0  0  0
 23 26  1  0  0  0  0
 21 22  1  0  0  0  0
 21 23  1  0  0  0  0
M  END
$$$$
default_name
  -OEChem-02102213163D

 26 25  0     1  0  0  0  0  0999 V2000
   -3.0232   -3.6924    1.0038 H   0  0  0  0  0  0  0  0  0  0  0  0
   -3.0082   -2.6684    0.6318 C   0  0  0  0  0  0  0  0  0  0  0  0
   -3.6332   -2.0414    1.2658 H   0  0  0  0  0  0  0  0  0  0  0  0
   -3.3762   -2.6444   -0.3912 H   0  0  0  0  0  0  0  0  0  0  0  0
   -1.5882   -2.1554    0.6658 C   0  0  0  0  0  0  0  0  0  0  0  0
   -0.6832   -2.8764    1.0638 O   0  0  0  0  0  0  0  0  0  0  0  0
   -1.3952   -0.9084    0.2428 N   0  0  0  0  0  0  0  0  0  0  0  0
   -2.1972   -0.3644   -0.0422 H   0  0  0  0  0  0  0  0  0  0  0  0
   -0.1122   -0.1994    0.2658 C   0  0  1  0  0  0  0  0  0  0  0  0
    0.6131   -0.7748   -0.3153 H   0  0  0  0  0  0  0  0  0  0  0  0
   -0.2973    1.1841   -0.3966 C   0  0  0  0  0  0  0  0  0  0  0  0
   -1.0531    1.7448    0.1522 H   0  0  0  0  0  0  0  0  0  0  0  0
    0.6409    1.7346   -0.3466 H   0  0  0  0  0  0  0  0  0  0  0  0
   -0.7602    1.1200   -1.8432 C   0  0  0  0  0  0  0  0  0  0  0  0
   -0.4792    0.1983   -2.5894 O   0  0  0  0  0  0  0  0  0  0  0  0
   -1.4864    2.1122   -2.2976 N   0  0  0  0  0  0  0  0  0  0  0  0
   -1.7925    2.0342   -3.2515 H   0  0  0  0  0  0  0  0  0  0  0  0
   -1.7471    2.8726   -1.6986 H   0  0  0  0  0  0  0  0  0  0  0  0
    0.4075   -0.0985    1.7169 C   0  0  0  0  0  0  0  0  0  0  0  0
    1.5860   -0.3526    1.9662 O   0  0  0  0  0  0  0  0  0  0  0  0
   -0.4625    0.2583    2.6666 N   0  0  0  0  0  0  0  0  0  0  0  0
   -1.4309    0.3754    2.3860 H   0  0  0  0  0  0  0  0  0  0  0  0
   -0.1275    0.4111    4.0813 C   0  0  0  0  0  0  0  0  0  0  0  0
    0.6862    1.1312    4.1910 H   0  0  0  0  0  0  0  0  0  0  0  0
   -0.9980    0.7641    4.6360 H   0  0  0  0  0  0  0  0  0  0  0  0
    0.1959   -0.5481    4.4891 H   0  0  0  0  0  0  0  0  0  0  0  0
  5  6  2  0  0  0  0
  5  7  1  0  0  0  0
  2  3  1  0  0  0  0
  2  4  1  0  0  0  0
  2  5  1  0  0  0  0
  1  2  1  0  0  0  0
 19 20  2  0  0  0  0
 19 21  1  0  0  0  0
 16 17  1  0  0  0  0
 16 18  1  0  0  0  0
 14 15  2  0  0  0  0
 14 16  1  0  0  0  0
 11 12  1  0  0  0  0
 11 13  1  0  0  0  0
 11 14  1  0  0  0  0
  9 10  1  0  0  0  0
  9 11  1  0  0  0  0
  9 19  1  0  0  0  0
  7  8  1  0  0  0  0
  7  9  1  0  0  0  0
 23 24  1  0  0  0  0
 23 25  1  0  0  0  0
 23 26  1  0  0  0  0
 21 22  1  0  0  0  0
 21 23  1  0  0  0  0
M  END
$$$$
default_name
  -OEChem-02102213163D

 26 25  0     1  0  0  0  0  0999 V2000
   -3.0232   -3.6924    1.0038 H   0  0  0  0  0  0  0  0  0  0  0  0
   -3.0082   -2.6684    0.6318 C   0  0  0  0  0  0  0  0  0  0  0  0
   -3.6332   -2.0414    1.2658 H   0  0  0  0  0  0  0  0  0  0  0  0
   -3.3762   -2.6444   -0.3912 H   0  0  0  0  0  0  0  0  0  0  0  0
   -1.5882   -2.1554    0.6658 C   0  0  0  0  0  0  0  0  0  0  0  0
   -0.6832   -2.8764    1.0638 O   0  0  0  0  0  0  0  0  0  0  0  0
   -1.3952   -0.9084    0.2428 N   0  0  0  0  0  0  0  0  0  0  0  0
   -2.1972   -0.3644   -0.0422 H   0  0  0  0  0  0  0  0  0  0  0  0
   -0.1122   -0.1994    0.2658 C   0  0  1  0  0  0  0  0  0  0  0  0
    0.6131   -0.7748   -0.3153 H   0  0  0  0  0  0  0  0  0  0  0  0
   -0.2973    1.1841   -0.3966 C   0  0  0  0  0  0  0  0  0  0  0  0
   -1.0531    1.7448    0.1522 H   0  0  0  0  0  0  0  0  0  0  0  0
    0.6409    1.7346   -0.3466 H   0  0  0  0  0  0  0  0  0  0  0  0
   -0.7602    1.1200   -1.8432 C   0  0  0  0  0  0  0  0  0  0  0  0
   -0.7145    0.1008   -2.5098 O   0  0  0  0  0  0  0  0  0  0  0  0
   -1.2187    2.2205   -2.3881 N   0  0  0  0  0  0  0  0  0  0  0  0
   -1.5335    2.1439   -3.3393 H   0  0  0  0  0  0  0  0  0  0  0  0
   -1.2843    3.0672   -1.8553 H   0  0  0  0  0  0  0  0  0  0  0  0
    0.4075   -0.0985    1.7169 C   0  0  0  0  0  0  0  0  0  0  0  0
    1.5860   -0.3526    1.9662 O   0  0  0  0  0  0  0  0  0  0  0  0
   -0.4625    0.2583    2.6666 N   0  0  0  0  0  0  0  0  0  0  0  0
   -1.4309    0.3754    2.3860 H   0  0  0  0  0  0  0  0  0  0  0  0
   -0.1275    0.4111    4.0813 C   0  0  0  0  0  0  0  0  0  0  0  0
    0.6862    1.1312    4.1910 H   0  0  0  0  0  0  0  0  0  0  0  0
   -0.9980    0.7641    4.6360 H   0  0  0  0  0  0  0  0  0  0  0  0
    0.1959   -0.5481    4.4891 H   0  0  0  0  0  0  0  0  0  0  0  0
  5  6  2  0  0  0  0
  5  7  1  0  0  0  0
  2  3  1  0  0  0  0
  2  4  1  0  0  0  0
  2  5  1  0  0  0  0
  1  2  1  0  0  0  0
 19 20  2  0  0  0  0
 19 21  1  0  0  0  0
 16 17  1  0  0  0  0
 16 18  1  0  0  0  0
 14 15  2  0  0  0  0
 14 16  1  0  0  0  0
 11 12  1  0  0  0  0
 11 13  1  0  0  0  0
 11 14  1  0  0  0  0
  9 10  1  0  0  0  0
  9 11  1  0  0  0  0
  9 19  1  0  0  0  0
  7  8  1  0  0  0  0
  7  9  1  0  0  0  0
 23 24  1  0  0  0  0
 23 25  1  0  0  0  0
 23 26  1  0  0  0  0
 21 22  1  0  0  0  0
 21 23  1  0  0  0  0
M  END
$$$$
default_name
  -OEChem-02102213163D

 26 25  0     1  0  0  0  0  0999 V2000
   -3.0232   -3.6924    1.0038 H   0  0  0  0  0  0  0  0  0  0  0  0
   -3.0082   -2.6684    0.6318 C   0  0  0  0  0  0  0  0  0  0  0  0
   -3.6332   -2.0414    1.2658 H   0  0  0  0  0  0  0  0  0  0  0  0
   -3.3762   -2.6444   -0.3912 H   0  0  0  0  0  0  0  0  0  0  0  0
   -1.5882   -2.1554    0.6658 C   0  0  0  0  0  0  0  0  0  0  0  0
   -0.6832   -2.8764    1.0638 O   0  0  0  0  0  0  0  0  0  0  0  0
   -1.3952   -0.9084    0.2428 N   0  0  0  0  0  0  0  0  0  0  0  0
   -2.1972   -0.3644   -0.0422 H   0  0  0  0  0  0  0  0  0  0  0  0
   -0.1122   -0.1994    0.2658 C   0  0  1  0  0  0  0  0  0  0  0  0
    0.6131   -0.7748   -0.3153 H   0  0  0  0  0  0  0  0  0  0  0  0
   -0.2973    1.1841   -0.3966 C   0  0  0  0  0  0  0  0  0  0  0  0
   -1.0531    1.7448    0.1522 H   0  0  0  0  0  0  0  0  0  0  0  0
    0.6409    1.7346   -0.3466 H   0  0  0  0  0  0  0  0  0  0  0  0
   -0.7602    1.1200   -1.8432 C   0  0  0  0  0  0  0  0  0  0  0  0
   -0.9667    0.0707   -2.4277 O   0  0  0  0  0  0  0  0  0  0  0  0
   -0.9324    2.2521   -2.4811 N   0  0  0  0  0  0  0  0  0  0  0  0
   -1.2554    2.1793   -3.4298 H   0  0  0  0  0  0  0  0  0  0  0  0
   -0.7877    3.1288   -2.0170 H   0  0  0  0  0  0  0  0  0  0  0  0
    0.4075   -0.0985    1.7169 C   0  0  0  0  0  0  0  0  0  0  0  0
    1.5860   -0.3526    1.9662 O   0  0  0  0  0  0  0  0  0  0  0  0
   -0.4625    0.2583    2.6666 N   0  0  0  0  0  0  0  0  0  0  0  0
   -1.4309    0.3754    2.3860 H   0  0  0  0  0  0  0  0  0  0  0  0
   -0.1275    0.4111    4.0813 C   0  0  0  0  0  0  0  0  0  0  0  0
    0.6862    1.1312    4.1910 H   0  0  0  0  0  0  0  0  0  0  0  0
   -0.9980    0.7641    4.6360 H   0  0  0  0  0  0  0  0  0  0  0  0
    0.1959   -0.5481    4.4891 H   0  0  0  0  0  0  0  0  0  0  0  0
  5  6  2  0  0  0  0
  5  7  1  0  0  0  0
  2  3  1  0  0  0  0
  2  4  1  0  0  0  0
  2  5  1  0  0  0  0
  1  2  1  0  0  0  0
 19 20  2  0  0  0  0
 19 21  1  0  0  0  0
 16 17  1  0  0  0  0
 16 18  1  0  0  0  0
 14 15  2  0  0  0  0
 14 16  1  0  0  0  0
 11 12  1  0  0  0  0
 11 13  1  0  0  0  0
 11 14  1  0  0  0  0
  9 10  1  0  0  0  0
  9 11  1  0  0  0  0
  9 19  1  0  0  0  0
  7  8  1  0  0  0  0
  7  9  1  0  0  0  0
 23 24  1  0  0  0  0
 23 25  1  0  0  0  0
 23 26  1  0  0  0  0
 21 22  1  0  0  0  0
 21 23  1  0  0  0  0
M  END
$$$$
default_name
  -OEChem-02102213163D

 26 25  0     1  0  0  0  0  0999 V2000
   -3.0232   -3.6924    1.0038 H   0  0  0  0  0  0  0  0  0  0  0  0
   -3.0082   -2.6684    0.6318 C   0  0  0  0  0  0  0  0  0  0  0  0
   -3.6332   -2.0414    1.2658 H   0  0  0  0  0  0  0  0  0  0  0  0
   -3.3762   -2.6444   -0.3912 H   0  0  0  0  0  0  0  0  0  0  0  0
   -1.5882   -2.1554    0.6658 C   0  0  0  0  0  0  0  0  0  0  0  0
   -0.6832   -2.8764    1.0638 O   0  0  0  0  0  0  0  0  0  0  0  0
   -1.3952   -0.9084    0.2428 N   0  0  0  0  0  0  0  0  0  0  0  0
   -2.1972   -0.3644   -0.0422 H   0  0  0  0  0  0  0  0  0  0  0  0
   -0.1122   -0.1994    0.2658 C   0  0  1  0  0  0  0  0  0  0  0  0
    0.6131   -0.7748   -0.3153 H   0  0  0  0  0  0  0  0  0  0  0  0
   -0.2973    1.1841   -0.3966 C   0  0  0  0  0  0  0  0  0  0  0  0
   -1.0531    1.7448    0.1522 H   0  0  0  0  0  0  0  0  0  0  0  0
    0.6409    1.7346   -0.3466 H   0  0  0  0  0  0  0  0  0  0  0  0
   -0.7602    1.1200   -1.8432 C   0  0  0  0  0  0  0  0  0  0  0  0
   -1.2186    0.1103   -2.3489 O   0  0  0  0  0  0  0  0  0  0  0  0
   -0.6471    2.2048   -2.5703 N   0  0  0  0  0  0  0  0  0  0  0  0
   -0.9771    2.1378   -3.5170 H   0  0  0  0  0  0  0  0  0  0  0  0
   -0.2910    3.0533   -2.1725 H   0  0  0  0  0  0  0  0  0  0  0  0
    0.4075   -0.0985    1.7169 C   0  0  0  0  0  0  0  0  0  0  0  0
    1.5860   -0.3526    1.9662 O   0  0  0  0  0  0  0  0  0  0  0  0
   -0.4625    0.2583    2.6666 N   0  0  0  0  0  0  0  0  0  0  0  0
   -1.4309    0.3754    2.3860 H   0  0  0  0  0  0  0  0  0  0  0  0
   -0.1275    0.4111    4.0813 C   0  0  0  0  0  0  0  0  0  0  0  0
    0.6862    1.1312    4.1910 H   0  0  0  0  0  0  0  0  0  0  0  0
   -0.9980    0.7641    4.6360 H   0  0  0  0  0  0  0  0  0  0  0  0
    0.1959   -0.5481    4.4891 H   0  0  0  0  0  0  0  0  0  0  0  0
  5  6  2  0  0  0  0
  5  7  1  0  0  0  0
  2  3  1  0  0  0  0
  2  4  1  0  0  0  0
  2  5  1  0  0  0  0
  1  2  1  0  0  0  0
 19 20  2  0  0  0  0
 19 21  1  0  0  0  0
 16 17  1  0  0  0  0
 16 18  1  0  0  0  0
 14 15  2  0  0  0  0
 14 16  1  0  0  0  0
 11 12  1  0  0  0  0
 11 13  1  0  0  0  0
 11 14  1  0  0  0  0
  9 10  1  0  0  0  0
  9 11  1  0  0  0  0
  9 19  1  0  0  0  0
  7  8  1  0  0  0  0
  7  9  1  0  0  0  0
 23 24  1  0  0  0  0
 23 25  1  0  0  0  0
 23 26  1  0  0  0  0
 21 22  1  0  0  0  0
 21 23  1  0  0  0  0
M  END
$$$$
default_name
  -OEChem-02102213163D

 26 25  0     1  0  0  0  0  0999 V2000
   -3.0232   -3.6924    1.0038 H   0  0  0  0  0  0  0  0  0  0  0  0
   -3.0082   -2.6684    0.6318 C   0  0  0  0  0  0  0  0  0  0  0  0
   -3.6332   -2.0414    1.2658 H   0  0  0  0  0  0  0  0  0  0  0  0
   -3.3762   -2.6444   -0.3912 H   0  0  0  0  0  0  0  0  0  0  0  0
   -1.5882   -2.1554    0.6658 C   0  0  0  0  0  0  0  0  0  0  0  0
   -0.6832   -2.8764    1.0638 O   0  0  0  0  0  0  0  0  0  0  0  0
   -1.3952   -0.9084    0.2428 N   0  0  0  0  0  0  0  0  0  0  0  0
   -2.1972   -0.3644   -0.0422 H   0  0  0  0  0  0  0  0  0  0  0  0
   -0.1122   -0.1994    0.2658 C   0  0  1  0  0  0  0  0  0  0  0  0
    0.6131   -0.7748   -0.3153 H   0  0  0  0  0  0  0  0  0  0  0  0
   -0.2973    1.1841   -0.3966 C   0  0  0  0  0  0  0  0  0  0  0  0
   -1.0531    1.7448    0.1522 H   0  0  0  0  0  0  0  0  0  0  0  0
    0.6409    1.7346   -0.3466 H   0  0  0  0  0  0  0  0  0  0  0  0
   -0.7602    1.1200   -1.8432 C   0  0  0  0  0  0  0  0  0  0  0  0
   -1.4530    0.2168   -2.2786 O   0  0  0  0  0  0  0  0  0  0  0  0
   -0.3822    2.0818   -2.6496 N   0  0  0  0  0  0  0  0  0  0  0  0
   -0.7175    2.0223   -3.5950 H   0  0  0  0  0  0  0  0  0  0  0  0
    0.1718    2.8458   -2.3115 H   0  0  0  0  0  0  0  0  0  0  0  0
    0.4075   -0.0985    1.7169 C   0  0  0  0  0  0  0  0  0  0  0  0
    1.5860   -0.3526    1.9662 O   0  0  0  0  0  0  0  0  0  0  0  0
   -0.4625    0.2583    2.6666 N   0  0  0  0  0  0  0  0  0  0  0  0
   -1.4309    0.3754    2.3860 H   0  0  0  0  0  0  0  0  0  0  0  0
   -0.1275    0.4111    4.0813 C   0  0  0  0  0  0  0  0  0  0  0  0
    0.6862    1.1312    4.1910 H   0  0  0  0  0  0  0  0  0  0  0  0
   -0.9980    0.7641    4.6360 H   0  0  0  0  0  0  0  0  0  0  0  0
    0.1959   -0.5481    4.4891 H   0  0  0  0  0  0  0  0  0  0  0  0
  5  6  2  0  0  0  0
  5  7  1  0  0  0  0
  2  3  1  0  0  0  0
  2  4  1  0  0  0  0
  2  5  1  0  0  0  0
  1  2  1  0  0  0  0
 19 20  2  0  0  0  0
 19 21  1  0  0  0  0
 16 17  1  0  0  0  0
 16 18  1  0  0  0  0
 14 15  2  0  0  0  0
 14 16  1  0  0  0  0
 11 12  1  0  0  0  0
 11 13  1  0  0  0  0
 11 14  1  0  0  0  0
  9 10  1  0  0  0  0
  9 11  1  0  0  0  0
  9 19  1  0  0  0  0
  7  8  1  0  0  0  0
  7  9  1  0  0  0  0
 23 24  1  0  0  0  0
 23 25  1  0  0  0  0
 23 26  1  0  0  0  0
 21 22  1  0  0  0  0
 21 23  1  0  0  0  0
M  END
$$$$
default_name
  -OEChem-02102213163D

 26 25  0     1  0  0  0  0  0999 V2000
   -3.0232   -3.6924    1.0038 H   0  0  0  0  0  0  0  0  0  0  0  0
   -3.0082   -2.6684    0.6318 C   0  0  0  0  0  0  0  0  0  0  0  0
   -3.6332   -2.0414    1.2658 H   0  0  0  0  0  0  0  0  0  0  0  0
   -3.3762   -2.6444   -0.3912 H   0  0  0  0  0  0  0  0  0  0  0  0
   -1.5882   -2.1554    0.6658 C   0  0  0  0  0  0  0  0  0  0  0  0
   -0.6832   -2.8764    1.0638 O   0  0  0  0  0  0  0  0  0  0  0  0
   -1.3952   -0.9084    0.2428 N   0  0  0  0  0  0  0  0  0  0  0  0
   -2.1972   -0.3644   -0.0422 H   0  0  0  0  0  0  0  0  0  0  0  0
   -0.1122   -0.1994    0.2658 C   0  0  1  0  0  0  0  0  0  0  0  0
    0.6131   -0.7748   -0.3153 H   0  0  0  0  0  0  0  0  0  0  0  0
   -0.2973    1.1841   -0.3966 C   0  0  0  0  0  0  0  0  0  0  0  0
   -1.0531    1.7448    0.1522 H   0  0  0  0  0  0  0  0  0  0  0  0
    0.6409    1.7346   -0.3466 H   0  0  0  0  0  0  0  0  0  0  0  0
   -0.7602    1.1200   -1.8432 C   0  0  0  0  0  0  0  0  0  0  0  0
   -1.6540    0.3829   -2.2217 O   0  0  0  0  0  0  0  0  0  0  0  0
   -0.1558    1.8915   -2.7137 N   0  0  0  0  0  0  0  0  0  0  0  0
   -0.4944    1.8406   -3.6583 H   0  0  0  0  0  0  0  0  0  0  0  0
    0.5693    2.5204   -2.4242 H   0  0  0  0  0  0  0  0  0  0  0  0
    0.4075   -0.0985    1.7169 C   0  0  0  0  0  0  0  0  0  0  0  0
    1.5860   -0.3526    1.9662 O   0  0  0  0  0  0  0  0  0  0  0  0
   -0.4625    0.2583    2.6666 N   0  0  0  0  0  0  0  0  0  0  0  0
   -1.4309    0.3754    2.3860 H   0  0  0  0  0  0  0  0  0  0  0  0
   -0.1275    0.4111    4.0813 C   0  0  0  0  0  0  0  0  0  0  0  0
    0.6862    1.1312    4.1910 H   0  0  0  0  0  0  0  0  0  0  0  0
   -0.9980    0.7641    4.6360 H   0  0  0  0  0  0  0  0  0  0  0  0
    0.1959   -0.5481    4.4891 H   0  0  0  0  0  0  0  0  0  0  0  0
  5  6  2  0  0  0  0
  5  7  1  0  0  0  0
  2  3  1  0  0  0  0
  2  4  1  0  0  0  0
  2  5  1  0  0  0  0
  1  2  1  0  0  0  0
 19 20  2  0  0  0  0
 19 21  1  0  0  0  0
 16 17  1  0  0  0  0
 16 18  1  0  0  0  0
 14 15  2  0  0  0  0
 14 16  1  0  0  0  0
 11 12  1  0  0  0  0
 11 13  1  0  0  0  0
 11 14  1  0  0  0  0
  9 10  1  0  0  0  0
  9 11  1  0  0  0  0
  9 19  1  0  0  0  0
  7  8  1  0  0  0  0
  7  9  1  0  0  0  0
 23 24  1  0  0  0  0
 23 25  1  0  0  0  0
 23 26  1  0  0  0  0
 21 22  1  0  0  0  0
 21 23  1  0  0  0  0
M  END
$$$$
default_name
  -OEChem-02102213163D

 26 25  0     1  0  0  0  0  0999 V2000
   -3.0232   -3.6924    1.0038 H   0  0  0  0  0  0  0  0  0  0  0  0
   -3.0082   -2.6684    0.6318 C   0  0  0  0  0  0  0  0  0  0  0  0
   -3.6332   -2.0414    1.2658 H   0  0  0  0  0  0  0  0  0  0  0  0
   -3.3762   -2.6444   -0.3912 H   0  0  0  0  0  0  0  0  0  0  0  0
   -1.5882   -2.1554    0.6658 C   0  0  0  0  0  0  0  0  0  0  0  0
   -0.6832   -2.8764    1.0638 O   0  0  0  0  0  0  0  0  0  0  0  0
   -1.3952   -0.9084    0.2428 N   0  0  0  0  0  0  0  0  0  0  0  0
   -2.1972   -0.3644   -0.0422 H   0  0  0  0  0  0  0  0  0  0  0  0
   -0.1122   -0.1994    0.2658 C   0  0  1  0  0  0  0  0  0  0  0  0
    0.6131   -0.7748   -0.3153 H   0  0  0  0  0  0  0  0  0  0  0  0
   -0.2973    1.1841   -0.3966 C   0  0  0  0  0  0  0  0  0  0  0  0
   -1.0531    1.7448    0.1522 H   0  0  0  0  0  0  0  0  0  0  0  0
    0.6409    1.7346   -0.3466 H   0  0  0  0  0  0  0  0  0  0  0  0
   -0.7602    1.1200   -1.8432 C   0  0  0  0  0  0  0  0  0  0  0  0
   -1.8078    0.5974   -2.1820 O   0  0  0  0  0  0  0  0  0  0  0  0
    0.0168    1.6468   -2.7580 N   0  0  0  0  0  0  0  0  0  0  0  0
   -0.3229    1.6052   -3.7028 H   0  0  0  0  0  0  0  0  0  0  0  0
    0.8743    2.0993   -2.5032 H   0  0  0  0  0  0  0  0  0  0  0  0
    0.4075   -0.0985    1.7169 C   0  0  0  0  0  0  0  0  0  0  0  0
    1.5860   -0.3526    1.9662 O   0  0  0  0  0  0  0  0  0  0  0  0
   -0.4625    0.2583    2.6666 N   0  0  0  0  0  0  0  0  0  0  0  0
   -1.4309    0.3754    2.3860 H   0  0  0  0  0  0  0  0  0  0  0  0
   -0.1275    0.4111    4.0813 C   0  0  0  0  0  0  0  0  0  0  0  0
    0.6862    1.1312    4.1910 H   0  0  0  0  0  0  0  0  0  0  0  0
   -0.9980    0.7641    4.6360 H   0  0  0  0  0  0  0  0  0  0  0  0
    0.1959   -0.5481    4.4891 H   0  0  0  0  0  0  0  0  0  0  0  0
  5  6  2  0  0  0  0
  5  7  1  0  0  0  0
  2  3  1  0  0  0  0
  2  4  1  0  0  0  0
  2  5  1  0  0  0  0
  1  2  1  0  0  0  0
 19 20  2  0  0  0  0
 19 21  1  0  0  0  0
 16 17  1  0  0  0  0
 16 18  1  0  0  0  0
 14 15  2  0  0  0  0
 14 16  1  0  0  0  0
 11 12  1  0  0  0  0
 11 13  1  0  0  0  0
 11 14  1  0  0  0  0
  9 10  1  0  0  0  0
  9 11  1  0  0  0  0
  9 19  1  0  0  0  0
  7  8  1  0  0  0  0
  7  9  1  0  0  0  0
 23 24  1  0  0  0  0
 23 25  1  0  0  0  0
 23 26  1  0  0  0  0
 21 22  1  0  0  0  0
 21 23  1  0  0  0  0
M  END
$$$$
default_name
  -OEChem-02102213163D

 26 25  0     1  0  0  0  0  0999 V2000
   -3.0232   -3.6924    1.0038 H   0  0  0  0  0  0  0  0  0  0  0  0
   -3.0082   -2.6684    0.6318 C   0  0  0  0  0  0  0  0  0  0  0  0
   -3.6332   -2.0414    1.2658 H   0  0  0  0  0  0  0  0  0  0  0  0
   -3.3762   -2.6444   -0.3912 H   0  0  0  0  0  0  0  0  0  0  0  0
   -1.5882   -2.1554    0.6658 C   0  0  0  0  0  0  0  0  0  0  0  0
   -0.6832   -2.8764    1.0638 O   0  0  0  0  0  0  0  0  0  0  0  0
   -1.3952   -0.9084    0.2428 N   0  0  0  0  0  0  0  0  0  0  0  0
   -2.1972   -0.3644   -0.0422 H   0  0  0  0  0  0  0  0  0  0  0  0
   -0.1122   -0.1994    0.2658 C   0  0  1  0  0  0  0  0  0  0  0  0
    0.6131   -0.7748   -0.3153 H   0  0  0  0  0  0  0  0  0  0  0  0
   -0.2973    1.1841   -0.3966 C   0  0  0  0  0  0  0  0  0  0  0  0
   -1.0531    1.7448    0.1522 H   0  0  0  0  0  0  0  0  0  0  0  0
    0.6409    1.7346   -0.3466 H   0  0  0  0  0  0  0  0  0  0  0  0
   -0.7602    1.1200   -1.8432 C   0  0  0  0  0  0  0  0  0  0  0  0
   -1.9040    0.8455   -2.1622 O   0  0  0  0  0  0  0  0  0  0  0  0
    0.1237    1.3645   -2.7797 N   0  0  0  0  0  0  0  0  0  0  0  0
   -0.2148    1.3321   -3.7253 H   0  0  0  0  0  0  0  0  0  0  0  0
    1.0661    1.6112   -2.5429 H   0  0  0  0  0  0  0  0  0  0  0  0
    0.4075   -0.0985    1.7169 C   0  0  0  0  0  0  0  0  0  0  0  0
    1.5860   -0.3526    1.9662 O   0  0  0  0  0  0  0  0  0  0  0  0
   -0.4625    0.2583    2.6666 N   0  0  0  0  0  0  0  0  0  0  0  0
   -1.4309    0.3754    2.3860 H   0  0  0  0  0  0  0  0  0  0  0  0
   -0.1275    0.4111    4.0813 C   0  0  0  0  0  0  0  0  0  0  0  0
    0.6862    1.1312    4.1910 H   0  0  0  0  0  0  0  0  0  0  0  0
   -0.9980    0.7641    4.6360 H   0  0  0  0  0  0  0  0  0  0  0  0
    0.1959   -0.5481    4.4891 H   0  0  0  0  0  0  0  0  0  0  0  0
  5  6  2  0  0  0  0
  5  7  1  0  0  0  0
  2  3  1  0  0  0  0
  2  4  1  0  0  0  0
  2  5  1  0  0  0  0
  1  2  1  0  0  0  0
 19 20  2  0  0  0  0
 19 21  1  0  0  0  0
 16 17  1  0  0  0  0
 16 18  1  0  0  0  0
 14 15  2  0  0  0  0
 14 16  1  0  0  0  0
 11 12  1  0  0  0  0
 11 13  1  0  0  0  0
 11 14  1  0  0  0  0
  9 10  1  0  0  0  0
  9 11  1  0  0  0  0
  9 19  1  0  0  0  0
  7  8  1  0  0  0  0
  7  9  1  0  0  0  0
 23 24  1  0  0  0  0
 23 25  1  0  0  0  0
 23 26  1  0  0  0  0
 21 22  1  0  0  0  0
 21 23  1  0  0  0  0
M  END
$$$$
default_name
  -OEChem-02102213163D

 26 25  0     1  0  0  0  0  0999 V2000
   -3.0232   -3.6924    1.0038 H   0  0  0  0  0  0  0  0  0  0  0  0
   -3.0082   -2.6684    0.6318 C   0  0  0  0  0  0  0  0  0  0  0  0
   -3.6332   -2.0414    1.2658 H   0  0  0  0  0  0  0  0  0  0  0  0
   -3.3762   -2.6444   -0.3912 H   0  0  0  0  0  0  0  0  0  0  0  0
   -1.5882   -2.1554    0.6658 C   0  0  0  0  0  0  0  0  0  0  0  0
   -0.6832   -2.8764    1.0638 O   0  0  0  0  0  0  0  0  0  0  0  0
   -1.3952   -0.9084    0.2428 N   0  0  0  0  0  0  0  0  0  0  0  0
   -2.1972   -0.3644   -0.0422 H   0  0  0  0  0  0  0  0  0  0  0  0
   -0.1122   -0.1994    0.2658 C   0  0  1  0  0  0  0  0  0  0  0  0
    0.6131   -0.7748   -0.3153 H   0  0  0  0  0  0  0  0  0  0  0  0
   -0.2973    1.1841   -0.3966 C   0  0  0  0  0  0  0  0  0  0  0  0
   -1.0531    1.7448    0.1522 H   0  0  0  0  0  0  0  0  0  0  0  0
    0.6409    1.7346   -0.3466 H   0  0  0  0  0  0  0  0  0  0  0  0
   -0.7602    1.1200   -1.8432 C   0  0  0  0  0  0  0  0  0  0  0  0
   -1.9360    1.1105   -2.1637 O   0  0  0  0  0  0  0  0  0  0  0  0
    0.1577    1.0638   -2.7773 N   0  0  0  0  0  0  0  0  0  0  0  0
   -0.1773    1.0399   -3.7243 H   0  0  0  0  0  0  0  0  0  0  0  0
    1.1316    1.0894   -2.5407 H   0  0  0  0  0  0  0  0  0  0  0  0
    0.4075   -0.0985    1.7169 C   0  0  0  0  0  0  0  0  0  0  0  0
    1.5860   -0.3526    1.9662 O   0  0  0  0  0  0  0  0  0  0  0  0
   -0.4625    0.2583    2.6666 N   0  0  0  0  0  0  0  0  0  0  0  0
   -1.4309    0.3754    2.3860 H   0  0  0  0  0  0  0  0  0  0  0  0
   -0.1275    0.4111    4.0813 C   0  0  0  0  0  0  0  0  0  0  0  0
    0.6862    1.1312    4.1910 H   0  0  0  0  0  0  0  0  0  0  0  0
   -0.9980    0.7641    4.6360 H   0  0  0  0  0  0  0  0  0  0  0  0
    0.1959   -0.5481    4.4891 H   0  0  0  0  0  0  0  0  0  0  0  0
  5  6  2  0  0  0  0
  5  7  1  0  0  0  0
  2  3  1  0  0  0  0
  2  4  1  0  0  0  0
  2  5  1  0  0  0  0
  1  2  1  0  0  0  0
 19 20  2  0  0  0  0
 19 21  1  0  0  0  0
 16 17  1  0  0  0  0
 16 18  1  0  0  0  0
 14 15  2  0  0  0  0
 14 16  1  0  0  0  0
 11 12  1  0  0  0  0
 11 13  1  0  0  0  0
 11 14  1  0  0  0  0
  9 10  1  0  0  0  0
  9 11  1  0  0  0  0
  9 19  1  0  0  0  0
  7  8  1  0  0  0  0
  7  9  1  0  0  0  0
 23 24  1  0  0  0  0
 23 25  1  0  0  0  0
 23 26  1  0  0  0  0
 21 22  1  0  0  0  0
 21 23  1  0  0  0  0
M  END
$$$$
default_name
  -OEChem-02102213163D

 26 25  0     1  0  0  0  0  0999 V2000
   -3.0232   -3.6924    1.0038 H   0  0  0  0  0  0  0  0  0  0  0  0
   -3.0082   -2.6684    0.6318 C   0  0  0  0  0  0  0  0  0  0  0  0
   -3.6332   -2.0414    1.2658 H   0  0  0  0  0  0  0  0  0  0  0  0
   -3.3762   -2.6444   -0.3912 H   0  0  0  0  0  0  0  0  0  0  0  0
   -1.5882   -2.1554    0.6658 C   0  0  0  0  0  0  0  0  0  0  0  0
   -0.6832   -2.8764    1.0638 O   0  0  0  0  0  0  0  0  0  0  0  0
   -1.3952   -0.9084    0.2428 N   0  0  0  0  0  0  0  0  0  0  0  0
   -2.1972   -0.3644   -0.0422 H   0  0  0  0  0  0  0  0  0  0  0  0
   -0.1122   -0.1994    0.2658 C   0  0  1  0  0  0  0  0  0  0  0  0
    0.6131   -0.7748   -0.3153 H   0  0  0  0  0  0  0  0  0  0  0  0
   -0.2973    1.1841   -0.3966 C   0  0  0  0  0  0  0  0  0  0  0  0
   -1.0531    1.7448    0.1522 H   0  0  0  0  0  0  0  0  0  0  0  0
    0.6409    1.7346   -0.3466 H   0  0  0  0  0  0  0  0  0  0  0  0
   -0.7602    1.1200   -1.8432 C   0  0  0  0  0  0  0  0  0  0  0  0
   -1.9017    1.3742   -2.1863 O   0  0  0  0  0  0  0  0  0  0  0  0
    0.1165    0.7651   -2.7508 N   0  0  0  0  0  0  0  0  0  0  0  0
   -0.2131    0.7485   -3.6999 H   0  0  0  0  0  0  0  0  0  0  0  0
    1.0663    0.5694   -2.4968 H   0  0  0  0  0  0  0  0  0  0  0  0
    0.4075   -0.0985    1.7169 C   0  0  0  0  0  0  0  0  0  0  0  0
    1.5860   -0.3526    1.9662 O   0  0  0  0  0  0  0  0  0  0  0  0
   -0.4625    0.2583    2.6666 N   0  0  0  0  0  0  0  0  0  0  0  0
   -1.4309    0.3754    2.3860 H   0  0  0  0  0  0  0  0  0  0  0  0
   -0.1275    0.4111    4.0813 C   0  0  0  0  0  0  0  0  0  0  0  0
    0.6862    1.1312    4.1910 H   0  0  0  0  0  0  0  0  0  0  0  0
   -0.9980    0.7641    4.6360 H   0  0  0  0  0  0  0  0  0  0  0  0
    0.1959   -0.5481    4.4891 H   0  0  0  0  0  0  0  0  0  0  0  0
  5  6  2  0  0  0  0
  5  7  1  0  0  0  0
  2  3  1  0  0  0  0
  2  4  1  0  0  0  0
  2  5  1  0  0  0  0
  1  2  1  0  0  0  0
 19 20  2  0  0  0  0
 19 21  1  0  0  0  0
 16 17  1  0  0  0  0
 16 18  1  0  0  0  0
 14 15  2  0  0  0  0
 14 16  1  0  0  0  0
 11 12  1  0  0  0  0
 11 13  1  0  0  0  0
 11 14  1  0  0  0  0
  9 10  1  0  0  0  0
  9 11  1  0  0  0  0
  9 19  1  0  0  0  0
  7  8  1  0  0  0  0
  7  9  1  0  0  0  0
 23 24  1  0  0  0  0
 23 25  1  0  0  0  0
 23 26  1  0  0  0  0
 21 22  1  0  0  0  0
 21 23  1  0  0  0  0
M  END
$$$$
default_name
  -OEChem-02102213163D

 26 25  0     1  0  0  0  0  0999 V2000
   -3.0232   -3.6924    1.0038 H   0  0  0  0  0  0  0  0  0  0  0  0
   -3.0082   -2.6684    0.6318 C   0  0  0  0  0  0  0  0  0  0  0  0
   -3.6332   -2.0414    1.2658 H   0  0  0  0  0  0  0  0  0  0  0  0
   -3.3762   -2.6444   -0.3912 H   0  0  0  0  0  0  0  0  0  0  0  0
   -1.5882   -2.1554    0.6658 C   0  0  0  0  0  0  0  0  0  0  0  0
   -0.6832   -2.8764    1.0638 O   0  0  0  0  0  0  0  0  0  0  0  0
   -1.3952   -0.9084    0.2428 N   0  0  0  0  0  0  0  0  0  0  0  0
   -2.1972   -0.3644   -0.0422 H   0  0  0  0  0  0  0  0  0  0  0  0
   -0.1122   -0.1994    0.2658 C   0  0  1  0  0  0  0  0  0  0  0  0
    0.6131   -0.7748   -0.3153 H   0  0  0  0  0  0  0  0  0  0  0  0
   -0.2973    1.1841   -0.3966 C   0  0  0  0  0  0  0  0  0  0  0  0
   -1.0531    1.7448    0.1522 H   0  0  0  0  0  0  0  0  0  0  0  0
    0.6409    1.7346   -0.3466 H   0  0  0  0  0  0  0  0  0  0  0  0
   -0.7602    1.1200   -1.8432 C   0  0  0  0  0  0  0  0  0  0  0  0
   -1.8033    1.6186   -2.2287 O   0  0  0  0  0  0  0  0  0  0  0  0
    0.0027    0.4889   -2.7022 N   0  0  0  0  0  0  0  0  0  0  0  0
   -0.3198    0.4778   -3.6538 H   0  0  0  0  0  0  0  0  0  0  0  0
    0.8747    0.0867   -2.4141 H   0  0  0  0  0  0  0  0  0  0  0  0
    0.4075   -0.0985    1.7169 C   0  0  0  0  0  0  0  0  0  0  0  0
    1.5860   -0.3526    1.9662 O   0  0  0  0  0  0  0  0  0  0  0  0
   -0.4625    0.2583    2.6666 N   0  0  0  0  0  0  0  0  0  0  0  0
   -1.4309    0.3754    2.3860 H   0  0  0  0  0  0  0  0  0  0  0  0
   -0.1275    0.4111    4.0813 C   0  0  0  0  0  0  0  0  0  0  0  0
    0.6862    1.1312    4.1910 H   0  0  0  0  0  0  0  0  0  0  0  0
   -0.9980    0.7641    4.6360 H   0  0  0  0  0  0  0  0  0  0  0  0
    0.1959   -0.5481    4.4891 H   0  0  0  0  0  0  0  0  0  0  0  0
  5  6  2  0  0  0  0
  5  7  1  0  0  0  0
  2  3  1  0  0  0  0
  2  4  1  0  0  0  0
  2  5  1  0  0  0  0
  1  2  1  0  0  0  0
 19 20  2  0  0  0  0
 19 21  1  0  0  0  0
 16 17  1  0  0  0  0
 16 18  1  0  0  0  0
 14 15  2  0  0  0  0
 14 16  1  0  0  0  0
 11 12  1  0  0  0  0
 11 13  1  0  0  0  0
 11 14  1  0  0  0  0
  9 10  1  0  0  0  0
  9 11  1  0  0  0  0
  9 19  1  0  0  0  0
  7  8  1  0  0  0  0
  7  9  1  0  0  0  0
 23 24  1  0  0  0  0
 23 25  1  0  0  0  0
 23 26  1  0  0  0  0
 21 22  1  0  0  0  0
 21 23  1  0  0  0  0
M  END
$$$$
default_name
  -OEChem-02102213163D

 26 25  0     1  0  0  0  0  0999 V2000
   -3.0232   -3.6924    1.0038 H   0  0  0  0  0  0  0  0  0  0  0  0
   -3.0082   -2.6684    0.6318 C   0  0  0  0  0  0  0  0  0  0  0  0
   -3.6332   -2.0414    1.2658 H   0  0  0  0  0  0  0  0  0  0  0  0
   -3.3762   -2.6444   -0.3912 H   0  0  0  0  0  0  0  0  0  0  0  0
   -1.5882   -2.1554    0.6658 C   0  0  0  0  0  0  0  0  0  0  0  0
   -0.6832   -2.8764    1.0638 O   0  0  0  0  0  0  0  0  0  0  0  0
   -1.3952   -0.9084    0.2428 N   0  0  0  0  0  0  0  0  0  0  0  0
   -2.1972   -0.3644   -0.0422 H   0  0  0  0  0  0  0  0  0  0  0  0
   -0.1122   -0.1994    0.2658 C   0  0  1  0  0  0  0  0  0  0  0  0
    0.6131   -0.7748   -0.3153 H   0  0  0  0  0  0  0  0  0  0  0  0
   -0.2973    1.1841   -0.3966 C   0  0  0  0  0  0  0  0  0  0  0  0
   -1.0531    1.7448    0.1522 H   0  0  0  0  0  0  0  0  0  0  0  0
    0.6409    1.7346   -0.3466 H   0  0  0  0  0  0  0  0  0  0  0  0
   -0.7602    1.1200   -1.8432 C   0  0  0  0  0  0  0  0  0  0  0  0
   -1.6476    1.8272   -2.2877 O   0  0  0  0  0  0  0  0  0  0  0  0
   -0.1756    0.2539   -2.6347 N   0  0  0  0  0  0  0  0  0  0  0  0
   -0.4899    0.2462   -3.5891 H   0  0  0  0  0  0  0  0  0  0  0  0
    0.5698   -0.3259   -2.2982 H   0  0  0  0  0  0  0  0  0  0  0  0
    0.4075   -0.0985    1.7169 C   0  0  0  0  0  0  0  0  0  0  0  0
    1.5860   -0.3526    1.9662 O   0  0  0  0  0  0  0  0  0  0  0  0
   -0.4625    0.2583    2.6666 N   0  0  0  0  0  0  0  0  0  0  0  0
   -1.4309    0.3754    2.3860 H   0  0  0  0  0  0  0  0  0  0  0  0
   -0.1275    0.4111    4.0813 C   0  0  0  0  0  0  0  0  0  0  0  0
    0.6862    1.1312    4.1910 H   0  0  0  0  0  0  0  0  0  0  0  0
   -0.9980    0.7641    4.6360 H   0  0  0  0  0  0  0  0  0  0  0  0
    0.1959   -0.5481    4.4891 H   0  0  0  0  0  0  0  0  0  0  0  0
  5  6  2  0  0  0  0
  5  7  1  0  0  0  0
  2  3  1  0  0  0  0
  2  4  1  0  0  0  0
  2  5  1  0  0  0  0
  1  2  1  0  0  0  0
 19 20  2  0  0  0  0
 19 21  1  0  0  0  0
 16 17  1  0  0  0  0
 16 18  1  0  0  0  0
 14 15  2  0  0  0  0
 14 16  1  0  0  0  0
 11 12  1  0  0  0  0
 11 13  1  0  0  0  0
 11 14  1  0  0  0  0
  9 10  1  0  0  0  0
  9 11  1  0  0  0  0
  9 19  1  0  0  0  0
  7  8  1  0  0  0  0
  7  9  1  0  0  0  0
 23 24  1  0  0  0  0
 23 25  1  0  0  0  0
 23 26  1  0  0  0  0
 21 22  1  0  0  0  0
 21 23  1  0  0  0  0
M  END
$$$$
default_name
  -OEChem-02102213163D

 26 25  0     1  0  0  0  0  0999 V2000
   -3.0232   -3.6924    1.0038 H   0  0  0  0  0  0  0  0  0  0  0  0
   -3.0082   -2.6684    0.6318 C   0  0  0  0  0  0  0  0  0  0  0  0
   -3.6332   -2.0414    1.2658 H   0  0  0  0  0  0  0  0  0  0  0  0
   -3.3762   -2.6444   -0.3912 H   0  0  0  0  0  0  0  0  0  0  0  0
   -1.5882   -2.1554    0.6658 C   0  0  0  0  0  0  0  0  0  0  0  0
   -0.6832   -2.8764    1.0638 O   0  0  0  0  0  0  0  0  0  0  0  0
   -1.3952   -0.9084    0.2428 N   0  0  0  0  0  0  0  0  0  0  0  0
   -2.1972   -0.3644   -0.0422 H   0  0  0  0  0  0  0  0  0  0  0  0
   -0.1122   -0.1994    0.2658 C   0  0  1  0  0  0  0  0  0  0  0  0
    0.6131   -0.7748   -0.3153 H   0  0  0  0  0  0  0  0  0  0  0  0
   -0.2973    1.1841   -0.3966 C   0  0  0  0  0  0  0  0  0  0  0  0
   -1.0531    1.7448    0.1522 H   0  0  0  0  0  0  0  0  0  0  0  0
    0.6409    1.7346   -0.3466 H   0  0  0  0  0  0  0  0  0  0  0  0
   -0.7602    1.1200   -1.8432 C   0  0  0  0  0  0  0  0  0  0  0  0
   -1.4452    1.9857   -2.3595 O   0  0  0  0  0  0  0  0  0  0  0  0
   -0.4066    0.0762   -2.5529 N   0  0  0  0  0  0  0  0  0  0  0  0
   -0.7121    0.0694   -3.5102 H   0  0  0  0  0  0  0  0  0  0  0  0
    0.1724   -0.6402   -2.1571 H   0  0  0  0  0  0  0  0  0  0  0  0
    0.4075   -0.0985    1.7169 C   0  0  0  0  0  0  0  0  0  0  0  0
    1.5860   -0.3526    1.9662 O   0  0  0  0  0  0  0  0  0  0  0  0
   -0.4625    0.2583    2.6666 N   0  0  0  0  0  0  0  0  0  0  0  0
   -1.4309    0.3754    2.3860 H   0  0  0  0  0  0  0  0  0  0  0  0
   -0.1275    0.4111    4.0813 C   0  0  0  0  0  0  0  0  0  0  0  0
    0.6862    1.1312    4.1910 H   0  0  0  0  0  0  0  0  0  0  0  0
   -0.9980    0.7641    4.6360 H   0  0  0  0  0  0  0  0  0  0  0  0
    0.1959   -0.5481    4.4891 H   0  0  0  0  0  0  0  0  0  0  0  0
  5  6  2  0  0  0  0
  5  7  1  0  0  0  0
  2  3  1  0  0  0  0
  2  4  1  0  0  0  0
  2  5  1  0  0  0  0
  1  2  1  0  0  0  0
 19 20  2  0  0  0  0
 19 21  1  0  0  0  0
 16 17  1  0  0  0  0
 16 18  1  0  0  0  0
 14 15  2  0  0  0  0
 14 16  1  0  0  0  0
 11 12  1  0  0  0  0
 11 13  1  0  0  0  0
 11 14  1  0  0  0  0
  9 10  1  0  0  0  0
  9 11  1  0  0  0  0
  9 19  1  0  0  0  0
  7  8  1  0  0  0  0
  7  9  1  0  0  0  0
 23 24  1  0  0  0  0
 23 25  1  0  0  0  0
 23 26  1  0  0  0  0
 21 22  1  0  0  0  0
 21 23  1  0  0  0  0
M  END
$$$$
default_name
  -OEChem-02102213163D

 26 25  0     1  0  0  0  0  0999 V2000
   -3.0232   -3.6924    1.0038 H   0  0  0  0  0  0  0  0  0  0  0  0
   -3.0082   -2.6684    0.6318 C   0  0  0  0  0  0  0  0  0  0  0  0
   -3.6332   -2.0414    1.2658 H   0  0  0  0  0  0  0  0  0  0  0  0
   -3.3762   -2.6444   -0.3912 H   0  0  0  0  0  0  0  0  0  0  0  0
   -1.5882   -2.1554    0.6658 C   0  0  0  0  0  0  0  0  0  0  0  0
   -0.6832   -2.8764    1.0638 O   0  0  0  0  0  0  0  0  0  0  0  0
   -1.3952   -0.9084    0.2428 N   0  0  0  0  0  0  0  0  0  0  0  0
   -2.1972   -0.3644   -0.0422 H   0  0  0  0  0  0  0  0  0  0  0  0
   -0.1122   -0.1994    0.2658 C   0  0  1  0  0  0  0  0  0  0  0  0
    0.6131   -0.7748   -0.3153 H   0  0  0  0  0  0  0  0  0  0  0  0
   -0.2973    1.1841   -0.3966 C   0  0  0  0  0  0  0  0  0  0  0  0
   -1.0531    1.7448    0.1522 H   0  0  0  0  0  0  0  0  0  0  0  0
    0.6409    1.7346   -0.3466 H   0  0  0  0  0  0  0  0  0  0  0  0
   -0.7602    1.1200   -1.8432 C   0  0  0  0  0  0  0  0  0  0  0  0
   -1.2099    2.0832   -2.4391 O   0  0  0  0  0  0  0  0  0  0  0  0
   -0.6743   -0.0322   -2.4625 N   0  0  0  0  0  0  0  0  0  0  0  0
   -0.9710   -0.0403   -3.4224 H   0  0  0  0  0  0  0  0  0  0  0  0
   -0.2904   -0.8348   -2.0004 H   0  0  0  0  0  0  0  0  0  0  0  0
    0.4075   -0.0985    1.7169 C   0  0  0  0  0  0  0  0  0  0  0  0
    1.5860   -0.3526    1.9662 O   0  0  0  0  0  0  0  0  0  0  0  0
   -0.4625    0.2583    2.6666 N   0  0  0  0  0  0  0  0  0  0  0  0
   -1.4309    0.3754    2.3860 H   0  0  0  0  0  0  0  0  0  0  0  0
   -0.1275    0.4111    4.0813 C   0  0  0  0  0  0  0  0  0  0  0  0
    0.6862    1.1312    4.1910 H   0  0  0  0  0  0  0  0  0  0  0  0
   -0.9980    0.7641    4.6360 H   0  0  0  0  0  0  0  0  0  0  0  0
    0.1959   -0.5481    4.4891 H   0  0  0  0  0  0  0  0  0  0  0  0
  5  6  2  0  0  0  0
  5  7  1  0  0  0  0
  2  3  1  0  0  0  0
  2  4  1  0  0  0  0
  2  5  1  0  0  0  0
  1  2  1  0  0  0  0
 19 20  2  0  0  0  0
 19 21  1  0  0  0  0
 16 17  1  0  0  0  0
 16 18  1  0  0  0  0
 14 15  2  0  0  0  0
 14 16  1  0  0  0  0
 11 12  1  0  0  0  0
 11 13  1  0  0  0  0
 11 14  1  0  0  0  0
  9 10  1  0  0  0  0
  9 11  1  0  0  0  0
  9 19  1  0  0  0  0
  7  8  1  0  0  0  0
  7  9  1  0  0  0  0
 23 24  1  0  0  0  0
 23 25  1  0  0  0  0
 23 26  1  0  0  0  0
 21 22  1  0  0  0  0
 21 23  1  0  0  0  0
M  END
$$$$
default_name
  -OEChem-02102213163D

 26 25  0     1  0  0  0  0  0999 V2000
   -3.0232   -3.6924    1.0038 H   0  0  0  0  0  0  0  0  0  0  0  0
   -3.0082   -2.6684    0.6318 C   0  0  0  0  0  0  0  0  0  0  0  0
   -3.6332   -2.0414    1.2658 H   0  0  0  0  0  0  0  0  0  0  0  0
   -3.3762   -2.6444   -0.3912 H   0  0  0  0  0  0  0  0  0  0  0  0
   -1.5882   -2.1554    0.6658 C   0  0  0  0  0  0  0  0  0  0  0  0
   -0.6832   -2.8764    1.0638 O   0  0  0  0  0  0  0  0  0  0  0  0
   -1.3952   -0.9084    0.2428 N   0  0  0  0  0  0  0  0  0  0  0  0
   -2.1972   -0.3644   -0.0422 H   0  0  0  0  0  0  0  0  0  0  0  0
   -0.1122   -0.1994    0.2658 C   0  0  1  0  0  0  0  0  0  0  0  0
    0.6131   -0.7748   -0.3153 H   0  0  0  0  0  0  0  0  0  0  0  0
   -0.2973    1.1841   -0.3966 C   0  0  0  0  0  0  0  0  0  0  0  0
   -0.8394    1.8375    0.2861 H   0  0  0  0  0  0  0  0  0  0  0  0
    0.6801    1.6242   -0.5881 H   0  0  0  0  0  0  0  0  0  0  0  0
   -1.0894    1.1475   -1.6937 C   0  0  0  0  0  0  0  0  0  0  0  0
   -1.3320    2.1446   -2.3511 O   0  0  0  0  0  0  0  0  0  0  0  0
   -1.5329   -0.0147   -2.1070 N   0  0  0  0  0  0  0  0  0  0  0  0
   -2.0378   -0.0107   -2.9758 H   0  0  0  0  0  0  0  0  0  0  0  0
   -1.3306   -0.8521   -1.5943 H   0  0  0  0  0  0  0  0  0  0  0  0
    0.4075   -0.0985    1.7169 C   0  0  0  0  0  0  0  0  0  0  0  0
    1.5860   -0.3526    1.9662 O   0  0  0  0  0  0  0  0  0  0  0  0
   -0.4625    0.2583    2.6666 N   0  0  0  0  0  0  0  0  0  0  0  0
   -1.4309    0.3754    2.3860 H   0  0  0  0  0  0  0  0  0  0  0  0
   -0.1275    0.4111    4.0813 C   0  0  0  0  0  0  0  0  0  0  0  0
    0.6862    1.1312    4.1910 H   0  0  0  0  0  0  0  0  0  0  0  0
   -0.9980    0.7641    4.6360 H   0  0  0  0  0  0  0  0  0  0  0  0
    0.1959   -0.5481    4.4891 H   0  0  0  0  0  0  0  0  0  0  0  0
  5  6  2  0  0  0  0
  5  7  1  0  0  0  0
  2  3  1  0  0  0  0
  2  4  1  0  0  0  0
  2  5  1  0  0  0  0
  1  2  1  0  0  0  0
 19 20  2  0  0  0  0
 19 21  1  0  0  0  0
 16 17  1  0  0  0  0
 16 18  1  0  0  0  0
 14 15  2  0  0  0  0
 14 16  1  0  0  0  0
 11 12  1  0  0  0  0
 11 13  1  0  0  0  0
 11 14  1  0  0  0  0
  9 10  1  0  0  0  0
  9 11  1  0  0  0  0
  9 19  1  0  0  0  0
  7  8  1  0  0  0  0
  7  9  1  0  0  0  0
 23 24  1  0  0  0  0
 23 25  1  0  0  0  0
 23 26  1  0  0  0  0
 21 22  1  0  0  0  0
 21 23  1  0  0  0  0
M  END
$$$$
default_name
  -OEChem-02102213163D

 26 25  0     1  0  0  0  0  0999 V2000
   -3.0232   -3.6924    1.0038 H   0  0  0  0  0  0  0  0  0  0  0  0
   -3.0082   -2.6684    0.6318 C   0  0  0  0  0  0  0  0  0  0  0  0
   -3.6332   -2.0414    1.2658 H   0  0  0  0  0  0  0  0  0  0  0  0
   -3.3762   -2.6444   -0.3912 H   0  0  0  0  0  0  0  0  0  0  0  0
   -1.5882   -2.1554    0.6658 C   0  0  0  0  0  0  0  0  0  0  0  0
   -0.6832   -2.8764    1.0638 O   0  0  0  0  0  0  0  0  0  0  0  0
   -1.3952   -0.9084    0.2428 N   0  0  0  0  0  0  0  0  0  0  0  0
   -2.1972   -0.3644   -0.0422 H   0  0  0  0  0  0  0  0  0  0  0  0
   -0.1122   -0.1994    0.2658 C   0  0  1  0  0  0  0  0  0  0  0  0
    0.6131   -0.7748   -0.3153 H   0  0  0  0  0  0  0  0  0  0  0  0
   -0.2973    1.1841   -0.3966 C   0  0  0  0  0  0  0  0  0  0  0  0
   -0.8394    1.8375    0.2861 H   0  0  0  0  0  0  0  0  0  0  0  0
    0.6801    1.6242   -0.5881 H   0  0  0  0  0  0  0  0  0  0  0  0
   -1.0894    1.1475   -1.6937 C   0  0  0  0  0  0  0  0  0  0  0  0
   -1.1112    2.0750   -2.4840 O   0  0  0  0  0  0  0  0  0  0  0  0
   -1.7827    0.0666   -1.9568 N   0  0  0  0  0  0  0  0  0  0  0  0
   -2.2819    0.0640   -2.8288 H   0  0  0  0  0  0  0  0  0  0  0  0
   -1.7661   -0.7174   -1.3321 H   0  0  0  0  0  0  0  0  0  0  0  0
    0.4075   -0.0985    1.7169 C   0  0  0  0  0  0  0  0  0  0  0  0
    1.5860   -0.3526    1.9662 O   0  0  0  0  0  0  0  0  0  0  0  0
   -0.4625    0.2583    2.6666 N   0  0  0  0  0  0  0  0  0  0  0  0
   -1.4309    0.3754    2.3860 H   0  0  0  0  0  0  0  0  0  0  0  0
   -0.1275    0.4111    4.0813 C   0  0  0  0  0  0  0  0  0  0  0  0
    0.6862    1.1312    4.1910 H   0  0  0  0  0  0  0  0  0  0  0  0
   -0.9980    0.7641    4.6360 H   0  0  0  0  0  0  0  0  0  0  0  0
    0.1959   -0.5481    4.4891 H   0  0  0  0  0  0  0  0  0  0  0  0
  5  6  2  0  0  0  0
  5  7  1  0  0  0  0
  2  3  1  0  0  0  0
  2  4  1  0  0  0  0
  2  5  1  0  0  0  0
  1  2  1  0  0  0  0
 19 20  2  0  0  0  0
 19 21  1  0  0  0  0
 16 17  1  0  0  0  0
 16 18  1  0  0  0  0
 14 15  2  0  0  0  0
 14 16  1  0  0  0  0
 11 12  1  0  0  0  0
 11 13  1  0  0  0  0
 11 14  1  0  0  0  0
  9 10  1  0  0  0  0
  9 11  1  0  0  0  0
  9 19  1  0  0  0  0
  7  8  1  0  0  0  0
  7  9  1  0  0  0  0
 23 24  1  0  0  0  0
 23 25  1  0  0  0  0
 23 26  1  0  0  0  0
 21 22  1  0  0  0  0
 21 23  1  0  0  0  0
M  END
$$$$
default_name
  -OEChem-02102213163D

 26 25  0     1  0  0  0  0  0999 V2000
   -3.0232   -3.6924    1.0038 H   0  0  0  0  0  0  0  0  0  0  0  0
   -3.0082   -2.6684    0.6318 C   0  0  0  0  0  0  0  0  0  0  0  0
   -3.6332   -2.0414    1.2658 H   0  0  0  0  0  0  0  0  0  0  0  0
   -3.3762   -2.6444   -0.3912 H   0  0  0  0  0  0  0  0  0  0  0  0
   -1.5882   -2.1554    0.6658 C   0  0  0  0  0  0  0  0  0  0  0  0
   -0.6832   -2.8764    1.0638 O   0  0  0  0  0  0  0  0  0  0  0  0
   -1.3952   -0.9084    0.2428 N   0  0  0  0  0  0  0  0  0  0  0  0
   -2.1972   -0.3644   -0.0422 H   0  0  0  0  0  0  0  0  0  0  0  0
   -0.1122   -0.1994    0.2658 C   0  0  1  0  0  0  0  0  0  0  0  0
    0.6131   -0.7748   -0.3153 H   0  0  0  0  0  0  0  0  0  0  0  0
   -0.2973    1.1841   -0.3966 C   0  0  0  0  0  0  0  0  0  0  0  0
   -0.8394    1.8375    0.2861 H   0  0  0  0  0  0  0  0  0  0  0  0
    0.6801    1.6242   -0.5881 H   0  0  0  0  0  0  0  0  0  0  0  0
   -1.0894    1.1475   -1.6937 C   0  0  0  0  0  0  0  0  0  0  0  0
   -0.9125    1.9411   -2.6015 O   0  0  0  0  0  0  0  0  0  0  0  0
   -2.0070    0.2206   -1.8241 N   0  0  0  0  0  0  0  0  0  0  0  0
   -2.5022    0.2099   -2.6984 H   0  0  0  0  0  0  0  0  0  0  0  0
   -2.1587   -0.4557   -1.0998 H   0  0  0  0  0  0  0  0  0  0  0  0
    0.4075   -0.0985    1.7169 C   0  0  0  0  0  0  0  0  0  0  0  0
    1.5860   -0.3526    1.9662 O   0  0  0  0  0  0  0  0  0  0  0  0
   -0.4625    0.2583    2.6666 N   0  0  0  0  0  0  0  0  0  0  0  0
   -1.4309    0.3754    2.3860 H   0  0  0  0  0  0  0  0  0  0  0  0
   -0.1275    0.4111    4.0813 C   0  0  0  0  0  0  0  0  0  0  0  0
    0.6862    1.1312    4.1910 H   0  0  0  0  0  0  0  0  0  0  0  0
   -0.9980    0.7641    4.6360 H   0  0  0  0  0  0  0  0  0  0  0  0
    0.1959   -0.5481    4.4891 H   0  0  0  0  0  0  0  0  0  0  0  0
  5  6  2  0  0  0  0
  5  7  1  0  0  0  0
  2  3  1  0  0  0  0
  2  4  1  0  0  0  0
  2  5  1  0  0  0  0
  1  2  1  0  0  0  0
 19 20  2  0  0  0  0
 19 21  1  0  0  0  0
 16 17  1  0  0  0  0
 16 18  1  0  0  0  0
 14 15  2  0  0  0  0
 14 16  1  0  0  0  0
 11 12  1  0  0  0  0
 11 13  1  0  0  0  0
 11 14  1  0  0  0  0
  9 10  1  0  0  0  0
  9 11  1  0  0  0  0
  9 19  1  0  0  0  0
  7  8  1  0  0  0  0
  7  9  1  0  0  0  0
 23 24  1  0  0  0  0
 23 25  1  0  0  0  0
 23 26  1  0  0  0  0
 21 22  1  0  0  0  0
 21 23  1  0  0  0  0
M  END
$$$$
default_name
  -OEChem-02102213163D

 26 25  0     1  0  0  0  0  0999 V2000
   -3.0232   -3.6924    1.0038 H   0  0  0  0  0  0  0  0  0  0  0  0
   -3.0082   -2.6684    0.6318 C   0  0  0  0  0  0  0  0  0  0  0  0
   -3.6332   -2.0414    1.2658 H   0  0  0  0  0  0  0  0  0  0  0  0
   -3.3762   -2.6444   -0.3912 H   0  0  0  0  0  0  0  0  0  0  0  0
   -1.5882   -2.1554    0.6658 C   0  0  0  0  0  0  0  0  0  0  0  0
   -0.6832   -2.8764    1.0638 O   0  0  0  0  0  0  0  0  0  0  0  0
   -1.3952   -0.9084    0.2428 N   0  0  0  0  0  0  0  0  0  0  0  0
   -2.1972   -0.3644   -0.0422 H   0  0  0  0  0  0  0  0  0  0  0  0
   -0.1122   -0.1994    0.2658 C   0  0  1  0  0  0  0  0  0  0  0  0
    0.6131   -0.7748   -0.3153 H   0  0  0  0  0  0  0  0  0  0  0  0
   -0.2973    1.1841   -0.3966 C   0  0  0  0  0  0  0  0  0  0  0  0
   -0.8394    1.8375    0.2861 H   0  0  0  0  0  0  0  0  0  0  0  0
    0.6801    1.6242   -0.5881 H   0  0  0  0  0  0  0  0  0  0  0  0
   -1.0894    1.1475   -1.6937 C   0  0  0  0  0  0  0  0  0  0  0  0
   -0.7494    1.7520   -2.6958 O   0  0  0  0  0  0  0  0  0  0  0  0
   -2.1905    0.4367   -1.7182 N   0  0  0  0  0  0  0  0  0  0  0  0
   -2.6835    0.4170   -2.5935 H   0  0  0  0  0  0  0  0  0  0  0  0
   -2.4816   -0.0849   -0.9131 H   0  0  0  0  0  0  0  0  0  0  0  0
    0.4075   -0.0985    1.7169 C   0  0  0  0  0  0  0  0  0  0  0  0
    1.5860   -0.3526    1.9662 O   0  0  0  0  0  0  0  0  0  0  0  0
   -0.4625    0.2583    2.6666 N   0  0  0  0  0  0  0  0  0  0  0  0
   -1.4309    0.3754    2.3860 H   0  0  0  0  0  0  0  0  0  0  0  0
   -0.1275    0.4111    4.0813 C   0  0  0  0  0  0  0  0  0  0  0  0
    0.6862    1.1312    4.1910 H   0  0  0  0  0  0  0  0  0  0  0  0
   -0.9980    0.7641    4.6360 H   0  0  0  0  0  0  0  0  0  0  0  0
    0.1959   -0.5481    4.4891 H   0  0  0  0  0  0  0  0  0  0  0  0
  5  6  2  0  0  0  0
  5  7  1  0  0  0  0
  2  3  1  0  0  0  0
  2  4  1  0  0  0  0
  2  5  1  0  0  0  0
  1  2  1  0  0  0  0
 19 20  2  0  0  0  0
 19 21  1  0  0  0  0
 16 17  1  0  0  0  0
 16 18  1  0  0  0  0
 14 15  2  0  0  0  0
 14 16  1  0  0  0  0
 11 12  1  0  0  0  0
 11 13  1  0  0  0  0
 11 14  1  0  0  0  0
  9 10  1  0  0  0  0
  9 11  1  0  0  0  0
  9 19  1  0  0  0  0
  7  8  1  0  0  0  0
  7  9  1  0  0  0  0
 23 24  1  0  0  0  0
 23 25  1  0  0  0  0
 23 26  1  0  0  0  0
 21 22  1  0  0  0  0
 21 23  1  0  0  0  0
M  END
$$$$
default_name
  -OEChem-02102213163D

 26 25  0     1  0  0  0  0  0999 V2000
   -3.0232   -3.6924    1.0038 H   0  0  0  0  0  0  0  0  0  0  0  0
   -3.0082   -2.6684    0.6318 C   0  0  0  0  0  0  0  0  0  0  0  0
   -3.6332   -2.0414    1.2658 H   0  0  0  0  0  0  0  0  0  0  0  0
   -3.3762   -2.6444   -0.3912 H   0  0  0  0  0  0  0  0  0  0  0  0
   -1.5882   -2.1554    0.6658 C   0  0  0  0  0  0  0  0  0  0  0  0
   -0.6832   -2.8764    1.0638 O   0  0  0  0  0  0  0  0  0  0  0  0
   -1.3952   -0.9084    0.2428 N   0  0  0  0  0  0  0  0  0  0  0  0
   -2.1972   -0.3644   -0.0422 H   0  0  0  0  0  0  0  0  0  0  0  0
   -0.1122   -0.1994    0.2658 C   0  0  1  0  0  0  0  0  0  0  0  0
    0.6131   -0.7748   -0.3153 H   0  0  0  0  0  0  0  0  0  0  0  0
   -0.2973    1.1841   -0.3966 C   0  0  0  0  0  0  0  0  0  0  0  0
   -0.8394    1.8375    0.2861 H   0  0  0  0  0  0  0  0  0  0  0  0
    0.6801    1.6242   -0.5881 H   0  0  0  0  0  0  0  0  0  0  0  0
   -1.0894    1.1475   -1.6937 C   0  0  0  0  0  0  0  0  0  0  0  0
   -0.6331    1.5207   -2.7603 O   0  0  0  0  0  0  0  0  0  0  0  0
   -2.3206    0.7003   -1.6461 N   0  0  0  0  0  0  0  0  0  0  0  0
   -2.8136    0.6712   -2.5212 H   0  0  0  0  0  0  0  0  0  0  0  0
   -2.7127    0.3697   -0.7847 H   0  0  0  0  0  0  0  0  0  0  0  0
    0.4075   -0.0985    1.7169 C   0  0  0  0  0  0  0  0  0  0  0  0
    1.5860   -0.3526    1.9662 O   0  0  0  0  0  0  0  0  0  0  0  0
   -0.4625    0.2583    2.6666 N   0  0  0  0  0  0  0  0  0  0  0  0
   -1.4309    0.3754    2.3860 H   0  0  0  0  0  0  0  0  0  0  0  0
   -0.1275    0.4111    4.0813 C   0  0  0  0  0  0  0  0  0  0  0  0
    0.6862    1.1312    4.1910 H   0  0  0  0  0  0  0  0  0  0  0  0
   -0.9980    0.7641    4.6360 H   0  0  0  0  0  0  0  0  0  0  0  0
    0.1959   -0.5481    4.4891 H   0  0  0  0  0  0  0  0  0  0  0  0
  5  6  2  0  0  0  0
  5  7  1  0  0  0  0
  2  3  1  0  0  0  0
  2  4  1  0  0  0  0
  2  5  1  0  0  0  0
  1  2  1  0  0  0  0
 19 20  2  0  0  0  0
 19 21  1  0  0  0  0
 16 17  1  0  0  0  0
 16 18  1  0  0  0  0
 14 15  2  0  0  0  0
 14 16  1  0  0  0  0
 11 12  1  0  0  0  0
 11 13  1  0  0  0  0
 11 14  1  0  0  0  0
  9 10  1  0  0  0  0
  9 11  1  0  0  0  0
  9 19  1  0  0  0  0
  7  8  1  0  0  0  0
  7  9  1  0  0  0  0
 23 24  1  0  0  0  0
 23 25  1  0  0  0  0
 23 26  1  0  0  0  0
 21 22  1  0  0  0  0
 21 23  1  0  0  0  0
M  END
$$$$
default_name
  -OEChem-02102213163D

 26 25  0     1  0  0  0  0  0999 V2000
   -3.0232   -3.6924    1.0038 H   0  0  0  0  0  0  0  0  0  0  0  0
   -3.0082   -2.6684    0.6318 C   0  0  0  0  0  0  0  0  0  0  0  0
   -3.6332   -2.0414    1.2658 H   0  0  0  0  0  0  0  0  0  0  0  0
   -3.3762   -2.6444   -0.3912 H   0  0  0  0  0  0  0  0  0  0  0  0
   -1.5882   -2.1554    0.6658 C   0  0  0  0  0  0  0  0  0  0  0  0
   -0.6832   -2.8764    1.0638 O   0  0  0  0  0  0  0  0  0  0  0  0
   -1.3952   -0.9084    0.2428 N   0  0  0  0  0  0  0  0  0  0  0  0
   -2.1972   -0.3644   -0.0422 H   0  0  0  0  0  0  0  0  0  0  0  0
   -0.1122   -0.1994    0.2658 C   0  0  1  0  0  0  0  0  0  0  0  0
    0.6131   -0.7748   -0.3153 H   0  0  0  0  0  0  0  0  0  0  0  0
   -0.2973    1.1841   -0.3966 C   0  0  0  0  0  0  0  0  0  0  0  0
   -0.8394    1.8375    0.2861 H   0  0  0  0  0  0  0  0  0  0  0  0
    0.6801    1.6242   -0.5881 H   0  0  0  0  0  0  0  0  0  0  0  0
   -1.0894    1.1475   -1.6937 C   0  0  0  0  0  0  0  0  0  0  0  0
   -0.5713    1.2628   -2.7907 O   0  0  0  0  0  0  0  0  0  0  0  0
   -2.3886    0.9933   -1.6129 N   0  0  0  0  0  0  0  0  0  0  0  0
   -2.8836    0.9553   -2.4865 H   0  0  0  0  0  0  0  0  0  0  0  0
   -2.8364    0.8772   -0.7235 H   0  0  0  0  0  0  0  0  0  0  0  0
    0.4075   -0.0985    1.7169 C   0  0  0  0  0  0  0  0  0  0  0  0
    1.5860   -0.3526    1.9662 O   0  0  0  0  0  0  0  0  0  0  0  0
   -0.4625    0.2583    2.6666 N   0  0  0  0  0  0  0  0  0  0  0  0
   -1.4309    0.3754    2.3860 H   0  0  0  0  0  0  0  0  0  0  0  0
   -0.1275    0.4111    4.0813 C   0  0  0  0  0  0  0  0  0  0  0  0
    0.6862    1.1312    4.1910 H   0  0  0  0  0  0  0  0  0  0  0  0
   -0.9980    0.7641    4.6360 H   0  0  0  0  0  0  0  0  0  0  0  0
    0.1959   -0.5481    4.4891 H   0  0  0  0  0  0  0  0  0  0  0  0
  5  6  2  0  0  0  0
  5  7  1  0  0  0  0
  2  3  1  0  0  0  0
  2  4  1  0  0  0  0
  2  5  1  0  0  0  0
  1  2  1  0  0  0  0
 19 20  2  0  0  0  0
 19 21  1  0  0  0  0
 16 17  1  0  0  0  0
 16 18  1  0  0  0  0
 14 15  2  0  0  0  0
 14 16  1  0  0  0  0
 11 12  1  0  0  0  0
 11 13  1  0  0  0  0
 11 14  1  0  0  0  0
  9 10  1  0  0  0  0
  9 11  1  0  0  0  0
  9 19  1  0  0  0  0
  7  8  1  0  0  0  0
  7  9  1  0  0  0  0
 23 24  1  0  0  0  0
 23 25  1  0  0  0  0
 23 26  1  0  0  0  0
 21 22  1  0  0  0  0
 21 23  1  0  0  0  0
M  END
$$$$
default_name
  -OEChem-02102213163D

 26 25  0     1  0  0  0  0  0999 V2000
   -3.0232   -3.6924    1.0038 H   0  0  0  0  0  0  0  0  0  0  0  0
   -3.0082   -2.6684    0.6318 C   0  0  0  0  0  0  0  0  0  0  0  0
   -3.6332   -2.0414    1.2658 H   0  0  0  0  0  0  0  0  0  0  0  0
   -3.3762   -2.6444   -0.3912 H   0  0  0  0  0  0  0  0  0  0  0  0
   -1.5882   -2.1554    0.6658 C   0  0  0  0  0  0  0  0  0  0  0  0
   -0.6832   -2.8764    1.0638 O   0  0  0  0  0  0  0  0  0  0  0  0
   -1.3952   -0.9084    0.2428 N   0  0  0  0  0  0  0  0  0  0  0  0
   -2.1972   -0.3644   -0.0422 H   0  0  0  0  0  0  0  0  0  0  0  0
   -0.1122   -0.1994    0.2658 C   0  0  1  0  0  0  0  0  0  0  0  0
    0.6131   -0.7748   -0.3153 H   0  0  0  0  0  0  0  0  0  0  0  0
   -0.2973    1.1841   -0.3966 C   0  0  0  0  0  0  0  0  0  0  0  0
   -0.8394    1.8375    0.2861 H   0  0  0  0  0  0  0  0  0  0  0  0
    0.6801    1.6242   -0.5881 H   0  0  0  0  0  0  0  0  0  0  0  0
   -1.0894    1.1475   -1.6937 C   0  0  0  0  0  0  0  0  0  0  0  0
   -0.5685    0.9960   -2.7850 O   0  0  0  0  0  0  0  0  0  0  0  0
   -2.3898    1.2959   -1.6207 N   0  0  0  0  0  0  0  0  0  0  0  0
   -2.8886    1.2498   -2.4918 H   0  0  0  0  0  0  0  0  0  0  0  0
   -2.8442    1.4029   -0.7336 H   0  0  0  0  0  0  0  0  0  0  0  0
    0.4075   -0.0985    1.7169 C   0  0  0  0  0  0  0  0  0  0  0  0
    1.5860   -0.3526    1.9662 O   0  0  0  0  0  0  0  0  0  0  0  0
   -0.4625    0.2583    2.6666 N   0  0  0  0  0  0  0  0  0  0  0  0
   -1.4309    0.3754    2.3860 H   0  0  0  0  0  0  0  0  0  0  0  0
   -0.1275    0.4111    4.0813 C   0  0  0  0  0  0  0  0  0  0  0  0
    0.6862    1.1312    4.1910 H   0  0  0  0  0  0  0  0  0  0  0  0
   -0.9980    0.7641    4.6360 H   0  0  0  0  0  0  0  0  0  0  0  0
    0.1959   -0.5481    4.4891 H   0  0  0  0  0  0  0  0  0  0  0  0
  5  6  2  0  0  0  0
  5  7  1  0  0  0  0
  2  3  1  0  0  0  0
  2  4  1  0  0  0  0
  2  5  1  0  0  0  0
  1  2  1  0  0  0  0
 19 20  2  0  0  0  0
 19 21  1  0  0  0  0
 16 17  1  0  0  0  0
 16 18  1  0  0  0  0
 14 15  2  0  0  0  0
 14 16  1  0  0  0  0
 11 12  1  0  0  0  0
 11 13  1  0  0  0  0
 11 14  1  0  0  0  0
  9 10  1  0  0  0  0
  9 11  1  0  0  0  0
  9 19  1  0  0  0  0
  7  8  1  0  0  0  0
  7  9  1  0  0  0  0
 23 24  1  0  0  0  0
 23 25  1  0  0  0  0
 23 26  1  0  0  0  0
 21 22  1  0  0  0  0
 21 23  1  0  0  0  0
M  END
$$$$
default_name
  -OEChem-02102213163D

 26 25  0     1  0  0  0  0  0999 V2000
   -3.0232   -3.6924    1.0038 H   0  0  0  0  0  0  0  0  0  0  0  0
   -3.0082   -2.6684    0.6318 C   0  0  0  0  0  0  0  0  0  0  0  0
   -3.6332   -2.0414    1.2658 H   0  0  0  0  0  0  0  0  0  0  0  0
   -3.3762   -2.6444   -0.3912 H   0  0  0  0  0  0  0  0  0  0  0  0
   -1.5882   -2.1554    0.6658 C   0  0  0  0  0  0  0  0  0  0  0  0
   -0.6832   -2.8764    1.0638 O   0  0  0  0  0  0  0  0  0  0  0  0
   -1.3952   -0.9084    0.2428 N   0  0  0  0  0  0  0  0  0  0  0  0
   -2.1972   -0.3644   -0.0422 H   0  0  0  0  0  0  0  0  0  0  0  0
   -0.1122   -0.1994    0.2658 C   0  0  1  0  0  0  0  0  0  0  0  0
    0.6131   -0.7748   -0.3153 H   0  0  0  0  0  0  0  0  0  0  0  0
   -0.2973    1.1841   -0.3966 C   0  0  0  0  0  0  0  0  0  0  0  0
   -0.8394    1.8375    0.2861 H   0  0  0  0  0  0  0  0  0  0  0  0
    0.6801    1.6242   -0.5881 H   0  0  0  0  0  0  0  0  0  0  0  0
   -1.0894    1.1475   -1.6937 C   0  0  0  0  0  0  0  0  0  0  0  0
   -0.6247    0.7385   -2.7434 O   0  0  0  0  0  0  0  0  0  0  0  0
   -2.3240    1.5873   -1.6691 N   0  0  0  0  0  0  0  0  0  0  0  0
   -2.8284    1.5347   -2.5365 H   0  0  0  0  0  0  0  0  0  0  0  0
   -2.7356    1.9112   -0.8143 H   0  0  0  0  0  0  0  0  0  0  0  0
    0.4075   -0.0985    1.7169 C   0  0  0  0  0  0  0  0  0  0  0  0
    1.5860   -0.3526    1.9662 O   0  0  0  0  0  0  0  0  0  0  0  0
   -0.4625    0.2583    2.6666 N   0  0  0  0  0  0  0  0  0  0  0  0
   -1.4309    0.3754    2.3860 H   0  0  0  0  0  0  0  0  0  0  0  0
   -0.1275    0.4111    4.0813 C   0  0  0  0  0  0  0  0  0  0  0  0
    0.6862    1.1312    4.1910 H   0  0  0  0  0  0  0  0  0  0  0  0
   -0.9980    0.7641    4.6360 H   0  0  0  0  0  0  0  0  0  0  0  0
    0.1959   -0.5481    4.4891 H   0  0  0  0  0  0  0  0  0  0  0  0
  5  6  2  0  0  0  0
  5  7  1  0  0  0  0
  2  3  1  0  0  0  0
  2  4  1  0  0  0  0
  2  5  1  0  0  0  0
  1  2  1  0  0  0  0
 19 20  2  0  0  0  0
 19 21  1  0  0  0  0
 16 17  1  0  0  0  0
 16 18  1  0  0  0  0
 14 15  2  0  0  0  0
 14 16  1  0  0  0  0
 11 12  1  0  0  0  0
 11 13  1  0  0  0  0
 11 14  1  0  0  0  0
  9 10  1  0  0  0  0
  9 11  1  0  0  0  0
  9 19  1  0  0  0  0
  7  8  1  0  0  0  0
  7  9  1  0  0  0  0
 23 24  1  0  0  0  0
 23 25  1  0  0  0  0
 23 26  1  0  0  0  0
 21 22  1  0  0  0  0
 21 23  1  0  0  0  0
M  END
$$$$
default_name
  -OEChem-02102213163D

 26 25  0     1  0  0  0  0  0999 V2000
   -3.0232   -3.6924    1.0038 H   0  0  0  0  0  0  0  0  0  0  0  0
   -3.0082   -2.6684    0.6318 C   0  0  0  0  0  0  0  0  0  0  0  0
   -3.6332   -2.0414    1.2658 H   0  0  0  0  0  0  0  0  0  0  0  0
   -3.3762   -2.6444   -0.3912 H   0  0  0  0  0  0  0  0  0  0  0  0
   -1.5882   -2.1554    0.6658 C   0  0  0  0  0  0  0  0  0  0  0  0
   -0.6832   -2.8764    1.0638 O   0  0  0  0  0  0  0  0  0  0  0  0
   -1.3952   -0.9084    0.2428 N   0  0  0  0  0  0  0  0  0  0  0  0
   -2.1972   -0.3644   -0.0422 H   0  0  0  0  0  0  0  0  0  0  0  0
   -0.1122   -0.1994    0.2658 C   0  0  1  0  0  0  0  0  0  0  0  0
    0.6131   -0.7748   -0.3153 H   0  0  0  0  0  0  0  0  0  0  0  0
   -0.2973    1.1841   -0.3966 C   0  0  0  0  0  0  0  0  0  0  0  0
   -0.8394    1.8375    0.2861 H   0  0  0  0  0  0  0  0  0  0  0  0
    0.6801    1.6242   -0.5881 H   0  0  0  0  0  0  0  0  0  0  0  0
   -1.0894    1.1475   -1.6937 C   0  0  0  0  0  0  0  0  0  0  0  0
   -0.7361    0.5077   -2.6689 O   0  0  0  0  0  0  0  0  0  0  0  0
   -2.1958    1.8478   -1.7547 N   0  0  0  0  0  0  0  0  0  0  0  0
   -2.7071    1.7906   -2.6178 H   0  0  0  0  0  0  0  0  0  0  0  0
   -2.5179    2.3672   -0.9600 H   0  0  0  0  0  0  0  0  0  0  0  0
    0.4075   -0.0985    1.7169 C   0  0  0  0  0  0  0  0  0  0  0  0
    1.5860   -0.3526    1.9662 O   0  0  0  0  0  0  0  0  0  0  0  0
   -0.4625    0.2583    2.6666 N   0  0  0  0  0  0  0  0  0  0  0  0
   -1.4309    0.3754    2.3860 H   0  0  0  0  0  0  0  0  0  0  0  0
   -0.1275    0.4111    4.0813 C   0  0  0  0  0  0  0  0  0  0  0  0
    0.6862    1.1312    4.1910 H   0  0  0  0  0  0  0  0  0  0  0  0
   -0.9980    0.7641    4.6360 H   0  0  0  0  0  0  0  0  0  0  0  0
    0.1959   -0.5481    4.4891 H   0  0  0  0  0  0  0  0  0  0  0  0
  5  6  2  0  0  0  0
  5  7  1  0  0  0  0
  2  3  1  0  0  0  0
  2  4  1  0  0  0  0
  2  5  1  0  0  0  0
  1  2  1  0  0  0  0
 19 20  2  0  0  0  0
 19 21  1  0  0  0  0
 16 17  1  0  0  0  0
 16 18  1  0  0  0  0
 14 15  2  0  0  0  0
 14 16  1  0  0  0  0
 11 12  1  0  0  0  0
 11 13  1  0  0  0  0
 11 14  1  0  0  0  0
  9 10  1  0  0  0  0
  9 11  1  0  0  0  0
  9 19  1  0  0  0  0
  7  8  1  0  0  0  0
  7  9  1  0  0  0  0
 23 24  1  0  0  0  0
 23 25  1  0  0  0  0
 23 26  1  0  0  0  0
 21 22  1  0  0  0  0
 21 23  1  0  0  0  0
M  END
$$$$
default_name
  -OEChem-02102213163D

 26 25  0     1  0  0  0  0  0999 V2000
   -3.0232   -3.6924    1.0038 H   0  0  0  0  0  0  0  0  0  0  0  0
   -3.0082   -2.6684    0.6318 C   0  0  0  0  0  0  0  0  0  0  0  0
   -3.6332   -2.0414    1.2658 H   0  0  0  0  0  0  0  0  0  0  0  0
   -3.3762   -2.6444   -0.3912 H   0  0  0  0  0  0  0  0  0  0  0  0
   -1.5882   -2.1554    0.6658 C   0  0  0  0  0  0  0  0  0  0  0  0
   -0.6832   -2.8764    1.0638 O   0  0  0  0  0  0  0  0  0  0  0  0
   -1.3952   -0.9084    0.2428 N   0  0  0  0  0  0  0  0  0  0  0  0
   -2.1972   -0.3644   -0.0422 H   0  0  0  0  0  0  0  0  0  0  0  0
   -0.1122   -0.1994    0.2658 C   0  0  1  0  0  0  0  0  0  0  0  0
    0.6131   -0.7748   -0.3153 H   0  0  0  0  0  0  0  0  0  0  0  0
   -0.2973    1.1841   -0.3966 C   0  0  0  0  0  0  0  0  0  0  0  0
   -0.8394    1.8375    0.2861 H   0  0  0  0  0  0  0  0  0  0  0  0
    0.6801    1.6242   -0.5881 H   0  0  0  0  0  0  0  0  0  0  0  0
   -1.0894    1.1475   -1.6937 C   0  0  0  0  0  0  0  0  0  0  0  0
   -0.8951    0.3194   -2.5664 O   0  0  0  0  0  0  0  0  0  0  0  0
   -2.0140    2.0595   -1.8717 N   0  0  0  0  0  0  0  0  0  0  0  0
   -2.5329    2.0000   -2.7301 H   0  0  0  0  0  0  0  0  0  0  0  0
   -2.2060    2.7399   -1.1610 H   0  0  0  0  0  0  0  0  0  0  0  0
    0.4075   -0.0985    1.7169 C   0  0  0  0  0  0  0  0  0  0  0  0
    1.5860   -0.3526    1.9662 O   0  0  0  0  0  0  0  0  0  0  0  0
   -0.4625    0.2583    2.6666 N   0  0  0  0  0  0  0  0  0  0  0  0
   -1.4309    0.3754    2.3860 H   0  0  0  0  0  0  0  0  0  0  0  0
   -0.1275    0.4111    4.0813 C   0  0  0  0  0  0  0  0  0  0  0  0
    0.6862    1.1312    4.1910 H   0  0  0  0  0  0  0  0  0  0  0  0
   -0.9980    0.7641    4.6360 H   0  0  0  0  0  0  0  0  0  0  0  0
    0.1959   -0.5481    4.4891 H   0  0  0  0  0  0  0  0  0  0  0  0
  5  6  2  0  0  0  0
  5  7  1  0  0  0  0
  2  3  1  0  0  0  0
  2  4  1  0  0  0  0
  2  5  1  0  0  0  0
  1  2  1  0  0  0  0
 19 20  2  0  0  0  0
 19 21  1  0  0  0  0
 16 17  1  0  0  0  0
 16 18  1  0  0  0  0
 14 15  2  0  0  0  0
 14 16  1  0  0  0  0
 11 12  1  0  0  0  0
 11 13  1  0  0  0  0
 11 14  1  0  0  0  0
  9 10  1  0  0  0  0
  9 11  1  0  0  0  0
  9 19  1  0  0  0  0
  7  8  1  0  0  0  0
  7  9  1  0  0  0  0
 23 24  1  0  0  0  0
 23 25  1  0  0  0  0
 23 26  1  0  0  0  0
 21 22  1  0  0  0  0
 21 23  1  0  0  0  0
M  END
$$$$
default_name
  -OEChem-02102213163D

 26 25  0     1  0  0  0  0  0999 V2000
   -3.0232   -3.6924    1.0038 H   0  0  0  0  0  0  0  0  0  0  0  0
   -3.0082   -2.6684    0.6318 C   0  0  0  0  0  0  0  0  0  0  0  0
   -3.6332   -2.0414    1.2658 H   0  0  0  0  0  0  0  0  0  0  0  0
   -3.3762   -2.6444   -0.3912 H   0  0  0  0  0  0  0  0  0  0  0  0
   -1.5882   -2.1554    0.6658 C   0  0  0  0  0  0  0  0  0  0  0  0
   -0.6832   -2.8764    1.0638 O   0  0  0  0  0  0  0  0  0  0  0  0
   -1.3952   -0.9084    0.2428 N   0  0  0  0  0  0  0  0  0  0  0  0
   -2.1972   -0.3644   -0.0422 H   0  0  0  0  0  0  0  0  0  0  0  0
   -0.1122   -0.1994    0.2658 C   0  0  1  0  0  0  0  0  0  0  0  0
    0.6131   -0.7748   -0.3153 H   0  0  0  0  0  0  0  0  0  0  0  0
   -0.2973    1.1841   -0.3966 C   0  0  0  0  0  0  0  0  0  0  0  0
   -0.8394    1.8375    0.2861 H   0  0  0  0  0  0  0  0  0  0  0  0
    0.6801    1.6242   -0.5881 H   0  0  0  0  0  0  0  0  0  0  0  0
   -1.0894    1.1475   -1.6937 C   0  0  0  0  0  0  0  0  0  0  0  0
   -1.0909    0.1865   -2.4431 O   0  0  0  0  0  0  0  0  0  0  0  0
   -1.7908    2.2081   -2.0122 N   0  0  0  0  0  0  0  0  0  0  0  0
   -2.3177    2.1486   -2.8657 H   0  0  0  0  0  0  0  0  0  0  0  0
   -1.8212    3.0040   -1.4034 H   0  0  0  0  0  0  0  0  0  0  0  0
    0.4075   -0.0985    1.7169 C   0  0  0  0  0  0  0  0  0  0  0  0
    1.5860   -0.3526    1.9662 O   0  0  0  0  0  0  0  0  0  0  0  0
   -0.4625    0.2583    2.6666 N   0  0  0  0  0  0  0  0  0  0  0  0
   -1.4309    0.3754    2.3860 H   0  0  0  0  0  0  0  0  0  0  0  0
   -0.1275    0.4111    4.0813 C   0  0  0  0  0  0  0  0  0  0  0  0
    0.6862    1.1312    4.1910 H   0  0  0  0  0  0  0  0  0  0  0  0
   -0.9980    0.7641    4.6360 H   0  0  0  0  0  0  0  0  0  0  0  0
    0.1959   -0.5481    4.4891 H   0  0  0  0  0  0  0  0  0  0  0  0
  5  6  2  0  0  0  0
  5  7  1  0  0  0  0
  2  3  1  0  0  0  0
  2  4  1  0  0  0  0
  2  5  1  0  0  0  0
  1  2  1  0  0  0  0
 19 20  2  0  0  0  0
 19 21  1  0  0  0  0
 16 17  1  0  0  0  0
 16 18  1  0  0  0  0
 14 15  2  0  0  0  0
 14 16  1  0  0  0  0
 11 12  1  0  0  0  0
 11 13  1  0  0  0  0
 11 14  1  0  0  0  0
  9 10  1  0  0  0  0
  9 11  1  0  0  0  0
  9 19  1  0  0  0  0
  7  8  1  0  0  0  0
  7  9  1  0  0  0  0
 23 24  1  0  0  0  0
 23 25  1  0  0  0  0
 23 26  1  0  0  0  0
 21 22  1  0  0  0  0
 21 23  1  0  0  0  0
M  END
$$$$
default_name
  -OEChem-02102213163D

 26 25  0     1  0  0  0  0  0999 V2000
   -3.0232   -3.6924    1.0038 H   0  0  0  0  0  0  0  0  0  0  0  0
   -3.0082   -2.6684    0.6318 C   0  0  0  0  0  0  0  0  0  0  0  0
   -3.6332   -2.0414    1.2658 H   0  0  0  0  0  0  0  0  0  0  0  0
   -3.3762   -2.6444   -0.3912 H   0  0  0  0  0  0  0  0  0  0  0  0
   -1.5882   -2.1554    0.6658 C   0  0  0  0  0  0  0  0  0  0  0  0
   -0.6832   -2.8764    1.0638 O   0  0  0  0  0  0  0  0  0  0  0  0
   -1.3952   -0.9084    0.2428 N   0  0  0  0  0  0  0  0  0  0  0  0
   -2.1972   -0.3644   -0.0422 H   0  0  0  0  0  0  0  0  0  0  0  0
   -0.1122   -0.1994    0.2658 C   0  0  1  0  0  0  0  0  0  0  0  0
    0.6131   -0.7748   -0.3153 H   0  0  0  0  0  0  0  0  0  0  0  0
   -0.2973    1.1841   -0.3966 C   0  0  0  0  0  0  0  0  0  0  0  0
   -0.8394    1.8375    0.2861 H   0  0  0  0  0  0  0  0  0  0  0  0
    0.6801    1.6242   -0.5881 H   0  0  0  0  0  0  0  0  0  0  0  0
   -1.0894    1.1475   -1.6937 C   0  0  0  0  0  0  0  0  0  0  0  0
   -1.3102    0.1180   -2.3073 O   0  0  0  0  0  0  0  0  0  0  0  0
   -1.5416    2.2834   -2.1665 N   0  0  0  0  0  0  0  0  0  0  0  0
   -2.0762    2.2264   -3.0154 H   0  0  0  0  0  0  0  0  0  0  0  0
   -1.3897    3.1414   -1.6708 H   0  0  0  0  0  0  0  0  0  0  0  0
    0.4075   -0.0985    1.7169 C   0  0  0  0  0  0  0  0  0  0  0  0
    1.5860   -0.3526    1.9662 O   0  0  0  0  0  0  0  0  0  0  0  0
   -0.4625    0.2583    2.6666 N   0  0  0  0  0  0  0  0  0  0  0  0
   -1.4309    0.3754    2.3860 H   0  0  0  0  0  0  0  0  0  0  0  0
   -0.1275    0.4111    4.0813 C   0  0  0  0  0  0  0  0  0  0  0  0
    0.6862    1.1312    4.1910 H   0  0  0  0  0  0  0  0  0  0  0  0
   -0.9980    0.7641    4.6360 H   0  0  0  0  0  0  0  0  0  0  0  0
    0.1959   -0.5481    4.4891 H   0  0  0  0  0  0  0  0  0  0  0  0
  5  6  2  0  0  0  0
  5  7  1  0  0  0  0
  2  3  1  0  0  0  0
  2  4  1  0  0  0  0
  2  5  1  0  0  0  0
  1  2  1  0  0  0  0
 19 20  2  0  0  0  0
 19 21  1  0  0  0  0
 16 17  1  0  0  0  0
 16 18  1  0  0  0  0
 14 15  2  0  0  0  0
 14 16  1  0  0  0  0
 11 12  1  0  0  0  0
 11 13  1  0  0  0  0
 11 14  1  0  0  0  0
  9 10  1  0  0  0  0
  9 11  1  0  0  0  0
  9 19  1  0  0  0  0
  7  8  1  0  0  0  0
  7  9  1  0  0  0  0
 23 24  1  0  0  0  0
 23 25  1  0  0  0  0
 23 26  1  0  0  0  0
 21 22  1  0  0  0  0
 21 23  1  0  0  0  0
M  END
$$$$
default_name
  -OEChem-02102213163D

 26 25  0     1  0  0  0  0  0999 V2000
   -3.0232   -3.6924    1.0038 H   0  0  0  0  0  0  0  0  0  0  0  0
   -3.0082   -2.6684    0.6318 C   0  0  0  0  0  0  0  0  0  0  0  0
   -3.6332   -2.0414    1.2658 H   0  0  0  0  0  0  0  0  0  0  0  0
   -3.3762   -2.6444   -0.3912 H   0  0  0  0  0  0  0  0  0  0  0  0
   -1.5882   -2.1554    0.6658 C   0  0  0  0  0  0  0  0  0  0  0  0
   -0.6832   -2.8764    1.0638 O   0  0  0  0  0  0  0  0  0  0  0  0
   -1.3952   -0.9084    0.2428 N   0  0  0  0  0  0  0  0  0  0  0  0
   -2.1972   -0.3644   -0.0422 H   0  0  0  0  0  0  0  0  0  0  0  0
   -0.1122   -0.1994    0.2658 C   0  0  1  0  0  0  0  0  0  0  0  0
    0.6131   -0.7748   -0.3153 H   0  0  0  0  0  0  0  0  0  0  0  0
   -0.2973    1.1841   -0.3966 C   0  0  0  0  0  0  0  0  0  0  0  0
   -0.8394    1.8375    0.2861 H   0  0  0  0  0  0  0  0  0  0  0  0
    0.6801    1.6242   -0.5881 H   0  0  0  0  0  0  0  0  0  0  0  0
   -1.0894    1.1475   -1.6937 C   0  0  0  0  0  0  0  0  0  0  0  0
   -1.5380    0.1186   -2.1682 O   0  0  0  0  0  0  0  0  0  0  0  0
   -1.2833    2.2803   -2.3242 N   0  0  0  0  0  0  0  0  0  0  0  0
   -1.8248    2.2280   -3.1690 H   0  0  0  0  0  0  0  0  0  0  0  0
   -0.9409    3.1428   -1.9449 H   0  0  0  0  0  0  0  0  0  0  0  0
    0.4075   -0.0985    1.7169 C   0  0  0  0  0  0  0  0  0  0  0  0
    1.5860   -0.3526    1.9662 O   0  0  0  0  0  0  0  0  0  0  0  0
   -0.4625    0.2583    2.6666 N   0  0  0  0  0  0  0  0  0  0  0  0
   -1.4309    0.3754    2.3860 H   0  0  0  0  0  0  0  0  0  0  0  0
   -0.1275    0.4111    4.0813 C   0  0  0  0  0  0  0  0  0  0  0  0
    0.6862    1.1312    4.1910 H   0  0  0  0  0  0  0  0  0  0  0  0
   -0.9980    0.7641    4.6360 H   0  0  0  0  0  0  0  0  0  0  0  0
    0.1959   -0.5481    4.4891 H   0  0  0  0  0  0  0  0  0  0  0  0
  5  6  2  0  0  0  0
  5  7  1  0  0  0  0
  2  3  1  0  0  0  0
  2  4  1  0  0  0  0
  2  5  1  0  0  0  0
  1  2  1  0  0  0  0
 19 20  2  0  0  0  0
 19 21  1  0  0  0  0
 16 17  1  0  0  0  0
 16 18  1  0  0  0  0
 14 15  2  0  0  0  0
 14 16  1  0  0  0  0
 11 12  1  0  0  0  0
 11 13  1  0  0  0  0
 11 14  1  0  0  0  0
  9 10  1  0  0  0  0
  9 11  1  0  0  0  0
  9 19  1  0  0  0  0
  7  8  1  0  0  0  0
  7  9  1  0  0  0  0
 23 24  1  0  0  0  0
 23 25  1  0  0  0  0
 23 26  1  0  0  0  0
 21 22  1  0  0  0  0
 21 23  1  0  0  0  0
M  END
$$$$
default_name
  -OEChem-02102213163D

 26 25  0     1  0  0  0  0  0999 V2000
   -3.0232   -3.6924    1.0038 H   0  0  0  0  0  0  0  0  0  0  0  0
   -3.0082   -2.6684    0.6318 C   0  0  0  0  0  0  0  0  0  0  0  0
   -3.6332   -2.0414    1.2658 H   0  0  0  0  0  0  0  0  0  0  0  0
   -3.3762   -2.6444   -0.3912 H   0  0  0  0  0  0  0  0  0  0  0  0
   -1.5882   -2.1554    0.6658 C   0  0  0  0  0  0  0  0  0  0  0  0
   -0.6832   -2.8764    1.0638 O   0  0  0  0  0  0  0  0  0  0  0  0
   -1.3952   -0.9084    0.2428 N   0  0  0  0  0  0  0  0  0  0  0  0
   -2.1972   -0.3644   -0.0422 H   0  0  0  0  0  0  0  0  0  0  0  0
   -0.1122   -0.1994    0.2658 C   0  0  1  0  0  0  0  0  0  0  0  0
    0.6131   -0.7748   -0.3153 H   0  0  0  0  0  0  0  0  0  0  0  0
   -0.2973    1.1841   -0.3966 C   0  0  0  0  0  0  0  0  0  0  0  0
   -0.8394    1.8375    0.2861 H   0  0  0  0  0  0  0  0  0  0  0  0
    0.6801    1.6242   -0.5881 H   0  0  0  0  0  0  0  0  0  0  0  0
   -1.0894    1.1475   -1.6937 C   0  0  0  0  0  0  0  0  0  0  0  0
   -1.7588    0.1882   -2.0354 O   0  0  0  0  0  0  0  0  0  0  0  0
   -1.0334    2.1990   -2.4744 N   0  0  0  0  0  0  0  0  0  0  0  0
   -1.5806    2.1533   -3.3159 H   0  0  0  0  0  0  0  0  0  0  0  0
   -0.5053    3.0081   -2.2070 H   0  0  0  0  0  0  0  0  0  0  0  0
    0.4075   -0.0985    1.7169 C   0  0  0  0  0  0  0  0  0  0  0  0
    1.5860   -0.3526    1.9662 O   0  0  0  0  0  0  0  0  0  0  0  0
   -0.4625    0.2583    2.6666 N   0  0  0  0  0  0  0  0  0  0  0  0
   -1.4309    0.3754    2.3860 H   0  0  0  0  0  0  0  0  0  0  0  0
   -0.1275    0.4111    4.0813 C   0  0  0  0  0  0  0  0  0  0  0  0
    0.6862    1.1312    4.1910 H   0  0  0  0  0  0  0  0  0  0  0  0
   -0.9980    0.7641    4.6360 H   0  0  0  0  0  0  0  0  0  0  0  0
    0.1959   -0.5481    4.4891 H   0  0  0  0  0  0  0  0  0  0  0  0
  5  6  2  0  0  0  0
  5  7  1  0  0  0  0
  2  3  1  0  0  0  0
  2  4  1  0  0  0  0
  2  5  1  0  0  0  0
  1  2  1  0  0  0  0
 19 20  2  0  0  0  0
 19 21  1  0  0  0  0
 16 17  1  0  0  0  0
 16 18  1  0  0  0  0
 14 15  2  0  0  0  0
 14 16  1  0  0  0  0
 11 12  1  0  0  0  0
 11 13  1  0  0  0  0
 11 14  1  0  0  0  0
  9 10  1  0  0  0  0
  9 11  1  0  0  0  0
  9 19  1  0  0  0  0
  7  8  1  0  0  0  0
  7  9  1  0  0  0  0
 23 24  1  0  0  0  0
 23 25  1  0  0  0  0
 23 26  1  0  0  0  0
 21 22  1  0  0  0  0
 21 23  1  0  0  0  0
M  END
$$$$
default_name
  -OEChem-02102213163D

 26 25  0     1  0  0  0  0  0999 V2000
   -3.0232   -3.6924    1.0038 H   0  0  0  0  0  0  0  0  0  0  0  0
   -3.0082   -2.6684    0.6318 C   0  0  0  0  0  0  0  0  0  0  0  0
   -3.6332   -2.0414    1.2658 H   0  0  0  0  0  0  0  0  0  0  0  0
   -3.3762   -2.6444   -0.3912 H   0  0  0  0  0  0  0  0  0  0  0  0
   -1.5882   -2.1554    0.6658 C   0  0  0  0  0  0  0  0  0  0  0  0
   -0.6832   -2.8764    1.0638 O   0  0  0  0  0  0  0  0  0  0  0  0
   -1.3952   -0.9084    0.2428 N   0  0  0  0  0  0  0  0  0  0  0  0
   -2.1972   -0.3644   -0.0422 H   0  0  0  0  0  0  0  0  0  0  0  0
   -0.1122   -0.1994    0.2658 C   0  0  1  0  0  0  0  0  0  0  0  0
    0.6131   -0.7748   -0.3153 H   0  0  0  0  0  0  0  0  0  0  0  0
   -0.2973    1.1841   -0.3966 C   0  0  0  0  0  0  0  0  0  0  0  0
   -0.8394    1.8375    0.2861 H   0  0  0  0  0  0  0  0  0  0  0  0
    0.6801    1.6242   -0.5881 H   0  0  0  0  0  0  0  0  0  0  0  0
   -1.0894    1.1475   -1.6937 C   0  0  0  0  0  0  0  0  0  0  0  0
   -1.9575    0.3221   -1.9178 O   0  0  0  0  0  0  0  0  0  0  0  0
   -0.8091    2.0450   -2.6070 N   0  0  0  0  0  0  0  0  0  0  0  0
   -1.3603    2.0074   -3.4463 H   0  0  0  0  0  0  0  0  0  0  0  0
   -0.1128    2.7465   -2.4394 H   0  0  0  0  0  0  0  0  0  0  0  0
    0.4075   -0.0985    1.7169 C   0  0  0  0  0  0  0  0  0  0  0  0
    1.5860   -0.3526    1.9662 O   0  0  0  0  0  0  0  0  0  0  0  0
   -0.4625    0.2583    2.6666 N   0  0  0  0  0  0  0  0  0  0  0  0
   -1.4309    0.3754    2.3860 H   0  0  0  0  0  0  0  0  0  0  0  0
   -0.1275    0.4111    4.0813 C   0  0  0  0  0  0  0  0  0  0  0  0
    0.6862    1.1312    4.1910 H   0  0  0  0  0  0  0  0  0  0  0  0
   -0.9980    0.7641    4.6360 H   0  0  0  0  0  0  0  0  0  0  0  0
    0.1959   -0.5481    4.4891 H   0  0  0  0  0  0  0  0  0  0  0  0
  5  6  2  0  0  0  0
  5  7  1  0  0  0  0
  2  3  1  0  0  0  0
  2  4  1  0  0  0  0
  2  5  1  0  0  0  0
  1  2  1  0  0  0  0
 19 20  2  0  0  0  0
 19 21  1  0  0  0  0
 16 17  1  0  0  0  0
 16 18  1  0  0  0  0
 14 15  2  0  0  0  0
 14 16  1  0  0  0  0
 11 12  1  0  0  0  0
 11 13  1  0  0  0  0
 11 14  1  0  0  0  0
  9 10  1  0  0  0  0
  9 11  1  0  0  0  0
  9 19  1  0  0  0  0
  7  8  1  0  0  0  0
  7  9  1  0  0  0  0
 23 24  1  0  0  0  0
 23 25  1  0  0  0  0
 23 26  1  0  0  0  0
 21 22  1  0  0  0  0
 21 23  1  0  0  0  0
M  END
$$$$
default_name
  -OEChem-02102213163D

 26 25  0     1  0  0  0  0  0999 V2000
   -3.0232   -3.6924    1.0038 H   0  0  0  0  0  0  0  0  0  0  0  0
   -3.0082   -2.6684    0.6318 C   0  0  0  0  0  0  0  0  0  0  0  0
   -3.6332   -2.0414    1.2658 H   0  0  0  0  0  0  0  0  0  0  0  0
   -3.3762   -2.6444   -0.3912 H   0  0  0  0  0  0  0  0  0  0  0  0
   -1.5882   -2.1554    0.6658 C   0  0  0  0  0  0  0  0  0  0  0  0
   -0.6832   -2.8764    1.0638 O   0  0  0  0  0  0  0  0  0  0  0  0
   -1.3952   -0.9084    0.2428 N   0  0  0  0  0  0  0  0  0  0  0  0
   -2.1972   -0.3644   -0.0422 H   0  0  0  0  0  0  0  0  0  0  0  0
   -0.1122   -0.1994    0.2658 C   0  0  1  0  0  0  0  0  0  0  0  0
    0.6131   -0.7748   -0.3153 H   0  0  0  0  0  0  0  0  0  0  0  0
   -0.2973    1.1841   -0.3966 C   0  0  0  0  0  0  0  0  0  0  0  0
   -0.8394    1.8375    0.2861 H   0  0  0  0  0  0  0  0  0  0  0  0
    0.6801    1.6242   -0.5881 H   0  0  0  0  0  0  0  0  0  0  0  0
   -1.0894    1.1475   -1.6937 C   0  0  0  0  0  0  0  0  0  0  0  0
   -2.1205    0.5111   -1.8236 O   0  0  0  0  0  0  0  0  0  0  0  0
   -0.6257    1.8289   -2.7130 N   0  0  0  0  0  0  0  0  0  0  0  0
   -1.1790    1.8003   -3.5512 H   0  0  0  0  0  0  0  0  0  0  0  0
    0.2101    2.3757   -2.6261 H   0  0  0  0  0  0  0  0  0  0  0  0
    0.4075   -0.0985    1.7169 C   0  0  0  0  0  0  0  0  0  0  0  0
    1.5860   -0.3526    1.9662 O   0  0  0  0  0  0  0  0  0  0  0  0
   -0.4625    0.2583    2.6666 N   0  0  0  0  0  0  0  0  0  0  0  0
   -1.4309    0.3754    2.3860 H   0  0  0  0  0  0  0  0  0  0  0  0
   -0.1275    0.4111    4.0813 C   0  0  0  0  0  0  0  0  0  0  0  0
    0.6862    1.1312    4.1910 H   0  0  0  0  0  0  0  0  0  0  0  0
   -0.9980    0.7641    4.6360 H   0  0  0  0  0  0  0  0  0  0  0  0
    0.1959   -0.5481    4.4891 H   0  0  0  0  0  0  0  0  0  0  0  0
  5  6  2  0  0  0  0
  5  7  1  0  0  0  0
  2  3  1  0  0  0  0
  2  4  1  0  0  0  0
  2  5  1  0  0  0  0
  1  2  1  0  0  0  0
 19 20  2  0  0  0  0
 19 21  1  0  0  0  0
 16 17  1  0  0  0  0
 16 18  1  0  0  0  0
 14 15  2  0  0  0  0
 14 16  1  0  0  0  0
 11 12  1  0  0  0  0
 11 13  1  0  0  0  0
 11 14  1  0  0  0  0
  9 10  1  0  0  0  0
  9 11  1  0  0  0  0
  9 19  1  0  0  0  0
  7  8  1  0  0  0  0
  7  9  1  0  0  0  0
 23 24  1  0  0  0  0
 23 25  1  0  0  0  0
 23 26  1  0  0  0  0
 21 22  1  0  0  0  0
 21 23  1  0  0  0  0
M  END
$$$$
default_name
  -OEChem-02102213163D

 26 25  0     1  0  0  0  0  0999 V2000
   -3.0232   -3.6924    1.0038 H   0  0  0  0  0  0  0  0  0  0  0  0
   -3.0082   -2.6684    0.6318 C   0  0  0  0  0  0  0  0  0  0  0  0
   -3.6332   -2.0414    1.2658 H   0  0  0  0  0  0  0  0  0  0  0  0
   -3.3762   -2.6444   -0.3912 H   0  0  0  0  0  0  0  0  0  0  0  0
   -1.5882   -2.1554    0.6658 C   0  0  0  0  0  0  0  0  0  0  0  0
   -0.6832   -2.8764    1.0638 O   0  0  0  0  0  0  0  0  0  0  0  0
   -1.3952   -0.9084    0.2428 N   0  0  0  0  0  0  0  0  0  0  0  0
   -2.1972   -0.3644   -0.0422 H   0  0  0  0  0  0  0  0  0  0  0  0
   -0.1122   -0.1994    0.2658 C   0  0  1  0  0  0  0  0  0  0  0  0
    0.6131   -0.7748   -0.3153 H   0  0  0  0  0  0  0  0  0  0  0  0
   -0.2973    1.1841   -0.3966 C   0  0  0  0  0  0  0  0  0  0  0  0
   -0.8394    1.8375    0.2861 H   0  0  0  0  0  0  0  0  0  0  0  0
    0.6801    1.6242   -0.5881 H   0  0  0  0  0  0  0  0  0  0  0  0
   -1.0894    1.1475   -1.6937 C   0  0  0  0  0  0  0  0  0  0  0  0
   -2.2369    0.7424   -1.7590 O   0  0  0  0  0  0  0  0  0  0  0  0
   -0.4955    1.5653   -2.7850 N   0  0  0  0  0  0  0  0  0  0  0  0
   -1.0489    1.5460   -3.6235 H   0  0  0  0  0  0  0  0  0  0  0  0
    0.4413    1.9211   -2.7544 H   0  0  0  0  0  0  0  0  0  0  0  0
    0.4075   -0.0985    1.7169 C   0  0  0  0  0  0  0  0  0  0  0  0
    1.5860   -0.3526    1.9662 O   0  0  0  0  0  0  0  0  0  0  0  0
   -0.4625    0.2583    2.6666 N   0  0  0  0  0  0  0  0  0  0  0  0
   -1.4309    0.3754    2.3860 H   0  0  0  0  0  0  0  0  0  0  0  0
   -0.1275    0.4111    4.0813 C   0  0  0  0  0  0  0  0  0  0  0  0
    0.6862    1.1312    4.1910 H   0  0  0  0  0  0  0  0  0  0  0  0
   -0.9980    0.7641    4.6360 H   0  0  0  0  0  0  0  0  0  0  0  0
    0.1959   -0.5481    4.4891 H   0  0  0  0  0  0  0  0  0  0  0  0
  5  6  2  0  0  0  0
  5  7  1  0  0  0  0
  2  3  1  0  0  0  0
  2  4  1  0  0  0  0
  2  5  1  0  0  0  0
  1  2  1  0  0  0  0
 19 20  2  0  0  0  0
 19 21  1  0  0  0  0
 16 17  1  0  0  0  0
 16 18  1  0  0  0  0
 14 15  2  0  0  0  0
 14 16  1  0  0  0  0
 11 12  1  0  0  0  0
 11 13  1  0  0  0  0
 11 14  1  0  0  0  0
  9 10  1  0  0  0  0
  9 11  1  0  0  0  0
  9 19  1  0  0  0  0
  7  8  1  0  0  0  0
  7  9  1  0  0  0  0
 23 24  1  0  0  0  0
 23 25  1  0  0  0  0
 23 26  1  0  0  0  0
 21 22  1  0  0  0  0
 21 23  1  0  0  0  0
M  END
$$$$
default_name
  -OEChem-02102213163D

 26 25  0     1  0  0  0  0  0999 V2000
   -3.0232   -3.6924    1.0038 H   0  0  0  0  0  0  0  0  0  0  0  0
   -3.0082   -2.6684    0.6318 C   0  0  0  0  0  0  0  0  0  0  0  0
   -3.6332   -2.0414    1.2658 H   0  0  0  0  0  0  0  0  0  0  0  0
   -3.3762   -2.6444   -0.3912 H   0  0  0  0  0  0  0  0  0  0  0  0
   -1.5882   -2.1554    0.6658 C   0  0  0  0  0  0  0  0  0  0  0  0
   -0.6832   -2.8764    1.0638 O   0  0  0  0  0  0  0  0  0  0  0  0
   -1.3952   -0.9084    0.2428 N   0  0  0  0  0  0  0  0  0  0  0  0
   -2.1972   -0.3644   -0.0422 H   0  0  0  0  0  0  0  0  0  0  0  0
   -0.1122   -0.1994    0.2658 C   0  0  1  0  0  0  0  0  0  0  0  0
    0.6131   -0.7748   -0.3153 H   0  0  0  0  0  0  0  0  0  0  0  0
   -0.2973    1.1841   -0.3966 C   0  0  0  0  0  0  0  0  0  0  0  0
   -0.8394    1.8375    0.2861 H   0  0  0  0  0  0  0  0  0  0  0  0
    0.6801    1.6242   -0.5881 H   0  0  0  0  0  0  0  0  0  0  0  0
   -1.0894    1.1475   -1.6937 C   0  0  0  0  0  0  0  0  0  0  0  0
   -2.2986    1.0003   -1.7286 O   0  0  0  0  0  0  0  0  0  0  0  0
   -0.4275    1.2723   -2.8183 N   0  0  0  0  0  0  0  0  0  0  0  0
   -0.9789    1.2620   -3.6582 H   0  0  0  0  0  0  0  0  0  0  0  0
    0.5650    1.4136   -2.8156 H   0  0  0  0  0  0  0  0  0  0  0  0
    0.4075   -0.0985    1.7169 C   0  0  0  0  0  0  0  0  0  0  0  0
    1.5860   -0.3526    1.9662 O   0  0  0  0  0  0  0  0  0  0  0  0
   -0.4625    0.2583    2.6666 N   0  0  0  0  0  0  0  0  0  0  0  0
   -1.4309    0.3754    2.3860 H   0  0  0  0  0  0  0  0  0  0  0  0
   -0.1275    0.4111    4.0813 C   0  0  0  0  0  0  0  0  0  0  0  0
    0.6862    1.1312    4.1910 H   0  0  0  0  0  0  0  0  0  0  0  0
   -0.9980    0.7641    4.6360 H   0  0  0  0  0  0  0  0  0  0  0  0
    0.1959   -0.5481    4.4891 H   0  0  0  0  0  0  0  0  0  0  0  0
  5  6  2  0  0  0  0
  5  7  1  0  0  0  0
  2  3  1  0  0  0  0
  2  4  1  0  0  0  0
  2  5  1  0  0  0  0
  1  2  1  0  0  0  0
 19 20  2  0  0  0  0
 19 21  1  0  0  0  0
 16 17  1  0  0  0  0
 16 18  1  0  0  0  0
 14 15  2  0  0  0  0
 14 16  1  0  0  0  0
 11 12  1  0  0  0  0
 11 13  1  0  0  0  0
 11 14  1  0  0  0  0
  9 10  1  0  0  0  0
  9 11  1  0  0  0  0
  9 19  1  0  0  0  0
  7  8  1  0  0  0  0
  7  9  1  0  0  0  0
 23 24  1  0  0  0  0
 23 25  1  0  0  0  0
 23 26  1  0  0  0  0
 21 22  1  0  0  0  0
 21 23  1  0  0  0  0
M  END
$$$$
default_name
  -OEChem-02102213163D

 26 25  0     1  0  0  0  0  0999 V2000
   -3.0232   -3.6924    1.0038 H   0  0  0  0  0  0  0  0  0  0  0  0
   -3.0082   -2.6684    0.6318 C   0  0  0  0  0  0  0  0  0  0  0  0
   -3.6332   -2.0414    1.2658 H   0  0  0  0  0  0  0  0  0  0  0  0
   -3.3762   -2.6444   -0.3912 H   0  0  0  0  0  0  0  0  0  0  0  0
   -1.5882   -2.1554    0.6658 C   0  0  0  0  0  0  0  0  0  0  0  0
   -0.6832   -2.8764    1.0638 O   0  0  0  0  0  0  0  0  0  0  0  0
   -1.3952   -0.9084    0.2428 N   0  0  0  0  0  0  0  0  0  0  0  0
   -2.1972   -0.3644   -0.0422 H   0  0  0  0  0  0  0  0  0  0  0  0
   -0.1122   -0.1994    0.2658 C   0  0  1  0  0  0  0  0  0  0  0  0
    0.6131   -0.7748   -0.3153 H   0  0  0  0  0  0  0  0  0  0  0  0
   -0.2973    1.1841   -0.3966 C   0  0  0  0  0  0  0  0  0  0  0  0
   -0.8394    1.8375    0.2861 H   0  0  0  0  0  0  0  0  0  0  0  0
    0.6801    1.6242   -0.5881 H   0  0  0  0  0  0  0  0  0  0  0  0
   -1.0894    1.1475   -1.6937 C   0  0  0  0  0  0  0  0  0  0  0  0
   -2.3015    1.2671   -1.7344 O   0  0  0  0  0  0  0  0  0  0  0  0
   -0.4264    0.9697   -2.8104 N   0  0  0  0  0  0  0  0  0  0  0  0
   -0.9739    0.9675   -3.6530 H   0  0  0  0  0  0  0  0  0  0  0  0
    0.5728    0.8878   -2.8056 H   0  0  0  0  0  0  0  0  0  0  0  0
    0.4075   -0.0985    1.7169 C   0  0  0  0  0  0  0  0  0  0  0  0
    1.5860   -0.3526    1.9662 O   0  0  0  0  0  0  0  0  0  0  0  0
   -0.4625    0.2583    2.6666 N   0  0  0  0  0  0  0  0  0  0  0  0
   -1.4309    0.3754    2.3860 H   0  0  0  0  0  0  0  0  0  0  0  0
   -0.1275    0.4111    4.0813 C   0  0  0  0  0  0  0  0  0  0  0  0
    0.6862    1.1312    4.1910 H   0  0  0  0  0  0  0  0  0  0  0  0
   -0.9980    0.7641    4.6360 H   0  0  0  0  0  0  0  0  0  0  0  0
    0.1959   -0.5481    4.4891 H   0  0  0  0  0  0  0  0  0  0  0  0
  5  6  2  0  0  0  0
  5  7  1  0  0  0  0
  2  3  1  0  0  0  0
  2  4  1  0  0  0  0
  2  5  1  0  0  0  0
  1  2  1  0  0  0  0
 19 20  2  0  0  0  0
 19 21  1  0  0  0  0
 16 17  1  0  0  0  0
 16 18  1  0  0  0  0
 14 15  2  0  0  0  0
 14 16  1  0  0  0  0
 11 12  1  0  0  0  0
 11 13  1  0  0  0  0
 11 14  1  0  0  0  0
  9 10  1  0  0  0  0
  9 11  1  0  0  0  0
  9 19  1  0  0  0  0
  7  8  1  0  0  0  0
  7  9  1  0  0  0  0
 23 24  1  0  0  0  0
 23 25  1  0  0  0  0
 23 26  1  0  0  0  0
 21 22  1  0  0  0  0
 21 23  1  0  0  0  0
M  END
$$$$
default_name
  -OEChem-02102213163D

 26 25  0     1  0  0  0  0  0999 V2000
   -3.0232   -3.6924    1.0038 H   0  0  0  0  0  0  0  0  0  0  0  0
   -3.0082   -2.6684    0.6318 C   0  0  0  0  0  0  0  0  0  0  0  0
   -3.6332   -2.0414    1.2658 H   0  0  0  0  0  0  0  0  0  0  0  0
   -3.3762   -2.6444   -0.3912 H   0  0  0  0  0  0  0  0  0  0  0  0
   -1.5882   -2.1554    0.6658 C   0  0  0  0  0  0  0  0  0  0  0  0
   -0.6832   -2.8764    1.0638 O   0  0  0  0  0  0  0  0  0  0  0  0
   -1.3952   -0.9084    0.2428 N   0  0  0  0  0  0  0  0  0  0  0  0
   -2.1972   -0.3644   -0.0422 H   0  0  0  0  0  0  0  0  0  0  0  0
   -0.1122   -0.1994    0.2658 C   0  0  1  0  0  0  0  0  0  0  0  0
    0.6131   -0.7748   -0.3153 H   0  0  0  0  0  0  0  0  0  0  0  0
   -0.2973    1.1841   -0.3966 C   0  0  0  0  0  0  0  0  0  0  0  0
   -0.8394    1.8375    0.2861 H   0  0  0  0  0  0  0  0  0  0  0  0
    0.6801    1.6242   -0.5881 H   0  0  0  0  0  0  0  0  0  0  0  0
   -1.0894    1.1475   -1.6937 C   0  0  0  0  0  0  0  0  0  0  0  0
   -2.2453    1.5247   -1.7759 O   0  0  0  0  0  0  0  0  0  0  0  0
   -0.4921    0.6783   -2.7621 N   0  0  0  0  0  0  0  0  0  0  0  0
   -1.0341    0.6826   -3.6082 H   0  0  0  0  0  0  0  0  0  0  0  0
    0.4641    0.3796   -2.7249 H   0  0  0  0  0  0  0  0  0  0  0  0
    0.4075   -0.0985    1.7169 C   0  0  0  0  0  0  0  0  0  0  0  0
    1.5860   -0.3526    1.9662 O   0  0  0  0  0  0  0  0  0  0  0  0
   -0.4625    0.2583    2.6666 N   0  0  0  0  0  0  0  0  0  0  0  0
   -1.4309    0.3754    2.3860 H   0  0  0  0  0  0  0  0  0  0  0  0
   -0.1275    0.4111    4.0813 C   0  0  0  0  0  0  0  0  0  0  0  0
    0.6862    1.1312    4.1910 H   0  0  0  0  0  0  0  0  0  0  0  0
   -0.9980    0.7641    4.6360 H   0  0  0  0  0  0  0  0  0  0  0  0
    0.1959   -0.5481    4.4891 H   0  0  0  0  0  0  0  0  0  0  0  0
  5  6  2  0  0  0  0
  5  7  1  0  0  0  0
  2  3  1  0  0  0  0
  2  4  1  0  0  0  0
  2  5  1  0  0  0  0
  1  2  1  0  0  0  0
 19 20  2  0  0  0  0
 19 21  1  0  0  0  0
 16 17  1  0  0  0  0
 16 18  1  0  0  0  0
 14 15  2  0  0  0  0
 14 16  1  0  0  0  0
 11 12  1  0  0  0  0
 11 13  1  0  0  0  0
 11 14  1  0  0  0  0
  9 10  1  0  0  0  0
  9 11  1  0  0  0  0
  9 19  1  0  0  0  0
  7  8  1  0  0  0  0
  7  9  1  0  0  0  0
 23 24  1  0  0  0  0
 23 25  1  0  0  0  0
 23 26  1  0  0  0  0
 21 22  1  0  0  0  0
 21 23  1  0  0  0  0
M  END
$$$$
default_name
  -OEChem-02102213163D

 26 25  0     1  0  0  0  0  0999 V2000
   -3.0232   -3.6924    1.0038 H   0  0  0  0  0  0  0  0  0  0  0  0
   -3.0082   -2.6684    0.6318 C   0  0  0  0  0  0  0  0  0  0  0  0
   -3.6332   -2.0414    1.2658 H   0  0  0  0  0  0  0  0  0  0  0  0
   -3.3762   -2.6444   -0.3912 H   0  0  0  0  0  0  0  0  0  0  0  0
   -1.5882   -2.1554    0.6658 C   0  0  0  0  0  0  0  0  0  0  0  0
   -0.6832   -2.8764    1.0638 O   0  0  0  0  0  0  0  0  0  0  0  0
   -1.3952   -0.9084    0.2428 N   0  0  0  0  0  0  0  0  0  0  0  0
   -2.1972   -0.3644   -0.0422 H   0  0  0  0  0  0  0  0  0  0  0  0
   -0.1122   -0.1994    0.2658 C   0  0  1  0  0  0  0  0  0  0  0  0
    0.6131   -0.7748   -0.3153 H   0  0  0  0  0  0  0  0  0  0  0  0
   -0.2973    1.1841   -0.3966 C   0  0  0  0  0  0  0  0  0  0  0  0
   -0.8394    1.8375    0.2861 H   0  0  0  0  0  0  0  0  0  0  0  0
    0.6801    1.6242   -0.5881 H   0  0  0  0  0  0  0  0  0  0  0  0
   -1.0894    1.1475   -1.6937 C   0  0  0  0  0  0  0  0  0  0  0  0
   -2.1339    1.7554   -1.8505 O   0  0  0  0  0  0  0  0  0  0  0  0
   -0.6203    0.4178   -2.6765 N   0  0  0  0  0  0  0  0  0  0  0  0
   -1.1554    0.4267   -3.5269 H   0  0  0  0  0  0  0  0  0  0  0  0
    0.2464   -0.0764   -2.5791 H   0  0  0  0  0  0  0  0  0  0  0  0
    0.4075   -0.0985    1.7169 C   0  0  0  0  0  0  0  0  0  0  0  0
    1.5860   -0.3526    1.9662 O   0  0  0  0  0  0  0  0  0  0  0  0
   -0.4625    0.2583    2.6666 N   0  0  0  0  0  0  0  0  0  0  0  0
   -1.4309    0.3754    2.3860 H   0  0  0  0  0  0  0  0  0  0  0  0
   -0.1275    0.4111    4.0813 C   0  0  0  0  0  0  0  0  0  0  0  0
    0.6862    1.1312    4.1910 H   0  0  0  0  0  0  0  0  0  0  0  0
   -0.9980    0.7641    4.6360 H   0  0  0  0  0  0  0  0  0  0  0  0
    0.1959   -0.5481    4.4891 H   0  0  0  0  0  0  0  0  0  0  0  0
  5  6  2  0  0  0  0
  5  7  1  0  0  0  0
  2  3  1  0  0  0  0
  2  4  1  0  0  0  0
  2  5  1  0  0  0  0
  1  2  1  0  0  0  0
 19 20  2  0  0  0  0
 19 21  1  0  0  0  0
 16 17  1  0  0  0  0
 16 18  1  0  0  0  0
 14 15  2  0  0  0  0
 14 16  1  0  0  0  0
 11 12  1  0  0  0  0
 11 13  1  0  0  0  0
 11 14  1  0  0  0  0
  9 10  1  0  0  0  0
  9 11  1  0  0  0  0
  9 19  1  0  0  0  0
  7  8  1  0  0  0  0
  7  9  1  0  0  0  0
 23 24  1  0  0  0  0
 23 25  1  0  0  0  0
 23 26  1  0  0  0  0
 21 22  1  0  0  0  0
 21 23  1  0  0  0  0
M  END
$$$$
default_name
  -OEChem-02102213163D

 26 25  0     1  0  0  0  0  0999 V2000
   -3.0232   -3.6924    1.0038 H   0  0  0  0  0  0  0  0  0  0  0  0
   -3.0082   -2.6684    0.6318 C   0  0  0  0  0  0  0  0  0  0  0  0
   -3.6332   -2.0414    1.2658 H   0  0  0  0  0  0  0  0  0  0  0  0
   -3.3762   -2.6444   -0.3912 H   0  0  0  0  0  0  0  0  0  0  0  0
   -1.5882   -2.1554    0.6658 C   0  0  0  0  0  0  0  0  0  0  0  0
   -0.6832   -2.8764    1.0638 O   0  0  0  0  0  0  0  0  0  0  0  0
   -1.3952   -0.9084    0.2428 N   0  0  0  0  0  0  0  0  0  0  0  0
   -2.1972   -0.3644   -0.0422 H   0  0  0  0  0  0  0  0  0  0  0  0
   -0.1122   -0.1994    0.2658 C   0  0  1  0  0  0  0  0  0  0  0  0
    0.6131   -0.7748   -0.3153 H   0  0  0  0  0  0  0  0  0  0  0  0
   -0.2973    1.1841   -0.3966 C   0  0  0  0  0  0  0  0  0  0  0  0
   -0.8394    1.8375    0.2861 H   0  0  0  0  0  0  0  0  0  0  0  0
    0.6801    1.6242   -0.5881 H   0  0  0  0  0  0  0  0  0  0  0  0
   -1.0894    1.1475   -1.6937 C   0  0  0  0  0  0  0  0  0  0  0  0
   -1.9749    1.9437   -1.9529 O   0  0  0  0  0  0  0  0  0  0  0  0
   -0.8022    0.2061   -2.5594 N   0  0  0  0  0  0  0  0  0  0  0  0
   -1.3296    0.2173   -3.4146 H   0  0  0  0  0  0  0  0  0  0  0  0
   -0.0654   -0.4492   -2.3782 H   0  0  0  0  0  0  0  0  0  0  0  0
    0.4075   -0.0985    1.7169 C   0  0  0  0  0  0  0  0  0  0  0  0
    1.5860   -0.3526    1.9662 O   0  0  0  0  0  0  0  0  0  0  0  0
   -0.4625    0.2583    2.6666 N   0  0  0  0  0  0  0  0  0  0  0  0
   -1.4309    0.3754    2.3860 H   0  0  0  0  0  0  0  0  0  0  0  0
   -0.1275    0.4111    4.0813 C   0  0  0  0  0  0  0  0  0  0  0  0
    0.6862    1.1312    4.1910 H   0  0  0  0  0  0  0  0  0  0  0  0
   -0.9980    0.7641    4.6360 H   0  0  0  0  0  0  0  0  0  0  0  0
    0.1959   -0.5481    4.4891 H   0  0  0  0  0  0  0  0  0  0  0  0
  5  6  2  0  0  0  0
  5  7  1  0  0  0  0
  2  3  1  0  0  0  0
  2  4  1  0  0  0  0
  2  5  1  0  0  0  0
  1  2  1  0  0  0  0
 19 20  2  0  0  0  0
 19 21  1  0  0  0  0
 16 17  1  0  0  0  0
 16 18  1  0  0  0  0
 14 15  2  0  0  0  0
 14 16  1  0  0  0  0
 11 12  1  0  0  0  0
 11 13  1  0  0  0  0
 11 14  1  0  0  0  0
  9 10  1  0  0  0  0
  9 11  1  0  0  0  0
  9 19  1  0  0  0  0
  7  8  1  0  0  0  0
  7  9  1  0  0  0  0
 23 24  1  0  0  0  0
 23 25  1  0  0  0  0
 23 26  1  0  0  0  0
 21 22  1  0  0  0  0
 21 23  1  0  0  0  0
M  END
$$$$
default_name
  -OEChem-02102213163D

 26 25  0     1  0  0  0  0  0999 V2000
   -3.0232   -3.6924    1.0038 H   0  0  0  0  0  0  0  0  0  0  0  0
   -3.0082   -2.6684    0.6318 C   0  0  0  0  0  0  0  0  0  0  0  0
   -3.6332   -2.0414    1.2658 H   0  0  0  0  0  0  0  0  0  0  0  0
   -3.3762   -2.6444   -0.3912 H   0  0  0  0  0  0  0  0  0  0  0  0
   -1.5882   -2.1554    0.6658 C   0  0  0  0  0  0  0  0  0  0  0  0
   -0.6832   -2.8764    1.0638 O   0  0  0  0  0  0  0  0  0  0  0  0
   -1.3952   -0.9084    0.2428 N   0  0  0  0  0  0  0  0  0  0  0  0
   -2.1972   -0.3644   -0.0422 H   0  0  0  0  0  0  0  0  0  0  0  0
   -0.1122   -0.1994    0.2658 C   0  0  1  0  0  0  0  0  0  0  0  0
    0.6131   -0.7748   -0.3153 H   0  0  0  0  0  0  0  0  0  0  0  0
   -0.2973    1.1841   -0.3966 C   0  0  0  0  0  0  0  0  0  0  0  0
   -0.8394    1.8375    0.2861 H   0  0  0  0  0  0  0  0  0  0  0  0
    0.6801    1.6242   -0.5881 H   0  0  0  0  0  0  0  0  0  0  0  0
   -1.0894    1.1475   -1.6937 C   0  0  0  0  0  0  0  0  0  0  0  0
   -1.7790    2.0766   -2.0762 O   0  0  0  0  0  0  0  0  0  0  0  0
   -1.0253    0.0575   -2.4190 N   0  0  0  0  0  0  0  0  0  0  0  0
   -1.5448    0.0687   -3.2790 H   0  0  0  0  0  0  0  0  0  0  0  0
   -0.4502   -0.7133   -2.1358 H   0  0  0  0  0  0  0  0  0  0  0  0
    0.4075   -0.0985    1.7169 C   0  0  0  0  0  0  0  0  0  0  0  0
    1.5860   -0.3526    1.9662 O   0  0  0  0  0  0  0  0  0  0  0  0
   -0.4625    0.2583    2.6666 N   0  0  0  0  0  0  0  0  0  0  0  0
   -1.4309    0.3754    2.3860 H   0  0  0  0  0  0  0  0  0  0  0  0
   -0.1275    0.4111    4.0813 C   0  0  0  0  0  0  0  0  0  0  0  0
    0.6862    1.1312    4.1910 H   0  0  0  0  0  0  0  0  0  0  0  0
   -0.9980    0.7641    4.6360 H   0  0  0  0  0  0  0  0  0  0  0  0
    0.1959   -0.5481    4.4891 H   0  0  0  0  0  0  0  0  0  0  0  0
  5  6  2  0  0  0  0
  5  7  1  0  0  0  0
  2  3  1  0  0  0  0
  2  4  1  0  0  0  0
  2  5  1  0  0  0  0
  1  2  1  0  0  0  0
 19 20  2  0  0  0  0
 19 21  1  0  0  0  0
 16 17  1  0  0  0  0
 16 18  1  0  0  0  0
 14 15  2  0  0  0  0
 14 16  1  0  0  0  0
 11 12  1  0  0  0  0
 11 13  1  0  0  0  0
 11 14  1  0  0  0  0
  9 10  1  0  0  0  0
  9 11  1  0  0  0  0
  9 19  1  0  0  0  0
  7  8  1  0  0  0  0
  7  9  1  0  0  0  0
 23 24  1  0  0  0  0
 23 25  1  0  0  0  0
 23 26  1  0  0  0  0
 21 22  1  0  0  0  0
 21 23  1  0  0  0  0
M  END
$$$$
default_name
  -OEChem-02102213163D

 26 25  0     1  0  0  0  0  0999 V2000
   -3.0232   -3.6924    1.0038 H   0  0  0  0  0  0  0  0  0  0  0  0
   -3.0082   -2.6684    0.6318 C   0  0  0  0  0  0  0  0  0  0  0  0
   -3.6332   -2.0414    1.2658 H   0  0  0  0  0  0  0  0  0  0  0  0
   -3.3762   -2.6444   -0.3912 H   0  0  0  0  0  0  0  0  0  0  0  0
   -1.5882   -2.1554    0.6658 C   0  0  0  0  0  0  0  0  0  0  0  0
   -0.6832   -2.8764    1.0638 O   0  0  0  0  0  0  0  0  0  0  0  0
   -1.3952   -0.9084    0.2428 N   0  0  0  0  0  0  0  0  0  0  0  0
   -2.1972   -0.3644   -0.0422 H   0  0  0  0  0  0  0  0  0  0  0  0
   -0.1122   -0.1994    0.2658 C   0  0  1  0  0  0  0  0  0  0  0  0
    0.6131   -0.7748   -0.3153 H   0  0  0  0  0  0  0  0  0  0  0  0
   -0.2973    1.1841   -0.3966 C   0  0  0  0  0  0  0  0  0  0  0  0
   -0.8394    1.8375    0.2861 H   0  0  0  0  0  0  0  0  0  0  0  0
    0.6801    1.6242   -0.5881 H   0  0  0  0  0  0  0  0  0  0  0  0
   -1.0894    1.1475   -1.6937 C   0  0  0  0  0  0  0  0  0  0  0  0
   -1.5598    2.1451   -2.2121 O   0  0  0  0  0  0  0  0  0  0  0  0
   -1.2746   -0.0178   -2.2647 N   0  0  0  0  0  0  0  0  0  0  0  0
   -1.7863   -0.0091   -3.1293 H   0  0  0  0  0  0  0  0  0  0  0  0
   -0.8817   -0.8507   -1.8684 H   0  0  0  0  0  0  0  0  0  0  0  0
    0.4075   -0.0985    1.7169 C   0  0  0  0  0  0  0  0  0  0  0  0
    1.5860   -0.3526    1.9662 O   0  0  0  0  0  0  0  0  0  0  0  0
   -0.4625    0.2583    2.6666 N   0  0  0  0  0  0  0  0  0  0  0  0
   -1.4309    0.3754    2.3860 H   0  0  0  0  0  0  0  0  0  0  0  0
   -0.1275    0.4111    4.0813 C   0  0  0  0  0  0  0  0  0  0  0  0
    0.6862    1.1312    4.1910 H   0  0  0  0  0  0  0  0  0  0  0  0
   -0.9980    0.7641    4.6360 H   0  0  0  0  0  0  0  0  0  0  0  0
    0.1959   -0.5481    4.4891 H   0  0  0  0  0  0  0  0  0  0  0  0
  5  6  2  0  0  0  0
  5  7  1  0  0  0  0
  2  3  1  0  0  0  0
  2  4  1  0  0  0  0
  2  5  1  0  0  0  0
  1  2  1  0  0  0  0
 19 20  2  0  0  0  0
 19 21  1  0  0  0  0
 16 17  1  0  0  0  0
 16 18  1  0  0  0  0
 14 15  2  0  0  0  0
 14 16  1  0  0  0  0
 11 12  1  0  0  0  0
 11 13  1  0  0  0  0
 11 14  1  0  0  0  0
  9 10  1  0  0  0  0
  9 11  1  0  0  0  0
  9 19  1  0  0  0  0
  7  8  1  0  0  0  0
  7  9  1  0  0  0  0
 23 24  1  0  0  0  0
 23 25  1  0  0  0  0
 23 26  1  0  0  0  0
 21 22  1  0  0  0  0
 21 23  1  0  0  0  0
M  END
$$$$
default_name
  -OEChem-02102213163D

 26 25  0     1  0  0  0  0  0999 V2000
   -3.0232   -3.6924    1.0038 H   0  0  0  0  0  0  0  0  0  0  0  0
   -3.0082   -2.6684    0.6318 C   0  0  0  0  0  0  0  0  0  0  0  0
   -3.6332   -2.0414    1.2658 H   0  0  0  0  0  0  0  0  0  0  0  0
   -3.3762   -2.6444   -0.3912 H   0  0  0  0  0  0  0  0  0  0  0  0
   -1.5882   -2.1554    0.6658 C   0  0  0  0  0  0  0  0  0  0  0  0
   -0.6832   -2.8764    1.0638 O   0  0  0  0  0  0  0  0  0  0  0  0
   -1.3952   -0.9084    0.2428 N   0  0  0  0  0  0  0  0  0  0  0  0
   -2.1972   -0.3644   -0.0422 H   0  0  0  0  0  0  0  0  0  0  0  0
   -0.1122   -0.1994    0.2658 C   0  0  1  0  0  0  0  0  0  0  0  0
    0.6131   -0.7748   -0.3153 H   0  0  0  0  0  0  0  0  0  0  0  0
   -0.2973    1.1841   -0.3966 C   0  0  0  0  0  0  0  0  0  0  0  0
   -0.5917    1.9075    0.3630 H   0  0  0  0  0  0  0  0  0  0  0  0
    0.6498    1.5058   -0.8270 H   0  0  0  0  0  0  0  0  0  0  0  0
   -1.3696    1.2153   -1.4738 C   0  0  0  0  0  0  0  0  0  0  0  0
   -1.6506    2.2216   -2.1012 O   0  0  0  0  0  0  0  0  0  0  0  0
   -2.0194    0.1043   -1.7224 N   0  0  0  0  0  0  0  0  0  0  0  0
   -2.7098    0.1506   -2.4510 H   0  0  0  0  0  0  0  0  0  0  0  0
   -1.7940   -0.7414   -1.2335 H   0  0  0  0  0  0  0  0  0  0  0  0
    0.4075   -0.0985    1.7169 C   0  0  0  0  0  0  0  0  0  0  0  0
    1.5860   -0.3526    1.9662 O   0  0  0  0  0  0  0  0  0  0  0  0
   -0.4625    0.2583    2.6666 N   0  0  0  0  0  0  0  0  0  0  0  0
   -1.4309    0.3754    2.3860 H   0  0  0  0  0  0  0  0  0  0  0  0
   -0.1275    0.4111    4.0813 C   0  0  0  0  0  0  0  0  0  0  0  0
    0.6862    1.1312    4.1910 H   0  0  0  0  0  0  0  0  0  0  0  0
   -0.9980    0.7641    4.6360 H   0  0  0  0  0  0  0  0  0  0  0  0
    0.1959   -0.5481    4.4891 H   0  0  0  0  0  0  0  0  0  0  0  0
  5  6  2  0  0  0  0
  5  7  1  0  0  0  0
  2  3  1  0  0  0  0
  2  4  1  0  0  0  0
  2  5  1  0  0  0  0
  1  2  1  0  0  0  0
 19 20  2  0  0  0  0
 19 21  1  0  0  0  0
 16 17  1  0  0  0  0
 16 18  1  0  0  0  0
 14 15  2  0  0  0  0
 14 16  1  0  0  0  0
 11 12  1  0  0  0  0
 11 13  1  0  0  0  0
 11 14  1  0  0  0  0
  9 10  1  0  0  0  0
  9 11  1  0  0  0  0
  9 19  1  0  0  0  0
  7  8  1  0  0  0  0
  7  9  1  0  0  0  0
 23 24  1  0  0  0  0
 23 25  1  0  0  0  0
 23 26  1  0  0  0  0
 21 22  1  0  0  0  0
 21 23  1  0  0  0  0
M  END
$$$$
default_name
  -OEChem-02102213163D

 26 25  0     1  0  0  0  0  0999 V2000
   -3.0232   -3.6924    1.0038 H   0  0  0  0  0  0  0  0  0  0  0  0
   -3.0082   -2.6684    0.6318 C   0  0  0  0  0  0  0  0  0  0  0  0
   -3.6332   -2.0414    1.2658 H   0  0  0  0  0  0  0  0  0  0  0  0
   -3.3762   -2.6444   -0.3912 H   0  0  0  0  0  0  0  0  0  0  0  0
   -1.5882   -2.1554    0.6658 C   0  0  0  0  0  0  0  0  0  0  0  0
   -0.6832   -2.8764    1.0638 O   0  0  0  0  0  0  0  0  0  0  0  0
   -1.3952   -0.9084    0.2428 N   0  0  0  0  0  0  0  0  0  0  0  0
   -2.1972   -0.3644   -0.0422 H   0  0  0  0  0  0  0  0  0  0  0  0
   -0.1122   -0.1994    0.2658 C   0  0  1  0  0  0  0  0  0  0  0  0
    0.6131   -0.7748   -0.3153 H   0  0  0  0  0  0  0  0  0  0  0  0
   -0.2973    1.1841   -0.3966 C   0  0  0  0  0  0  0  0  0  0  0  0
   -0.5917    1.9075    0.3630 H   0  0  0  0  0  0  0  0  0  0  0  0
    0.6498    1.5058   -0.8270 H   0  0  0  0  0  0  0  0  0  0  0  0
   -1.3696    1.2153   -1.4738 C   0  0  0  0  0  0  0  0  0  0  0  0
   -1.4757    2.1248   -2.2780 O   0  0  0  0  0  0  0  0  0  0  0  0
   -2.2171    0.2164   -1.5224 N   0  0  0  0  0  0  0  0  0  0  0  0
   -2.9034    0.2554   -2.2553 H   0  0  0  0  0  0  0  0  0  0  0  0
   -2.1393   -0.5529   -0.8844 H   0  0  0  0  0  0  0  0  0  0  0  0
    0.4075   -0.0985    1.7169 C   0  0  0  0  0  0  0  0  0  0  0  0
    1.5860   -0.3526    1.9662 O   0  0  0  0  0  0  0  0  0  0  0  0
   -0.4625    0.2583    2.6666 N   0  0  0  0  0  0  0  0  0  0  0  0
   -1.4309    0.3754    2.3860 H   0  0  0  0  0  0  0  0  0  0  0  0
   -0.1275    0.4111    4.0813 C   0  0  0  0  0  0  0  0  0  0  0  0
    0.6862    1.1312    4.1910 H   0  0  0  0  0  0  0  0  0  0  0  0
   -0.9980    0.7641    4.6360 H   0  0  0  0  0  0  0  0  0  0  0  0
    0.1959   -0.5481    4.4891 H   0  0  0  0  0  0  0  0  0  0  0  0
  5  6  2  0  0  0  0
  5  7  1  0  0  0  0
  2  3  1  0  0  0  0
  2  4  1  0  0  0  0
  2  5  1  0  0  0  0
  1  2  1  0  0  0  0
 19 20  2  0  0  0  0
 19 21  1  0  0  0  0
 16 17  1  0  0  0  0
 16 18  1  0  0  0  0
 14 15  2  0  0  0  0
 14 16  1  0  0  0  0
 11 12  1  0  0  0  0
 11 13  1  0  0  0  0
 11 14  1  0  0  0  0
  9 10  1  0  0  0  0
  9 11  1  0  0  0  0
  9 19  1  0  0  0  0
  7  8  1  0  0  0  0
  7  9  1  0  0  0  0
 23 24  1  0  0  0  0
 23 25  1  0  0  0  0
 23 26  1  0  0  0  0
 21 22  1  0  0  0  0
 21 23  1  0  0  0  0
M  END
$$$$
default_name
  -OEChem-02102213163D

 26 25  0     1  0  0  0  0  0999 V2000
   -3.0232   -3.6924    1.0038 H   0  0  0  0  0  0  0  0  0  0  0  0
   -3.0082   -2.6684    0.6318 C   0  0  0  0  0  0  0  0  0  0  0  0
   -3.6332   -2.0414    1.2658 H   0  0  0  0  0  0  0  0  0  0  0  0
   -3.3762   -2.6444   -0.3912 H   0  0  0  0  0  0  0  0  0  0  0  0
   -1.5882   -2.1554    0.6658 C   0  0  0  0  0  0  0  0  0  0  0  0
   -0.6832   -2.8764    1.0638 O   0  0  0  0  0  0  0  0  0  0  0  0
   -1.3952   -0.9084    0.2428 N   0  0  0  0  0  0  0  0  0  0  0  0
   -2.1972   -0.3644   -0.0422 H   0  0  0  0  0  0  0  0  0  0  0  0
   -0.1122   -0.1994    0.2658 C   0  0  1  0  0  0  0  0  0  0  0  0
    0.6131   -0.7748   -0.3153 H   0  0  0  0  0  0  0  0  0  0  0  0
   -0.2973    1.1841   -0.3966 C   0  0  0  0  0  0  0  0  0  0  0  0
   -0.5917    1.9075    0.3630 H   0  0  0  0  0  0  0  0  0  0  0  0
    0.6498    1.5058   -0.8270 H   0  0  0  0  0  0  0  0  0  0  0  0
   -1.3696    1.2153   -1.4738 C   0  0  0  0  0  0  0  0  0  0  0  0
   -1.3255    1.9669   -2.4321 O   0  0  0  0  0  0  0  0  0  0  0  0
   -2.3863    0.3974   -1.3487 N   0  0  0  0  0  0  0  0  0  0  0  0
   -3.0702    0.4279   -2.0843 H   0  0  0  0  0  0  0  0  0  0  0  0
   -2.4364   -0.2439   -0.5798 H   0  0  0  0  0  0  0  0  0  0  0  0
    0.4075   -0.0985    1.7169 C   0  0  0  0  0  0  0  0  0  0  0  0
    1.5860   -0.3526    1.9662 O   0  0  0  0  0  0  0  0  0  0  0  0
   -0.4625    0.2583    2.6666 N   0  0  0  0  0  0  0  0  0  0  0  0
   -1.4309    0.3754    2.3860 H   0  0  0  0  0  0  0  0  0  0  0  0
   -0.1275    0.4111    4.0813 C   0  0  0  0  0  0  0  0  0  0  0  0
    0.6862    1.1312    4.1910 H   0  0  0  0  0  0  0  0  0  0  0  0
   -0.9980    0.7641    4.6360 H   0  0  0  0  0  0  0  0  0  0  0  0
    0.1959   -0.5481    4.4891 H   0  0  0  0  0  0  0  0  0  0  0  0
  5  6  2  0  0  0  0
  5  7  1  0  0  0  0
  2  3  1  0  0  0  0
  2  4  1  0  0  0  0
  2  5  1  0  0  0  0
  1  2  1  0  0  0  0
 19 20  2  0  0  0  0
 19 21  1  0  0  0  0
 16 17  1  0  0  0  0
 16 18  1  0  0  0  0
 14 15  2  0  0  0  0
 14 16  1  0  0  0  0
 11 12  1  0  0  0  0
 11 13  1  0  0  0  0
 11 14  1  0  0  0  0
  9 10  1  0  0  0  0
  9 11  1  0  0  0  0
  9 19  1  0  0  0  0
  7  8  1  0  0  0  0
  7  9  1  0  0  0  0
 23 24  1  0  0  0  0
 23 25  1  0  0  0  0
 23 26  1  0  0  0  0
 21 22  1  0  0  0  0
 21 23  1  0  0  0  0
M  END
$$$$
default_name
  -OEChem-02102213163D

 26 25  0     1  0  0  0  0  0999 V2000
   -3.0232   -3.6924    1.0038 H   0  0  0  0  0  0  0  0  0  0  0  0
   -3.0082   -2.6684    0.6318 C   0  0  0  0  0  0  0  0  0  0  0  0
   -3.6332   -2.0414    1.2658 H   0  0  0  0  0  0  0  0  0  0  0  0
   -3.3762   -2.6444   -0.3912 H   0  0  0  0  0  0  0  0  0  0  0  0
   -1.5882   -2.1554    0.6658 C   0  0  0  0  0  0  0  0  0  0  0  0
   -0.6832   -2.8764    1.0638 O   0  0  0  0  0  0  0  0  0  0  0  0
   -1.3952   -0.9084    0.2428 N   0  0  0  0  0  0  0  0  0  0  0  0
   -2.1972   -0.3644   -0.0422 H   0  0  0  0  0  0  0  0  0  0  0  0
   -0.1122   -0.1994    0.2658 C   0  0  1  0  0  0  0  0  0  0  0  0
    0.6131   -0.7748   -0.3153 H   0  0  0  0  0  0  0  0  0  0  0  0
   -0.2973    1.1841   -0.3966 C   0  0  0  0  0  0  0  0  0  0  0  0
   -0.5917    1.9075    0.3630 H   0  0  0  0  0  0  0  0  0  0  0  0
    0.6498    1.5058   -0.8270 H   0  0  0  0  0  0  0  0  0  0  0  0
   -1.3696    1.2153   -1.4738 C   0  0  0  0  0  0  0  0  0  0  0  0
   -1.2102    1.7588   -2.5529 O   0  0  0  0  0  0  0  0  0  0  0  0
   -2.5157    0.6350   -1.2130 N   0  0  0  0  0  0  0  0  0  0  0  0
   -3.1987    0.6563   -1.9497 H   0  0  0  0  0  0  0  0  0  0  0  0
   -2.6650    0.1648   -0.3404 H   0  0  0  0  0  0  0  0  0  0  0  0
    0.4075   -0.0985    1.7169 C   0  0  0  0  0  0  0  0  0  0  0  0
    1.5860   -0.3526    1.9662 O   0  0  0  0  0  0  0  0  0  0  0  0
   -0.4625    0.2583    2.6666 N   0  0  0  0  0  0  0  0  0  0  0  0
   -1.4309    0.3754    2.3860 H   0  0  0  0  0  0  0  0  0  0  0  0
   -0.1275    0.4111    4.0813 C   0  0  0  0  0  0  0  0  0  0  0  0
    0.6862    1.1312    4.1910 H   0  0  0  0  0  0  0  0  0  0  0  0
   -0.9980    0.7641    4.6360 H   0  0  0  0  0  0  0  0  0  0  0  0
    0.1959   -0.5481    4.4891 H   0  0  0  0  0  0  0  0  0  0  0  0
  5  6  2  0  0  0  0
  5  7  1  0  0  0  0
  2  3  1  0  0  0  0
  2  4  1  0  0  0  0
  2  5  1  0  0  0  0
  1  2  1  0  0  0  0
 19 20  2  0  0  0  0
 19 21  1  0  0  0  0
 16 17  1  0  0  0  0
 16 18  1  0  0  0  0
 14 15  2  0  0  0  0
 14 16  1  0  0  0  0
 11 12  1  0  0  0  0
 11 13  1  0  0  0  0
 11 14  1  0  0  0  0
  9 10  1  0  0  0  0
  9 11  1  0  0  0  0
  9 19  1  0  0  0  0
  7  8  1  0  0  0  0
  7  9  1  0  0  0  0
 23 24  1  0  0  0  0
 23 25  1  0  0  0  0
 23 26  1  0  0  0  0
 21 22  1  0  0  0  0
 21 23  1  0  0  0  0
M  END
$$$$
default_name
  -OEChem-02102213163D

 26 25  0     1  0  0  0  0  0999 V2000
   -3.0232   -3.6924    1.0038 H   0  0  0  0  0  0  0  0  0  0  0  0
   -3.0082   -2.6684    0.6318 C   0  0  0  0  0  0  0  0  0  0  0  0
   -3.6332   -2.0414    1.2658 H   0  0  0  0  0  0  0  0  0  0  0  0
   -3.3762   -2.6444   -0.3912 H   0  0  0  0  0  0  0  0  0  0  0  0
   -1.5882   -2.1554    0.6658 C   0  0  0  0  0  0  0  0  0  0  0  0
   -0.6832   -2.8764    1.0638 O   0  0  0  0  0  0  0  0  0  0  0  0
   -1.3952   -0.9084    0.2428 N   0  0  0  0  0  0  0  0  0  0  0  0
   -2.1972   -0.3644   -0.0422 H   0  0  0  0  0  0  0  0  0  0  0  0
   -0.1122   -0.1994    0.2658 C   0  0  1  0  0  0  0  0  0  0  0  0
    0.6131   -0.7748   -0.3153 H   0  0  0  0  0  0  0  0  0  0  0  0
   -0.2973    1.1841   -0.3966 C   0  0  0  0  0  0  0  0  0  0  0  0
   -0.5917    1.9075    0.3630 H   0  0  0  0  0  0  0  0  0  0  0  0
    0.6498    1.5058   -0.8270 H   0  0  0  0  0  0  0  0  0  0  0  0
   -1.3696    1.2153   -1.4738 C   0  0  0  0  0  0  0  0  0  0  0  0
   -1.1376    1.5145   -2.6322 O   0  0  0  0  0  0  0  0  0  0  0  0
   -2.5964    0.9130   -1.1247 N   0  0  0  0  0  0  0  0  0  0  0  0
   -3.2803    0.9250   -1.8608 H   0  0  0  0  0  0  0  0  0  0  0  0
   -2.8096    0.6451   -0.1825 H   0  0  0  0  0  0  0  0  0  0  0  0
    0.4075   -0.0985    1.7169 C   0  0  0  0  0  0  0  0  0  0  0  0
    1.5860   -0.3526    1.9662 O   0  0  0  0  0  0  0  0  0  0  0  0
   -0.4625    0.2583    2.6666 N   0  0  0  0  0  0  0  0  0  0  0  0
   -1.4309    0.3754    2.3860 H   0  0  0  0  0  0  0  0  0  0  0  0
   -0.1275    0.4111    4.0813 C   0  0  0  0  0  0  0  0  0  0  0  0
    0.6862    1.1312    4.1910 H   0  0  0  0  0  0  0  0  0  0  0  0
   -0.9980    0.7641    4.6360 H   0  0  0  0  0  0  0  0  0  0  0  0
    0.1959   -0.5481    4.4891 H   0  0  0  0  0  0  0  0  0  0  0  0
  5  6  2  0  0  0  0
  5  7  1  0  0  0  0
  2  3  1  0  0  0  0
  2  4  1  0  0  0  0
  2  5  1  0  0  0  0
  1  2  1  0  0  0  0
 19 20  2  0  0  0  0
 19 21  1  0  0  0  0
 16 17  1  0  0  0  0
 16 18  1  0  0  0  0
 14 15  2  0  0  0  0
 14 16  1  0  0  0  0
 11 12  1  0  0  0  0
 11 13  1  0  0  0  0
 11 14  1  0  0  0  0
  9 10  1  0  0  0  0
  9 11  1  0  0  0  0
  9 19  1  0  0  0  0
  7  8  1  0  0  0  0
  7  9  1  0  0  0  0
 23 24  1  0  0  0  0
 23 25  1  0  0  0  0
 23 26  1  0  0  0  0
 21 22  1  0  0  0  0
 21 23  1  0  0  0  0
M  END
$$$$
default_name
  -OEChem-02102213163D

 26 25  0     1  0  0  0  0  0999 V2000
   -3.0232   -3.6924    1.0038 H   0  0  0  0  0  0  0  0  0  0  0  0
   -3.0082   -2.6684    0.6318 C   0  0  0  0  0  0  0  0  0  0  0  0
   -3.6332   -2.0414    1.2658 H   0  0  0  0  0  0  0  0  0  0  0  0
   -3.3762   -2.6444   -0.3912 H   0  0  0  0  0  0  0  0  0  0  0  0
   -1.5882   -2.1554    0.6658 C   0  0  0  0  0  0  0  0  0  0  0  0
   -0.6832   -2.8764    1.0638 O   0  0  0  0  0  0  0  0  0  0  0  0
   -1.3952   -0.9084    0.2428 N   0  0  0  0  0  0  0  0  0  0  0  0
   -2.1972   -0.3644   -0.0422 H   0  0  0  0  0  0  0  0  0  0  0  0
   -0.1122   -0.1994    0.2658 C   0  0  1  0  0  0  0  0  0  0  0  0
    0.6131   -0.7748   -0.3153 H   0  0  0  0  0  0  0  0  0  0  0  0
   -0.2973    1.1841   -0.3966 C   0  0  0  0  0  0  0  0  0  0  0  0
   -0.5917    1.9075    0.3630 H   0  0  0  0  0  0  0  0  0  0  0  0
    0.6498    1.5058   -0.8270 H   0  0  0  0  0  0  0  0  0  0  0  0
   -1.3696    1.2153   -1.4738 C   0  0  0  0  0  0  0  0  0  0  0  0
   -1.1128    1.2508   -2.6646 O   0  0  0  0  0  0  0  0  0  0  0  0
   -2.6229    1.2125   -1.0897 N   0  0  0  0  0  0  0  0  0  0  0  0
   -3.3093    1.2158   -1.8235 H   0  0  0  0  0  0  0  0  0  0  0  0
   -2.8604    1.1644   -0.1169 H   0  0  0  0  0  0  0  0  0  0  0  0
    0.4075   -0.0985    1.7169 C   0  0  0  0  0  0  0  0  0  0  0  0
    1.5860   -0.3526    1.9662 O   0  0  0  0  0  0  0  0  0  0  0  0
   -0.4625    0.2583    2.6666 N   0  0  0  0  0  0  0  0  0  0  0  0
   -1.4309    0.3754    2.3860 H   0  0  0  0  0  0  0  0  0  0  0  0
   -0.1275    0.4111    4.0813 C   0  0  0  0  0  0  0  0  0  0  0  0
    0.6862    1.1312    4.1910 H   0  0  0  0  0  0  0  0  0  0  0  0
   -0.9980    0.7641    4.6360 H   0  0  0  0  0  0  0  0  0  0  0  0
    0.1959   -0.5481    4.4891 H   0  0  0  0  0  0  0  0  0  0  0  0
  5  6  2  0  0  0  0
  5  7  1  0  0  0  0
  2  3  1  0  0  0  0
  2  4  1  0  0  0  0
  2  5  1  0  0  0  0
  1  2  1  0  0  0  0
 19 20  2  0  0  0  0
 19 21  1  0  0  0  0
 16 17  1  0  0  0  0
 16 18  1  0  0  0  0
 14 15  2  0  0  0  0
 14 16  1  0  0  0  0
 11 12  1  0  0  0  0
 11 13  1  0  0  0  0
 11 14  1  0  0  0  0
  9 10  1  0  0  0  0
  9 11  1  0  0  0  0
  9 19  1  0  0  0  0
  7  8  1  0  0  0  0
  7  9  1  0  0  0  0
 23 24  1  0  0  0  0
 23 25  1  0  0  0  0
 23 26  1  0  0  0  0
 21 22  1  0  0  0  0
 21 23  1  0  0  0  0
M  END
$$$$
default_name
  -OEChem-02102213163D

 26 25  0     1  0  0  0  0  0999 V2000
   -3.0232   -3.6924    1.0038 H   0  0  0  0  0  0  0  0  0  0  0  0
   -3.0082   -2.6684    0.6318 C   0  0  0  0  0  0  0  0  0  0  0  0
   -3.6332   -2.0414    1.2658 H   0  0  0  0  0  0  0  0  0  0  0  0
   -3.3762   -2.6444   -0.3912 H   0  0  0  0  0  0  0  0  0  0  0  0
   -1.5882   -2.1554    0.6658 C   0  0  0  0  0  0  0  0  0  0  0  0
   -0.6832   -2.8764    1.0638 O   0  0  0  0  0  0  0  0  0  0  0  0
   -1.3952   -0.9084    0.2428 N   0  0  0  0  0  0  0  0  0  0  0  0
   -2.1972   -0.3644   -0.0422 H   0  0  0  0  0  0  0  0  0  0  0  0
   -0.1122   -0.1994    0.2658 C   0  0  1  0  0  0  0  0  0  0  0  0
    0.6131   -0.7748   -0.3153 H   0  0  0  0  0  0  0  0  0  0  0  0
   -0.2973    1.1841   -0.3966 C   0  0  0  0  0  0  0  0  0  0  0  0
   -0.5917    1.9075    0.3630 H   0  0  0  0  0  0  0  0  0  0  0  0
    0.6498    1.5058   -0.8270 H   0  0  0  0  0  0  0  0  0  0  0  0
   -1.3696    1.2153   -1.4738 C   0  0  0  0  0  0  0  0  0  0  0  0
   -1.1373    0.9855   -2.6479 O   0  0  0  0  0  0  0  0  0  0  0  0
   -2.5933    1.5130   -1.1103 N   0  0  0  0  0  0  0  0  0  0  0  0
   -3.2838    1.5088   -1.8404 H   0  0  0  0  0  0  0  0  0  0  0  0
   -2.8139    1.6873   -0.1481 H   0  0  0  0  0  0  0  0  0  0  0  0
    0.4075   -0.0985    1.7169 C   0  0  0  0  0  0  0  0  0  0  0  0
    1.5860   -0.3526    1.9662 O   0  0  0  0  0  0  0  0  0  0  0  0
   -0.4625    0.2583    2.6666 N   0  0  0  0  0  0  0  0  0  0  0  0
   -1.4309    0.3754    2.3860 H   0  0  0  0  0  0  0  0  0  0  0  0
   -0.1275    0.4111    4.0813 C   0  0  0  0  0  0  0  0  0  0  0  0
    0.6862    1.1312    4.1910 H   0  0  0  0  0  0  0  0  0  0  0  0
   -0.9980    0.7641    4.6360 H   0  0  0  0  0  0  0  0  0  0  0  0
    0.1959   -0.5481    4.4891 H   0  0  0  0  0  0  0  0  0  0  0  0
  5  6  2  0  0  0  0
  5  7  1  0  0  0  0
  2  3  1  0  0  0  0
  2  4  1  0  0  0  0
  2  5  1  0  0  0  0
  1  2  1  0  0  0  0
 19 20  2  0  0  0  0
 19 21  1  0  0  0  0
 16 17  1  0  0  0  0
 16 18  1  0  0  0  0
 14 15  2  0  0  0  0
 14 16  1  0  0  0  0
 11 12  1  0  0  0  0
 11 13  1  0  0  0  0
 11 14  1  0  0  0  0
  9 10  1  0  0  0  0
  9 11  1  0  0  0  0
  9 19  1  0  0  0  0
  7  8  1  0  0  0  0
  7  9  1  0  0  0  0
 23 24  1  0  0  0  0
 23 25  1  0  0  0  0
 23 26  1  0  0  0  0
 21 22  1  0  0  0  0
 21 23  1  0  0  0  0
M  END
$$$$
default_name
  -OEChem-02102213163D

 26 25  0     1  0  0  0  0  0999 V2000
   -3.0232   -3.6924    1.0038 H   0  0  0  0  0  0  0  0  0  0  0  0
   -3.0082   -2.6684    0.6318 C   0  0  0  0  0  0  0  0  0  0  0  0
   -3.6332   -2.0414    1.2658 H   0  0  0  0  0  0  0  0  0  0  0  0
   -3.3762   -2.6444   -0.3912 H   0  0  0  0  0  0  0  0  0  0  0  0
   -1.5882   -2.1554    0.6658 C   0  0  0  0  0  0  0  0  0  0  0  0
   -0.6832   -2.8764    1.0638 O   0  0  0  0  0  0  0  0  0  0  0  0
   -1.3952   -0.9084    0.2428 N   0  0  0  0  0  0  0  0  0  0  0  0
   -2.1972   -0.3644   -0.0422 H   0  0  0  0  0  0  0  0  0  0  0  0
   -0.1122   -0.1994    0.2658 C   0  0  1  0  0  0  0  0  0  0  0  0
    0.6131   -0.7748   -0.3153 H   0  0  0  0  0  0  0  0  0  0  0  0
   -0.2973    1.1841   -0.3966 C   0  0  0  0  0  0  0  0  0  0  0  0
   -0.5917    1.9075    0.3630 H   0  0  0  0  0  0  0  0  0  0  0  0
    0.6498    1.5058   -0.8270 H   0  0  0  0  0  0  0  0  0  0  0  0
   -1.3696    1.2153   -1.4738 C   0  0  0  0  0  0  0  0  0  0  0  0
   -1.2095    0.7369   -2.5832 O   0  0  0  0  0  0  0  0  0  0  0  0
   -2.5098    1.7941   -1.1853 N   0  0  0  0  0  0  0  0  0  0  0  0
   -3.2055    1.7841   -1.9103 H   0  0  0  0  0  0  0  0  0  0  0  0
   -2.6732    2.1782   -0.2739 H   0  0  0  0  0  0  0  0  0  0  0  0
    0.4075   -0.0985    1.7169 C   0  0  0  0  0  0  0  0  0  0  0  0
    1.5860   -0.3526    1.9662 O   0  0  0  0  0  0  0  0  0  0  0  0
   -0.4625    0.2583    2.6666 N   0  0  0  0  0  0  0  0  0  0  0  0
   -1.4309    0.3754    2.3860 H   0  0  0  0  0  0  0  0  0  0  0  0
   -0.1275    0.4111    4.0813 C   0  0  0  0  0  0  0  0  0  0  0  0
    0.6862    1.1312    4.1910 H   0  0  0  0  0  0  0  0  0  0  0  0
   -0.9980    0.7641    4.6360 H   0  0  0  0  0  0  0  0  0  0  0  0
    0.1959   -0.5481    4.4891 H   0  0  0  0  0  0  0  0  0  0  0  0
  5  6  2  0  0  0  0
  5  7  1  0  0  0  0
  2  3  1  0  0  0  0
  2  4  1  0  0  0  0
  2  5  1  0  0  0  0
  1  2  1  0  0  0  0
 19 20  2  0  0  0  0
 19 21  1  0  0  0  0
 16 17  1  0  0  0  0
 16 18  1  0  0  0  0
 14 15  2  0  0  0  0
 14 16  1  0  0  0  0
 11 12  1  0  0  0  0
 11 13  1  0  0  0  0
 11 14  1  0  0  0  0
  9 10  1  0  0  0  0
  9 11  1  0  0  0  0
  9 19  1  0  0  0  0
  7  8  1  0  0  0  0
  7  9  1  0  0  0  0
 23 24  1  0  0  0  0
 23 25  1  0  0  0  0
 23 26  1  0  0  0  0
 21 22  1  0  0  0  0
 21 23  1  0  0  0  0
M  END
$$$$
default_name
  -OEChem-02102213163D

 26 25  0     1  0  0  0  0  0999 V2000
   -3.0232   -3.6924    1.0038 H   0  0  0  0  0  0  0  0  0  0  0  0
   -3.0082   -2.6684    0.6318 C   0  0  0  0  0  0  0  0  0  0  0  0
   -3.6332   -2.0414    1.2658 H   0  0  0  0  0  0  0  0  0  0  0  0
   -3.3762   -2.6444   -0.3912 H   0  0  0  0  0  0  0  0  0  0  0  0
   -1.5882   -2.1554    0.6658 C   0  0  0  0  0  0  0  0  0  0  0  0
   -0.6832   -2.8764    1.0638 O   0  0  0  0  0  0  0  0  0  0  0  0
   -1.3952   -0.9084    0.2428 N   0  0  0  0  0  0  0  0  0  0  0  0
   -2.1972   -0.3644   -0.0422 H   0  0  0  0  0  0  0  0  0  0  0  0
   -0.1122   -0.1994    0.2658 C   0  0  1  0  0  0  0  0  0  0  0  0
    0.6131   -0.7748   -0.3153 H   0  0  0  0  0  0  0  0  0  0  0  0
   -0.2973    1.1841   -0.3966 C   0  0  0  0  0  0  0  0  0  0  0  0
   -0.5917    1.9075    0.3630 H   0  0  0  0  0  0  0  0  0  0  0  0
    0.6498    1.5058   -0.8270 H   0  0  0  0  0  0  0  0  0  0  0  0
   -1.3696    1.2153   -1.4738 C   0  0  0  0  0  0  0  0  0  0  0  0
   -1.3245    0.5218   -2.4749 O   0  0  0  0  0  0  0  0  0  0  0  0
   -2.3780    2.0365   -1.3095 N   0  0  0  0  0  0  0  0  0  0  0  0
   -3.0798    2.0229   -2.0285 H   0  0  0  0  0  0  0  0  0  0  0  0
   -2.4479    2.6036   -0.4858 H   0  0  0  0  0  0  0  0  0  0  0  0
    0.4075   -0.0985    1.7169 C   0  0  0  0  0  0  0  0  0  0  0  0
    1.5860   -0.3526    1.9662 O   0  0  0  0  0  0  0  0  0  0  0  0
   -0.4625    0.2583    2.6666 N   0  0  0  0  0  0  0  0  0  0  0  0
   -1.4309    0.3754    2.3860 H   0  0  0  0  0  0  0  0  0  0  0  0
   -0.1275    0.4111    4.0813 C   0  0  0  0  0  0  0  0  0  0  0  0
    0.6862    1.1312    4.1910 H   0  0  0  0  0  0  0  0  0  0  0  0
   -0.9980    0.7641    4.6360 H   0  0  0  0  0  0  0  0  0  0  0  0
    0.1959   -0.5481    4.4891 H   0  0  0  0  0  0  0  0  0  0  0  0
  5  6  2  0  0  0  0
  5  7  1  0  0  0  0
  2  3  1  0  0  0  0
  2  4  1  0  0  0  0
  2  5  1  0  0  0  0
  1  2  1  0  0  0  0
 19 20  2  0  0  0  0
 19 21  1  0  0  0  0
 16 17  1  0  0  0  0
 16 18  1  0  0  0  0
 14 15  2  0  0  0  0
 14 16  1  0  0  0  0
 11 12  1  0  0  0  0
 11 13  1  0  0  0  0
 11 14  1  0  0  0  0
  9 10  1  0  0  0  0
  9 11  1  0  0  0  0
  9 19  1  0  0  0  0
  7  8  1  0  0  0  0
  7  9  1  0  0  0  0
 23 24  1  0  0  0  0
 23 25  1  0  0  0  0
 23 26  1  0  0  0  0
 21 22  1  0  0  0  0
 21 23  1  0  0  0  0
M  END
$$$$
default_name
  -OEChem-02102213163D

 26 25  0     1  0  0  0  0  0999 V2000
   -3.0232   -3.6924    1.0038 H   0  0  0  0  0  0  0  0  0  0  0  0
   -3.0082   -2.6684    0.6318 C   0  0  0  0  0  0  0  0  0  0  0  0
   -3.6332   -2.0414    1.2658 H   0  0  0  0  0  0  0  0  0  0  0  0
   -3.3762   -2.6444   -0.3912 H   0  0  0  0  0  0  0  0  0  0  0  0
   -1.5882   -2.1554    0.6658 C   0  0  0  0  0  0  0  0  0  0  0  0
   -0.6832   -2.8764    1.0638 O   0  0  0  0  0  0  0  0  0  0  0  0
   -1.3952   -0.9084    0.2428 N   0  0  0  0  0  0  0  0  0  0  0  0
   -2.1972   -0.3644   -0.0422 H   0  0  0  0  0  0  0  0  0  0  0  0
   -0.1122   -0.1994    0.2658 C   0  0  1  0  0  0  0  0  0  0  0  0
    0.6131   -0.7748   -0.3153 H   0  0  0  0  0  0  0  0  0  0  0  0
   -0.2973    1.1841   -0.3966 C   0  0  0  0  0  0  0  0  0  0  0  0
   -0.5917    1.9075    0.3630 H   0  0  0  0  0  0  0  0  0  0  0  0
    0.6498    1.5058   -0.8270 H   0  0  0  0  0  0  0  0  0  0  0  0
   -1.3696    1.2153   -1.4738 C   0  0  0  0  0  0  0  0  0  0  0  0
   -1.4745    0.3549   -2.3305 O   0  0  0  0  0  0  0  0  0  0  0  0
   -2.2068    2.2239   -1.4745 N   0  0  0  0  0  0  0  0  0  0  0  0
   -2.9152    2.2089   -2.1870 H   0  0  0  0  0  0  0  0  0  0  0  0
   -2.1535    2.9345   -0.7693 H   0  0  0  0  0  0  0  0  0  0  0  0
    0.4075   -0.0985    1.7169 C   0  0  0  0  0  0  0  0  0  0  0  0
    1.5860   -0.3526    1.9662 O   0  0  0  0  0  0  0  0  0  0  0  0
   -0.4625    0.2583    2.6666 N   0  0  0  0  0  0  0  0  0  0  0  0
   -1.4309    0.3754    2.3860 H   0  0  0  0  0  0  0  0  0  0  0  0
   -0.1275    0.4111    4.0813 C   0  0  0  0  0  0  0  0  0  0  0  0
    0.6862    1.1312    4.1910 H   0  0  0  0  0  0  0  0  0  0  0  0
   -0.9980    0.7641    4.6360 H   0  0  0  0  0  0  0  0  0  0  0  0
    0.1959   -0.5481    4.4891 H   0  0  0  0  0  0  0  0  0  0  0  0
  5  6  2  0  0  0  0
  5  7  1  0  0  0  0
  2  3  1  0  0  0  0
  2  4  1  0  0  0  0
  2  5  1  0  0  0  0
  1  2  1  0  0  0  0
 19 20  2  0  0  0  0
 19 21  1  0  0  0  0
 16 17  1  0  0  0  0
 16 18  1  0  0  0  0
 14 15  2  0  0  0  0
 14 16  1  0  0  0  0
 11 12  1  0  0  0  0
 11 13  1  0  0  0  0
 11 14  1  0  0  0  0
  9 10  1  0  0  0  0
  9 11  1  0  0  0  0
  9 19  1  0  0  0  0
  7  8  1  0  0  0  0
  7  9  1  0  0  0  0
 23 24  1  0  0  0  0
 23 25  1  0  0  0  0
 23 26  1  0  0  0  0
 21 22  1  0  0  0  0
 21 23  1  0  0  0  0
M  END
$$$$
default_name
  -OEChem-02102213163D

 26 25  0     1  0  0  0  0  0999 V2000
   -3.0232   -3.6924    1.0038 H   0  0  0  0  0  0  0  0  0  0  0  0
   -3.0082   -2.6684    0.6318 C   0  0  0  0  0  0  0  0  0  0  0  0
   -3.6332   -2.0414    1.2658 H   0  0  0  0  0  0  0  0  0  0  0  0
   -3.3762   -2.6444   -0.3912 H   0  0  0  0  0  0  0  0  0  0  0  0
   -1.5882   -2.1554    0.6658 C   0  0  0  0  0  0  0  0  0  0  0  0
   -0.6832   -2.8764    1.0638 O   0  0  0  0  0  0  0  0  0  0  0  0
   -1.3952   -0.9084    0.2428 N   0  0  0  0  0  0  0  0  0  0  0  0
   -2.1972   -0.3644   -0.0422 H   0  0  0  0  0  0  0  0  0  0  0  0
   -0.1122   -0.1994    0.2658 C   0  0  1  0  0  0  0  0  0  0  0  0
    0.6131   -0.7748   -0.3153 H   0  0  0  0  0  0  0  0  0  0  0  0
   -0.2973    1.1841   -0.3966 C   0  0  0  0  0  0  0  0  0  0  0  0
   -0.5917    1.9075    0.3630 H   0  0  0  0  0  0  0  0  0  0  0  0
    0.6498    1.5058   -0.8270 H   0  0  0  0  0  0  0  0  0  0  0  0
   -1.3696    1.2153   -1.4738 C   0  0  0  0  0  0  0  0  0  0  0  0
   -1.6492    0.2475   -2.1597 O   0  0  0  0  0  0  0  0  0  0  0  0
   -2.0080    2.3434   -1.6689 N   0  0  0  0  0  0  0  0  0  0  0  0
   -2.7229    2.3294   -2.3749 H   0  0  0  0  0  0  0  0  0  0  0  0
   -1.8099    3.1483   -1.1051 H   0  0  0  0  0  0  0  0  0  0  0  0
    0.4075   -0.0985    1.7169 C   0  0  0  0  0  0  0  0  0  0  0  0
    1.5860   -0.3526    1.9662 O   0  0  0  0  0  0  0  0  0  0  0  0
   -0.4625    0.2583    2.6666 N   0  0  0  0  0  0  0  0  0  0  0  0
   -1.4309    0.3754    2.3860 H   0  0  0  0  0  0  0  0  0  0  0  0
   -0.1275    0.4111    4.0813 C   0  0  0  0  0  0  0  0  0  0  0  0
    0.6862    1.1312    4.1910 H   0  0  0  0  0  0  0  0  0  0  0  0
   -0.9980    0.7641    4.6360 H   0  0  0  0  0  0  0  0  0  0  0  0
    0.1959   -0.5481    4.4891 H   0  0  0  0  0  0  0  0  0  0  0  0
  5  6  2  0  0  0  0
  5  7  1  0  0  0  0
  2  3  1  0  0  0  0
  2  4  1  0  0  0  0
  2  5  1  0  0  0  0
  1  2  1  0  0  0  0
 19 20  2  0  0  0  0
 19 21  1  0  0  0  0
 16 17  1  0  0  0  0
 16 18  1  0  0  0  0
 14 15  2  0  0  0  0
 14 16  1  0  0  0  0
 11 12  1  0  0  0  0
 11 13  1  0  0  0  0
 11 14  1  0  0  0  0
  9 10  1  0  0  0  0
  9 11  1  0  0  0  0
  9 19  1  0  0  0  0
  7  8  1  0  0  0  0
  7  9  1  0  0  0  0
 23 24  1  0  0  0  0
 23 25  1  0  0  0  0
 23 26  1  0  0  0  0
 21 22  1  0  0  0  0
 21 23  1  0  0  0  0
M  END
$$$$
default_name
  -OEChem-02102213163D

 26 25  0     1  0  0  0  0  0999 V2000
   -3.0232   -3.6924    1.0038 H   0  0  0  0  0  0  0  0  0  0  0  0
   -3.0082   -2.6684    0.6318 C   0  0  0  0  0  0  0  0  0  0  0  0
   -3.6332   -2.0414    1.2658 H   0  0  0  0  0  0  0  0  0  0  0  0
   -3.3762   -2.6444   -0.3912 H   0  0  0  0  0  0  0  0  0  0  0  0
   -1.5882   -2.1554    0.6658 C   0  0  0  0  0  0  0  0  0  0  0  0
   -0.6832   -2.8764    1.0638 O   0  0  0  0  0  0  0  0  0  0  0  0
   -1.3952   -0.9084    0.2428 N   0  0  0  0  0  0  0  0  0  0  0  0
   -2.1972   -0.3644   -0.0422 H   0  0  0  0  0  0  0  0  0  0  0  0
   -0.1122   -0.1994    0.2658 C   0  0  1  0  0  0  0  0  0  0  0  0
    0.6131   -0.7748   -0.3153 H   0  0  0  0  0  0  0  0  0  0  0  0
   -0.2973    1.1841   -0.3966 C   0  0  0  0  0  0  0  0  0  0  0  0
   -0.5917    1.9075    0.3630 H   0  0  0  0  0  0  0  0  0  0  0  0
    0.6498    1.5058   -0.8270 H   0  0  0  0  0  0  0  0  0  0  0  0
   -1.3696    1.2153   -1.4738 C   0  0  0  0  0  0  0  0  0  0  0  0
   -1.8368    0.2070   -1.9742 O   0  0  0  0  0  0  0  0  0  0  0  0
   -1.7951    2.3869   -1.8796 N   0  0  0  0  0  0  0  0  0  0  0  0
   -2.5161    2.3763   -2.5794 H   0  0  0  0  0  0  0  0  0  0  0  0
   -1.4405    3.2306   -1.4704 H   0  0  0  0  0  0  0  0  0  0  0  0
    0.4075   -0.0985    1.7169 C   0  0  0  0  0  0  0  0  0  0  0  0
    1.5860   -0.3526    1.9662 O   0  0  0  0  0  0  0  0  0  0  0  0
   -0.4625    0.2583    2.6666 N   0  0  0  0  0  0  0  0  0  0  0  0
   -1.4309    0.3754    2.3860 H   0  0  0  0  0  0  0  0  0  0  0  0
   -0.1275    0.4111    4.0813 C   0  0  0  0  0  0  0  0  0  0  0  0
    0.6862    1.1312    4.1910 H   0  0  0  0  0  0  0  0  0  0  0  0
   -0.9980    0.7641    4.6360 H   0  0  0  0  0  0  0  0  0  0  0  0
    0.1959   -0.5481    4.4891 H   0  0  0  0  0  0  0  0  0  0  0  0
  5  6  2  0  0  0  0
  5  7  1  0  0  0  0
  2  3  1  0  0  0  0
  2  4  1  0  0  0  0
  2  5  1  0  0  0  0
  1  2  1  0  0  0  0
 19 20  2  0  0  0  0
 19 21  1  0  0  0  0
 16 17  1  0  0  0  0
 16 18  1  0  0  0  0
 14 15  2  0  0  0  0
 14 16  1  0  0  0  0
 11 12  1  0  0  0  0
 11 13  1  0  0  0  0
 11 14  1  0  0  0  0
  9 10  1  0  0  0  0
  9 11  1  0  0  0  0
  9 19  1  0  0  0  0
  7  8  1  0  0  0  0
  7  9  1  0  0  0  0
 23 24  1  0  0  0  0
 23 25  1  0  0  0  0
 23 26  1  0  0  0  0
 21 22  1  0  0  0  0
 21 23  1  0  0  0  0
M  END
$$$$
default_name
  -OEChem-02102213163D

 26 25  0     1  0  0  0  0  0999 V2000
   -3.0232   -3.6924    1.0038 H   0  0  0  0  0  0  0  0  0  0  0  0
   -3.0082   -2.6684    0.6318 C   0  0  0  0  0  0  0  0  0  0  0  0
   -3.6332   -2.0414    1.2658 H   0  0  0  0  0  0  0  0  0  0  0  0
   -3.3762   -2.6444   -0.3912 H   0  0  0  0  0  0  0  0  0  0  0  0
   -1.5882   -2.1554    0.6658 C   0  0  0  0  0  0  0  0  0  0  0  0
   -0.6832   -2.8764    1.0638 O   0  0  0  0  0  0  0  0  0  0  0  0
   -1.3952   -0.9084    0.2428 N   0  0  0  0  0  0  0  0  0  0  0  0
   -2.1972   -0.3644   -0.0422 H   0  0  0  0  0  0  0  0  0  0  0  0
   -0.1122   -0.1994    0.2658 C   0  0  1  0  0  0  0  0  0  0  0  0
    0.6131   -0.7748   -0.3153 H   0  0  0  0  0  0  0  0  0  0  0  0
   -0.2973    1.1841   -0.3966 C   0  0  0  0  0  0  0  0  0  0  0  0
   -0.5917    1.9075    0.3630 H   0  0  0  0  0  0  0  0  0  0  0  0
    0.6498    1.5058   -0.8270 H   0  0  0  0  0  0  0  0  0  0  0  0
   -1.3696    1.2153   -1.4738 C   0  0  0  0  0  0  0  0  0  0  0  0
   -2.0244    0.2362   -1.7866 O   0  0  0  0  0  0  0  0  0  0  0  0
   -1.5826    2.3513   -2.0921 N   0  0  0  0  0  0  0  0  0  0  0  0
   -2.3088    2.3463   -2.7866 H   0  0  0  0  0  0  0  0  0  0  0  0
   -1.0706    3.1756   -1.8402 H   0  0  0  0  0  0  0  0  0  0  0  0
    0.4075   -0.0985    1.7169 C   0  0  0  0  0  0  0  0  0  0  0  0
    1.5860   -0.3526    1.9662 O   0  0  0  0  0  0  0  0  0  0  0  0
   -0.4625    0.2583    2.6666 N   0  0  0  0  0  0  0  0  0  0  0  0
   -1.4309    0.3754    2.3860 H   0  0  0  0  0  0  0  0  0  0  0  0
   -0.1275    0.4111    4.0813 C   0  0  0  0  0  0  0  0  0  0  0  0
    0.6862    1.1312    4.1910 H   0  0  0  0  0  0  0  0  0  0  0  0
   -0.9980    0.7641    4.6360 H   0  0  0  0  0  0  0  0  0  0  0  0
    0.1959   -0.5481    4.4891 H   0  0  0  0  0  0  0  0  0  0  0  0
  5  6  2  0  0  0  0
  5  7  1  0  0  0  0
  2  3  1  0  0  0  0
  2  4  1  0  0  0  0
  2  5  1  0  0  0  0
  1  2  1  0  0  0  0
 19 20  2  0  0  0  0
 19 21  1  0  0  0  0
 16 17  1  0  0  0  0
 16 18  1  0  0  0  0
 14 15  2  0  0  0  0
 14 16  1  0  0  0  0
 11 12  1  0  0  0  0
 11 13  1  0  0  0  0
 11 14  1  0  0  0  0
  9 10  1  0  0  0  0
  9 11  1  0  0  0  0
  9 19  1  0  0  0  0
  7  8  1  0  0  0  0
  7  9  1  0  0  0  0
 23 24  1  0  0  0  0
 23 25  1  0  0  0  0
 23 26  1  0  0  0  0
 21 22  1  0  0  0  0
 21 23  1  0  0  0  0
M  END
$$$$
default_name
  -OEChem-02102213163D

 26 25  0     1  0  0  0  0  0999 V2000
   -3.0232   -3.6924    1.0038 H   0  0  0  0  0  0  0  0  0  0  0  0
   -3.0082   -2.6684    0.6318 C   0  0  0  0  0  0  0  0  0  0  0  0
   -3.6332   -2.0414    1.2658 H   0  0  0  0  0  0  0  0  0  0  0  0
   -3.3762   -2.6444   -0.3912 H   0  0  0  0  0  0  0  0  0  0  0  0
   -1.5882   -2.1554    0.6658 C   0  0  0  0  0  0  0  0  0  0  0  0
   -0.6832   -2.8764    1.0638 O   0  0  0  0  0  0  0  0  0  0  0  0
   -1.3952   -0.9084    0.2428 N   0  0  0  0  0  0  0  0  0  0  0  0
   -2.1972   -0.3644   -0.0422 H   0  0  0  0  0  0  0  0  0  0  0  0
   -0.1122   -0.1994    0.2658 C   0  0  1  0  0  0  0  0  0  0  0  0
    0.6131   -0.7748   -0.3153 H   0  0  0  0  0  0  0  0  0  0  0  0
   -0.2973    1.1841   -0.3966 C   0  0  0  0  0  0  0  0  0  0  0  0
   -0.5917    1.9075    0.3630 H   0  0  0  0  0  0  0  0  0  0  0  0
    0.6498    1.5058   -0.8270 H   0  0  0  0  0  0  0  0  0  0  0  0
   -1.3696    1.2153   -1.4738 C   0  0  0  0  0  0  0  0  0  0  0  0
   -2.1992    0.3330   -1.6097 O   0  0  0  0  0  0  0  0  0  0  0  0
   -1.3850    2.2393   -2.2921 N   0  0  0  0  0  0  0  0  0  0  0  0
   -2.1152    2.2415   -2.9823 H   0  0  0  0  0  0  0  0  0  0  0  0
   -0.7254    2.9872   -2.1893 H   0  0  0  0  0  0  0  0  0  0  0  0
    0.4075   -0.0985    1.7169 C   0  0  0  0  0  0  0  0  0  0  0  0
    1.5860   -0.3526    1.9662 O   0  0  0  0  0  0  0  0  0  0  0  0
   -0.4625    0.2583    2.6666 N   0  0  0  0  0  0  0  0  0  0  0  0
   -1.4309    0.3754    2.3860 H   0  0  0  0  0  0  0  0  0  0  0  0
   -0.1275    0.4111    4.0813 C   0  0  0  0  0  0  0  0  0  0  0  0
    0.6862    1.1312    4.1910 H   0  0  0  0  0  0  0  0  0  0  0  0
   -0.9980    0.7641    4.6360 H   0  0  0  0  0  0  0  0  0  0  0  0
    0.1959   -0.5481    4.4891 H   0  0  0  0  0  0  0  0  0  0  0  0
  5  6  2  0  0  0  0
  5  7  1  0  0  0  0
  2  3  1  0  0  0  0
  2  4  1  0  0  0  0
  2  5  1  0  0  0  0
  1  2  1  0  0  0  0
 19 20  2  0  0  0  0
 19 21  1  0  0  0  0
 16 17  1  0  0  0  0
 16 18  1  0  0  0  0
 14 15  2  0  0  0  0
 14 16  1  0  0  0  0
 11 12  1  0  0  0  0
 11 13  1  0  0  0  0
 11 14  1  0  0  0  0
  9 10  1  0  0  0  0
  9 11  1  0  0  0  0
  9 19  1  0  0  0  0
  7  8  1  0  0  0  0
  7  9  1  0  0  0  0
 23 24  1  0  0  0  0
 23 25  1  0  0  0  0
 23 26  1  0  0  0  0
 21 22  1  0  0  0  0
 21 23  1  0  0  0  0
M  END
$$$$
default_name
  -OEChem-02102213163D

 26 25  0     1  0  0  0  0  0999 V2000
   -3.0232   -3.6924    1.0038 H   0  0  0  0  0  0  0  0  0  0  0  0
   -3.0082   -2.6684    0.6318 C   0  0  0  0  0  0  0  0  0  0  0  0
   -3.6332   -2.0414    1.2658 H   0  0  0  0  0  0  0  0  0  0  0  0
   -3.3762   -2.6444   -0.3912 H   0  0  0  0  0  0  0  0  0  0  0  0
   -1.5882   -2.1554    0.6658 C   0  0  0  0  0  0  0  0  0  0  0  0
   -0.6832   -2.8764    1.0638 O   0  0  0  0  0  0  0  0  0  0  0  0
   -1.3952   -0.9084    0.2428 N   0  0  0  0  0  0  0  0  0  0  0  0
   -2.1972   -0.3644   -0.0422 H   0  0  0  0  0  0  0  0  0  0  0  0
   -0.1122   -0.1994    0.2658 C   0  0  1  0  0  0  0  0  0  0  0  0
    0.6131   -0.7748   -0.3153 H   0  0  0  0  0  0  0  0  0  0  0  0
   -0.2973    1.1841   -0.3966 C   0  0  0  0  0  0  0  0  0  0  0  0
   -0.5917    1.9075    0.3630 H   0  0  0  0  0  0  0  0  0  0  0  0
    0.6498    1.5058   -0.8270 H   0  0  0  0  0  0  0  0  0  0  0  0
   -1.3696    1.2153   -1.4738 C   0  0  0  0  0  0  0  0  0  0  0  0
   -2.3494    0.4909   -1.4556 O   0  0  0  0  0  0  0  0  0  0  0  0
   -1.2157    2.0582   -2.4658 N   0  0  0  0  0  0  0  0  0  0  0  0
   -1.9484    2.0690   -3.1533 H   0  0  0  0  0  0  0  0  0  0  0  0
   -0.4283    2.6781   -2.4939 H   0  0  0  0  0  0  0  0  0  0  0  0
    0.4075   -0.0985    1.7169 C   0  0  0  0  0  0  0  0  0  0  0  0
    1.5860   -0.3526    1.9662 O   0  0  0  0  0  0  0  0  0  0  0  0
   -0.4625    0.2583    2.6666 N   0  0  0  0  0  0  0  0  0  0  0  0
   -1.4309    0.3754    2.3860 H   0  0  0  0  0  0  0  0  0  0  0  0
   -0.1275    0.4111    4.0813 C   0  0  0  0  0  0  0  0  0  0  0  0
    0.6862    1.1312    4.1910 H   0  0  0  0  0  0  0  0  0  0  0  0
   -0.9980    0.7641    4.6360 H   0  0  0  0  0  0  0  0  0  0  0  0
    0.1959   -0.5481    4.4891 H   0  0  0  0  0  0  0  0  0  0  0  0
  5  6  2  0  0  0  0
  5  7  1  0  0  0  0
  2  3  1  0  0  0  0
  2  4  1  0  0  0  0
  2  5  1  0  0  0  0
  1  2  1  0  0  0  0
 19 20  2  0  0  0  0
 19 21  1  0  0  0  0
 16 17  1  0  0  0  0
 16 18  1  0  0  0  0
 14 15  2  0  0  0  0
 14 16  1  0  0  0  0
 11 12  1  0  0  0  0
 11 13  1  0  0  0  0
 11 14  1  0  0  0  0
  9 10  1  0  0  0  0
  9 11  1  0  0  0  0
  9 19  1  0  0  0  0
  7  8  1  0  0  0  0
  7  9  1  0  0  0  0
 23 24  1  0  0  0  0
 23 25  1  0  0  0  0
 23 26  1  0  0  0  0
 21 22  1  0  0  0  0
 21 23  1  0  0  0  0
M  END
$$$$
default_name
  -OEChem-02102213163D

 26 25  0     1  0  0  0  0  0999 V2000
   -3.0232   -3.6924    1.0038 H   0  0  0  0  0  0  0  0  0  0  0  0
   -3.0082   -2.6684    0.6318 C   0  0  0  0  0  0  0  0  0  0  0  0
   -3.6332   -2.0414    1.2658 H   0  0  0  0  0  0  0  0  0  0  0  0
   -3.3762   -2.6444   -0.3912 H   0  0  0  0  0  0  0  0  0  0  0  0
   -1.5882   -2.1554    0.6658 C   0  0  0  0  0  0  0  0  0  0  0  0
   -0.6832   -2.8764    1.0638 O   0  0  0  0  0  0  0  0  0  0  0  0
   -1.3952   -0.9084    0.2428 N   0  0  0  0  0  0  0  0  0  0  0  0
   -2.1972   -0.3644   -0.0422 H   0  0  0  0  0  0  0  0  0  0  0  0
   -0.1122   -0.1994    0.2658 C   0  0  1  0  0  0  0  0  0  0  0  0
    0.6131   -0.7748   -0.3153 H   0  0  0  0  0  0  0  0  0  0  0  0
   -0.2973    1.1841   -0.3966 C   0  0  0  0  0  0  0  0  0  0  0  0
   -0.5917    1.9075    0.3630 H   0  0  0  0  0  0  0  0  0  0  0  0
    0.6498    1.5058   -0.8270 H   0  0  0  0  0  0  0  0  0  0  0  0
   -1.3696    1.2153   -1.4738 C   0  0  0  0  0  0  0  0  0  0  0  0
   -2.4647    0.6990   -1.3348 O   0  0  0  0  0  0  0  0  0  0  0  0
   -1.0863    1.8206   -2.6015 N   0  0  0  0  0  0  0  0  0  0  0  0
   -1.8199    1.8406   -3.2879 H   0  0  0  0  0  0  0  0  0  0  0  0
   -0.1997    2.2695   -2.7333 H   0  0  0  0  0  0  0  0  0  0  0  0
    0.4075   -0.0985    1.7169 C   0  0  0  0  0  0  0  0  0  0  0  0
    1.5860   -0.3526    1.9662 O   0  0  0  0  0  0  0  0  0  0  0  0
   -0.4625    0.2583    2.6666 N   0  0  0  0  0  0  0  0  0  0  0  0
   -1.4309    0.3754    2.3860 H   0  0  0  0  0  0  0  0  0  0  0  0
   -0.1275    0.4111    4.0813 C   0  0  0  0  0  0  0  0  0  0  0  0
    0.6862    1.1312    4.1910 H   0  0  0  0  0  0  0  0  0  0  0  0
   -0.9980    0.7641    4.6360 H   0  0  0  0  0  0  0  0  0  0  0  0
    0.1959   -0.5481    4.4891 H   0  0  0  0  0  0  0  0  0  0  0  0
  5  6  2  0  0  0  0
  5  7  1  0  0  0  0
  2  3  1  0  0  0  0
  2  4  1  0  0  0  0
  2  5  1  0  0  0  0
  1  2  1  0  0  0  0
 19 20  2  0  0  0  0
 19 21  1  0  0  0  0
 16 17  1  0  0  0  0
 16 18  1  0  0  0  0
 14 15  2  0  0  0  0
 14 16  1  0  0  0  0
 11 12  1  0  0  0  0
 11 13  1  0  0  0  0
 11 14  1  0  0  0  0
  9 10  1  0  0  0  0
  9 11  1  0  0  0  0
  9 19  1  0  0  0  0
  7  8  1  0  0  0  0
  7  9  1  0  0  0  0
 23 24  1  0  0  0  0
 23 25  1  0  0  0  0
 23 26  1  0  0  0  0
 21 22  1  0  0  0  0
 21 23  1  0  0  0  0
M  END
$$$$
default_name
  -OEChem-02102213163D

 26 25  0     1  0  0  0  0  0999 V2000
   -3.0232   -3.6924    1.0038 H   0  0  0  0  0  0  0  0  0  0  0  0
   -3.0082   -2.6684    0.6318 C   0  0  0  0  0  0  0  0  0  0  0  0
   -3.6332   -2.0414    1.2658 H   0  0  0  0  0  0  0  0  0  0  0  0
   -3.3762   -2.6444   -0.3912 H   0  0  0  0  0  0  0  0  0  0  0  0
   -1.5882   -2.1554    0.6658 C   0  0  0  0  0  0  0  0  0  0  0  0
   -0.6832   -2.8764    1.0638 O   0  0  0  0  0  0  0  0  0  0  0  0
   -1.3952   -0.9084    0.2428 N   0  0  0  0  0  0  0  0  0  0  0  0
   -2.1972   -0.3644   -0.0422 H   0  0  0  0  0  0  0  0  0  0  0  0
   -0.1122   -0.1994    0.2658 C   0  0  1  0  0  0  0  0  0  0  0  0
    0.6131   -0.7748   -0.3153 H   0  0  0  0  0  0  0  0  0  0  0  0
   -0.2973    1.1841   -0.3966 C   0  0  0  0  0  0  0  0  0  0  0  0
   -0.5917    1.9075    0.3630 H   0  0  0  0  0  0  0  0  0  0  0  0
    0.6498    1.5058   -0.8270 H   0  0  0  0  0  0  0  0  0  0  0  0
   -1.3696    1.2153   -1.4738 C   0  0  0  0  0  0  0  0  0  0  0  0
   -2.5373    0.9433   -1.2555 O   0  0  0  0  0  0  0  0  0  0  0  0
   -1.0057    1.5426   -2.6898 N   0  0  0  0  0  0  0  0  0  0  0  0
   -1.7383    1.5719   -3.3768 H   0  0  0  0  0  0  0  0  0  0  0  0
   -0.0550    1.7891   -2.8912 H   0  0  0  0  0  0  0  0  0  0  0  0
    0.4075   -0.0985    1.7169 C   0  0  0  0  0  0  0  0  0  0  0  0
    1.5860   -0.3526    1.9662 O   0  0  0  0  0  0  0  0  0  0  0  0
   -0.4625    0.2583    2.6666 N   0  0  0  0  0  0  0  0  0  0  0  0
   -1.4309    0.3754    2.3860 H   0  0  0  0  0  0  0  0  0  0  0  0
   -0.1275    0.4111    4.0813 C   0  0  0  0  0  0  0  0  0  0  0  0
    0.6862    1.1312    4.1910 H   0  0  0  0  0  0  0  0  0  0  0  0
   -0.9980    0.7641    4.6360 H   0  0  0  0  0  0  0  0  0  0  0  0
    0.1959   -0.5481    4.4891 H   0  0  0  0  0  0  0  0  0  0  0  0
  5  6  2  0  0  0  0
  5  7  1  0  0  0  0
  2  3  1  0  0  0  0
  2  4  1  0  0  0  0
  2  5  1  0  0  0  0
  1  2  1  0  0  0  0
 19 20  2  0  0  0  0
 19 21  1  0  0  0  0
 16 17  1  0  0  0  0
 16 18  1  0  0  0  0
 14 15  2  0  0  0  0
 14 16  1  0  0  0  0
 11 12  1  0  0  0  0
 11 13  1  0  0  0  0
 11 14  1  0  0  0  0
  9 10  1  0  0  0  0
  9 11  1  0  0  0  0
  9 19  1  0  0  0  0
  7  8  1  0  0  0  0
  7  9  1  0  0  0  0
 23 24  1  0  0  0  0
 23 25  1  0  0  0  0
 23 26  1  0  0  0  0
 21 22  1  0  0  0  0
 21 23  1  0  0  0  0
M  END
$$$$
default_name
  -OEChem-02102213163D

 26 25  0     1  0  0  0  0  0999 V2000
   -3.0232   -3.6924    1.0038 H   0  0  0  0  0  0  0  0  0  0  0  0
   -3.0082   -2.6684    0.6318 C   0  0  0  0  0  0  0  0  0  0  0  0
   -3.6332   -2.0414    1.2658 H   0  0  0  0  0  0  0  0  0  0  0  0
   -3.3762   -2.6444   -0.3912 H   0  0  0  0  0  0  0  0  0  0  0  0
   -1.5882   -2.1554    0.6658 C   0  0  0  0  0  0  0  0  0  0  0  0
   -0.6832   -2.8764    1.0638 O   0  0  0  0  0  0  0  0  0  0  0  0
   -1.3952   -0.9084    0.2428 N   0  0  0  0  0  0  0  0  0  0  0  0
   -2.1972   -0.3644   -0.0422 H   0  0  0  0  0  0  0  0  0  0  0  0
   -0.1122   -0.1994    0.2658 C   0  0  1  0  0  0  0  0  0  0  0  0
    0.6131   -0.7748   -0.3153 H   0  0  0  0  0  0  0  0  0  0  0  0
   -0.2973    1.1841   -0.3966 C   0  0  0  0  0  0  0  0  0  0  0  0
   -0.5917    1.9075    0.3630 H   0  0  0  0  0  0  0  0  0  0  0  0
    0.6498    1.5058   -0.8270 H   0  0  0  0  0  0  0  0  0  0  0  0
   -1.3696    1.2153   -1.4738 C   0  0  0  0  0  0  0  0  0  0  0  0
   -2.5622    1.2070   -1.2231 O   0  0  0  0  0  0  0  0  0  0  0  0
   -0.9792    1.2432   -2.7249 N   0  0  0  0  0  0  0  0  0  0  0  0
   -1.7093    1.2811   -3.4142 H   0  0  0  0  0  0  0  0  0  0  0  0
   -0.0042    1.2698   -2.9568 H   0  0  0  0  0  0  0  0  0  0  0  0
    0.4075   -0.0985    1.7169 C   0  0  0  0  0  0  0  0  0  0  0  0
    1.5860   -0.3526    1.9662 O   0  0  0  0  0  0  0  0  0  0  0  0
   -0.4625    0.2583    2.6666 N   0  0  0  0  0  0  0  0  0  0  0  0
   -1.4309    0.3754    2.3860 H   0  0  0  0  0  0  0  0  0  0  0  0
   -0.1275    0.4111    4.0813 C   0  0  0  0  0  0  0  0  0  0  0  0
    0.6862    1.1312    4.1910 H   0  0  0  0  0  0  0  0  0  0  0  0
   -0.9980    0.7641    4.6360 H   0  0  0  0  0  0  0  0  0  0  0  0
    0.1959   -0.5481    4.4891 H   0  0  0  0  0  0  0  0  0  0  0  0
  5  6  2  0  0  0  0
  5  7  1  0  0  0  0
  2  3  1  0  0  0  0
  2  4  1  0  0  0  0
  2  5  1  0  0  0  0
  1  2  1  0  0  0  0
 19 20  2  0  0  0  0
 19 21  1  0  0  0  0
 16 17  1  0  0  0  0
 16 18  1  0  0  0  0
 14 15  2  0  0  0  0
 14 16  1  0  0  0  0
 11 12  1  0  0  0  0
 11 13  1  0  0  0  0
 11 14  1  0  0  0  0
  9 10  1  0  0  0  0
  9 11  1  0  0  0  0
  9 19  1  0  0  0  0
  7  8  1  0  0  0  0
  7  9  1  0  0  0  0
 23 24  1  0  0  0  0
 23 25  1  0  0  0  0
 23 26  1  0  0  0  0
 21 22  1  0  0  0  0
 21 23  1  0  0  0  0
M  END
$$$$
default_name
  -OEChem-02102213163D

 26 25  0     1  0  0  0  0  0999 V2000
   -3.0232   -3.6924    1.0038 H   0  0  0  0  0  0  0  0  0  0  0  0
   -3.0082   -2.6684    0.6318 C   0  0  0  0  0  0  0  0  0  0  0  0
   -3.6332   -2.0414    1.2658 H   0  0  0  0  0  0  0  0  0  0  0  0
   -3.3762   -2.6444   -0.3912 H   0  0  0  0  0  0  0  0  0  0  0  0
   -1.5882   -2.1554    0.6658 C   0  0  0  0  0  0  0  0  0  0  0  0
   -0.6832   -2.8764    1.0638 O   0  0  0  0  0  0  0  0  0  0  0  0
   -1.3952   -0.9084    0.2428 N   0  0  0  0  0  0  0  0  0  0  0  0
   -2.1972   -0.3644   -0.0422 H   0  0  0  0  0  0  0  0  0  0  0  0
   -0.1122   -0.1994    0.2658 C   0  0  1  0  0  0  0  0  0  0  0  0
    0.6131   -0.7748   -0.3153 H   0  0  0  0  0  0  0  0  0  0  0  0
   -0.2973    1.1841   -0.3966 C   0  0  0  0  0  0  0  0  0  0  0  0
   -0.5917    1.9075    0.3630 H   0  0  0  0  0  0  0  0  0  0  0  0
    0.6498    1.5058   -0.8270 H   0  0  0  0  0  0  0  0  0  0  0  0
   -1.3696    1.2153   -1.4738 C   0  0  0  0  0  0  0  0  0  0  0  0
   -2.5377    1.4723   -1.2399 O   0  0  0  0  0  0  0  0  0  0  0  0
   -1.0087    0.9427   -2.7042 N   0  0  0  0  0  0  0  0  0  0  0  0
   -1.7348    0.9881   -3.3973 H   0  0  0  0  0  0  0  0  0  0  0  0
   -0.0508    0.7469   -2.9256 H   0  0  0  0  0  0  0  0  0  0  0  0
    0.4075   -0.0985    1.7169 C   0  0  0  0  0  0  0  0  0  0  0  0
    1.5860   -0.3526    1.9662 O   0  0  0  0  0  0  0  0  0  0  0  0
   -0.4625    0.2583    2.6666 N   0  0  0  0  0  0  0  0  0  0  0  0
   -1.4309    0.3754    2.3860 H   0  0  0  0  0  0  0  0  0  0  0  0
   -0.1275    0.4111    4.0813 C   0  0  0  0  0  0  0  0  0  0  0  0
    0.6862    1.1312    4.1910 H   0  0  0  0  0  0  0  0  0  0  0  0
   -0.9980    0.7641    4.6360 H   0  0  0  0  0  0  0  0  0  0  0  0
    0.1959   -0.5481    4.4891 H   0  0  0  0  0  0  0  0  0  0  0  0
  5  6  2  0  0  0  0
  5  7  1  0  0  0  0
  2  3  1  0  0  0  0
  2  4  1  0  0  0  0
  2  5  1  0  0  0  0
  1  2  1  0  0  0  0
 19 20  2  0  0  0  0
 19 21  1  0  0  0  0
 16 17  1  0  0  0  0
 16 18  1  0  0  0  0
 14 15  2  0  0  0  0
 14 16  1  0  0  0  0
 11 12  1  0  0  0  0
 11 13  1  0  0  0  0
 11 14  1  0  0  0  0
  9 10  1  0  0  0  0
  9 11  1  0  0  0  0
  9 19  1  0  0  0  0
  7  8  1  0  0  0  0
  7  9  1  0  0  0  0
 23 24  1  0  0  0  0
 23 25  1  0  0  0  0
 23 26  1  0  0  0  0
 21 22  1  0  0  0  0
 21 23  1  0  0  0  0
M  END
$$$$
default_name
  -OEChem-02102213163D

 26 25  0     1  0  0  0  0  0999 V2000
   -3.0232   -3.6924    1.0038 H   0  0  0  0  0  0  0  0  0  0  0  0
   -3.0082   -2.6684    0.6318 C   0  0  0  0  0  0  0  0  0  0  0  0
   -3.6332   -2.0414    1.2658 H   0  0  0  0  0  0  0  0  0  0  0  0
   -3.3762   -2.6444   -0.3912 H   0  0  0  0  0  0  0  0  0  0  0  0
   -1.5882   -2.1554    0.6658 C   0  0  0  0  0  0  0  0  0  0  0  0
   -0.6832   -2.8764    1.0638 O   0  0  0  0  0  0  0  0  0  0  0  0
   -1.3952   -0.9084    0.2428 N   0  0  0  0  0  0  0  0  0  0  0  0
   -2.1972   -0.3644   -0.0422 H   0  0  0  0  0  0  0  0  0  0  0  0
   -0.1122   -0.1994    0.2658 C   0  0  1  0  0  0  0  0  0  0  0  0
    0.6131   -0.7748   -0.3153 H   0  0  0  0  0  0  0  0  0  0  0  0
   -0.2973    1.1841   -0.3966 C   0  0  0  0  0  0  0  0  0  0  0  0
   -0.5917    1.9075    0.3630 H   0  0  0  0  0  0  0  0  0  0  0  0
    0.6498    1.5058   -0.8270 H   0  0  0  0  0  0  0  0  0  0  0  0
   -1.3696    1.2153   -1.4738 C   0  0  0  0  0  0  0  0  0  0  0  0
   -2.4654    1.7209   -1.3045 O   0  0  0  0  0  0  0  0  0  0  0  0
   -1.0922    0.6616   -2.6292 N   0  0  0  0  0  0  0  0  0  0  0  0
   -1.8131    0.7128   -3.3273 H   0  0  0  0  0  0  0  0  0  0  0  0
   -0.1915    0.2560   -2.7998 H   0  0  0  0  0  0  0  0  0  0  0  0
    0.4075   -0.0985    1.7169 C   0  0  0  0  0  0  0  0  0  0  0  0
    1.5860   -0.3526    1.9662 O   0  0  0  0  0  0  0  0  0  0  0  0
   -0.4625    0.2583    2.6666 N   0  0  0  0  0  0  0  0  0  0  0  0
   -1.4309    0.3754    2.3860 H   0  0  0  0  0  0  0  0  0  0  0  0
   -0.1275    0.4111    4.0813 C   0  0  0  0  0  0  0  0  0  0  0  0
    0.6862    1.1312    4.1910 H   0  0  0  0  0  0  0  0  0  0  0  0
   -0.9980    0.7641    4.6360 H   0  0  0  0  0  0  0  0  0  0  0  0
    0.1959   -0.5481    4.4891 H   0  0  0  0  0  0  0  0  0  0  0  0
  5  6  2  0  0  0  0
  5  7  1  0  0  0  0
  2  3  1  0  0  0  0
  2  4  1  0  0  0  0
  2  5  1  0  0  0  0
  1  2  1  0  0  0  0
 19 20  2  0  0  0  0
 19 21  1  0  0  0  0
 16 17  1  0  0  0  0
 16 18  1  0  0  0  0
 14 15  2  0  0  0  0
 14 16  1  0  0  0  0
 11 12  1  0  0  0  0
 11 13  1  0  0  0  0
 11 14  1  0  0  0  0
  9 10  1  0  0  0  0
  9 11  1  0  0  0  0
  9 19  1  0  0  0  0
  7  8  1  0  0  0  0
  7  9  1  0  0  0  0
 23 24  1  0  0  0  0
 23 25  1  0  0  0  0
 23 26  1  0  0  0  0
 21 22  1  0  0  0  0
 21 23  1  0  0  0  0
M  END
$$$$
default_name
  -OEChem-02102213163D

 26 25  0     1  0  0  0  0  0999 V2000
   -3.0232   -3.6924    1.0038 H   0  0  0  0  0  0  0  0  0  0  0  0
   -3.0082   -2.6684    0.6318 C   0  0  0  0  0  0  0  0  0  0  0  0
   -3.6332   -2.0414    1.2658 H   0  0  0  0  0  0  0  0  0  0  0  0
   -3.3762   -2.6444   -0.3912 H   0  0  0  0  0  0  0  0  0  0  0  0
   -1.5882   -2.1554    0.6658 C   0  0  0  0  0  0  0  0  0  0  0  0
   -0.6832   -2.8764    1.0638 O   0  0  0  0  0  0  0  0  0  0  0  0
   -1.3952   -0.9084    0.2428 N   0  0  0  0  0  0  0  0  0  0  0  0
   -2.1972   -0.3644   -0.0422 H   0  0  0  0  0  0  0  0  0  0  0  0
   -0.1122   -0.1994    0.2658 C   0  0  1  0  0  0  0  0  0  0  0  0
    0.6131   -0.7748   -0.3153 H   0  0  0  0  0  0  0  0  0  0  0  0
   -0.2973    1.1841   -0.3966 C   0  0  0  0  0  0  0  0  0  0  0  0
   -0.5917    1.9075    0.3630 H   0  0  0  0  0  0  0  0  0  0  0  0
    0.6498    1.5058   -0.8270 H   0  0  0  0  0  0  0  0  0  0  0  0
   -1.3696    1.2153   -1.4738 C   0  0  0  0  0  0  0  0  0  0  0  0
   -2.3504    1.9360   -1.4128 O   0  0  0  0  0  0  0  0  0  0  0  0
   -1.2241    0.4191   -2.5050 N   0  0  0  0  0  0  0  0  0  0  0  0
   -1.9388    0.4740   -3.2091 H   0  0  0  0  0  0  0  0  0  0  0  0
   -0.4167   -0.1694   -2.5879 H   0  0  0  0  0  0  0  0  0  0  0  0
    0.4075   -0.0985    1.7169 C   0  0  0  0  0  0  0  0  0  0  0  0
    1.5860   -0.3526    1.9662 O   0  0  0  0  0  0  0  0  0  0  0  0
   -0.4625    0.2583    2.6666 N   0  0  0  0  0  0  0  0  0  0  0  0
   -1.4309    0.3754    2.3860 H   0  0  0  0  0  0  0  0  0  0  0  0
   -0.1275    0.4111    4.0813 C   0  0  0  0  0  0  0  0  0  0  0  0
    0.6862    1.1312    4.1910 H   0  0  0  0  0  0  0  0  0  0  0  0
   -0.9980    0.7641    4.6360 H   0  0  0  0  0  0  0  0  0  0  0  0
    0.1959   -0.5481    4.4891 H   0  0  0  0  0  0  0  0  0  0  0  0
  5  6  2  0  0  0  0
  5  7  1  0  0  0  0
  2  3  1  0  0  0  0
  2  4  1  0  0  0  0
  2  5  1  0  0  0  0
  1  2  1  0  0  0  0
 19 20  2  0  0  0  0
 19 21  1  0  0  0  0
 16 17  1  0  0  0  0
 16 18  1  0  0  0  0
 14 15  2  0  0  0  0
 14 16  1  0  0  0  0
 11 12  1  0  0  0  0
 11 13  1  0  0  0  0
 11 14  1  0  0  0  0
  9 10  1  0  0  0  0
  9 11  1  0  0  0  0
  9 19  1  0  0  0  0
  7  8  1  0  0  0  0
  7  9  1  0  0  0  0
 23 24  1  0  0  0  0
 23 25  1  0  0  0  0
 23 26  1  0  0  0  0
 21 22  1  0  0  0  0
 21 23  1  0  0  0  0
M  END
$$$$
default_name
  -OEChem-02102213163D

 26 25  0     1  0  0  0  0  0999 V2000
   -3.0232   -3.6924    1.0038 H   0  0  0  0  0  0  0  0  0  0  0  0
   -3.0082   -2.6684    0.6318 C   0  0  0  0  0  0  0  0  0  0  0  0
   -3.6332   -2.0414    1.2658 H   0  0  0  0  0  0  0  0  0  0  0  0
   -3.3762   -2.6444   -0.3912 H   0  0  0  0  0  0  0  0  0  0  0  0
   -1.5882   -2.1554    0.6658 C   0  0  0  0  0  0  0  0  0  0  0  0
   -0.6832   -2.8764    1.0638 O   0  0  0  0  0  0  0  0  0  0  0  0
   -1.3952   -0.9084    0.2428 N   0  0  0  0  0  0  0  0  0  0  0  0
   -2.1972   -0.3644   -0.0422 H   0  0  0  0  0  0  0  0  0  0  0  0
   -0.1122   -0.1994    0.2658 C   0  0  1  0  0  0  0  0  0  0  0  0
    0.6131   -0.7748   -0.3153 H   0  0  0  0  0  0  0  0  0  0  0  0
   -0.2973    1.1841   -0.3966 C   0  0  0  0  0  0  0  0  0  0  0  0
   -0.5917    1.9075    0.3630 H   0  0  0  0  0  0  0  0  0  0  0  0
    0.6498    1.5058   -0.8270 H   0  0  0  0  0  0  0  0  0  0  0  0
   -1.3696    1.2153   -1.4738 C   0  0  0  0  0  0  0  0  0  0  0  0
   -2.2004    2.1029   -1.5573 O   0  0  0  0  0  0  0  0  0  0  0  0
   -1.3952    0.2318   -2.3400 N   0  0  0  0  0  0  0  0  0  0  0  0
   -2.1034    0.2880   -3.0506 H   0  0  0  0  0  0  0  0  0  0  0  0
   -0.7112   -0.5003   -2.3044 H   0  0  0  0  0  0  0  0  0  0  0  0
    0.4075   -0.0985    1.7169 C   0  0  0  0  0  0  0  0  0  0  0  0
    1.5860   -0.3526    1.9662 O   0  0  0  0  0  0  0  0  0  0  0  0
   -0.4625    0.2583    2.6666 N   0  0  0  0  0  0  0  0  0  0  0  0
   -1.4309    0.3754    2.3860 H   0  0  0  0  0  0  0  0  0  0  0  0
   -0.1275    0.4111    4.0813 C   0  0  0  0  0  0  0  0  0  0  0  0
    0.6862    1.1312    4.1910 H   0  0  0  0  0  0  0  0  0  0  0  0
   -0.9980    0.7641    4.6360 H   0  0  0  0  0  0  0  0  0  0  0  0
    0.1959   -0.5481    4.4891 H   0  0  0  0  0  0  0  0  0  0  0  0
  5  6  2  0  0  0  0
  5  7  1  0  0  0  0
  2  3  1  0  0  0  0
  2  4  1  0  0  0  0
  2  5  1  0  0  0  0
  1  2  1  0  0  0  0
 19 20  2  0  0  0  0
 19 21  1  0  0  0  0
 16 17  1  0  0  0  0
 16 18  1  0  0  0  0
 14 15  2  0  0  0  0
 14 16  1  0  0  0  0
 11 12  1  0  0  0  0
 11 13  1  0  0  0  0
 11 14  1  0  0  0  0
  9 10  1  0  0  0  0
  9 11  1  0  0  0  0
  9 19  1  0  0  0  0
  7  8  1  0  0  0  0
  7  9  1  0  0  0  0
 23 24  1  0  0  0  0
 23 25  1  0  0  0  0
 23 26  1  0  0  0  0
 21 22  1  0  0  0  0
 21 23  1  0  0  0  0
M  END
$$$$
default_name
  -OEChem-02102213163D

 26 25  0     1  0  0  0  0  0999 V2000
   -3.0232   -3.6924    1.0038 H   0  0  0  0  0  0  0  0  0  0  0  0
   -3.0082   -2.6684    0.6318 C   0  0  0  0  0  0  0  0  0  0  0  0
   -3.6332   -2.0414    1.2658 H   0  0  0  0  0  0  0  0  0  0  0  0
   -3.3762   -2.6444   -0.3912 H   0  0  0  0  0  0  0  0  0  0  0  0
   -1.5882   -2.1554    0.6658 C   0  0  0  0  0  0  0  0  0  0  0  0
   -0.6832   -2.8764    1.0638 O   0  0  0  0  0  0  0  0  0  0  0  0
   -1.3952   -0.9084    0.2428 N   0  0  0  0  0  0  0  0  0  0  0  0
   -2.1972   -0.3644   -0.0422 H   0  0  0  0  0  0  0  0  0  0  0  0
   -0.1122   -0.1994    0.2658 C   0  0  1  0  0  0  0  0  0  0  0  0
    0.6131   -0.7748   -0.3153 H   0  0  0  0  0  0  0  0  0  0  0  0
   -0.2973    1.1841   -0.3966 C   0  0  0  0  0  0  0  0  0  0  0  0
   -0.5917    1.9075    0.3630 H   0  0  0  0  0  0  0  0  0  0  0  0
    0.6498    1.5058   -0.8270 H   0  0  0  0  0  0  0  0  0  0  0  0
   -1.3696    1.2153   -1.4738 C   0  0  0  0  0  0  0  0  0  0  0  0
   -2.0257    2.2103   -1.7281 O   0  0  0  0  0  0  0  0  0  0  0  0
   -1.5940    0.1123   -2.1456 N   0  0  0  0  0  0  0  0  0  0  0  0
   -2.2957    0.1675   -2.8627 H   0  0  0  0  0  0  0  0  0  0  0  0
   -1.0548   -0.7141   -1.9686 H   0  0  0  0  0  0  0  0  0  0  0  0
    0.4075   -0.0985    1.7169 C   0  0  0  0  0  0  0  0  0  0  0  0
    1.5860   -0.3526    1.9662 O   0  0  0  0  0  0  0  0  0  0  0  0
   -0.4625    0.2583    2.6666 N   0  0  0  0  0  0  0  0  0  0  0  0
   -1.4309    0.3754    2.3860 H   0  0  0  0  0  0  0  0  0  0  0  0
   -0.1275    0.4111    4.0813 C   0  0  0  0  0  0  0  0  0  0  0  0
    0.6862    1.1312    4.1910 H   0  0  0  0  0  0  0  0  0  0  0  0
   -0.9980    0.7641    4.6360 H   0  0  0  0  0  0  0  0  0  0  0  0
    0.1959   -0.5481    4.4891 H   0  0  0  0  0  0  0  0  0  0  0  0
  5  6  2  0  0  0  0
  5  7  1  0  0  0  0
  2  3  1  0  0  0  0
  2  4  1  0  0  0  0
  2  5  1  0  0  0  0
  1  2  1  0  0  0  0
 19 20  2  0  0  0  0
 19 21  1  0  0  0  0
 16 17  1  0  0  0  0
 16 18  1  0  0  0  0
 14 15  2  0  0  0  0
 14 16  1  0  0  0  0
 11 12  1  0  0  0  0
 11 13  1  0  0  0  0
 11 14  1  0  0  0  0
  9 10  1  0  0  0  0
  9 11  1  0  0  0  0
  9 19  1  0  0  0  0
  7  8  1  0  0  0  0
  7  9  1  0  0  0  0
 23 24  1  0  0  0  0
 23 25  1  0  0  0  0
 23 26  1  0  0  0  0
 21 22  1  0  0  0  0
 21 23  1  0  0  0  0
M  END
$$$$
default_name
  -OEChem-02102213163D

 26 25  0     1  0  0  0  0  0999 V2000
   -3.0232   -3.6924    1.0038 H   0  0  0  0  0  0  0  0  0  0  0  0
   -3.0082   -2.6684    0.6318 C   0  0  0  0  0  0  0  0  0  0  0  0
   -3.6332   -2.0414    1.2658 H   0  0  0  0  0  0  0  0  0  0  0  0
   -3.3762   -2.6444   -0.3912 H   0  0  0  0  0  0  0  0  0  0  0  0
   -1.5882   -2.1554    0.6658 C   0  0  0  0  0  0  0  0  0  0  0  0
   -0.6832   -2.8764    1.0638 O   0  0  0  0  0  0  0  0  0  0  0  0
   -1.3952   -0.9084    0.2428 N   0  0  0  0  0  0  0  0  0  0  0  0
   -2.1972   -0.3644   -0.0422 H   0  0  0  0  0  0  0  0  0  0  0  0
   -0.1122   -0.1994    0.2658 C   0  0  1  0  0  0  0  0  0  0  0  0
    0.6131   -0.7748   -0.3153 H   0  0  0  0  0  0  0  0  0  0  0  0
   -0.2973    1.1841   -0.3966 C   0  0  0  0  0  0  0  0  0  0  0  0
   -0.5917    1.9075    0.3630 H   0  0  0  0  0  0  0  0  0  0  0  0
    0.6498    1.5058   -0.8270 H   0  0  0  0  0  0  0  0  0  0  0  0
   -1.3696    1.2153   -1.4738 C   0  0  0  0  0  0  0  0  0  0  0  0
   -1.8382    2.2508   -1.9136 O   0  0  0  0  0  0  0  0  0  0  0  0
   -1.8069    0.0688   -1.9349 N   0  0  0  0  0  0  0  0  0  0  0  0
   -2.5025    0.1206   -2.6582 H   0  0  0  0  0  0  0  0  0  0  0  0
   -1.4241   -0.7964   -1.6033 H   0  0  0  0  0  0  0  0  0  0  0  0
    0.4075   -0.0985    1.7169 C   0  0  0  0  0  0  0  0  0  0  0  0
    1.5860   -0.3526    1.9662 O   0  0  0  0  0  0  0  0  0  0  0  0
   -0.4625    0.2583    2.6666 N   0  0  0  0  0  0  0  0  0  0  0  0
   -1.4309    0.3754    2.3860 H   0  0  0  0  0  0  0  0  0  0  0  0
   -0.1275    0.4111    4.0813 C   0  0  0  0  0  0  0  0  0  0  0  0
    0.6862    1.1312    4.1910 H   0  0  0  0  0  0  0  0  0  0  0  0
   -0.9980    0.7641    4.6360 H   0  0  0  0  0  0  0  0  0  0  0  0
    0.1959   -0.5481    4.4891 H   0  0  0  0  0  0  0  0  0  0  0  0
  5  6  2  0  0  0  0
  5  7  1  0  0  0  0
  2  3  1  0  0  0  0
  2  4  1  0  0  0  0
  2  5  1  0  0  0  0
  1  2  1  0  0  0  0
 19 20  2  0  0  0  0
 19 21  1  0  0  0  0
 16 17  1  0  0  0  0
 16 18  1  0  0  0  0
 14 15  2  0  0  0  0
 14 16  1  0  0  0  0
 11 12  1  0  0  0  0
 11 13  1  0  0  0  0
 11 14  1  0  0  0  0
  9 10  1  0  0  0  0
  9 11  1  0  0  0  0
  9 19  1  0  0  0  0
  7  8  1  0  0  0  0
  7  9  1  0  0  0  0
 23 24  1  0  0  0  0
 23 25  1  0  0  0  0
 23 26  1  0  0  0  0
 21 22  1  0  0  0  0
 21 23  1  0  0  0  0
M  END
$$$$
default_name
  -OEChem-02102213163D

 26 25  0     1  0  0  0  0  0999 V2000
   -3.0232   -3.6924    1.0038 H   0  0  0  0  0  0  0  0  0  0  0  0
   -3.0082   -2.6684    0.6318 C   0  0  0  0  0  0  0  0  0  0  0  0
   -3.6332   -2.0414    1.2658 H   0  0  0  0  0  0  0  0  0  0  0  0
   -3.3762   -2.6444   -0.3912 H   0  0  0  0  0  0  0  0  0  0  0  0
   -1.5882   -2.1554    0.6658 C   0  0  0  0  0  0  0  0  0  0  0  0
   -0.6832   -2.8764    1.0638 O   0  0  0  0  0  0  0  0  0  0  0  0
   -1.3952   -0.9084    0.2428 N   0  0  0  0  0  0  0  0  0  0  0  0
   -2.1972   -0.3644   -0.0422 H   0  0  0  0  0  0  0  0  0  0  0  0
   -0.1122   -0.1994    0.2658 C   0  0  1  0  0  0  0  0  0  0  0  0
    0.6131   -0.7748   -0.3153 H   0  0  0  0  0  0  0  0  0  0  0  0
   -0.2973    1.1841   -0.3966 C   0  0  0  0  0  0  0  0  0  0  0  0
   -0.3268    1.9500    0.3776 H   0  0  0  0  0  0  0  0  0  0  0  0
    0.5520    1.3873   -1.0471 H   0  0  0  0  0  0  0  0  0  0  0  0
   -1.5818    1.3187   -1.1986 C   0  0  0  0  0  0  0  0  0  0  0  0
   -1.8918    2.3391   -1.7882 O   0  0  0  0  0  0  0  0  0  0  0  0
   -2.3871    0.2852   -1.2418 N   0  0  0  0  0  0  0  0  0  0  0  0
   -3.2194    0.3973   -1.7935 H   0  0  0  0  0  0  0  0  0  0  0  0
   -2.1458   -0.5718   -0.7811 H   0  0  0  0  0  0  0  0  0  0  0  0
    0.4075   -0.0985    1.7169 C   0  0  0  0  0  0  0  0  0  0  0  0
    1.5860   -0.3526    1.9662 O   0  0  0  0  0  0  0  0  0  0  0  0
   -0.4625    0.2583    2.6666 N   0  0  0  0  0  0  0  0  0  0  0  0
   -1.4309    0.3754    2.3860 H   0  0  0  0  0  0  0  0  0  0  0  0
   -0.1275    0.4111    4.0813 C   0  0  0  0  0  0  0  0  0  0  0  0
    0.6862    1.1312    4.1910 H   0  0  0  0  0  0  0  0  0  0  0  0
   -0.9980    0.7641    4.6360 H   0  0  0  0  0  0  0  0  0  0  0  0
    0.1959   -0.5481    4.4891 H   0  0  0  0  0  0  0  0  0  0  0  0
  5  6  2  0  0  0  0
  5  7  1  0  0  0  0
  2  3  1  0  0  0  0
  2  4  1  0  0  0  0
  2  5  1  0  0  0  0
  1  2  1  0  0  0  0
 19 20  2  0  0  0  0
 19 21  1  0  0  0  0
 16 17  1  0  0  0  0
 16 18  1  0  0  0  0
 14 15  2  0  0  0  0
 14 16  1  0  0  0  0
 11 12  1  0  0  0  0
 11 13  1  0  0  0  0
 11 14  1  0  0  0  0
  9 10  1  0  0  0  0
  9 11  1  0  0  0  0
  9 19  1  0  0  0  0
  7  8  1  0  0  0  0
  7  9  1  0  0  0  0
 23 24  1  0  0  0  0
 23 25  1  0  0  0  0
 23 26  1  0  0  0  0
 21 22  1  0  0  0  0
 21 23  1  0  0  0  0
M  END
$$$$
default_name
  -OEChem-02102213163D

 26 25  0     1  0  0  0  0  0999 V2000
   -3.0232   -3.6924    1.0038 H   0  0  0  0  0  0  0  0  0  0  0  0
   -3.0082   -2.6684    0.6318 C   0  0  0  0  0  0  0  0  0  0  0  0
   -3.6332   -2.0414    1.2658 H   0  0  0  0  0  0  0  0  0  0  0  0
   -3.3762   -2.6444   -0.3912 H   0  0  0  0  0  0  0  0  0  0  0  0
   -1.5882   -2.1554    0.6658 C   0  0  0  0  0  0  0  0  0  0  0  0
   -0.6832   -2.8764    1.0638 O   0  0  0  0  0  0  0  0  0  0  0  0
   -1.3952   -0.9084    0.2428 N   0  0  0  0  0  0  0  0  0  0  0  0
   -2.1972   -0.3644   -0.0422 H   0  0  0  0  0  0  0  0  0  0  0  0
   -0.1122   -0.1994    0.2658 C   0  0  1  0  0  0  0  0  0  0  0  0
    0.6131   -0.7748   -0.3153 H   0  0  0  0  0  0  0  0  0  0  0  0
   -0.2973    1.1841   -0.3966 C   0  0  0  0  0  0  0  0  0  0  0  0
   -0.3268    1.9500    0.3776 H   0  0  0  0  0  0  0  0  0  0  0  0
    0.5520    1.3873   -1.0471 H   0  0  0  0  0  0  0  0  0  0  0  0
   -1.5818    1.3187   -1.1986 C   0  0  0  0  0  0  0  0  0  0  0  0
   -1.7745    2.2198   -1.9961 O   0  0  0  0  0  0  0  0  0  0  0  0
   -2.5193    0.4228   -1.0069 N   0  0  0  0  0  0  0  0  0  0  0  0
   -3.3496    0.5270   -1.5632 H   0  0  0  0  0  0  0  0  0  0  0  0
   -2.3777   -0.3388   -0.3706 H   0  0  0  0  0  0  0  0  0  0  0  0
    0.4075   -0.0985    1.7169 C   0  0  0  0  0  0  0  0  0  0  0  0
    1.5860   -0.3526    1.9662 O   0  0  0  0  0  0  0  0  0  0  0  0
   -0.4625    0.2583    2.6666 N   0  0  0  0  0  0  0  0  0  0  0  0
   -1.4309    0.3754    2.3860 H   0  0  0  0  0  0  0  0  0  0  0  0
   -0.1275    0.4111    4.0813 C   0  0  0  0  0  0  0  0  0  0  0  0
    0.6862    1.1312    4.1910 H   0  0  0  0  0  0  0  0  0  0  0  0
   -0.9980    0.7641    4.6360 H   0  0  0  0  0  0  0  0  0  0  0  0
    0.1959   -0.5481    4.4891 H   0  0  0  0  0  0  0  0  0  0  0  0
  5  6  2  0  0  0  0
  5  7  1  0  0  0  0
  2  3  1  0  0  0  0
  2  4  1  0  0  0  0
  2  5  1  0  0  0  0
  1  2  1  0  0  0  0
 19 20  2  0  0  0  0
 19 21  1  0  0  0  0
 16 17  1  0  0  0  0
 16 18  1  0  0  0  0
 14 15  2  0  0  0  0
 14 16  1  0  0  0  0
 11 12  1  0  0  0  0
 11 13  1  0  0  0  0
 11 14  1  0  0  0  0
  9 10  1  0  0  0  0
  9 11  1  0  0  0  0
  9 19  1  0  0  0  0
  7  8  1  0  0  0  0
  7  9  1  0  0  0  0
 23 24  1  0  0  0  0
 23 25  1  0  0  0  0
 23 26  1  0  0  0  0
 21 22  1  0  0  0  0
 21 23  1  0  0  0  0
M  END
$$$$
default_name
  -OEChem-02102213163D

 26 25  0     1  0  0  0  0  0999 V2000
   -3.0232   -3.6924    1.0038 H   0  0  0  0  0  0  0  0  0  0  0  0
   -3.0082   -2.6684    0.6318 C   0  0  0  0  0  0  0  0  0  0  0  0
   -3.6332   -2.0414    1.2658 H   0  0  0  0  0  0  0  0  0  0  0  0
   -3.3762   -2.6444   -0.3912 H   0  0  0  0  0  0  0  0  0  0  0  0
   -1.5882   -2.1554    0.6658 C   0  0  0  0  0  0  0  0  0  0  0  0
   -0.6832   -2.8764    1.0638 O   0  0  0  0  0  0  0  0  0  0  0  0
   -1.3952   -0.9084    0.2428 N   0  0  0  0  0  0  0  0  0  0  0  0
   -2.1972   -0.3644   -0.0422 H   0  0  0  0  0  0  0  0  0  0  0  0
   -0.1122   -0.1994    0.2658 C   0  0  1  0  0  0  0  0  0  0  0  0
    0.6131   -0.7748   -0.3153 H   0  0  0  0  0  0  0  0  0  0  0  0
   -0.2973    1.1841   -0.3966 C   0  0  0  0  0  0  0  0  0  0  0  0
   -0.3268    1.9500    0.3776 H   0  0  0  0  0  0  0  0  0  0  0  0
    0.5520    1.3873   -1.0471 H   0  0  0  0  0  0  0  0  0  0  0  0
   -1.5818    1.3187   -1.1986 C   0  0  0  0  0  0  0  0  0  0  0  0
   -1.6823    2.0430   -2.1735 O   0  0  0  0  0  0  0  0  0  0  0  0
   -2.6229    0.6251   -0.8071 N   0  0  0  0  0  0  0  0  0  0  0  0
   -3.4523    0.7205   -1.3662 H   0  0  0  0  0  0  0  0  0  0  0  0
   -2.5605    0.0077   -0.0197 H   0  0  0  0  0  0  0  0  0  0  0  0
    0.4075   -0.0985    1.7169 C   0  0  0  0  0  0  0  0  0  0  0  0
    1.5860   -0.3526    1.9662 O   0  0  0  0  0  0  0  0  0  0  0  0
   -0.4625    0.2583    2.6666 N   0  0  0  0  0  0  0  0  0  0  0  0
   -1.4309    0.3754    2.3860 H   0  0  0  0  0  0  0  0  0  0  0  0
   -0.1275    0.4111    4.0813 C   0  0  0  0  0  0  0  0  0  0  0  0
    0.6862    1.1312    4.1910 H   0  0  0  0  0  0  0  0  0  0  0  0
   -0.9980    0.7641    4.6360 H   0  0  0  0  0  0  0  0  0  0  0  0
    0.1959   -0.5481    4.4891 H   0  0  0  0  0  0  0  0  0  0  0  0
  5  6  2  0  0  0  0
  5  7  1  0  0  0  0
  2  3  1  0  0  0  0
  2  4  1  0  0  0  0
  2  5  1  0  0  0  0
  1  2  1  0  0  0  0
 19 20  2  0  0  0  0
 19 21  1  0  0  0  0
 16 17  1  0  0  0  0
 16 18  1  0  0  0  0
 14 15  2  0  0  0  0
 14 16  1  0  0  0  0
 11 12  1  0  0  0  0
 11 13  1  0  0  0  0
 11 14  1  0  0  0  0
  9 10  1  0  0  0  0
  9 11  1  0  0  0  0
  9 19  1  0  0  0  0
  7  8  1  0  0  0  0
  7  9  1  0  0  0  0
 23 24  1  0  0  0  0
 23 25  1  0  0  0  0
 23 26  1  0  0  0  0
 21 22  1  0  0  0  0
 21 23  1  0  0  0  0
M  END
$$$$
default_name
  -OEChem-02102213163D

 26 25  0     1  0  0  0  0  0999 V2000
   -3.0232   -3.6924    1.0038 H   0  0  0  0  0  0  0  0  0  0  0  0
   -3.0082   -2.6684    0.6318 C   0  0  0  0  0  0  0  0  0  0  0  0
   -3.6332   -2.0414    1.2658 H   0  0  0  0  0  0  0  0  0  0  0  0
   -3.3762   -2.6444   -0.3912 H   0  0  0  0  0  0  0  0  0  0  0  0
   -1.5882   -2.1554    0.6658 C   0  0  0  0  0  0  0  0  0  0  0  0
   -0.6832   -2.8764    1.0638 O   0  0  0  0  0  0  0  0  0  0  0  0
   -1.3952   -0.9084    0.2428 N   0  0  0  0  0  0  0  0  0  0  0  0
   -2.1972   -0.3644   -0.0422 H   0  0  0  0  0  0  0  0  0  0  0  0
   -0.1122   -0.1994    0.2658 C   0  0  1  0  0  0  0  0  0  0  0  0
    0.6131   -0.7748   -0.3153 H   0  0  0  0  0  0  0  0  0  0  0  0
   -0.2973    1.1841   -0.3966 C   0  0  0  0  0  0  0  0  0  0  0  0
   -0.3268    1.9500    0.3776 H   0  0  0  0  0  0  0  0  0  0  0  0
    0.5520    1.3873   -1.0471 H   0  0  0  0  0  0  0  0  0  0  0  0
   -1.5818    1.3187   -1.1986 C   0  0  0  0  0  0  0  0  0  0  0  0
   -1.6214    1.8208   -2.3083 O   0  0  0  0  0  0  0  0  0  0  0  0
   -2.6908    0.8784   -0.6559 N   0  0  0  0  0  0  0  0  0  0  0  0
   -3.5206    0.9645   -1.2159 H   0  0  0  0  0  0  0  0  0  0  0  0
   -2.6817    0.4440    0.2476 H   0  0  0  0  0  0  0  0  0  0  0  0
    0.4075   -0.0985    1.7169 C   0  0  0  0  0  0  0  0  0  0  0  0
    1.5860   -0.3526    1.9662 O   0  0  0  0  0  0  0  0  0  0  0  0
   -0.4625    0.2583    2.6666 N   0  0  0  0  0  0  0  0  0  0  0  0
   -1.4309    0.3754    2.3860 H   0  0  0  0  0  0  0  0  0  0  0  0
   -0.1275    0.4111    4.0813 C   0  0  0  0  0  0  0  0  0  0  0  0
    0.6862    1.1312    4.1910 H   0  0  0  0  0  0  0  0  0  0  0  0
   -0.9980    0.7641    4.6360 H   0  0  0  0  0  0  0  0  0  0  0  0
    0.1959   -0.5481    4.4891 H   0  0  0  0  0  0  0  0  0  0  0  0
  5  6  2  0  0  0  0
  5  7  1  0  0  0  0
  2  3  1  0  0  0  0
  2  4  1  0  0  0  0
  2  5  1  0  0  0  0
  1  2  1  0  0  0  0
 19 20  2  0  0  0  0
 19 21  1  0  0  0  0
 16 17  1  0  0  0  0
 16 18  1  0  0  0  0
 14 15  2  0  0  0  0
 14 16  1  0  0  0  0
 11 12  1  0  0  0  0
 11 13  1  0  0  0  0
 11 14  1  0  0  0  0
  9 10  1  0  0  0  0
  9 11  1  0  0  0  0
  9 19  1  0  0  0  0
  7  8  1  0  0  0  0
  7  9  1  0  0  0  0
 23 24  1  0  0  0  0
 23 25  1  0  0  0  0
 23 26  1  0  0  0  0
 21 22  1  0  0  0  0
 21 23  1  0  0  0  0
M  END
$$$$
default_name
  -OEChem-02102213163D

 26 25  0     1  0  0  0  0  0999 V2000
   -3.0232   -3.6924    1.0038 H   0  0  0  0  0  0  0  0  0  0  0  0
   -3.0082   -2.6684    0.6318 C   0  0  0  0  0  0  0  0  0  0  0  0
   -3.6332   -2.0414    1.2658 H   0  0  0  0  0  0  0  0  0  0  0  0
   -3.3762   -2.6444   -0.3912 H   0  0  0  0  0  0  0  0  0  0  0  0
   -1.5882   -2.1554    0.6658 C   0  0  0  0  0  0  0  0  0  0  0  0
   -0.6832   -2.8764    1.0638 O   0  0  0  0  0  0  0  0  0  0  0  0
   -1.3952   -0.9084    0.2428 N   0  0  0  0  0  0  0  0  0  0  0  0
   -2.1972   -0.3644   -0.0422 H   0  0  0  0  0  0  0  0  0  0  0  0
   -0.1122   -0.1994    0.2658 C   0  0  1  0  0  0  0  0  0  0  0  0
    0.6131   -0.7748   -0.3153 H   0  0  0  0  0  0  0  0  0  0  0  0
   -0.2973    1.1841   -0.3966 C   0  0  0  0  0  0  0  0  0  0  0  0
   -0.3268    1.9500    0.3776 H   0  0  0  0  0  0  0  0  0  0  0  0
    0.5520    1.3873   -1.0471 H   0  0  0  0  0  0  0  0  0  0  0  0
   -1.5818    1.3187   -1.1986 C   0  0  0  0  0  0  0  0  0  0  0  0
   -1.5960    1.5685   -2.3913 O   0  0  0  0  0  0  0  0  0  0  0  0
   -2.7183    1.1653   -0.5637 N   0  0  0  0  0  0  0  0  0  0  0  0
   -3.5498    1.2424   -1.1225 H   0  0  0  0  0  0  0  0  0  0  0  0
   -2.7331    0.9405    0.4132 H   0  0  0  0  0  0  0  0  0  0  0  0
    0.4075   -0.0985    1.7169 C   0  0  0  0  0  0  0  0  0  0  0  0
    1.5860   -0.3526    1.9662 O   0  0  0  0  0  0  0  0  0  0  0  0
   -0.4625    0.2583    2.6666 N   0  0  0  0  0  0  0  0  0  0  0  0
   -1.4309    0.3754    2.3860 H   0  0  0  0  0  0  0  0  0  0  0  0
   -0.1275    0.4111    4.0813 C   0  0  0  0  0  0  0  0  0  0  0  0
    0.6862    1.1312    4.1910 H   0  0  0  0  0  0  0  0  0  0  0  0
   -0.9980    0.7641    4.6360 H   0  0  0  0  0  0  0  0  0  0  0  0
    0.1959   -0.5481    4.4891 H   0  0  0  0  0  0  0  0  0  0  0  0
  5  6  2  0  0  0  0
  5  7  1  0  0  0  0
  2  3  1  0  0  0  0
  2  4  1  0  0  0  0
  2  5  1  0  0  0  0
  1  2  1  0  0  0  0
 19 20  2  0  0  0  0
 19 21  1  0  0  0  0
 16 17  1  0  0  0  0
 16 18  1  0  0  0  0
 14 15  2  0  0  0  0
 14 16  1  0  0  0  0
 11 12  1  0  0  0  0
 11 13  1  0  0  0  0
 11 14  1  0  0  0  0
  9 10  1  0  0  0  0
  9 11  1  0  0  0  0
  9 19  1  0  0  0  0
  7  8  1  0  0  0  0
  7  9  1  0  0  0  0
 23 24  1  0  0  0  0
 23 25  1  0  0  0  0
 23 26  1  0  0  0  0
 21 22  1  0  0  0  0
 21 23  1  0  0  0  0
M  END
$$$$
default_name
  -OEChem-02102213163D

 26 25  0     1  0  0  0  0  0999 V2000
   -3.0232   -3.6924    1.0038 H   0  0  0  0  0  0  0  0  0  0  0  0
   -3.0082   -2.6684    0.6318 C   0  0  0  0  0  0  0  0  0  0  0  0
   -3.6332   -2.0414    1.2658 H   0  0  0  0  0  0  0  0  0  0  0  0
   -3.3762   -2.6444   -0.3912 H   0  0  0  0  0  0  0  0  0  0  0  0
   -1.5882   -2.1554    0.6658 C   0  0  0  0  0  0  0  0  0  0  0  0
   -0.6832   -2.8764    1.0638 O   0  0  0  0  0  0  0  0  0  0  0  0
   -1.3952   -0.9084    0.2428 N   0  0  0  0  0  0  0  0  0  0  0  0
   -2.1972   -0.3644   -0.0422 H   0  0  0  0  0  0  0  0  0  0  0  0
   -0.1122   -0.1994    0.2658 C   0  0  1  0  0  0  0  0  0  0  0  0
    0.6131   -0.7748   -0.3153 H   0  0  0  0  0  0  0  0  0  0  0  0
   -0.2973    1.1841   -0.3966 C   0  0  0  0  0  0  0  0  0  0  0  0
   -0.3268    1.9500    0.3776 H   0  0  0  0  0  0  0  0  0  0  0  0
    0.5520    1.3873   -1.0471 H   0  0  0  0  0  0  0  0  0  0  0  0
   -1.5818    1.3187   -1.1986 C   0  0  0  0  0  0  0  0  0  0  0  0
   -1.6078    1.3031   -2.4169 O   0  0  0  0  0  0  0  0  0  0  0  0
   -2.7036    1.4664   -0.5367 N   0  0  0  0  0  0  0  0  0  0  0  0
   -3.5379    1.5352   -1.0924 H   0  0  0  0  0  0  0  0  0  0  0  0
   -2.7111    1.4634    0.4657 H   0  0  0  0  0  0  0  0  0  0  0  0
    0.4075   -0.0985    1.7169 C   0  0  0  0  0  0  0  0  0  0  0  0
    1.5860   -0.3526    1.9662 O   0  0  0  0  0  0  0  0  0  0  0  0
   -0.4625    0.2583    2.6666 N   0  0  0  0  0  0  0  0  0  0  0  0
   -1.4309    0.3754    2.3860 H   0  0  0  0  0  0  0  0  0  0  0  0
   -0.1275    0.4111    4.0813 C   0  0  0  0  0  0  0  0  0  0  0  0
    0.6862    1.1312    4.1910 H   0  0  0  0  0  0  0  0  0  0  0  0
   -0.9980    0.7641    4.6360 H   0  0  0  0  0  0  0  0  0  0  0  0
    0.1959   -0.5481    4.4891 H   0  0  0  0  0  0  0  0  0  0  0  0
  5  6  2  0  0  0  0
  5  7  1  0  0  0  0
  2  3  1  0  0  0  0
  2  4  1  0  0  0  0
  2  5  1  0  0  0  0
  1  2  1  0  0  0  0
 19 20  2  0  0  0  0
 19 21  1  0  0  0  0
 16 17  1  0  0  0  0
 16 18  1  0  0  0  0
 14 15  2  0  0  0  0
 14 16  1  0  0  0  0
 11 12  1  0  0  0  0
 11 13  1  0  0  0  0
 11 14  1  0  0  0  0
  9 10  1  0  0  0  0
  9 11  1  0  0  0  0
  9 19  1  0  0  0  0
  7  8  1  0  0  0  0
  7  9  1  0  0  0  0
 23 24  1  0  0  0  0
 23 25  1  0  0  0  0
 23 26  1  0  0  0  0
 21 22  1  0  0  0  0
 21 23  1  0  0  0  0
M  END
$$$$
default_name
  -OEChem-02102213163D

 26 25  0     1  0  0  0  0  0999 V2000
   -3.0232   -3.6924    1.0038 H   0  0  0  0  0  0  0  0  0  0  0  0
   -3.0082   -2.6684    0.6318 C   0  0  0  0  0  0  0  0  0  0  0  0
   -3.6332   -2.0414    1.2658 H   0  0  0  0  0  0  0  0  0  0  0  0
   -3.3762   -2.6444   -0.3912 H   0  0  0  0  0  0  0  0  0  0  0  0
   -1.5882   -2.1554    0.6658 C   0  0  0  0  0  0  0  0  0  0  0  0
   -0.6832   -2.8764    1.0638 O   0  0  0  0  0  0  0  0  0  0  0  0
   -1.3952   -0.9084    0.2428 N   0  0  0  0  0  0  0  0  0  0  0  0
   -2.1972   -0.3644   -0.0422 H   0  0  0  0  0  0  0  0  0  0  0  0
   -0.1122   -0.1994    0.2658 C   0  0  1  0  0  0  0  0  0  0  0  0
    0.6131   -0.7748   -0.3153 H   0  0  0  0  0  0  0  0  0  0  0  0
   -0.2973    1.1841   -0.3966 C   0  0  0  0  0  0  0  0  0  0  0  0
   -0.3268    1.9500    0.3776 H   0  0  0  0  0  0  0  0  0  0  0  0
    0.5520    1.3873   -1.0471 H   0  0  0  0  0  0  0  0  0  0  0  0
   -1.5818    1.3187   -1.1986 C   0  0  0  0  0  0  0  0  0  0  0  0
   -1.6561    1.0428   -2.3833 O   0  0  0  0  0  0  0  0  0  0  0  0
   -2.6476    1.7611   -0.5769 N   0  0  0  0  0  0  0  0  0  0  0  0
   -3.4858    1.8231   -1.1276 H   0  0  0  0  0  0  0  0  0  0  0  0
   -2.6173    1.9769    0.4017 H   0  0  0  0  0  0  0  0  0  0  0  0
    0.4075   -0.0985    1.7169 C   0  0  0  0  0  0  0  0  0  0  0  0
    1.5860   -0.3526    1.9662 O   0  0  0  0  0  0  0  0  0  0  0  0
   -0.4625    0.2583    2.6666 N   0  0  0  0  0  0  0  0  0  0  0  0
   -1.4309    0.3754    2.3860 H   0  0  0  0  0  0  0  0  0  0  0  0
   -0.1275    0.4111    4.0813 C   0  0  0  0  0  0  0  0  0  0  0  0
    0.6862    1.1312    4.1910 H   0  0  0  0  0  0  0  0  0  0  0  0
   -0.9980    0.7641    4.6360 H   0  0  0  0  0  0  0  0  0  0  0  0
    0.1959   -0.5481    4.4891 H   0  0  0  0  0  0  0  0  0  0  0  0
  5  6  2  0  0  0  0
  5  7  1  0  0  0  0
  2  3  1  0  0  0  0
  2  4  1  0  0  0  0
  2  5  1  0  0  0  0
  1  2  1  0  0  0  0
 19 20  2  0  0  0  0
 19 21  1  0  0  0  0
 16 17  1  0  0  0  0
 16 18  1  0  0  0  0
 14 15  2  0  0  0  0
 14 16  1  0  0  0  0
 11 12  1  0  0  0  0
 11 13  1  0  0  0  0
 11 14  1  0  0  0  0
  9 10  1  0  0  0  0
  9 11  1  0  0  0  0
  9 19  1  0  0  0  0
  7  8  1  0  0  0  0
  7  9  1  0  0  0  0
 23 24  1  0  0  0  0
 23 25  1  0  0  0  0
 23 26  1  0  0  0  0
 21 22  1  0  0  0  0
 21 23  1  0  0  0  0
M  END
$$$$
default_name
  -OEChem-02102213163D

 26 25  0     1  0  0  0  0  0999 V2000
   -3.0232   -3.6924    1.0038 H   0  0  0  0  0  0  0  0  0  0  0  0
   -3.0082   -2.6684    0.6318 C   0  0  0  0  0  0  0  0  0  0  0  0
   -3.6332   -2.0414    1.2658 H   0  0  0  0  0  0  0  0  0  0  0  0
   -3.3762   -2.6444   -0.3912 H   0  0  0  0  0  0  0  0  0  0  0  0
   -1.5882   -2.1554    0.6658 C   0  0  0  0  0  0  0  0  0  0  0  0
   -0.6832   -2.8764    1.0638 O   0  0  0  0  0  0  0  0  0  0  0  0
   -1.3952   -0.9084    0.2428 N   0  0  0  0  0  0  0  0  0  0  0  0
   -2.1972   -0.3644   -0.0422 H   0  0  0  0  0  0  0  0  0  0  0  0
   -0.1122   -0.1994    0.2658 C   0  0  1  0  0  0  0  0  0  0  0  0
    0.6131   -0.7748   -0.3153 H   0  0  0  0  0  0  0  0  0  0  0  0
   -0.2973    1.1841   -0.3966 C   0  0  0  0  0  0  0  0  0  0  0  0
   -0.3268    1.9500    0.3776 H   0  0  0  0  0  0  0  0  0  0  0  0
    0.5520    1.3873   -1.0471 H   0  0  0  0  0  0  0  0  0  0  0  0
   -1.5818    1.3187   -1.1986 C   0  0  0  0  0  0  0  0  0  0  0  0
   -1.7374    0.8053   -2.2928 O   0  0  0  0  0  0  0  0  0  0  0  0
   -2.5542    2.0294   -0.6814 N   0  0  0  0  0  0  0  0  0  0  0  0
   -3.3969    2.0862   -1.2258 H   0  0  0  0  0  0  0  0  0  0  0  0
   -2.4581    2.4460    0.2253 H   0  0  0  0  0  0  0  0  0  0  0  0
    0.4075   -0.0985    1.7169 C   0  0  0  0  0  0  0  0  0  0  0  0
    1.5860   -0.3526    1.9662 O   0  0  0  0  0  0  0  0  0  0  0  0
   -0.4625    0.2583    2.6666 N   0  0  0  0  0  0  0  0  0  0  0  0
   -1.4309    0.3754    2.3860 H   0  0  0  0  0  0  0  0  0  0  0  0
   -0.1275    0.4111    4.0813 C   0  0  0  0  0  0  0  0  0  0  0  0
    0.6862    1.1312    4.1910 H   0  0  0  0  0  0  0  0  0  0  0  0
   -0.9980    0.7641    4.6360 H   0  0  0  0  0  0  0  0  0  0  0  0
    0.1959   -0.5481    4.4891 H   0  0  0  0  0  0  0  0  0  0  0  0
  5  6  2  0  0  0  0
  5  7  1  0  0  0  0
  2  3  1  0  0  0  0
  2  4  1  0  0  0  0
  2  5  1  0  0  0  0
  1  2  1  0  0  0  0
 19 20  2  0  0  0  0
 19 21  1  0  0  0  0
 16 17  1  0  0  0  0
 16 18  1  0  0  0  0
 14 15  2  0  0  0  0
 14 16  1  0  0  0  0
 11 12  1  0  0  0  0
 11 13  1  0  0  0  0
 11 14  1  0  0  0  0
  9 10  1  0  0  0  0
  9 11  1  0  0  0  0
  9 19  1  0  0  0  0
  7  8  1  0  0  0  0
  7  9  1  0  0  0  0
 23 24  1  0  0  0  0
 23 25  1  0  0  0  0
 23 26  1  0  0  0  0
 21 22  1  0  0  0  0
 21 23  1  0  0  0  0
M  END
$$$$
default_name
  -OEChem-02102213163D

 26 25  0     1  0  0  0  0  0999 V2000
   -3.0232   -3.6924    1.0038 H   0  0  0  0  0  0  0  0  0  0  0  0
   -3.0082   -2.6684    0.6318 C   0  0  0  0  0  0  0  0  0  0  0  0
   -3.6332   -2.0414    1.2658 H   0  0  0  0  0  0  0  0  0  0  0  0
   -3.3762   -2.6444   -0.3912 H   0  0  0  0  0  0  0  0  0  0  0  0
   -1.5882   -2.1554    0.6658 C   0  0  0  0  0  0  0  0  0  0  0  0
   -0.6832   -2.8764    1.0638 O   0  0  0  0  0  0  0  0  0  0  0  0
   -1.3952   -0.9084    0.2428 N   0  0  0  0  0  0  0  0  0  0  0  0
   -2.1972   -0.3644   -0.0422 H   0  0  0  0  0  0  0  0  0  0  0  0
   -0.1122   -0.1994    0.2658 C   0  0  1  0  0  0  0  0  0  0  0  0
    0.6131   -0.7748   -0.3153 H   0  0  0  0  0  0  0  0  0  0  0  0
   -0.2973    1.1841   -0.3966 C   0  0  0  0  0  0  0  0  0  0  0  0
   -0.3268    1.9500    0.3776 H   0  0  0  0  0  0  0  0  0  0  0  0
    0.5520    1.3873   -1.0471 H   0  0  0  0  0  0  0  0  0  0  0  0
   -1.5818    1.3187   -1.1986 C   0  0  0  0  0  0  0  0  0  0  0  0
   -1.8464    0.6067   -2.1516 O   0  0  0  0  0  0  0  0  0  0  0  0
   -2.4298    2.2529   -0.8432 N   0  0  0  0  0  0  0  0  0  0  0  0
   -3.2774    2.3069   -1.3801 H   0  0  0  0  0  0  0  0  0  0  0  0
   -2.2442    2.8389   -0.0512 H   0  0  0  0  0  0  0  0  0  0  0  0
    0.4075   -0.0985    1.7169 C   0  0  0  0  0  0  0  0  0  0  0  0
    1.5860   -0.3526    1.9662 O   0  0  0  0  0  0  0  0  0  0  0  0
   -0.4625    0.2583    2.6666 N   0  0  0  0  0  0  0  0  0  0  0  0
   -1.4309    0.3754    2.3860 H   0  0  0  0  0  0  0  0  0  0  0  0
   -0.1275    0.4111    4.0813 C   0  0  0  0  0  0  0  0  0  0  0  0
    0.6862    1.1312    4.1910 H   0  0  0  0  0  0  0  0  0  0  0  0
   -0.9980    0.7641    4.6360 H   0  0  0  0  0  0  0  0  0  0  0  0
    0.1959   -0.5481    4.4891 H   0  0  0  0  0  0  0  0  0  0  0  0
  5  6  2  0  0  0  0
  5  7  1  0  0  0  0
  2  3  1  0  0  0  0
  2  4  1  0  0  0  0
  2  5  1  0  0  0  0
  1  2  1  0  0  0  0
 19 20  2  0  0  0  0
 19 21  1  0  0  0  0
 16 17  1  0  0  0  0
 16 18  1  0  0  0  0
 14 15  2  0  0  0  0
 14 16  1  0  0  0  0
 11 12  1  0  0  0  0
 11 13  1  0  0  0  0
 11 14  1  0  0  0  0
  9 10  1  0  0  0  0
  9 11  1  0  0  0  0
  9 19  1  0  0  0  0
  7  8  1  0  0  0  0
  7  9  1  0  0  0  0
 23 24  1  0  0  0  0
 23 25  1  0  0  0  0
 23 26  1  0  0  0  0
 21 22  1  0  0  0  0
 21 23  1  0  0  0  0
M  END
$$$$
default_name
  -OEChem-02102213163D

 26 25  0     1  0  0  0  0  0999 V2000
   -3.0232   -3.6924    1.0038 H   0  0  0  0  0  0  0  0  0  0  0  0
   -3.0082   -2.6684    0.6318 C   0  0  0  0  0  0  0  0  0  0  0  0
   -3.6332   -2.0414    1.2658 H   0  0  0  0  0  0  0  0  0  0  0  0
   -3.3762   -2.6444   -0.3912 H   0  0  0  0  0  0  0  0  0  0  0  0
   -1.5882   -2.1554    0.6658 C   0  0  0  0  0  0  0  0  0  0  0  0
   -0.6832   -2.8764    1.0638 O   0  0  0  0  0  0  0  0  0  0  0  0
   -1.3952   -0.9084    0.2428 N   0  0  0  0  0  0  0  0  0  0  0  0
   -2.1972   -0.3644   -0.0422 H   0  0  0  0  0  0  0  0  0  0  0  0
   -0.1122   -0.1994    0.2658 C   0  0  1  0  0  0  0  0  0  0  0  0
    0.6131   -0.7748   -0.3153 H   0  0  0  0  0  0  0  0  0  0  0  0
   -0.2973    1.1841   -0.3966 C   0  0  0  0  0  0  0  0  0  0  0  0
   -0.3268    1.9500    0.3776 H   0  0  0  0  0  0  0  0  0  0  0  0
    0.5520    1.3873   -1.0471 H   0  0  0  0  0  0  0  0  0  0  0  0
   -1.5818    1.3187   -1.1986 C   0  0  0  0  0  0  0  0  0  0  0  0
   -1.9755    0.4607   -1.9693 O   0  0  0  0  0  0  0  0  0  0  0  0
   -2.2828    2.4164   -1.0511 N   0  0  0  0  0  0  0  0  0  0  0  0
   -3.1354    2.4699   -1.5803 H   0  0  0  0  0  0  0  0  0  0  0  0
   -1.9903    3.1287   -0.4092 H   0  0  0  0  0  0  0  0  0  0  0  0
    0.4075   -0.0985    1.7169 C   0  0  0  0  0  0  0  0  0  0  0  0
    1.5860   -0.3526    1.9662 O   0  0  0  0  0  0  0  0  0  0  0  0
   -0.4625    0.2583    2.6666 N   0  0  0  0  0  0  0  0  0  0  0  0
   -1.4309    0.3754    2.3860 H   0  0  0  0  0  0  0  0  0  0  0  0
   -0.1275    0.4111    4.0813 C   0  0  0  0  0  0  0  0  0  0  0  0
    0.6862    1.1312    4.1910 H   0  0  0  0  0  0  0  0  0  0  0  0
   -0.9980    0.7641    4.6360 H   0  0  0  0  0  0  0  0  0  0  0  0
    0.1959   -0.5481    4.4891 H   0  0  0  0  0  0  0  0  0  0  0  0
  5  6  2  0  0  0  0
  5  7  1  0  0  0  0
  2  3  1  0  0  0  0
  2  4  1  0  0  0  0
  2  5  1  0  0  0  0
  1  2  1  0  0  0  0
 19 20  2  0  0  0  0
 19 21  1  0  0  0  0
 16 17  1  0  0  0  0
 16 18  1  0  0  0  0
 14 15  2  0  0  0  0
 14 16  1  0  0  0  0
 11 12  1  0  0  0  0
 11 13  1  0  0  0  0
 11 14  1  0  0  0  0
  9 10  1  0  0  0  0
  9 11  1  0  0  0  0
  9 19  1  0  0  0  0
  7  8  1  0  0  0  0
  7  9  1  0  0  0  0
 23 24  1  0  0  0  0
 23 25  1  0  0  0  0
 23 26  1  0  0  0  0
 21 22  1  0  0  0  0
 21 23  1  0  0  0  0
M  END
$$$$
default_name
  -OEChem-02102213163D

 26 25  0     1  0  0  0  0  0999 V2000
   -3.0232   -3.6924    1.0038 H   0  0  0  0  0  0  0  0  0  0  0  0
   -3.0082   -2.6684    0.6318 C   0  0  0  0  0  0  0  0  0  0  0  0
   -3.6332   -2.0414    1.2658 H   0  0  0  0  0  0  0  0  0  0  0  0
   -3.3762   -2.6444   -0.3912 H   0  0  0  0  0  0  0  0  0  0  0  0
   -1.5882   -2.1554    0.6658 C   0  0  0  0  0  0  0  0  0  0  0  0
   -0.6832   -2.8764    1.0638 O   0  0  0  0  0  0  0  0  0  0  0  0
   -1.3952   -0.9084    0.2428 N   0  0  0  0  0  0  0  0  0  0  0  0
   -2.1972   -0.3644   -0.0422 H   0  0  0  0  0  0  0  0  0  0  0  0
   -0.1122   -0.1994    0.2658 C   0  0  1  0  0  0  0  0  0  0  0  0
    0.6131   -0.7748   -0.3153 H   0  0  0  0  0  0  0  0  0  0  0  0
   -0.2973    1.1841   -0.3966 C   0  0  0  0  0  0  0  0  0  0  0  0
   -0.3268    1.9500    0.3776 H   0  0  0  0  0  0  0  0  0  0  0  0
    0.5520    1.3873   -1.0471 H   0  0  0  0  0  0  0  0  0  0  0  0
   -1.5818    1.3187   -1.1986 C   0  0  0  0  0  0  0  0  0  0  0  0
   -2.1160    0.3772   -1.7584 O   0  0  0  0  0  0  0  0  0  0  0  0
   -2.1233    2.5088   -1.2912 N   0  0  0  0  0  0  0  0  0  0  0  0
   -2.9805    2.5642   -1.8125 H   0  0  0  0  0  0  0  0  0  0  0  0
   -1.7137    3.2957   -0.8241 H   0  0  0  0  0  0  0  0  0  0  0  0
    0.4075   -0.0985    1.7169 C   0  0  0  0  0  0  0  0  0  0  0  0
    1.5860   -0.3526    1.9662 O   0  0  0  0  0  0  0  0  0  0  0  0
   -0.4625    0.2583    2.6666 N   0  0  0  0  0  0  0  0  0  0  0  0
   -1.4309    0.3754    2.3860 H   0  0  0  0  0  0  0  0  0  0  0  0
   -0.1275    0.4111    4.0813 C   0  0  0  0  0  0  0  0  0  0  0  0
    0.6862    1.1312    4.1910 H   0  0  0  0  0  0  0  0  0  0  0  0
   -0.9980    0.7641    4.6360 H   0  0  0  0  0  0  0  0  0  0  0  0
    0.1959   -0.5481    4.4891 H   0  0  0  0  0  0  0  0  0  0  0  0
  5  6  2  0  0  0  0
  5  7  1  0  0  0  0
  2  3  1  0  0  0  0
  2  4  1  0  0  0  0
  2  5  1  0  0  0  0
  1  2  1  0  0  0  0
 19 20  2  0  0  0  0
 19 21  1  0  0  0  0
 16 17  1  0  0  0  0
 16 18  1  0  0  0  0
 14 15  2  0  0  0  0
 14 16  1  0  0  0  0
 11 12  1  0  0  0  0
 11 13  1  0  0  0  0
 11 14  1  0  0  0  0
  9 10  1  0  0  0  0
  9 11  1  0  0  0  0
  9 19  1  0  0  0  0
  7  8  1  0  0  0  0
  7  9  1  0  0  0  0
 23 24  1  0  0  0  0
 23 25  1  0  0  0  0
 23 26  1  0  0  0  0
 21 22  1  0  0  0  0
 21 23  1  0  0  0  0
M  END
$$$$
default_name
  -OEChem-02102213163D

 26 25  0     1  0  0  0  0  0999 V2000
   -3.0232   -3.6924    1.0038 H   0  0  0  0  0  0  0  0  0  0  0  0
   -3.0082   -2.6684    0.6318 C   0  0  0  0  0  0  0  0  0  0  0  0
   -3.6332   -2.0414    1.2658 H   0  0  0  0  0  0  0  0  0  0  0  0
   -3.3762   -2.6444   -0.3912 H   0  0  0  0  0  0  0  0  0  0  0  0
   -1.5882   -2.1554    0.6658 C   0  0  0  0  0  0  0  0  0  0  0  0
   -0.6832   -2.8764    1.0638 O   0  0  0  0  0  0  0  0  0  0  0  0
   -1.3952   -0.9084    0.2428 N   0  0  0  0  0  0  0  0  0  0  0  0
   -2.1972   -0.3644   -0.0422 H   0  0  0  0  0  0  0  0  0  0  0  0
   -0.1122   -0.1994    0.2658 C   0  0  1  0  0  0  0  0  0  0  0  0
    0.6131   -0.7748   -0.3153 H   0  0  0  0  0  0  0  0  0  0  0  0
   -0.2973    1.1841   -0.3966 C   0  0  0  0  0  0  0  0  0  0  0  0
   -0.3268    1.9500    0.3776 H   0  0  0  0  0  0  0  0  0  0  0  0
    0.5520    1.3873   -1.0471 H   0  0  0  0  0  0  0  0  0  0  0  0
   -1.5818    1.3187   -1.1986 C   0  0  0  0  0  0  0  0  0  0  0  0
   -2.2583    0.3618   -1.5331 O   0  0  0  0  0  0  0  0  0  0  0  0
   -1.9621    2.5238   -1.5468 N   0  0  0  0  0  0  0  0  0  0  0  0
   -2.8234    2.5834   -2.0609 H   0  0  0  0  0  0  0  0  0  0  0  0
   -1.4333    3.3285   -1.2678 H   0  0  0  0  0  0  0  0  0  0  0  0
    0.4075   -0.0985    1.7169 C   0  0  0  0  0  0  0  0  0  0  0  0
    1.5860   -0.3526    1.9662 O   0  0  0  0  0  0  0  0  0  0  0  0
   -0.4625    0.2583    2.6666 N   0  0  0  0  0  0  0  0  0  0  0  0
   -1.4309    0.3754    2.3860 H   0  0  0  0  0  0  0  0  0  0  0  0
   -0.1275    0.4111    4.0813 C   0  0  0  0  0  0  0  0  0  0  0  0
    0.6862    1.1312    4.1910 H   0  0  0  0  0  0  0  0  0  0  0  0
   -0.9980    0.7641    4.6360 H   0  0  0  0  0  0  0  0  0  0  0  0
    0.1959   -0.5481    4.4891 H   0  0  0  0  0  0  0  0  0  0  0  0
  5  6  2  0  0  0  0
  5  7  1  0  0  0  0
  2  3  1  0  0  0  0
  2  4  1  0  0  0  0
  2  5  1  0  0  0  0
  1  2  1  0  0  0  0
 19 20  2  0  0  0  0
 19 21  1  0  0  0  0
 16 17  1  0  0  0  0
 16 18  1  0  0  0  0
 14 15  2  0  0  0  0
 14 16  1  0  0  0  0
 11 12  1  0  0  0  0
 11 13  1  0  0  0  0
 11 14  1  0  0  0  0
  9 10  1  0  0  0  0
  9 11  1  0  0  0  0
  9 19  1  0  0  0  0
  7  8  1  0  0  0  0
  7  9  1  0  0  0  0
 23 24  1  0  0  0  0
 23 25  1  0  0  0  0
 23 26  1  0  0  0  0
 21 22  1  0  0  0  0
 21 23  1  0  0  0  0
M  END
$$$$
default_name
  -OEChem-02102213163D

 26 25  0     1  0  0  0  0  0999 V2000
   -3.0232   -3.6924    1.0038 H   0  0  0  0  0  0  0  0  0  0  0  0
   -3.0082   -2.6684    0.6318 C   0  0  0  0  0  0  0  0  0  0  0  0
   -3.6332   -2.0414    1.2658 H   0  0  0  0  0  0  0  0  0  0  0  0
   -3.3762   -2.6444   -0.3912 H   0  0  0  0  0  0  0  0  0  0  0  0
   -1.5882   -2.1554    0.6658 C   0  0  0  0  0  0  0  0  0  0  0  0
   -0.6832   -2.8764    1.0638 O   0  0  0  0  0  0  0  0  0  0  0  0
   -1.3952   -0.9084    0.2428 N   0  0  0  0  0  0  0  0  0  0  0  0
   -2.1972   -0.3644   -0.0422 H   0  0  0  0  0  0  0  0  0  0  0  0
   -0.1122   -0.1994    0.2658 C   0  0  1  0  0  0  0  0  0  0  0  0
    0.6131   -0.7748   -0.3153 H   0  0  0  0  0  0  0  0  0  0  0  0
   -0.2973    1.1841   -0.3966 C   0  0  0  0  0  0  0  0  0  0  0  0
   -0.3268    1.9500    0.3776 H   0  0  0  0  0  0  0  0  0  0  0  0
    0.5520    1.3873   -1.0471 H   0  0  0  0  0  0  0  0  0  0  0  0
   -1.5818    1.3187   -1.1986 C   0  0  0  0  0  0  0  0  0  0  0  0
   -2.3927    0.4156   -1.3089 O   0  0  0  0  0  0  0  0  0  0  0  0
   -1.8101    2.4604   -1.8008 N   0  0  0  0  0  0  0  0  0  0  0  0
   -2.6746    2.5261   -2.3087 H   0  0  0  0  0  0  0  0  0  0  0  0
   -1.1680    3.2249   -1.7100 H   0  0  0  0  0  0  0  0  0  0  0  0
    0.4075   -0.0985    1.7169 C   0  0  0  0  0  0  0  0  0  0  0  0
    1.5860   -0.3526    1.9662 O   0  0  0  0  0  0  0  0  0  0  0  0
   -0.4625    0.2583    2.6666 N   0  0  0  0  0  0  0  0  0  0  0  0
   -1.4309    0.3754    2.3860 H   0  0  0  0  0  0  0  0  0  0  0  0
   -0.1275    0.4111    4.0813 C   0  0  0  0  0  0  0  0  0  0  0  0
    0.6862    1.1312    4.1910 H   0  0  0  0  0  0  0  0  0  0  0  0
   -0.9980    0.7641    4.6360 H   0  0  0  0  0  0  0  0  0  0  0  0
    0.1959   -0.5481    4.4891 H   0  0  0  0  0  0  0  0  0  0  0  0
  5  6  2  0  0  0  0
  5  7  1  0  0  0  0
  2  3  1  0  0  0  0
  2  4  1  0  0  0  0
  2  5  1  0  0  0  0
  1  2  1  0  0  0  0
 19 20  2  0  0  0  0
 19 21  1  0  0  0  0
 16 17  1  0  0  0  0
 16 18  1  0  0  0  0
 14 15  2  0  0  0  0
 14 16  1  0  0  0  0
 11 12  1  0  0  0  0
 11 13  1  0  0  0  0
 11 14  1  0  0  0  0
  9 10  1  0  0  0  0
  9 11  1  0  0  0  0
  9 19  1  0  0  0  0
  7  8  1  0  0  0  0
  7  9  1  0  0  0  0
 23 24  1  0  0  0  0
 23 25  1  0  0  0  0
 23 26  1  0  0  0  0
 21 22  1  0  0  0  0
 21 23  1  0  0  0  0
M  END
$$$$
default_name
  -OEChem-02102213163D

 26 25  0     1  0  0  0  0  0999 V2000
   -3.0232   -3.6924    1.0038 H   0  0  0  0  0  0  0  0  0  0  0  0
   -3.0082   -2.6684    0.6318 C   0  0  0  0  0  0  0  0  0  0  0  0
   -3.6332   -2.0414    1.2658 H   0  0  0  0  0  0  0  0  0  0  0  0
   -3.3762   -2.6444   -0.3912 H   0  0  0  0  0  0  0  0  0  0  0  0
   -1.5882   -2.1554    0.6658 C   0  0  0  0  0  0  0  0  0  0  0  0
   -0.6832   -2.8764    1.0638 O   0  0  0  0  0  0  0  0  0  0  0  0
   -1.3952   -0.9084    0.2428 N   0  0  0  0  0  0  0  0  0  0  0  0
   -2.1972   -0.3644   -0.0422 H   0  0  0  0  0  0  0  0  0  0  0  0
   -0.1122   -0.1994    0.2658 C   0  0  1  0  0  0  0  0  0  0  0  0
    0.6131   -0.7748   -0.3153 H   0  0  0  0  0  0  0  0  0  0  0  0
   -0.2973    1.1841   -0.3966 C   0  0  0  0  0  0  0  0  0  0  0  0
   -0.3268    1.9500    0.3776 H   0  0  0  0  0  0  0  0  0  0  0  0
    0.5520    1.3873   -1.0471 H   0  0  0  0  0  0  0  0  0  0  0  0
   -1.5818    1.3187   -1.1986 C   0  0  0  0  0  0  0  0  0  0  0  0
   -2.5100    0.5350   -1.1010 O   0  0  0  0  0  0  0  0  0  0  0  0
   -1.6779    2.3228   -2.0357 N   0  0  0  0  0  0  0  0  0  0  0  0
   -2.5445    2.3963   -2.5389 H   0  0  0  0  0  0  0  0  0  0  0  0
   -0.9361    2.9919   -2.1205 H   0  0  0  0  0  0  0  0  0  0  0  0
    0.4075   -0.0985    1.7169 C   0  0  0  0  0  0  0  0  0  0  0  0
    1.5860   -0.3526    1.9662 O   0  0  0  0  0  0  0  0  0  0  0  0
   -0.4625    0.2583    2.6666 N   0  0  0  0  0  0  0  0  0  0  0  0
   -1.4309    0.3754    2.3860 H   0  0  0  0  0  0  0  0  0  0  0  0
   -0.1275    0.4111    4.0813 C   0  0  0  0  0  0  0  0  0  0  0  0
    0.6862    1.1312    4.1910 H   0  0  0  0  0  0  0  0  0  0  0  0
   -0.9980    0.7641    4.6360 H   0  0  0  0  0  0  0  0  0  0  0  0
    0.1959   -0.5481    4.4891 H   0  0  0  0  0  0  0  0  0  0  0  0
  5  6  2  0  0  0  0
  5  7  1  0  0  0  0
  2  3  1  0  0  0  0
  2  4  1  0  0  0  0
  2  5  1  0  0  0  0
  1  2  1  0  0  0  0
 19 20  2  0  0  0  0
 19 21  1  0  0  0  0
 16 17  1  0  0  0  0
 16 18  1  0  0  0  0
 14 15  2  0  0  0  0
 14 16  1  0  0  0  0
 11 12  1  0  0  0  0
 11 13  1  0  0  0  0
 11 14  1  0  0  0  0
  9 10  1  0  0  0  0
  9 11  1  0  0  0  0
  9 19  1  0  0  0  0
  7  8  1  0  0  0  0
  7  9  1  0  0  0  0
 23 24  1  0  0  0  0
 23 25  1  0  0  0  0
 23 26  1  0  0  0  0
 21 22  1  0  0  0  0
 21 23  1  0  0  0  0
M  END
$$$$
default_name
  -OEChem-02102213163D

 26 25  0     1  0  0  0  0  0999 V2000
   -3.0232   -3.6924    1.0038 H   0  0  0  0  0  0  0  0  0  0  0  0
   -3.0082   -2.6684    0.6318 C   0  0  0  0  0  0  0  0  0  0  0  0
   -3.6332   -2.0414    1.2658 H   0  0  0  0  0  0  0  0  0  0  0  0
   -3.3762   -2.6444   -0.3912 H   0  0  0  0  0  0  0  0  0  0  0  0
   -1.5882   -2.1554    0.6658 C   0  0  0  0  0  0  0  0  0  0  0  0
   -0.6832   -2.8764    1.0638 O   0  0  0  0  0  0  0  0  0  0  0  0
   -1.3952   -0.9084    0.2428 N   0  0  0  0  0  0  0  0  0  0  0  0
   -2.1972   -0.3644   -0.0422 H   0  0  0  0  0  0  0  0  0  0  0  0
   -0.1122   -0.1994    0.2658 C   0  0  1  0  0  0  0  0  0  0  0  0
    0.6131   -0.7748   -0.3153 H   0  0  0  0  0  0  0  0  0  0  0  0
   -0.2973    1.1841   -0.3966 C   0  0  0  0  0  0  0  0  0  0  0  0
   -0.3268    1.9500    0.3776 H   0  0  0  0  0  0  0  0  0  0  0  0
    0.5520    1.3873   -1.0471 H   0  0  0  0  0  0  0  0  0  0  0  0
   -1.5818    1.3187   -1.1986 C   0  0  0  0  0  0  0  0  0  0  0  0
   -2.6022    0.7118   -0.9236 O   0  0  0  0  0  0  0  0  0  0  0  0
   -1.5743    2.1205   -2.2356 N   0  0  0  0  0  0  0  0  0  0  0  0
   -2.4418    2.2029   -2.7359 H   0  0  0  0  0  0  0  0  0  0  0  0
   -0.7533    2.6454   -2.4713 H   0  0  0  0  0  0  0  0  0  0  0  0
    0.4075   -0.0985    1.7169 C   0  0  0  0  0  0  0  0  0  0  0  0
    1.5860   -0.3526    1.9662 O   0  0  0  0  0  0  0  0  0  0  0  0
   -0.4625    0.2583    2.6666 N   0  0  0  0  0  0  0  0  0  0  0  0
   -1.4309    0.3754    2.3860 H   0  0  0  0  0  0  0  0  0  0  0  0
   -0.1275    0.4111    4.0813 C   0  0  0  0  0  0  0  0  0  0  0  0
    0.6862    1.1312    4.1910 H   0  0  0  0  0  0  0  0  0  0  0  0
   -0.9980    0.7641    4.6360 H   0  0  0  0  0  0  0  0  0  0  0  0
    0.1959   -0.5481    4.4891 H   0  0  0  0  0  0  0  0  0  0  0  0
  5  6  2  0  0  0  0
  5  7  1  0  0  0  0
  2  3  1  0  0  0  0
  2  4  1  0  0  0  0
  2  5  1  0  0  0  0
  1  2  1  0  0  0  0
 19 20  2  0  0  0  0
 19 21  1  0  0  0  0
 16 17  1  0  0  0  0
 16 18  1  0  0  0  0
 14 15  2  0  0  0  0
 14 16  1  0  0  0  0
 11 12  1  0  0  0  0
 11 13  1  0  0  0  0
 11 14  1  0  0  0  0
  9 10  1  0  0  0  0
  9 11  1  0  0  0  0
  9 19  1  0  0  0  0
  7  8  1  0  0  0  0
  7  9  1  0  0  0  0
 23 24  1  0  0  0  0
 23 25  1  0  0  0  0
 23 26  1  0  0  0  0
 21 22  1  0  0  0  0
 21 23  1  0  0  0  0
M  END
$$$$
default_name
  -OEChem-02102213163D

 26 25  0     1  0  0  0  0  0999 V2000
   -3.0232   -3.6924    1.0038 H   0  0  0  0  0  0  0  0  0  0  0  0
   -3.0082   -2.6684    0.6318 C   0  0  0  0  0  0  0  0  0  0  0  0
   -3.6332   -2.0414    1.2658 H   0  0  0  0  0  0  0  0  0  0  0  0
   -3.3762   -2.6444   -0.3912 H   0  0  0  0  0  0  0  0  0  0  0  0
   -1.5882   -2.1554    0.6658 C   0  0  0  0  0  0  0  0  0  0  0  0
   -0.6832   -2.8764    1.0638 O   0  0  0  0  0  0  0  0  0  0  0  0
   -1.3952   -0.9084    0.2428 N   0  0  0  0  0  0  0  0  0  0  0  0
   -2.1972   -0.3644   -0.0422 H   0  0  0  0  0  0  0  0  0  0  0  0
   -0.1122   -0.1994    0.2658 C   0  0  1  0  0  0  0  0  0  0  0  0
    0.6131   -0.7748   -0.3153 H   0  0  0  0  0  0  0  0  0  0  0  0
   -0.2973    1.1841   -0.3966 C   0  0  0  0  0  0  0  0  0  0  0  0
   -0.3268    1.9500    0.3776 H   0  0  0  0  0  0  0  0  0  0  0  0
    0.5520    1.3873   -1.0471 H   0  0  0  0  0  0  0  0  0  0  0  0
   -1.5818    1.3187   -1.1986 C   0  0  0  0  0  0  0  0  0  0  0  0
   -2.6631    0.9339   -0.7888 O   0  0  0  0  0  0  0  0  0  0  0  0
   -1.5064    1.8672   -2.3867 N   0  0  0  0  0  0  0  0  0  0  0  0
   -2.3735    1.9589   -2.8862 H   0  0  0  0  0  0  0  0  0  0  0  0
   -0.6321    2.2091   -2.7387 H   0  0  0  0  0  0  0  0  0  0  0  0
    0.4075   -0.0985    1.7169 C   0  0  0  0  0  0  0  0  0  0  0  0
    1.5860   -0.3526    1.9662 O   0  0  0  0  0  0  0  0  0  0  0  0
   -0.4625    0.2583    2.6666 N   0  0  0  0  0  0  0  0  0  0  0  0
   -1.4309    0.3754    2.3860 H   0  0  0  0  0  0  0  0  0  0  0  0
   -0.1275    0.4111    4.0813 C   0  0  0  0  0  0  0  0  0  0  0  0
    0.6862    1.1312    4.1910 H   0  0  0  0  0  0  0  0  0  0  0  0
   -0.9980    0.7641    4.6360 H   0  0  0  0  0  0  0  0  0  0  0  0
    0.1959   -0.5481    4.4891 H   0  0  0  0  0  0  0  0  0  0  0  0
  5  6  2  0  0  0  0
  5  7  1  0  0  0  0
  2  3  1  0  0  0  0
  2  4  1  0  0  0  0
  2  5  1  0  0  0  0
  1  2  1  0  0  0  0
 19 20  2  0  0  0  0
 19 21  1  0  0  0  0
 16 17  1  0  0  0  0
 16 18  1  0  0  0  0
 14 15  2  0  0  0  0
 14 16  1  0  0  0  0
 11 12  1  0  0  0  0
 11 13  1  0  0  0  0
 11 14  1  0  0  0  0
  9 10  1  0  0  0  0
  9 11  1  0  0  0  0
  9 19  1  0  0  0  0
  7  8  1  0  0  0  0
  7  9  1  0  0  0  0
 23 24  1  0  0  0  0
 23 25  1  0  0  0  0
 23 26  1  0  0  0  0
 21 22  1  0  0  0  0
 21 23  1  0  0  0  0
M  END
$$$$
default_name
  -OEChem-02102213163D

 26 25  0     1  0  0  0  0  0999 V2000
   -3.0232   -3.6924    1.0038 H   0  0  0  0  0  0  0  0  0  0  0  0
   -3.0082   -2.6684    0.6318 C   0  0  0  0  0  0  0  0  0  0  0  0
   -3.6332   -2.0414    1.2658 H   0  0  0  0  0  0  0  0  0  0  0  0
   -3.3762   -2.6444   -0.3912 H   0  0  0  0  0  0  0  0  0  0  0  0
   -1.5882   -2.1554    0.6658 C   0  0  0  0  0  0  0  0  0  0  0  0
   -0.6832   -2.8764    1.0638 O   0  0  0  0  0  0  0  0  0  0  0  0
   -1.3952   -0.9084    0.2428 N   0  0  0  0  0  0  0  0  0  0  0  0
   -2.1972   -0.3644   -0.0422 H   0  0  0  0  0  0  0  0  0  0  0  0
   -0.1122   -0.1994    0.2658 C   0  0  1  0  0  0  0  0  0  0  0  0
    0.6131   -0.7748   -0.3153 H   0  0  0  0  0  0  0  0  0  0  0  0
   -0.2973    1.1841   -0.3966 C   0  0  0  0  0  0  0  0  0  0  0  0
   -0.3268    1.9500    0.3776 H   0  0  0  0  0  0  0  0  0  0  0  0
    0.5520    1.3873   -1.0471 H   0  0  0  0  0  0  0  0  0  0  0  0
   -1.5818    1.3187   -1.1986 C   0  0  0  0  0  0  0  0  0  0  0  0
   -2.6885    1.1863   -0.7058 O   0  0  0  0  0  0  0  0  0  0  0  0
   -1.4789    1.5803   -2.4789 N   0  0  0  0  0  0  0  0  0  0  0  0
   -2.3443    1.6810   -2.9796 H   0  0  0  0  0  0  0  0  0  0  0  0
   -0.5808    1.7125   -2.9043 H   0  0  0  0  0  0  0  0  0  0  0  0
    0.4075   -0.0985    1.7169 C   0  0  0  0  0  0  0  0  0  0  0  0
    1.5860   -0.3526    1.9662 O   0  0  0  0  0  0  0  0  0  0  0  0
   -0.4625    0.2583    2.6666 N   0  0  0  0  0  0  0  0  0  0  0  0
   -1.4309    0.3754    2.3860 H   0  0  0  0  0  0  0  0  0  0  0  0
   -0.1275    0.4111    4.0813 C   0  0  0  0  0  0  0  0  0  0  0  0
    0.6862    1.1312    4.1910 H   0  0  0  0  0  0  0  0  0  0  0  0
   -0.9980    0.7641    4.6360 H   0  0  0  0  0  0  0  0  0  0  0  0
    0.1959   -0.5481    4.4891 H   0  0  0  0  0  0  0  0  0  0  0  0
  5  6  2  0  0  0  0
  5  7  1  0  0  0  0
  2  3  1  0  0  0  0
  2  4  1  0  0  0  0
  2  5  1  0  0  0  0
  1  2  1  0  0  0  0
 19 20  2  0  0  0  0
 19 21  1  0  0  0  0
 16 17  1  0  0  0  0
 16 18  1  0  0  0  0
 14 15  2  0  0  0  0
 14 16  1  0  0  0  0
 11 12  1  0  0  0  0
 11 13  1  0  0  0  0
 11 14  1  0  0  0  0
  9 10  1  0  0  0  0
  9 11  1  0  0  0  0
  9 19  1  0  0  0  0
  7  8  1  0  0  0  0
  7  9  1  0  0  0  0
 23 24  1  0  0  0  0
 23 25  1  0  0  0  0
 23 26  1  0  0  0  0
 21 22  1  0  0  0  0
 21 23  1  0  0  0  0
M  END
$$$$
default_name
  -OEChem-02102213163D

 26 25  0     1  0  0  0  0  0999 V2000
   -3.0232   -3.6924    1.0038 H   0  0  0  0  0  0  0  0  0  0  0  0
   -3.0082   -2.6684    0.6318 C   0  0  0  0  0  0  0  0  0  0  0  0
   -3.6332   -2.0414    1.2658 H   0  0  0  0  0  0  0  0  0  0  0  0
   -3.3762   -2.6444   -0.3912 H   0  0  0  0  0  0  0  0  0  0  0  0
   -1.5882   -2.1554    0.6658 C   0  0  0  0  0  0  0  0  0  0  0  0
   -0.6832   -2.8764    1.0638 O   0  0  0  0  0  0  0  0  0  0  0  0
   -1.3952   -0.9084    0.2428 N   0  0  0  0  0  0  0  0  0  0  0  0
   -2.1972   -0.3644   -0.0422 H   0  0  0  0  0  0  0  0  0  0  0  0
   -0.1122   -0.1994    0.2658 C   0  0  1  0  0  0  0  0  0  0  0  0
    0.6131   -0.7748   -0.3153 H   0  0  0  0  0  0  0  0  0  0  0  0
   -0.2973    1.1841   -0.3966 C   0  0  0  0  0  0  0  0  0  0  0  0
   -0.3268    1.9500    0.3776 H   0  0  0  0  0  0  0  0  0  0  0  0
    0.5520    1.3873   -1.0471 H   0  0  0  0  0  0  0  0  0  0  0  0
   -1.5818    1.3187   -1.1986 C   0  0  0  0  0  0  0  0  0  0  0  0
   -2.6767    1.4517   -0.6802 O   0  0  0  0  0  0  0  0  0  0  0  0
   -1.4936    1.2792   -2.5059 N   0  0  0  0  0  0  0  0  0  0  0  0
   -2.3561    1.3882   -3.0097 H   0  0  0  0  0  0  0  0  0  0  0  0
   -0.6027    1.1897   -2.9568 H   0  0  0  0  0  0  0  0  0  0  0  0
    0.4075   -0.0985    1.7169 C   0  0  0  0  0  0  0  0  0  0  0  0
    1.5860   -0.3526    1.9662 O   0  0  0  0  0  0  0  0  0  0  0  0
   -0.4625    0.2583    2.6666 N   0  0  0  0  0  0  0  0  0  0  0  0
   -1.4309    0.3754    2.3860 H   0  0  0  0  0  0  0  0  0  0  0  0
   -0.1275    0.4111    4.0813 C   0  0  0  0  0  0  0  0  0  0  0  0
    0.6862    1.1312    4.1910 H   0  0  0  0  0  0  0  0  0  0  0  0
   -0.9980    0.7641    4.6360 H   0  0  0  0  0  0  0  0  0  0  0  0
    0.1959   -0.5481    4.4891 H   0  0  0  0  0  0  0  0  0  0  0  0
  5  6  2  0  0  0  0
  5  7  1  0  0  0  0
  2  3  1  0  0  0  0
  2  4  1  0  0  0  0
  2  5  1  0  0  0  0
  1  2  1  0  0  0  0
 19 20  2  0  0  0  0
 19 21  1  0  0  0  0
 16 17  1  0  0  0  0
 16 18  1  0  0  0  0
 14 15  2  0  0  0  0
 14 16  1  0  0  0  0
 11 12  1  0  0  0  0
 11 13  1  0  0  0  0
 11 14  1  0  0  0  0
  9 10  1  0  0  0  0
  9 11  1  0  0  0  0
  9 19  1  0  0  0  0
  7  8  1  0  0  0  0
  7  9  1  0  0  0  0
 23 24  1  0  0  0  0
 23 25  1  0  0  0  0
 23 26  1  0  0  0  0
 21 22  1  0  0  0  0
 21 23  1  0  0  0  0
M  END
$$$$
default_name
  -OEChem-02102213163D

 26 25  0     1  0  0  0  0  0999 V2000
   -3.0232   -3.6924    1.0038 H   0  0  0  0  0  0  0  0  0  0  0  0
   -3.0082   -2.6684    0.6318 C   0  0  0  0  0  0  0  0  0  0  0  0
   -3.6332   -2.0414    1.2658 H   0  0  0  0  0  0  0  0  0  0  0  0
   -3.3762   -2.6444   -0.3912 H   0  0  0  0  0  0  0  0  0  0  0  0
   -1.5882   -2.1554    0.6658 C   0  0  0  0  0  0  0  0  0  0  0  0
   -0.6832   -2.8764    1.0638 O   0  0  0  0  0  0  0  0  0  0  0  0
   -1.3952   -0.9084    0.2428 N   0  0  0  0  0  0  0  0  0  0  0  0
   -2.1972   -0.3644   -0.0422 H   0  0  0  0  0  0  0  0  0  0  0  0
   -0.1122   -0.1994    0.2658 C   0  0  1  0  0  0  0  0  0  0  0  0
    0.6131   -0.7748   -0.3153 H   0  0  0  0  0  0  0  0  0  0  0  0
   -0.2973    1.1841   -0.3966 C   0  0  0  0  0  0  0  0  0  0  0  0
   -0.3268    1.9500    0.3776 H   0  0  0  0  0  0  0  0  0  0  0  0
    0.5520    1.3873   -1.0471 H   0  0  0  0  0  0  0  0  0  0  0  0
   -1.5818    1.3187   -1.1986 C   0  0  0  0  0  0  0  0  0  0  0  0
   -2.6284    1.7120   -0.7138 O   0  0  0  0  0  0  0  0  0  0  0  0
   -1.5496    0.9845   -2.4657 N   0  0  0  0  0  0  0  0  0  0  0  0
   -2.4083    1.1003   -2.9745 H   0  0  0  0  0  0  0  0  0  0  0  0
   -0.6965    0.6762   -2.8927 H   0  0  0  0  0  0  0  0  0  0  0  0
    0.4075   -0.0985    1.7169 C   0  0  0  0  0  0  0  0  0  0  0  0
    1.5860   -0.3526    1.9662 O   0  0  0  0  0  0  0  0  0  0  0  0
   -0.4625    0.2583    2.6666 N   0  0  0  0  0  0  0  0  0  0  0  0
   -1.4309    0.3754    2.3860 H   0  0  0  0  0  0  0  0  0  0  0  0
   -0.1275    0.4111    4.0813 C   0  0  0  0  0  0  0  0  0  0  0  0
    0.6862    1.1312    4.1910 H   0  0  0  0  0  0  0  0  0  0  0  0
   -0.9980    0.7641    4.6360 H   0  0  0  0  0  0  0  0  0  0  0  0
    0.1959   -0.5481    4.4891 H   0  0  0  0  0  0  0  0  0  0  0  0
  5  6  2  0  0  0  0
  5  7  1  0  0  0  0
  2  3  1  0  0  0  0
  2  4  1  0  0  0  0
  2  5  1  0  0  0  0
  1  2  1  0  0  0  0
 19 20  2  0  0  0  0
 19 21  1  0  0  0  0
 16 17  1  0  0  0  0
 16 18  1  0  0  0  0
 14 15  2  0  0  0  0
 14 16  1  0  0  0  0
 11 12  1  0  0  0  0
 11 13  1  0  0  0  0
 11 14  1  0  0  0  0
  9 10  1  0  0  0  0
  9 11  1  0  0  0  0
  9 19  1  0  0  0  0
  7  8  1  0  0  0  0
  7  9  1  0  0  0  0
 23 24  1  0  0  0  0
 23 25  1  0  0  0  0
 23 26  1  0  0  0  0
 21 22  1  0  0  0  0
 21 23  1  0  0  0  0
M  END
$$$$
default_name
  -OEChem-02102213163D

 26 25  0     1  0  0  0  0  0999 V2000
   -3.0232   -3.6924    1.0038 H   0  0  0  0  0  0  0  0  0  0  0  0
   -3.0082   -2.6684    0.6318 C   0  0  0  0  0  0  0  0  0  0  0  0
   -3.6332   -2.0414    1.2658 H   0  0  0  0  0  0  0  0  0  0  0  0
   -3.3762   -2.6444   -0.3912 H   0  0  0  0  0  0  0  0  0  0  0  0
   -1.5882   -2.1554    0.6658 C   0  0  0  0  0  0  0  0  0  0  0  0
   -0.6832   -2.8764    1.0638 O   0  0  0  0  0  0  0  0  0  0  0  0
   -1.3952   -0.9084    0.2428 N   0  0  0  0  0  0  0  0  0  0  0  0
   -2.1972   -0.3644   -0.0422 H   0  0  0  0  0  0  0  0  0  0  0  0
   -0.1122   -0.1994    0.2658 C   0  0  1  0  0  0  0  0  0  0  0  0
    0.6131   -0.7748   -0.3153 H   0  0  0  0  0  0  0  0  0  0  0  0
   -0.2973    1.1841   -0.3966 C   0  0  0  0  0  0  0  0  0  0  0  0
   -0.3268    1.9500    0.3776 H   0  0  0  0  0  0  0  0  0  0  0  0
    0.5520    1.3873   -1.0471 H   0  0  0  0  0  0  0  0  0  0  0  0
   -1.5818    1.3187   -1.1986 C   0  0  0  0  0  0  0  0  0  0  0  0
   -2.5470    1.9495   -0.8043 O   0  0  0  0  0  0  0  0  0  0  0  0
   -1.6429    0.7162   -2.3612 N   0  0  0  0  0  0  0  0  0  0  0  0
   -2.4971    0.8372   -2.8764 H   0  0  0  0  0  0  0  0  0  0  0  0
   -0.8558    0.2070   -2.7164 H   0  0  0  0  0  0  0  0  0  0  0  0
    0.4075   -0.0985    1.7169 C   0  0  0  0  0  0  0  0  0  0  0  0
    1.5860   -0.3526    1.9662 O   0  0  0  0  0  0  0  0  0  0  0  0
   -0.4625    0.2583    2.6666 N   0  0  0  0  0  0  0  0  0  0  0  0
   -1.4309    0.3754    2.3860 H   0  0  0  0  0  0  0  0  0  0  0  0
   -0.1275    0.4111    4.0813 C   0  0  0  0  0  0  0  0  0  0  0  0
    0.6862    1.1312    4.1910 H   0  0  0  0  0  0  0  0  0  0  0  0
   -0.9980    0.7641    4.6360 H   0  0  0  0  0  0  0  0  0  0  0  0
    0.1959   -0.5481    4.4891 H   0  0  0  0  0  0  0  0  0  0  0  0
  5  6  2  0  0  0  0
  5  7  1  0  0  0  0
  2  3  1  0  0  0  0
  2  4  1  0  0  0  0
  2  5  1  0  0  0  0
  1  2  1  0  0  0  0
 19 20  2  0  0  0  0
 19 21  1  0  0  0  0
 16 17  1  0  0  0  0
 16 18  1  0  0  0  0
 14 15  2  0  0  0  0
 14 16  1  0  0  0  0
 11 12  1  0  0  0  0
 11 13  1  0  0  0  0
 11 14  1  0  0  0  0
  9 10  1  0  0  0  0
  9 11  1  0  0  0  0
  9 19  1  0  0  0  0
  7  8  1  0  0  0  0
  7  9  1  0  0  0  0
 23 24  1  0  0  0  0
 23 25  1  0  0  0  0
 23 26  1  0  0  0  0
 21 22  1  0  0  0  0
 21 23  1  0  0  0  0
M  END
$$$$
default_name
  -OEChem-02102213163D

 26 25  0     1  0  0  0  0  0999 V2000
   -3.0232   -3.6924    1.0038 H   0  0  0  0  0  0  0  0  0  0  0  0
   -3.0082   -2.6684    0.6318 C   0  0  0  0  0  0  0  0  0  0  0  0
   -3.6332   -2.0414    1.2658 H   0  0  0  0  0  0  0  0  0  0  0  0
   -3.3762   -2.6444   -0.3912 H   0  0  0  0  0  0  0  0  0  0  0  0
   -1.5882   -2.1554    0.6658 C   0  0  0  0  0  0  0  0  0  0  0  0
   -0.6832   -2.8764    1.0638 O   0  0  0  0  0  0  0  0  0  0  0  0
   -1.3952   -0.9084    0.2428 N   0  0  0  0  0  0  0  0  0  0  0  0
   -2.1972   -0.3644   -0.0422 H   0  0  0  0  0  0  0  0  0  0  0  0
   -0.1122   -0.1994    0.2658 C   0  0  1  0  0  0  0  0  0  0  0  0
    0.6131   -0.7748   -0.3153 H   0  0  0  0  0  0  0  0  0  0  0  0
   -0.2973    1.1841   -0.3966 C   0  0  0  0  0  0  0  0  0  0  0  0
   -0.3268    1.9500    0.3776 H   0  0  0  0  0  0  0  0  0  0  0  0
    0.5520    1.3873   -1.0471 H   0  0  0  0  0  0  0  0  0  0  0  0
   -1.5818    1.3187   -1.1986 C   0  0  0  0  0  0  0  0  0  0  0  0
   -2.4381    2.1480   -0.9455 O   0  0  0  0  0  0  0  0  0  0  0  0
   -1.7674    0.4927   -2.1994 N   0  0  0  0  0  0  0  0  0  0  0  0
   -2.6166    0.6165   -2.7220 H   0  0  0  0  0  0  0  0  0  0  0  0
   -1.0696   -0.1858   -2.4398 H   0  0  0  0  0  0  0  0  0  0  0  0
    0.4075   -0.0985    1.7169 C   0  0  0  0  0  0  0  0  0  0  0  0
    1.5860   -0.3526    1.9662 O   0  0  0  0  0  0  0  0  0  0  0  0
   -0.4625    0.2583    2.6666 N   0  0  0  0  0  0  0  0  0  0  0  0
   -1.4309    0.3754    2.3860 H   0  0  0  0  0  0  0  0  0  0  0  0
   -0.1275    0.4111    4.0813 C   0  0  0  0  0  0  0  0  0  0  0  0
    0.6862    1.1312    4.1910 H   0  0  0  0  0  0  0  0  0  0  0  0
   -0.9980    0.7641    4.6360 H   0  0  0  0  0  0  0  0  0  0  0  0
    0.1959   -0.5481    4.4891 H   0  0  0  0  0  0  0  0  0  0  0  0
  5  6  2  0  0  0  0
  5  7  1  0  0  0  0
  2  3  1  0  0  0  0
  2  4  1  0  0  0  0
  2  5  1  0  0  0  0
  1  2  1  0  0  0  0
 19 20  2  0  0  0  0
 19 21  1  0  0  0  0
 16 17  1  0  0  0  0
 16 18  1  0  0  0  0
 14 15  2  0  0  0  0
 14 16  1  0  0  0  0
 11 12  1  0  0  0  0
 11 13  1  0  0  0  0
 11 14  1  0  0  0  0
  9 10  1  0  0  0  0
  9 11  1  0  0  0  0
  9 19  1  0  0  0  0
  7  8  1  0  0  0  0
  7  9  1  0  0  0  0
 23 24  1  0  0  0  0
 23 25  1  0  0  0  0
 23 26  1  0  0  0  0
 21 22  1  0  0  0  0
 21 23  1  0  0  0  0
M  END
$$$$
default_name
  -OEChem-02102213163D

 26 25  0     1  0  0  0  0  0999 V2000
   -3.0232   -3.6924    1.0038 H   0  0  0  0  0  0  0  0  0  0  0  0
   -3.0082   -2.6684    0.6318 C   0  0  0  0  0  0  0  0  0  0  0  0
   -3.6332   -2.0414    1.2658 H   0  0  0  0  0  0  0  0  0  0  0  0
   -3.3762   -2.6444   -0.3912 H   0  0  0  0  0  0  0  0  0  0  0  0
   -1.5882   -2.1554    0.6658 C   0  0  0  0  0  0  0  0  0  0  0  0
   -0.6832   -2.8764    1.0638 O   0  0  0  0  0  0  0  0  0  0  0  0
   -1.3952   -0.9084    0.2428 N   0  0  0  0  0  0  0  0  0  0  0  0
   -2.1972   -0.3644   -0.0422 H   0  0  0  0  0  0  0  0  0  0  0  0
   -0.1122   -0.1994    0.2658 C   0  0  1  0  0  0  0  0  0  0  0  0
    0.6131   -0.7748   -0.3153 H   0  0  0  0  0  0  0  0  0  0  0  0
   -0.2973    1.1841   -0.3966 C   0  0  0  0  0  0  0  0  0  0  0  0
   -0.3268    1.9500    0.3776 H   0  0  0  0  0  0  0  0  0  0  0  0
    0.5520    1.3873   -1.0471 H   0  0  0  0  0  0  0  0  0  0  0  0
   -1.5818    1.3187   -1.1986 C   0  0  0  0  0  0  0  0  0  0  0  0
   -2.3089    2.2941   -1.1278 O   0  0  0  0  0  0  0  0  0  0  0  0
   -1.9143    0.3292   -1.9915 N   0  0  0  0  0  0  0  0  0  0  0  0
   -2.7587    0.4535   -2.5219 H   0  0  0  0  0  0  0  0  0  0  0  0
   -1.3235   -0.4757   -2.0819 H   0  0  0  0  0  0  0  0  0  0  0  0
    0.4075   -0.0985    1.7169 C   0  0  0  0  0  0  0  0  0  0  0  0
    1.5860   -0.3526    1.9662 O   0  0  0  0  0  0  0  0  0  0  0  0
   -0.4625    0.2583    2.6666 N   0  0  0  0  0  0  0  0  0  0  0  0
   -1.4309    0.3754    2.3860 H   0  0  0  0  0  0  0  0  0  0  0  0
   -0.1275    0.4111    4.0813 C   0  0  0  0  0  0  0  0  0  0  0  0
    0.6862    1.1312    4.1910 H   0  0  0  0  0  0  0  0  0  0  0  0
   -0.9980    0.7641    4.6360 H   0  0  0  0  0  0  0  0  0  0  0  0
    0.1959   -0.5481    4.4891 H   0  0  0  0  0  0  0  0  0  0  0  0
  5  6  2  0  0  0  0
  5  7  1  0  0  0  0
  2  3  1  0  0  0  0
  2  4  1  0  0  0  0
  2  5  1  0  0  0  0
  1  2  1  0  0  0  0
 19 20  2  0  0  0  0
 19 21  1  0  0  0  0
 16 17  1  0  0  0  0
 16 18  1  0  0  0  0
 14 15  2  0  0  0  0
 14 16  1  0  0  0  0
 11 12  1  0  0  0  0
 11 13  1  0  0  0  0
 11 14  1  0  0  0  0
  9 10  1  0  0  0  0
  9 11  1  0  0  0  0
  9 19  1  0  0  0  0
  7  8  1  0  0  0  0
  7  9  1  0  0  0  0
 23 24  1  0  0  0  0
 23 25  1  0  0  0  0
 23 26  1  0  0  0  0
 21 22  1  0  0  0  0
 21 23  1  0  0  0  0
M  END
$$$$
default_name
  -OEChem-02102213163D

 26 25  0     1  0  0  0  0  0999 V2000
   -3.0232   -3.6924    1.0038 H   0  0  0  0  0  0  0  0  0  0  0  0
   -3.0082   -2.6684    0.6318 C   0  0  0  0  0  0  0  0  0  0  0  0
   -3.6332   -2.0414    1.2658 H   0  0  0  0  0  0  0  0  0  0  0  0
   -3.3762   -2.6444   -0.3912 H   0  0  0  0  0  0  0  0  0  0  0  0
   -1.5882   -2.1554    0.6658 C   0  0  0  0  0  0  0  0  0  0  0  0
   -0.6832   -2.8764    1.0638 O   0  0  0  0  0  0  0  0  0  0  0  0
   -1.3952   -0.9084    0.2428 N   0  0  0  0  0  0  0  0  0  0  0  0
   -2.1972   -0.3644   -0.0422 H   0  0  0  0  0  0  0  0  0  0  0  0
   -0.1122   -0.1994    0.2658 C   0  0  1  0  0  0  0  0  0  0  0  0
    0.6131   -0.7748   -0.3153 H   0  0  0  0  0  0  0  0  0  0  0  0
   -0.2973    1.1841   -0.3966 C   0  0  0  0  0  0  0  0  0  0  0  0
   -0.3268    1.9500    0.3776 H   0  0  0  0  0  0  0  0  0  0  0  0
    0.5520    1.3873   -1.0471 H   0  0  0  0  0  0  0  0  0  0  0  0
   -1.5818    1.3187   -1.1986 C   0  0  0  0  0  0  0  0  0  0  0  0
   -2.1685    2.3776   -1.3388 O   0  0  0  0  0  0  0  0  0  0  0  0
   -2.0739    0.2368   -1.7515 N   0  0  0  0  0  0  0  0  0  0  0  0
   -2.9135    0.3592   -2.2897 H   0  0  0  0  0  0  0  0  0  0  0  0
   -1.6001   -0.6427   -1.6669 H   0  0  0  0  0  0  0  0  0  0  0  0
    0.4075   -0.0985    1.7169 C   0  0  0  0  0  0  0  0  0  0  0  0
    1.5860   -0.3526    1.9662 O   0  0  0  0  0  0  0  0  0  0  0  0
   -0.4625    0.2583    2.6666 N   0  0  0  0  0  0  0  0  0  0  0  0
   -1.4309    0.3754    2.3860 H   0  0  0  0  0  0  0  0  0  0  0  0
   -0.1275    0.4111    4.0813 C   0  0  0  0  0  0  0  0  0  0  0  0
    0.6862    1.1312    4.1910 H   0  0  0  0  0  0  0  0  0  0  0  0
   -0.9980    0.7641    4.6360 H   0  0  0  0  0  0  0  0  0  0  0  0
    0.1959   -0.5481    4.4891 H   0  0  0  0  0  0  0  0  0  0  0  0
  5  6  2  0  0  0  0
  5  7  1  0  0  0  0
  2  3  1  0  0  0  0
  2  4  1  0  0  0  0
  2  5  1  0  0  0  0
  1  2  1  0  0  0  0
 19 20  2  0  0  0  0
 19 21  1  0  0  0  0
 16 17  1  0  0  0  0
 16 18  1  0  0  0  0
 14 15  2  0  0  0  0
 14 16  1  0  0  0  0
 11 12  1  0  0  0  0
 11 13  1  0  0  0  0
 11 14  1  0  0  0  0
  9 10  1  0  0  0  0
  9 11  1  0  0  0  0
  9 19  1  0  0  0  0
  7  8  1  0  0  0  0
  7  9  1  0  0  0  0
 23 24  1  0  0  0  0
 23 25  1  0  0  0  0
 23 26  1  0  0  0  0
 21 22  1  0  0  0  0
 21 23  1  0  0  0  0
M  END
$$$$
default_name
  -OEChem-02102213163D

 26 25  0     1  0  0  0  0  0999 V2000
   -3.0232   -3.6924    1.0038 H   0  0  0  0  0  0  0  0  0  0  0  0
   -3.0082   -2.6684    0.6318 C   0  0  0  0  0  0  0  0  0  0  0  0
   -3.6332   -2.0414    1.2658 H   0  0  0  0  0  0  0  0  0  0  0  0
   -3.3762   -2.6444   -0.3912 H   0  0  0  0  0  0  0  0  0  0  0  0
   -1.5882   -2.1554    0.6658 C   0  0  0  0  0  0  0  0  0  0  0  0
   -0.6832   -2.8764    1.0638 O   0  0  0  0  0  0  0  0  0  0  0  0
   -1.3952   -0.9084    0.2428 N   0  0  0  0  0  0  0  0  0  0  0  0
   -2.1972   -0.3644   -0.0422 H   0  0  0  0  0  0  0  0  0  0  0  0
   -0.1122   -0.1994    0.2658 C   0  0  1  0  0  0  0  0  0  0  0  0
    0.6131   -0.7748   -0.3153 H   0  0  0  0  0  0  0  0  0  0  0  0
   -0.2973    1.1841   -0.3966 C   0  0  0  0  0  0  0  0  0  0  0  0
   -0.3268    1.9500    0.3776 H   0  0  0  0  0  0  0  0  0  0  0  0
    0.5520    1.3873   -1.0471 H   0  0  0  0  0  0  0  0  0  0  0  0
   -1.5818    1.3187   -1.1986 C   0  0  0  0  0  0  0  0  0  0  0  0
   -2.0262    2.3930   -1.5640 O   0  0  0  0  0  0  0  0  0  0  0  0
   -2.2351    0.2218   -1.4958 N   0  0  0  0  0  0  0  0  0  0  0  0
   -3.0707    0.3400   -2.0412 H   0  0  0  0  0  0  0  0  0  0  0  0
   -1.8806   -0.6755   -1.2233 H   0  0  0  0  0  0  0  0  0  0  0  0
    0.4075   -0.0985    1.7169 C   0  0  0  0  0  0  0  0  0  0  0  0
    1.5860   -0.3526    1.9662 O   0  0  0  0  0  0  0  0  0  0  0  0
   -0.4625    0.2583    2.6666 N   0  0  0  0  0  0  0  0  0  0  0  0
   -1.4309    0.3754    2.3860 H   0  0  0  0  0  0  0  0  0  0  0  0
   -0.1275    0.4111    4.0813 C   0  0  0  0  0  0  0  0  0  0  0  0
    0.6862    1.1312    4.1910 H   0  0  0  0  0  0  0  0  0  0  0  0
   -0.9980    0.7641    4.6360 H   0  0  0  0  0  0  0  0  0  0  0  0
    0.1959   -0.5481    4.4891 H   0  0  0  0  0  0  0  0  0  0  0  0
  5  6  2  0  0  0  0
  5  7  1  0  0  0  0
  2  3  1  0  0  0  0
  2  4  1  0  0  0  0
  2  5  1  0  0  0  0
  1  2  1  0  0  0  0
 19 20  2  0  0  0  0
 19 21  1  0  0  0  0
 16 17  1  0  0  0  0
 16 18  1  0  0  0  0
 14 15  2  0  0  0  0
 14 16  1  0  0  0  0
 11 12  1  0  0  0  0
 11 13  1  0  0  0  0
 11 14  1  0  0  0  0
  9 10  1  0  0  0  0
  9 11  1  0  0  0  0
  9 19  1  0  0  0  0
  7  8  1  0  0  0  0
  7  9  1  0  0  0  0
 23 24  1  0  0  0  0
 23 25  1  0  0  0  0
 23 26  1  0  0  0  0
 21 22  1  0  0  0  0
 21 23  1  0  0  0  0
M  END
$$$$
default_name
  -OEChem-02102213163D

 26 25  0     1  0  0  0  0  0999 V2000
   -3.0232   -3.6924    1.0038 H   0  0  0  0  0  0  0  0  0  0  0  0
   -3.0082   -2.6684    0.6318 C   0  0  0  0  0  0  0  0  0  0  0  0
   -3.6332   -2.0414    1.2658 H   0  0  0  0  0  0  0  0  0  0  0  0
   -3.3762   -2.6444   -0.3912 H   0  0  0  0  0  0  0  0  0  0  0  0
   -1.5882   -2.1554    0.6658 C   0  0  0  0  0  0  0  0  0  0  0  0
   -0.6832   -2.8764    1.0638 O   0  0  0  0  0  0  0  0  0  0  0  0
   -1.3952   -0.9084    0.2428 N   0  0  0  0  0  0  0  0  0  0  0  0
   -2.1972   -0.3644   -0.0422 H   0  0  0  0  0  0  0  0  0  0  0  0
   -0.1122   -0.1994    0.2658 C   0  0  1  0  0  0  0  0  0  0  0  0
    0.6131   -0.7748   -0.3153 H   0  0  0  0  0  0  0  0  0  0  0  0
   -0.2973    1.1841   -0.3966 C   0  0  0  0  0  0  0  0  0  0  0  0
   -0.0628    1.9620    0.3291 H   0  0  0  0  0  0  0  0  0  0  0  0
    0.3934    1.2769   -1.2333 H   0  0  0  0  0  0  0  0  0  0  0  0
   -1.7115    1.4506   -0.8868 C   0  0  0  0  0  0  0  0  0  0  0  0
   -2.0393    2.4892   -1.4337 O   0  0  0  0  0  0  0  0  0  0  0  0
   -2.6107    0.5157   -0.6980 N   0  0  0  0  0  0  0  0  0  0  0  0
   -3.5319    0.7124   -1.0478 H   0  0  0  0  0  0  0  0  0  0  0  0
   -2.3620   -0.3550   -0.2678 H   0  0  0  0  0  0  0  0  0  0  0  0
    0.4075   -0.0985    1.7169 C   0  0  0  0  0  0  0  0  0  0  0  0
    1.5860   -0.3526    1.9662 O   0  0  0  0  0  0  0  0  0  0  0  0
   -0.4625    0.2583    2.6666 N   0  0  0  0  0  0  0  0  0  0  0  0
   -1.4309    0.3754    2.3860 H   0  0  0  0  0  0  0  0  0  0  0  0
   -0.1275    0.4111    4.0813 C   0  0  0  0  0  0  0  0  0  0  0  0
    0.6862    1.1312    4.1910 H   0  0  0  0  0  0  0  0  0  0  0  0
   -0.9980    0.7641    4.6360 H   0  0  0  0  0  0  0  0  0  0  0  0
    0.1959   -0.5481    4.4891 H   0  0  0  0  0  0  0  0  0  0  0  0
  5  6  2  0  0  0  0
  5  7  1  0  0  0  0
  2  3  1  0  0  0  0
  2  4  1  0  0  0  0
  2  5  1  0  0  0  0
  1  2  1  0  0  0  0
 19 20  2  0  0  0  0
 19 21  1  0  0  0  0
 16 17  1  0  0  0  0
 16 18  1  0  0  0  0
 14 15  2  0  0  0  0
 14 16  1  0  0  0  0
 11 12  1  0  0  0  0
 11 13  1  0  0  0  0
 11 14  1  0  0  0  0
  9 10  1  0  0  0  0
  9 11  1  0  0  0  0
  9 19  1  0  0  0  0
  7  8  1  0  0  0  0
  7  9  1  0  0  0  0
 23 24  1  0  0  0  0
 23 25  1  0  0  0  0
 23 26  1  0  0  0  0
 21 22  1  0  0  0  0
 21 23  1  0  0  0  0
M  END
$$$$
default_name
  -OEChem-02102213163D

 26 25  0     1  0  0  0  0  0999 V2000
   -3.0232   -3.6924    1.0038 H   0  0  0  0  0  0  0  0  0  0  0  0
   -3.0082   -2.6684    0.6318 C   0  0  0  0  0  0  0  0  0  0  0  0
   -3.6332   -2.0414    1.2658 H   0  0  0  0  0  0  0  0  0  0  0  0
   -3.3762   -2.6444   -0.3912 H   0  0  0  0  0  0  0  0  0  0  0  0
   -1.5882   -2.1554    0.6658 C   0  0  0  0  0  0  0  0  0  0  0  0
   -0.6832   -2.8764    1.0638 O   0  0  0  0  0  0  0  0  0  0  0  0
   -1.3952   -0.9084    0.2428 N   0  0  0  0  0  0  0  0  0  0  0  0
   -2.1972   -0.3644   -0.0422 H   0  0  0  0  0  0  0  0  0  0  0  0
   -0.1122   -0.1994    0.2658 C   0  0  1  0  0  0  0  0  0  0  0  0
    0.6131   -0.7748   -0.3153 H   0  0  0  0  0  0  0  0  0  0  0  0
   -0.2973    1.1841   -0.3966 C   0  0  0  0  0  0  0  0  0  0  0  0
   -0.0628    1.9620    0.3291 H   0  0  0  0  0  0  0  0  0  0  0  0
    0.3934    1.2769   -1.2333 H   0  0  0  0  0  0  0  0  0  0  0  0
   -1.7115    1.4506   -0.8868 C   0  0  0  0  0  0  0  0  0  0  0  0
   -1.9873    2.3534   -1.6575 O   0  0  0  0  0  0  0  0  0  0  0  0
   -2.6689    0.6717   -0.4453 N   0  0  0  0  0  0  0  0  0  0  0  0
   -3.5900    0.8604   -0.7998 H   0  0  0  0  0  0  0  0  0  0  0  0
   -2.4652   -0.0896    0.1743 H   0  0  0  0  0  0  0  0  0  0  0  0
    0.4075   -0.0985    1.7169 C   0  0  0  0  0  0  0  0  0  0  0  0
    1.5860   -0.3526    1.9662 O   0  0  0  0  0  0  0  0  0  0  0  0
   -0.4625    0.2583    2.6666 N   0  0  0  0  0  0  0  0  0  0  0  0
   -1.4309    0.3754    2.3860 H   0  0  0  0  0  0  0  0  0  0  0  0
   -0.1275    0.4111    4.0813 C   0  0  0  0  0  0  0  0  0  0  0  0
    0.6862    1.1312    4.1910 H   0  0  0  0  0  0  0  0  0  0  0  0
   -0.9980    0.7641    4.6360 H   0  0  0  0  0  0  0  0  0  0  0  0
    0.1959   -0.5481    4.4891 H   0  0  0  0  0  0  0  0  0  0  0  0
  5  6  2  0  0  0  0
  5  7  1  0  0  0  0
  2  3  1  0  0  0  0
  2  4  1  0  0  0  0
  2  5  1  0  0  0  0
  1  2  1  0  0  0  0
 19 20  2  0  0  0  0
 19 21  1  0  0  0  0
 16 17  1  0  0  0  0
 16 18  1  0  0  0  0
 14 15  2  0  0  0  0
 14 16  1  0  0  0  0
 11 12  1  0  0  0  0
 11 13  1  0  0  0  0
 11 14  1  0  0  0  0
  9 10  1  0  0  0  0
  9 11  1  0  0  0  0
  9 19  1  0  0  0  0
  7  8  1  0  0  0  0
  7  9  1  0  0  0  0
 23 24  1  0  0  0  0
 23 25  1  0  0  0  0
 23 26  1  0  0  0  0
 21 22  1  0  0  0  0
 21 23  1  0  0  0  0
M  END
$$$$
default_name
  -OEChem-02102213163D

 26 25  0     1  0  0  0  0  0999 V2000
   -3.0232   -3.6924    1.0038 H   0  0  0  0  0  0  0  0  0  0  0  0
   -3.0082   -2.6684    0.6318 C   0  0  0  0  0  0  0  0  0  0  0  0
   -3.6332   -2.0414    1.2658 H   0  0  0  0  0  0  0  0  0  0  0  0
   -3.3762   -2.6444   -0.3912 H   0  0  0  0  0  0  0  0  0  0  0  0
   -1.5882   -2.1554    0.6658 C   0  0  0  0  0  0  0  0  0  0  0  0
   -0.6832   -2.8764    1.0638 O   0  0  0  0  0  0  0  0  0  0  0  0
   -1.3952   -0.9084    0.2428 N   0  0  0  0  0  0  0  0  0  0  0  0
   -2.1972   -0.3644   -0.0422 H   0  0  0  0  0  0  0  0  0  0  0  0
   -0.1122   -0.1994    0.2658 C   0  0  1  0  0  0  0  0  0  0  0  0
    0.6131   -0.7748   -0.3153 H   0  0  0  0  0  0  0  0  0  0  0  0
   -0.2973    1.1841   -0.3966 C   0  0  0  0  0  0  0  0  0  0  0  0
   -0.0628    1.9620    0.3291 H   0  0  0  0  0  0  0  0  0  0  0  0
    0.3934    1.2769   -1.2333 H   0  0  0  0  0  0  0  0  0  0  0  0
   -1.7115    1.4506   -0.8868 C   0  0  0  0  0  0  0  0  0  0  0  0
   -1.9585    2.1641   -1.8434 O   0  0  0  0  0  0  0  0  0  0  0  0
   -2.7006    0.8881   -0.2361 N   0  0  0  0  0  0  0  0  0  0  0  0
   -3.6225    1.0679   -0.5932 H   0  0  0  0  0  0  0  0  0  0  0  0
   -2.5228    0.2818    0.5422 H   0  0  0  0  0  0  0  0  0  0  0  0
    0.4075   -0.0985    1.7169 C   0  0  0  0  0  0  0  0  0  0  0  0
    1.5860   -0.3526    1.9662 O   0  0  0  0  0  0  0  0  0  0  0  0
   -0.4625    0.2583    2.6666 N   0  0  0  0  0  0  0  0  0  0  0  0
   -1.4309    0.3754    2.3860 H   0  0  0  0  0  0  0  0  0  0  0  0
   -0.1275    0.4111    4.0813 C   0  0  0  0  0  0  0  0  0  0  0  0
    0.6862    1.1312    4.1910 H   0  0  0  0  0  0  0  0  0  0  0  0
   -0.9980    0.7641    4.6360 H   0  0  0  0  0  0  0  0  0  0  0  0
    0.1959   -0.5481    4.4891 H   0  0  0  0  0  0  0  0  0  0  0  0
  5  6  2  0  0  0  0
  5  7  1  0  0  0  0
  2  3  1  0  0  0  0
  2  4  1  0  0  0  0
  2  5  1  0  0  0  0
  1  2  1  0  0  0  0
 19 20  2  0  0  0  0
 19 21  1  0  0  0  0
 16 17  1  0  0  0  0
 16 18  1  0  0  0  0
 14 15  2  0  0  0  0
 14 16  1  0  0  0  0
 11 12  1  0  0  0  0
 11 13  1  0  0  0  0
 11 14  1  0  0  0  0
  9 10  1  0  0  0  0
  9 11  1  0  0  0  0
  9 19  1  0  0  0  0
  7  8  1  0  0  0  0
  7  9  1  0  0  0  0
 23 24  1  0  0  0  0
 23 25  1  0  0  0  0
 23 26  1  0  0  0  0
 21 22  1  0  0  0  0
 21 23  1  0  0  0  0
M  END
$$$$
default_name
  -OEChem-02102213163D

 26 25  0     1  0  0  0  0  0999 V2000
   -3.0232   -3.6924    1.0038 H   0  0  0  0  0  0  0  0  0  0  0  0
   -3.0082   -2.6684    0.6318 C   0  0  0  0  0  0  0  0  0  0  0  0
   -3.6332   -2.0414    1.2658 H   0  0  0  0  0  0  0  0  0  0  0  0
   -3.3762   -2.6444   -0.3912 H   0  0  0  0  0  0  0  0  0  0  0  0
   -1.5882   -2.1554    0.6658 C   0  0  0  0  0  0  0  0  0  0  0  0
   -0.6832   -2.8764    1.0638 O   0  0  0  0  0  0  0  0  0  0  0  0
   -1.3952   -0.9084    0.2428 N   0  0  0  0  0  0  0  0  0  0  0  0
   -2.1972   -0.3644   -0.0422 H   0  0  0  0  0  0  0  0  0  0  0  0
   -0.1122   -0.1994    0.2658 C   0  0  1  0  0  0  0  0  0  0  0  0
    0.6131   -0.7748   -0.3153 H   0  0  0  0  0  0  0  0  0  0  0  0
   -0.2973    1.1841   -0.3966 C   0  0  0  0  0  0  0  0  0  0  0  0
   -0.0628    1.9620    0.3291 H   0  0  0  0  0  0  0  0  0  0  0  0
    0.3934    1.2769   -1.2333 H   0  0  0  0  0  0  0  0  0  0  0  0
   -1.7115    1.4506   -0.8868 C   0  0  0  0  0  0  0  0  0  0  0  0
   -1.9550    1.9340   -1.9787 O   0  0  0  0  0  0  0  0  0  0  0  0
   -2.7037    1.1501   -0.0847 N   0  0  0  0  0  0  0  0  0  0  0  0
   -3.6272    1.3208   -0.4421 H   0  0  0  0  0  0  0  0  0  0  0  0
   -2.5306    0.7339    0.8108 H   0  0  0  0  0  0  0  0  0  0  0  0
    0.4075   -0.0985    1.7169 C   0  0  0  0  0  0  0  0  0  0  0  0
    1.5860   -0.3526    1.9662 O   0  0  0  0  0  0  0  0  0  0  0  0
   -0.4625    0.2583    2.6666 N   0  0  0  0  0  0  0  0  0  0  0  0
   -1.4309    0.3754    2.3860 H   0  0  0  0  0  0  0  0  0  0  0  0
   -0.1275    0.4111    4.0813 C   0  0  0  0  0  0  0  0  0  0  0  0
    0.6862    1.1312    4.1910 H   0  0  0  0  0  0  0  0  0  0  0  0
   -0.9980    0.7641    4.6360 H   0  0  0  0  0  0  0  0  0  0  0  0
    0.1959   -0.5481    4.4891 H   0  0  0  0  0  0  0  0  0  0  0  0
  5  6  2  0  0  0  0
  5  7  1  0  0  0  0
  2  3  1  0  0  0  0
  2  4  1  0  0  0  0
  2  5  1  0  0  0  0
  1  2  1  0  0  0  0
 19 20  2  0  0  0  0
 19 21  1  0  0  0  0
 16 17  1  0  0  0  0
 16 18  1  0  0  0  0
 14 15  2  0  0  0  0
 14 16  1  0  0  0  0
 11 12  1  0  0  0  0
 11 13  1  0  0  0  0
 11 14  1  0  0  0  0
  9 10  1  0  0  0  0
  9 11  1  0  0  0  0
  9 19  1  0  0  0  0
  7  8  1  0  0  0  0
  7  9  1  0  0  0  0
 23 24  1  0  0  0  0
 23 25  1  0  0  0  0
 23 26  1  0  0  0  0
 21 22  1  0  0  0  0
 21 23  1  0  0  0  0
M  END
$$$$
default_name
  -OEChem-02102213163D

 26 25  0     1  0  0  0  0  0999 V2000
   -3.0232   -3.6924    1.0038 H   0  0  0  0  0  0  0  0  0  0  0  0
   -3.0082   -2.6684    0.6318 C   0  0  0  0  0  0  0  0  0  0  0  0
   -3.6332   -2.0414    1.2658 H   0  0  0  0  0  0  0  0  0  0  0  0
   -3.3762   -2.6444   -0.3912 H   0  0  0  0  0  0  0  0  0  0  0  0
   -1.5882   -2.1554    0.6658 C   0  0  0  0  0  0  0  0  0  0  0  0
   -0.6832   -2.8764    1.0638 O   0  0  0  0  0  0  0  0  0  0  0  0
   -1.3952   -0.9084    0.2428 N   0  0  0  0  0  0  0  0  0  0  0  0
   -2.1972   -0.3644   -0.0422 H   0  0  0  0  0  0  0  0  0  0  0  0
   -0.1122   -0.1994    0.2658 C   0  0  1  0  0  0  0  0  0  0  0  0
    0.6131   -0.7748   -0.3153 H   0  0  0  0  0  0  0  0  0  0  0  0
   -0.2973    1.1841   -0.3966 C   0  0  0  0  0  0  0  0  0  0  0  0
   -0.0628    1.9620    0.3291 H   0  0  0  0  0  0  0  0  0  0  0  0
    0.3934    1.2769   -1.2333 H   0  0  0  0  0  0  0  0  0  0  0  0
   -1.7115    1.4506   -0.8868 C   0  0  0  0  0  0  0  0  0  0  0  0
   -1.9769    1.6790   -2.0541 O   0  0  0  0  0  0  0  0  0  0  0  0
   -2.6780    1.4399   -0.0014 N   0  0  0  0  0  0  0  0  0  0  0  0
   -3.6038    1.6018   -0.3568 H   0  0  0  0  0  0  0  0  0  0  0  0
   -2.4883    1.2359    0.9617 H   0  0  0  0  0  0  0  0  0  0  0  0
    0.4075   -0.0985    1.7169 C   0  0  0  0  0  0  0  0  0  0  0  0
    1.5860   -0.3526    1.9662 O   0  0  0  0  0  0  0  0  0  0  0  0
   -0.4625    0.2583    2.6666 N   0  0  0  0  0  0  0  0  0  0  0  0
   -1.4309    0.3754    2.3860 H   0  0  0  0  0  0  0  0  0  0  0  0
   -0.1275    0.4111    4.0813 C   0  0  0  0  0  0  0  0  0  0  0  0
    0.6862    1.1312    4.1910 H   0  0  0  0  0  0  0  0  0  0  0  0
   -0.9980    0.7641    4.6360 H   0  0  0  0  0  0  0  0  0  0  0  0
    0.1959   -0.5481    4.4891 H   0  0  0  0  0  0  0  0  0  0  0  0
  5  6  2  0  0  0  0
  5  7  1  0  0  0  0
  2  3  1  0  0  0  0
  2  4  1  0  0  0  0
  2  5  1  0  0  0  0
  1  2  1  0  0  0  0
 19 20  2  0  0  0  0
 19 21  1  0  0  0  0
 16 17  1  0  0  0  0
 16 18  1  0  0  0  0
 14 15  2  0  0  0  0
 14 16  1  0  0  0  0
 11 12  1  0  0  0  0
 11 13  1  0  0  0  0
 11 14  1  0  0  0  0
  9 10  1  0  0  0  0
  9 11  1  0  0  0  0
  9 19  1  0  0  0  0
  7  8  1  0  0  0  0
  7  9  1  0  0  0  0
 23 24  1  0  0  0  0
 23 25  1  0  0  0  0
 23 26  1  0  0  0  0
 21 22  1  0  0  0  0
 21 23  1  0  0  0  0
M  END
$$$$
default_name
  -OEChem-02102213163D

 26 25  0     1  0  0  0  0  0999 V2000
   -3.0232   -3.6924    1.0038 H   0  0  0  0  0  0  0  0  0  0  0  0
   -3.0082   -2.6684    0.6318 C   0  0  0  0  0  0  0  0  0  0  0  0
   -3.6332   -2.0414    1.2658 H   0  0  0  0  0  0  0  0  0  0  0  0
   -3.3762   -2.6444   -0.3912 H   0  0  0  0  0  0  0  0  0  0  0  0
   -1.5882   -2.1554    0.6658 C   0  0  0  0  0  0  0  0  0  0  0  0
   -0.6832   -2.8764    1.0638 O   0  0  0  0  0  0  0  0  0  0  0  0
   -1.3952   -0.9084    0.2428 N   0  0  0  0  0  0  0  0  0  0  0  0
   -2.1972   -0.3644   -0.0422 H   0  0  0  0  0  0  0  0  0  0  0  0
   -0.1122   -0.1994    0.2658 C   0  0  1  0  0  0  0  0  0  0  0  0
    0.6131   -0.7748   -0.3153 H   0  0  0  0  0  0  0  0  0  0  0  0
   -0.2973    1.1841   -0.3966 C   0  0  0  0  0  0  0  0  0  0  0  0
   -0.0628    1.9620    0.3291 H   0  0  0  0  0  0  0  0  0  0  0  0
    0.3934    1.2769   -1.2333 H   0  0  0  0  0  0  0  0  0  0  0  0
   -1.7115    1.4506   -0.8868 C   0  0  0  0  0  0  0  0  0  0  0  0
   -2.0228    1.4163   -2.0645 O   0  0  0  0  0  0  0  0  0  0  0  0
   -2.6252    1.7378    0.0082 N   0  0  0  0  0  0  0  0  0  0  0  0
   -3.5539    1.8918   -0.3432 H   0  0  0  0  0  0  0  0  0  0  0  0
   -2.3987    1.7536    0.9846 H   0  0  0  0  0  0  0  0  0  0  0  0
    0.4075   -0.0985    1.7169 C   0  0  0  0  0  0  0  0  0  0  0  0
    1.5860   -0.3526    1.9662 O   0  0  0  0  0  0  0  0  0  0  0  0
   -0.4625    0.2583    2.6666 N   0  0  0  0  0  0  0  0  0  0  0  0
   -1.4309    0.3754    2.3860 H   0  0  0  0  0  0  0  0  0  0  0  0
   -0.1275    0.4111    4.0813 C   0  0  0  0  0  0  0  0  0  0  0  0
    0.6862    1.1312    4.1910 H   0  0  0  0  0  0  0  0  0  0  0  0
   -0.9980    0.7641    4.6360 H   0  0  0  0  0  0  0  0  0  0  0  0
    0.1959   -0.5481    4.4891 H   0  0  0  0  0  0  0  0  0  0  0  0
  5  6  2  0  0  0  0
  5  7  1  0  0  0  0
  2  3  1  0  0  0  0
  2  4  1  0  0  0  0
  2  5  1  0  0  0  0
  1  2  1  0  0  0  0
 19 20  2  0  0  0  0
 19 21  1  0  0  0  0
 16 17  1  0  0  0  0
 16 18  1  0  0  0  0
 14 15  2  0  0  0  0
 14 16  1  0  0  0  0
 11 12  1  0  0  0  0
 11 13  1  0  0  0  0
 11 14  1  0  0  0  0
  9 10  1  0  0  0  0
  9 11  1  0  0  0  0
  9 19  1  0  0  0  0
  7  8  1  0  0  0  0
  7  9  1  0  0  0  0
 23 24  1  0  0  0  0
 23 25  1  0  0  0  0
 23 26  1  0  0  0  0
 21 22  1  0  0  0  0
 21 23  1  0  0  0  0
M  END
$$$$
default_name
  -OEChem-02102213163D

 26 25  0     1  0  0  0  0  0999 V2000
   -3.0232   -3.6924    1.0038 H   0  0  0  0  0  0  0  0  0  0  0  0
   -3.0082   -2.6684    0.6318 C   0  0  0  0  0  0  0  0  0  0  0  0
   -3.6332   -2.0414    1.2658 H   0  0  0  0  0  0  0  0  0  0  0  0
   -3.3762   -2.6444   -0.3912 H   0  0  0  0  0  0  0  0  0  0  0  0
   -1.5882   -2.1554    0.6658 C   0  0  0  0  0  0  0  0  0  0  0  0
   -0.6832   -2.8764    1.0638 O   0  0  0  0  0  0  0  0  0  0  0  0
   -1.3952   -0.9084    0.2428 N   0  0  0  0  0  0  0  0  0  0  0  0
   -2.1972   -0.3644   -0.0422 H   0  0  0  0  0  0  0  0  0  0  0  0
   -0.1122   -0.1994    0.2658 C   0  0  1  0  0  0  0  0  0  0  0  0
    0.6131   -0.7748   -0.3153 H   0  0  0  0  0  0  0  0  0  0  0  0
   -0.2973    1.1841   -0.3966 C   0  0  0  0  0  0  0  0  0  0  0  0
   -0.0628    1.9620    0.3291 H   0  0  0  0  0  0  0  0  0  0  0  0
    0.3934    1.2769   -1.2333 H   0  0  0  0  0  0  0  0  0  0  0  0
   -1.7115    1.4506   -0.8868 C   0  0  0  0  0  0  0  0  0  0  0  0
   -2.0895    1.1638   -2.0093 O   0  0  0  0  0  0  0  0  0  0  0  0
   -2.5489    2.0234   -0.0567 N   0  0  0  0  0  0  0  0  0  0  0  0
   -3.4808    2.1711   -0.4021 H   0  0  0  0  0  0  0  0  0  0  0  0
   -2.2679    2.2517    0.8781 H   0  0  0  0  0  0  0  0  0  0  0  0
    0.4075   -0.0985    1.7169 C   0  0  0  0  0  0  0  0  0  0  0  0
    1.5860   -0.3526    1.9662 O   0  0  0  0  0  0  0  0  0  0  0  0
   -0.4625    0.2583    2.6666 N   0  0  0  0  0  0  0  0  0  0  0  0
   -1.4309    0.3754    2.3860 H   0  0  0  0  0  0  0  0  0  0  0  0
   -0.1275    0.4111    4.0813 C   0  0  0  0  0  0  0  0  0  0  0  0
    0.6862    1.1312    4.1910 H   0  0  0  0  0  0  0  0  0  0  0  0
   -0.9980    0.7641    4.6360 H   0  0  0  0  0  0  0  0  0  0  0  0
    0.1959   -0.5481    4.4891 H   0  0  0  0  0  0  0  0  0  0  0  0
  5  6  2  0  0  0  0
  5  7  1  0  0  0  0
  2  3  1  0  0  0  0
  2  4  1  0  0  0  0
  2  5  1  0  0  0  0
  1  2  1  0  0  0  0
 19 20  2  0  0  0  0
 19 21  1  0  0  0  0
 16 17  1  0  0  0  0
 16 18  1  0  0  0  0
 14 15  2  0  0  0  0
 14 16  1  0  0  0  0
 11 12  1  0  0  0  0
 11 13  1  0  0  0  0
 11 14  1  0  0  0  0
  9 10  1  0  0  0  0
  9 11  1  0  0  0  0
  9 19  1  0  0  0  0
  7  8  1  0  0  0  0
  7  9  1  0  0  0  0
 23 24  1  0  0  0  0
 23 25  1  0  0  0  0
 23 26  1  0  0  0  0
 21 22  1  0  0  0  0
 21 23  1  0  0  0  0
M  END
$$$$
default_name
  -OEChem-02102213163D

 26 25  0     1  0  0  0  0  0999 V2000
   -3.0232   -3.6924    1.0038 H   0  0  0  0  0  0  0  0  0  0  0  0
   -3.0082   -2.6684    0.6318 C   0  0  0  0  0  0  0  0  0  0  0  0
   -3.6332   -2.0414    1.2658 H   0  0  0  0  0  0  0  0  0  0  0  0
   -3.3762   -2.6444   -0.3912 H   0  0  0  0  0  0  0  0  0  0  0  0
   -1.5882   -2.1554    0.6658 C   0  0  0  0  0  0  0  0  0  0  0  0
   -0.6832   -2.8764    1.0638 O   0  0  0  0  0  0  0  0  0  0  0  0
   -1.3952   -0.9084    0.2428 N   0  0  0  0  0  0  0  0  0  0  0  0
   -2.1972   -0.3644   -0.0422 H   0  0  0  0  0  0  0  0  0  0  0  0
   -0.1122   -0.1994    0.2658 C   0  0  1  0  0  0  0  0  0  0  0  0
    0.6131   -0.7748   -0.3153 H   0  0  0  0  0  0  0  0  0  0  0  0
   -0.2973    1.1841   -0.3966 C   0  0  0  0  0  0  0  0  0  0  0  0
   -0.0628    1.9620    0.3291 H   0  0  0  0  0  0  0  0  0  0  0  0
    0.3934    1.2769   -1.2333 H   0  0  0  0  0  0  0  0  0  0  0  0
   -1.7115    1.4506   -0.8868 C   0  0  0  0  0  0  0  0  0  0  0  0
   -2.1725    0.9389   -1.8922 O   0  0  0  0  0  0  0  0  0  0  0  0
   -2.4542    2.2773   -0.1917 N   0  0  0  0  0  0  0  0  0  0  0  0
   -3.3896    2.4205   -0.5296 H   0  0  0  0  0  0  0  0  0  0  0  0
   -2.1049    2.6963    0.6494 H   0  0  0  0  0  0  0  0  0  0  0  0
    0.4075   -0.0985    1.7169 C   0  0  0  0  0  0  0  0  0  0  0  0
    1.5860   -0.3526    1.9662 O   0  0  0  0  0  0  0  0  0  0  0  0
   -0.4625    0.2583    2.6666 N   0  0  0  0  0  0  0  0  0  0  0  0
   -1.4309    0.3754    2.3860 H   0  0  0  0  0  0  0  0  0  0  0  0
   -0.1275    0.4111    4.0813 C   0  0  0  0  0  0  0  0  0  0  0  0
    0.6862    1.1312    4.1910 H   0  0  0  0  0  0  0  0  0  0  0  0
   -0.9980    0.7641    4.6360 H   0  0  0  0  0  0  0  0  0  0  0  0
    0.1959   -0.5481    4.4891 H   0  0  0  0  0  0  0  0  0  0  0  0
  5  6  2  0  0  0  0
  5  7  1  0  0  0  0
  2  3  1  0  0  0  0
  2  4  1  0  0  0  0
  2  5  1  0  0  0  0
  1  2  1  0  0  0  0
 19 20  2  0  0  0  0
 19 21  1  0  0  0  0
 16 17  1  0  0  0  0
 16 18  1  0  0  0  0
 14 15  2  0  0  0  0
 14 16  1  0  0  0  0
 11 12  1  0  0  0  0
 11 13  1  0  0  0  0
 11 14  1  0  0  0  0
  9 10  1  0  0  0  0
  9 11  1  0  0  0  0
  9 19  1  0  0  0  0
  7  8  1  0  0  0  0
  7  9  1  0  0  0  0
 23 24  1  0  0  0  0
 23 25  1  0  0  0  0
 23 26  1  0  0  0  0
 21 22  1  0  0  0  0
 21 23  1  0  0  0  0
M  END
$$$$
default_name
  -OEChem-02102213163D

 26 25  0     1  0  0  0  0  0999 V2000
   -3.0232   -3.6924    1.0038 H   0  0  0  0  0  0  0  0  0  0  0  0
   -3.0082   -2.6684    0.6318 C   0  0  0  0  0  0  0  0  0  0  0  0
   -3.6332   -2.0414    1.2658 H   0  0  0  0  0  0  0  0  0  0  0  0
   -3.3762   -2.6444   -0.3912 H   0  0  0  0  0  0  0  0  0  0  0  0
   -1.5882   -2.1554    0.6658 C   0  0  0  0  0  0  0  0  0  0  0  0
   -0.6832   -2.8764    1.0638 O   0  0  0  0  0  0  0  0  0  0  0  0
   -1.3952   -0.9084    0.2428 N   0  0  0  0  0  0  0  0  0  0  0  0
   -2.1972   -0.3644   -0.0422 H   0  0  0  0  0  0  0  0  0  0  0  0
   -0.1122   -0.1994    0.2658 C   0  0  1  0  0  0  0  0  0  0  0  0
    0.6131   -0.7748   -0.3153 H   0  0  0  0  0  0  0  0  0  0  0  0
   -0.2973    1.1841   -0.3966 C   0  0  0  0  0  0  0  0  0  0  0  0
   -0.0628    1.9620    0.3291 H   0  0  0  0  0  0  0  0  0  0  0  0
    0.3934    1.2769   -1.2333 H   0  0  0  0  0  0  0  0  0  0  0  0
   -1.7115    1.4506   -0.8868 C   0  0  0  0  0  0  0  0  0  0  0  0
   -2.2662    0.7567   -1.7211 O   0  0  0  0  0  0  0  0  0  0  0  0
   -2.3478    2.4821   -0.3874 N   0  0  0  0  0  0  0  0  0  0  0  0
   -3.2865    2.6232   -0.7169 H   0  0  0  0  0  0  0  0  0  0  0  0
   -1.9206    3.0571    0.3140 H   0  0  0  0  0  0  0  0  0  0  0  0
    0.4075   -0.0985    1.7169 C   0  0  0  0  0  0  0  0  0  0  0  0
    1.5860   -0.3526    1.9662 O   0  0  0  0  0  0  0  0  0  0  0  0
   -0.4625    0.2583    2.6666 N   0  0  0  0  0  0  0  0  0  0  0  0
   -1.4309    0.3754    2.3860 H   0  0  0  0  0  0  0  0  0  0  0  0
   -0.1275    0.4111    4.0813 C   0  0  0  0  0  0  0  0  0  0  0  0
    0.6862    1.1312    4.1910 H   0  0  0  0  0  0  0  0  0  0  0  0
   -0.9980    0.7641    4.6360 H   0  0  0  0  0  0  0  0  0  0  0  0
    0.1959   -0.5481    4.4891 H   0  0  0  0  0  0  0  0  0  0  0  0
  5  6  2  0  0  0  0
  5  7  1  0  0  0  0
  2  3  1  0  0  0  0
  2  4  1  0  0  0  0
  2  5  1  0  0  0  0
  1  2  1  0  0  0  0
 19 20  2  0  0  0  0
 19 21  1  0  0  0  0
 16 17  1  0  0  0  0
 16 18  1  0  0  0  0
 14 15  2  0  0  0  0
 14 16  1  0  0  0  0
 11 12  1  0  0  0  0
 11 13  1  0  0  0  0
 11 14  1  0  0  0  0
  9 10  1  0  0  0  0
  9 11  1  0  0  0  0
  9 19  1  0  0  0  0
  7  8  1  0  0  0  0
  7  9  1  0  0  0  0
 23 24  1  0  0  0  0
 23 25  1  0  0  0  0
 23 26  1  0  0  0  0
 21 22  1  0  0  0  0
 21 23  1  0  0  0  0
M  END
$$$$
default_name
  -OEChem-02102213163D

 26 25  0     1  0  0  0  0  0999 V2000
   -3.0232   -3.6924    1.0038 H   0  0  0  0  0  0  0  0  0  0  0  0
   -3.0082   -2.6684    0.6318 C   0  0  0  0  0  0  0  0  0  0  0  0
   -3.6332   -2.0414    1.2658 H   0  0  0  0  0  0  0  0  0  0  0  0
   -3.3762   -2.6444   -0.3912 H   0  0  0  0  0  0  0  0  0  0  0  0
   -1.5882   -2.1554    0.6658 C   0  0  0  0  0  0  0  0  0  0  0  0
   -0.6832   -2.8764    1.0638 O   0  0  0  0  0  0  0  0  0  0  0  0
   -1.3952   -0.9084    0.2428 N   0  0  0  0  0  0  0  0  0  0  0  0
   -2.1972   -0.3644   -0.0422 H   0  0  0  0  0  0  0  0  0  0  0  0
   -0.1122   -0.1994    0.2658 C   0  0  1  0  0  0  0  0  0  0  0  0
    0.6131   -0.7748   -0.3153 H   0  0  0  0  0  0  0  0  0  0  0  0
   -0.2973    1.1841   -0.3966 C   0  0  0  0  0  0  0  0  0  0  0  0
   -0.0628    1.9620    0.3291 H   0  0  0  0  0  0  0  0  0  0  0  0
    0.3934    1.2769   -1.2333 H   0  0  0  0  0  0  0  0  0  0  0  0
   -1.7115    1.4506   -0.8868 C   0  0  0  0  0  0  0  0  0  0  0  0
   -2.3641    0.6297   -1.5077 O   0  0  0  0  0  0  0  0  0  0  0  0
   -2.2368    2.6239   -0.6306 N   0  0  0  0  0  0  0  0  0  0  0  0
   -3.1785    2.7653   -0.9513 H   0  0  0  0  0  0  0  0  0  0  0  0
   -1.7278    3.3094   -0.1052 H   0  0  0  0  0  0  0  0  0  0  0  0
    0.4075   -0.0985    1.7169 C   0  0  0  0  0  0  0  0  0  0  0  0
    1.5860   -0.3526    1.9662 O   0  0  0  0  0  0  0  0  0  0  0  0
   -0.4625    0.2583    2.6666 N   0  0  0  0  0  0  0  0  0  0  0  0
   -1.4309    0.3754    2.3860 H   0  0  0  0  0  0  0  0  0  0  0  0
   -0.1275    0.4111    4.0813 C   0  0  0  0  0  0  0  0  0  0  0  0
    0.6862    1.1312    4.1910 H   0  0  0  0  0  0  0  0  0  0  0  0
   -0.9980    0.7641    4.6360 H   0  0  0  0  0  0  0  0  0  0  0  0
    0.1959   -0.5481    4.4891 H   0  0  0  0  0  0  0  0  0  0  0  0
  5  6  2  0  0  0  0
  5  7  1  0  0  0  0
  2  3  1  0  0  0  0
  2  4  1  0  0  0  0
  2  5  1  0  0  0  0
  1  2  1  0  0  0  0
 19 20  2  0  0  0  0
 19 21  1  0  0  0  0
 16 17  1  0  0  0  0
 16 18  1  0  0  0  0
 14 15  2  0  0  0  0
 14 16  1  0  0  0  0
 11 12  1  0  0  0  0
 11 13  1  0  0  0  0
 11 14  1  0  0  0  0
  9 10  1  0  0  0  0
  9 11  1  0  0  0  0
  9 19  1  0  0  0  0
  7  8  1  0  0  0  0
  7  9  1  0  0  0  0
 23 24  1  0  0  0  0
 23 25  1  0  0  0  0
 23 26  1  0  0  0  0
 21 22  1  0  0  0  0
 21 23  1  0  0  0  0
M  END
$$$$
default_name
  -OEChem-02102213163D

 26 25  0     1  0  0  0  0  0999 V2000
   -3.0232   -3.6924    1.0038 H   0  0  0  0  0  0  0  0  0  0  0  0
   -3.0082   -2.6684    0.6318 C   0  0  0  0  0  0  0  0  0  0  0  0
   -3.6332   -2.0414    1.2658 H   0  0  0  0  0  0  0  0  0  0  0  0
   -3.3762   -2.6444   -0.3912 H   0  0  0  0  0  0  0  0  0  0  0  0
   -1.5882   -2.1554    0.6658 C   0  0  0  0  0  0  0  0  0  0  0  0
   -0.6832   -2.8764    1.0638 O   0  0  0  0  0  0  0  0  0  0  0  0
   -1.3952   -0.9084    0.2428 N   0  0  0  0  0  0  0  0  0  0  0  0
   -2.1972   -0.3644   -0.0422 H   0  0  0  0  0  0  0  0  0  0  0  0
   -0.1122   -0.1994    0.2658 C   0  0  1  0  0  0  0  0  0  0  0  0
    0.6131   -0.7748   -0.3153 H   0  0  0  0  0  0  0  0  0  0  0  0
   -0.2973    1.1841   -0.3966 C   0  0  0  0  0  0  0  0  0  0  0  0
   -0.0628    1.9620    0.3291 H   0  0  0  0  0  0  0  0  0  0  0  0
    0.3934    1.2769   -1.2333 H   0  0  0  0  0  0  0  0  0  0  0  0
   -1.7115    1.4506   -0.8868 C   0  0  0  0  0  0  0  0  0  0  0  0
   -2.4595    0.5666   -1.2666 O   0  0  0  0  0  0  0  0  0  0  0  0
   -2.1287    2.6931   -0.9047 N   0  0  0  0  0  0  0  0  0  0  0  0
   -3.0729    2.8370   -1.2168 H   0  0  0  0  0  0  0  0  0  0  0  0
   -1.5394    3.4362   -0.5796 H   0  0  0  0  0  0  0  0  0  0  0  0
    0.4075   -0.0985    1.7169 C   0  0  0  0  0  0  0  0  0  0  0  0
    1.5860   -0.3526    1.9662 O   0  0  0  0  0  0  0  0  0  0  0  0
   -0.4625    0.2583    2.6666 N   0  0  0  0  0  0  0  0  0  0  0  0
   -1.4309    0.3754    2.3860 H   0  0  0  0  0  0  0  0  0  0  0  0
   -0.1275    0.4111    4.0813 C   0  0  0  0  0  0  0  0  0  0  0  0
    0.6862    1.1312    4.1910 H   0  0  0  0  0  0  0  0  0  0  0  0
   -0.9980    0.7641    4.6360 H   0  0  0  0  0  0  0  0  0  0  0  0
    0.1959   -0.5481    4.4891 H   0  0  0  0  0  0  0  0  0  0  0  0
  5  6  2  0  0  0  0
  5  7  1  0  0  0  0
  2  3  1  0  0  0  0
  2  4  1  0  0  0  0
  2  5  1  0  0  0  0
  1  2  1  0  0  0  0
 19 20  2  0  0  0  0
 19 21  1  0  0  0  0
 16 17  1  0  0  0  0
 16 18  1  0  0  0  0
 14 15  2  0  0  0  0
 14 16  1  0  0  0  0
 11 12  1  0  0  0  0
 11 13  1  0  0  0  0
 11 14  1  0  0  0  0
  9 10  1  0  0  0  0
  9 11  1  0  0  0  0
  9 19  1  0  0  0  0
  7  8  1  0  0  0  0
  7  9  1  0  0  0  0
 23 24  1  0  0  0  0
 23 25  1  0  0  0  0
 23 26  1  0  0  0  0
 21 22  1  0  0  0  0
 21 23  1  0  0  0  0
M  END
$$$$
default_name
  -OEChem-02102213163D

 26 25  0     1  0  0  0  0  0999 V2000
   -3.0232   -3.6924    1.0038 H   0  0  0  0  0  0  0  0  0  0  0  0
   -3.0082   -2.6684    0.6318 C   0  0  0  0  0  0  0  0  0  0  0  0
   -3.6332   -2.0414    1.2658 H   0  0  0  0  0  0  0  0  0  0  0  0
   -3.3762   -2.6444   -0.3912 H   0  0  0  0  0  0  0  0  0  0  0  0
   -1.5882   -2.1554    0.6658 C   0  0  0  0  0  0  0  0  0  0  0  0
   -0.6832   -2.8764    1.0638 O   0  0  0  0  0  0  0  0  0  0  0  0
   -1.3952   -0.9084    0.2428 N   0  0  0  0  0  0  0  0  0  0  0  0
   -2.1972   -0.3644   -0.0422 H   0  0  0  0  0  0  0  0  0  0  0  0
   -0.1122   -0.1994    0.2658 C   0  0  1  0  0  0  0  0  0  0  0  0
    0.6131   -0.7748   -0.3153 H   0  0  0  0  0  0  0  0  0  0  0  0
   -0.2973    1.1841   -0.3966 C   0  0  0  0  0  0  0  0  0  0  0  0
   -0.0628    1.9620    0.3291 H   0  0  0  0  0  0  0  0  0  0  0  0
    0.3934    1.2769   -1.2333 H   0  0  0  0  0  0  0  0  0  0  0  0
   -1.7115    1.4506   -0.8868 C   0  0  0  0  0  0  0  0  0  0  0  0
   -2.5461    0.5717   -1.0142 O   0  0  0  0  0  0  0  0  0  0  0  0
   -2.0310    2.6850   -1.1910 N   0  0  0  0  0  0  0  0  0  0  0  0
   -2.9770    2.8336   -1.4953 H   0  0  0  0  0  0  0  0  0  0  0  0
   -1.3685    3.4286   -1.0769 H   0  0  0  0  0  0  0  0  0  0  0  0
    0.4075   -0.0985    1.7169 C   0  0  0  0  0  0  0  0  0  0  0  0
    1.5860   -0.3526    1.9662 O   0  0  0  0  0  0  0  0  0  0  0  0
   -0.4625    0.2583    2.6666 N   0  0  0  0  0  0  0  0  0  0  0  0
   -1.4309    0.3754    2.3860 H   0  0  0  0  0  0  0  0  0  0  0  0
   -0.1275    0.4111    4.0813 C   0  0  0  0  0  0  0  0  0  0  0  0
    0.6862    1.1312    4.1910 H   0  0  0  0  0  0  0  0  0  0  0  0
   -0.9980    0.7641    4.6360 H   0  0  0  0  0  0  0  0  0  0  0  0
    0.1959   -0.5481    4.4891 H   0  0  0  0  0  0  0  0  0  0  0  0
  5  6  2  0  0  0  0
  5  7  1  0  0  0  0
  2  3  1  0  0  0  0
  2  4  1  0  0  0  0
  2  5  1  0  0  0  0
  1  2  1  0  0  0  0
 19 20  2  0  0  0  0
 19 21  1  0  0  0  0
 16 17  1  0  0  0  0
 16 18  1  0  0  0  0
 14 15  2  0  0  0  0
 14 16  1  0  0  0  0
 11 12  1  0  0  0  0
 11 13  1  0  0  0  0
 11 14  1  0  0  0  0
  9 10  1  0  0  0  0
  9 11  1  0  0  0  0
  9 19  1  0  0  0  0
  7  8  1  0  0  0  0
  7  9  1  0  0  0  0
 23 24  1  0  0  0  0
 23 25  1  0  0  0  0
 23 26  1  0  0  0  0
 21 22  1  0  0  0  0
 21 23  1  0  0  0  0
M  END
$$$$
default_name
  -OEChem-02102213163D

 26 25  0     1  0  0  0  0  0999 V2000
   -3.0232   -3.6924    1.0038 H   0  0  0  0  0  0  0  0  0  0  0  0
   -3.0082   -2.6684    0.6318 C   0  0  0  0  0  0  0  0  0  0  0  0
   -3.6332   -2.0414    1.2658 H   0  0  0  0  0  0  0  0  0  0  0  0
   -3.3762   -2.6444   -0.3912 H   0  0  0  0  0  0  0  0  0  0  0  0
   -1.5882   -2.1554    0.6658 C   0  0  0  0  0  0  0  0  0  0  0  0
   -0.6832   -2.8764    1.0638 O   0  0  0  0  0  0  0  0  0  0  0  0
   -1.3952   -0.9084    0.2428 N   0  0  0  0  0  0  0  0  0  0  0  0
   -2.1972   -0.3644   -0.0422 H   0  0  0  0  0  0  0  0  0  0  0  0
   -0.1122   -0.1994    0.2658 C   0  0  1  0  0  0  0  0  0  0  0  0
    0.6131   -0.7748   -0.3153 H   0  0  0  0  0  0  0  0  0  0  0  0
   -0.2973    1.1841   -0.3966 C   0  0  0  0  0  0  0  0  0  0  0  0
   -0.0628    1.9620    0.3291 H   0  0  0  0  0  0  0  0  0  0  0  0
    0.3934    1.2769   -1.2333 H   0  0  0  0  0  0  0  0  0  0  0  0
   -1.7115    1.4506   -0.8868 C   0  0  0  0  0  0  0  0  0  0  0  0
   -2.6178    0.6446   -0.7677 O   0  0  0  0  0  0  0  0  0  0  0  0
   -1.9503    2.6000   -1.4701 N   0  0  0  0  0  0  0  0  0  0  0  0
   -2.8973    2.7553   -1.7679 H   0  0  0  0  0  0  0  0  0  0  0  0
   -1.2265    3.2874   -1.5632 H   0  0  0  0  0  0  0  0  0  0  0  0
    0.4075   -0.0985    1.7169 C   0  0  0  0  0  0  0  0  0  0  0  0
    1.5860   -0.3526    1.9662 O   0  0  0  0  0  0  0  0  0  0  0  0
   -0.4625    0.2583    2.6666 N   0  0  0  0  0  0  0  0  0  0  0  0
   -1.4309    0.3754    2.3860 H   0  0  0  0  0  0  0  0  0  0  0  0
   -0.1275    0.4111    4.0813 C   0  0  0  0  0  0  0  0  0  0  0  0
    0.6862    1.1312    4.1910 H   0  0  0  0  0  0  0  0  0  0  0  0
   -0.9980    0.7641    4.6360 H   0  0  0  0  0  0  0  0  0  0  0  0
    0.1959   -0.5481    4.4891 H   0  0  0  0  0  0  0  0  0  0  0  0
  5  6  2  0  0  0  0
  5  7  1  0  0  0  0
  2  3  1  0  0  0  0
  2  4  1  0  0  0  0
  2  5  1  0  0  0  0
  1  2  1  0  0  0  0
 19 20  2  0  0  0  0
 19 21  1  0  0  0  0
 16 17  1  0  0  0  0
 16 18  1  0  0  0  0
 14 15  2  0  0  0  0
 14 16  1  0  0  0  0
 11 12  1  0  0  0  0
 11 13  1  0  0  0  0
 11 14  1  0  0  0  0
  9 10  1  0  0  0  0
  9 11  1  0  0  0  0
  9 19  1  0  0  0  0
  7  8  1  0  0  0  0
  7  9  1  0  0  0  0
 23 24  1  0  0  0  0
 23 25  1  0  0  0  0
 23 26  1  0  0  0  0
 21 22  1  0  0  0  0
 21 23  1  0  0  0  0
M  END
$$$$
default_name
  -OEChem-02102213163D

 26 25  0     1  0  0  0  0  0999 V2000
   -3.0232   -3.6924    1.0038 H   0  0  0  0  0  0  0  0  0  0  0  0
   -3.0082   -2.6684    0.6318 C   0  0  0  0  0  0  0  0  0  0  0  0
   -3.6332   -2.0414    1.2658 H   0  0  0  0  0  0  0  0  0  0  0  0
   -3.3762   -2.6444   -0.3912 H   0  0  0  0  0  0  0  0  0  0  0  0
   -1.5882   -2.1554    0.6658 C   0  0  0  0  0  0  0  0  0  0  0  0
   -0.6832   -2.8764    1.0638 O   0  0  0  0  0  0  0  0  0  0  0  0
   -1.3952   -0.9084    0.2428 N   0  0  0  0  0  0  0  0  0  0  0  0
   -2.1972   -0.3644   -0.0422 H   0  0  0  0  0  0  0  0  0  0  0  0
   -0.1122   -0.1994    0.2658 C   0  0  1  0  0  0  0  0  0  0  0  0
    0.6131   -0.7748   -0.3153 H   0  0  0  0  0  0  0  0  0  0  0  0
   -0.2973    1.1841   -0.3966 C   0  0  0  0  0  0  0  0  0  0  0  0
   -0.0628    1.9620    0.3291 H   0  0  0  0  0  0  0  0  0  0  0  0
    0.3934    1.2769   -1.2333 H   0  0  0  0  0  0  0  0  0  0  0  0
   -1.7115    1.4506   -0.8868 C   0  0  0  0  0  0  0  0  0  0  0  0
   -2.6698    0.7804   -0.5439 O   0  0  0  0  0  0  0  0  0  0  0  0
   -1.8921    2.4440   -1.7228 N   0  0  0  0  0  0  0  0  0  0  0  0
   -2.8392    2.6073   -2.0159 H   0  0  0  0  0  0  0  0  0  0  0  0
   -1.1232    3.0220   -2.0053 H   0  0  0  0  0  0  0  0  0  0  0  0
    0.4075   -0.0985    1.7169 C   0  0  0  0  0  0  0  0  0  0  0  0
    1.5860   -0.3526    1.9662 O   0  0  0  0  0  0  0  0  0  0  0  0
   -0.4625    0.2583    2.6666 N   0  0  0  0  0  0  0  0  0  0  0  0
   -1.4309    0.3754    2.3860 H   0  0  0  0  0  0  0  0  0  0  0  0
   -0.1275    0.4111    4.0813 C   0  0  0  0  0  0  0  0  0  0  0  0
    0.6862    1.1312    4.1910 H   0  0  0  0  0  0  0  0  0  0  0  0
   -0.9980    0.7641    4.6360 H   0  0  0  0  0  0  0  0  0  0  0  0
    0.1959   -0.5481    4.4891 H   0  0  0  0  0  0  0  0  0  0  0  0
  5  6  2  0  0  0  0
  5  7  1  0  0  0  0
  2  3  1  0  0  0  0
  2  4  1  0  0  0  0
  2  5  1  0  0  0  0
  1  2  1  0  0  0  0
 19 20  2  0  0  0  0
 19 21  1  0  0  0  0
 16 17  1  0  0  0  0
 16 18  1  0  0  0  0
 14 15  2  0  0  0  0
 14 16  1  0  0  0  0
 11 12  1  0  0  0  0
 11 13  1  0  0  0  0
 11 14  1  0  0  0  0
  9 10  1  0  0  0  0
  9 11  1  0  0  0  0
  9 19  1  0  0  0  0
  7  8  1  0  0  0  0
  7  9  1  0  0  0  0
 23 24  1  0  0  0  0
 23 25  1  0  0  0  0
 23 26  1  0  0  0  0
 21 22  1  0  0  0  0
 21 23  1  0  0  0  0
M  END
$$$$
default_name
  -OEChem-02102213163D

 26 25  0     1  0  0  0  0  0999 V2000
   -3.0232   -3.6924    1.0038 H   0  0  0  0  0  0  0  0  0  0  0  0
   -3.0082   -2.6684    0.6318 C   0  0  0  0  0  0  0  0  0  0  0  0
   -3.6332   -2.0414    1.2658 H   0  0  0  0  0  0  0  0  0  0  0  0
   -3.3762   -2.6444   -0.3912 H   0  0  0  0  0  0  0  0  0  0  0  0
   -1.5882   -2.1554    0.6658 C   0  0  0  0  0  0  0  0  0  0  0  0
   -0.6832   -2.8764    1.0638 O   0  0  0  0  0  0  0  0  0  0  0  0
   -1.3952   -0.9084    0.2428 N   0  0  0  0  0  0  0  0  0  0  0  0
   -2.1972   -0.3644   -0.0422 H   0  0  0  0  0  0  0  0  0  0  0  0
   -0.1122   -0.1994    0.2658 C   0  0  1  0  0  0  0  0  0  0  0  0
    0.6131   -0.7748   -0.3153 H   0  0  0  0  0  0  0  0  0  0  0  0
   -0.2973    1.1841   -0.3966 C   0  0  0  0  0  0  0  0  0  0  0  0
   -0.0628    1.9620    0.3291 H   0  0  0  0  0  0  0  0  0  0  0  0
    0.3934    1.2769   -1.2333 H   0  0  0  0  0  0  0  0  0  0  0  0
   -1.7115    1.4506   -0.8868 C   0  0  0  0  0  0  0  0  0  0  0  0
   -2.6985    0.9697   -0.3580 O   0  0  0  0  0  0  0  0  0  0  0  0
   -1.8603    2.2276   -1.9320 N   0  0  0  0  0  0  0  0  0  0  0  0
   -2.8067    2.3998   -2.2225 H   0  0  0  0  0  0  0  0  0  0  0  0
   -1.0657    2.6506   -2.3732 H   0  0  0  0  0  0  0  0  0  0  0  0
    0.4075   -0.0985    1.7169 C   0  0  0  0  0  0  0  0  0  0  0  0
    1.5860   -0.3526    1.9662 O   0  0  0  0  0  0  0  0  0  0  0  0
   -0.4625    0.2583    2.6666 N   0  0  0  0  0  0  0  0  0  0  0  0
   -1.4309    0.3754    2.3860 H   0  0  0  0  0  0  0  0  0  0  0  0
   -0.1275    0.4111    4.0813 C   0  0  0  0  0  0  0  0  0  0  0  0
    0.6862    1.1312    4.1910 H   0  0  0  0  0  0  0  0  0  0  0  0
   -0.9980    0.7641    4.6360 H   0  0  0  0  0  0  0  0  0  0  0  0
    0.1959   -0.5481    4.4891 H   0  0  0  0  0  0  0  0  0  0  0  0
  5  6  2  0  0  0  0
  5  7  1  0  0  0  0
  2  3  1  0  0  0  0
  2  4  1  0  0  0  0
  2  5  1  0  0  0  0
  1  2  1  0  0  0  0
 19 20  2  0  0  0  0
 19 21  1  0  0  0  0
 16 17  1  0  0  0  0
 16 18  1  0  0  0  0
 14 15  2  0  0  0  0
 14 16  1  0  0  0  0
 11 12  1  0  0  0  0
 11 13  1  0  0  0  0
 11 14  1  0  0  0  0
  9 10  1  0  0  0  0
  9 11  1  0  0  0  0
  9 19  1  0  0  0  0
  7  8  1  0  0  0  0
  7  9  1  0  0  0  0
 23 24  1  0  0  0  0
 23 25  1  0  0  0  0
 23 26  1  0  0  0  0
 21 22  1  0  0  0  0
 21 23  1  0  0  0  0
M  END
$$$$
default_name
  -OEChem-02102213163D

 26 25  0     1  0  0  0  0  0999 V2000
   -3.0232   -3.6924    1.0038 H   0  0  0  0  0  0  0  0  0  0  0  0
   -3.0082   -2.6684    0.6318 C   0  0  0  0  0  0  0  0  0  0  0  0
   -3.6332   -2.0414    1.2658 H   0  0  0  0  0  0  0  0  0  0  0  0
   -3.3762   -2.6444   -0.3912 H   0  0  0  0  0  0  0  0  0  0  0  0
   -1.5882   -2.1554    0.6658 C   0  0  0  0  0  0  0  0  0  0  0  0
   -0.6832   -2.8764    1.0638 O   0  0  0  0  0  0  0  0  0  0  0  0
   -1.3952   -0.9084    0.2428 N   0  0  0  0  0  0  0  0  0  0  0  0
   -2.1972   -0.3644   -0.0422 H   0  0  0  0  0  0  0  0  0  0  0  0
   -0.1122   -0.1994    0.2658 C   0  0  1  0  0  0  0  0  0  0  0  0
    0.6131   -0.7748   -0.3153 H   0  0  0  0  0  0  0  0  0  0  0  0
   -0.2973    1.1841   -0.3966 C   0  0  0  0  0  0  0  0  0  0  0  0
   -0.0628    1.9620    0.3291 H   0  0  0  0  0  0  0  0  0  0  0  0
    0.3934    1.2769   -1.2333 H   0  0  0  0  0  0  0  0  0  0  0  0
   -1.7115    1.4506   -0.8868 C   0  0  0  0  0  0  0  0  0  0  0  0
   -2.7021    1.1997   -0.2227 O   0  0  0  0  0  0  0  0  0  0  0  0
   -1.8572    1.9655   -2.0834 N   0  0  0  0  0  0  0  0  0  0  0  0
   -2.8019    2.1469   -2.3736 H   0  0  0  0  0  0  0  0  0  0  0  0
   -1.0578    2.1985   -2.6417 H   0  0  0  0  0  0  0  0  0  0  0  0
    0.4075   -0.0985    1.7169 C   0  0  0  0  0  0  0  0  0  0  0  0
    1.5860   -0.3526    1.9662 O   0  0  0  0  0  0  0  0  0  0  0  0
   -0.4625    0.2583    2.6666 N   0  0  0  0  0  0  0  0  0  0  0  0
   -1.4309    0.3754    2.3860 H   0  0  0  0  0  0  0  0  0  0  0  0
   -0.1275    0.4111    4.0813 C   0  0  0  0  0  0  0  0  0  0  0  0
    0.6862    1.1312    4.1910 H   0  0  0  0  0  0  0  0  0  0  0  0
   -0.9980    0.7641    4.6360 H   0  0  0  0  0  0  0  0  0  0  0  0
    0.1959   -0.5481    4.4891 H   0  0  0  0  0  0  0  0  0  0  0  0
  5  6  2  0  0  0  0
  5  7  1  0  0  0  0
  2  3  1  0  0  0  0
  2  4  1  0  0  0  0
  2  5  1  0  0  0  0
  1  2  1  0  0  0  0
 19 20  2  0  0  0  0
 19 21  1  0  0  0  0
 16 17  1  0  0  0  0
 16 18  1  0  0  0  0
 14 15  2  0  0  0  0
 14 16  1  0  0  0  0
 11 12  1  0  0  0  0
 11 13  1  0  0  0  0
 11 14  1  0  0  0  0
  9 10  1  0  0  0  0
  9 11  1  0  0  0  0
  9 19  1  0  0  0  0
  7  8  1  0  0  0  0
  7  9  1  0  0  0  0
 23 24  1  0  0  0  0
 23 25  1  0  0  0  0
 23 26  1  0  0  0  0
 21 22  1  0  0  0  0
 21 23  1  0  0  0  0
M  END
$$$$
default_name
  -OEChem-02102213163D

 26 25  0     1  0  0  0  0  0999 V2000
   -3.0232   -3.6924    1.0038 H   0  0  0  0  0  0  0  0  0  0  0  0
   -3.0082   -2.6684    0.6318 C   0  0  0  0  0  0  0  0  0  0  0  0
   -3.6332   -2.0414    1.2658 H   0  0  0  0  0  0  0  0  0  0  0  0
   -3.3762   -2.6444   -0.3912 H   0  0  0  0  0  0  0  0  0  0  0  0
   -1.5882   -2.1554    0.6658 C   0  0  0  0  0  0  0  0  0  0  0  0
   -0.6832   -2.8764    1.0638 O   0  0  0  0  0  0  0  0  0  0  0  0
   -1.3952   -0.9084    0.2428 N   0  0  0  0  0  0  0  0  0  0  0  0
   -2.1972   -0.3644   -0.0422 H   0  0  0  0  0  0  0  0  0  0  0  0
   -0.1122   -0.1994    0.2658 C   0  0  1  0  0  0  0  0  0  0  0  0
    0.6131   -0.7748   -0.3153 H   0  0  0  0  0  0  0  0  0  0  0  0
   -0.2973    1.1841   -0.3966 C   0  0  0  0  0  0  0  0  0  0  0  0
   -0.0628    1.9620    0.3291 H   0  0  0  0  0  0  0  0  0  0  0  0
    0.3934    1.2769   -1.2333 H   0  0  0  0  0  0  0  0  0  0  0  0
   -1.7115    1.4506   -0.8868 C   0  0  0  0  0  0  0  0  0  0  0  0
   -2.6802    1.4548   -0.1473 O   0  0  0  0  0  0  0  0  0  0  0  0
   -1.8830    1.6757   -2.1667 N   0  0  0  0  0  0  0  0  0  0  0  0
   -2.8254    1.8659   -2.4589 H   0  0  0  0  0  0  0  0  0  0  0  0
   -1.1001    1.6965   -2.7926 H   0  0  0  0  0  0  0  0  0  0  0  0
    0.4075   -0.0985    1.7169 C   0  0  0  0  0  0  0  0  0  0  0  0
    1.5860   -0.3526    1.9662 O   0  0  0  0  0  0  0  0  0  0  0  0
   -0.4625    0.2583    2.6666 N   0  0  0  0  0  0  0  0  0  0  0  0
   -1.4309    0.3754    2.3860 H   0  0  0  0  0  0  0  0  0  0  0  0
   -0.1275    0.4111    4.0813 C   0  0  0  0  0  0  0  0  0  0  0  0
    0.6862    1.1312    4.1910 H   0  0  0  0  0  0  0  0  0  0  0  0
   -0.9980    0.7641    4.6360 H   0  0  0  0  0  0  0  0  0  0  0  0
    0.1959   -0.5481    4.4891 H   0  0  0  0  0  0  0  0  0  0  0  0
  5  6  2  0  0  0  0
  5  7  1  0  0  0  0
  2  3  1  0  0  0  0
  2  4  1  0  0  0  0
  2  5  1  0  0  0  0
  1  2  1  0  0  0  0
 19 20  2  0  0  0  0
 19 21  1  0  0  0  0
 16 17  1  0  0  0  0
 16 18  1  0  0  0  0
 14 15  2  0  0  0  0
 14 16  1  0  0  0  0
 11 12  1  0  0  0  0
 11 13  1  0  0  0  0
 11 14  1  0  0  0  0
  9 10  1  0  0  0  0
  9 11  1  0  0  0  0
  9 19  1  0  0  0  0
  7  8  1  0  0  0  0
  7  9  1  0  0  0  0
 23 24  1  0  0  0  0
 23 25  1  0  0  0  0
 23 26  1  0  0  0  0
 21 22  1  0  0  0  0
 21 23  1  0  0  0  0
M  END
$$$$
default_name
  -OEChem-02102213163D

 26 25  0     1  0  0  0  0  0999 V2000
   -3.0232   -3.6924    1.0038 H   0  0  0  0  0  0  0  0  0  0  0  0
   -3.0082   -2.6684    0.6318 C   0  0  0  0  0  0  0  0  0  0  0  0
   -3.6332   -2.0414    1.2658 H   0  0  0  0  0  0  0  0  0  0  0  0
   -3.3762   -2.6444   -0.3912 H   0  0  0  0  0  0  0  0  0  0  0  0
   -1.5882   -2.1554    0.6658 C   0  0  0  0  0  0  0  0  0  0  0  0
   -0.6832   -2.8764    1.0638 O   0  0  0  0  0  0  0  0  0  0  0  0
   -1.3952   -0.9084    0.2428 N   0  0  0  0  0  0  0  0  0  0  0  0
   -2.1972   -0.3644   -0.0422 H   0  0  0  0  0  0  0  0  0  0  0  0
   -0.1122   -0.1994    0.2658 C   0  0  1  0  0  0  0  0  0  0  0  0
    0.6131   -0.7748   -0.3153 H   0  0  0  0  0  0  0  0  0  0  0  0
   -0.2973    1.1841   -0.3966 C   0  0  0  0  0  0  0  0  0  0  0  0
   -0.0628    1.9620    0.3291 H   0  0  0  0  0  0  0  0  0  0  0  0
    0.3934    1.2769   -1.2333 H   0  0  0  0  0  0  0  0  0  0  0  0
   -1.7115    1.4506   -0.8868 C   0  0  0  0  0  0  0  0  0  0  0  0
   -2.6343    1.7175   -0.1369 O   0  0  0  0  0  0  0  0  0  0  0  0
   -1.9358    1.3778   -2.1763 N   0  0  0  0  0  0  0  0  0  0  0  0
   -2.8753    1.5759   -2.4725 H   0  0  0  0  0  0  0  0  0  0  0  0
   -1.1897    1.1788   -2.8156 H   0  0  0  0  0  0  0  0  0  0  0  0
    0.4075   -0.0985    1.7169 C   0  0  0  0  0  0  0  0  0  0  0  0
    1.5860   -0.3526    1.9662 O   0  0  0  0  0  0  0  0  0  0  0  0
   -0.4625    0.2583    2.6666 N   0  0  0  0  0  0  0  0  0  0  0  0
   -1.4309    0.3754    2.3860 H   0  0  0  0  0  0  0  0  0  0  0  0
   -0.1275    0.4111    4.0813 C   0  0  0  0  0  0  0  0  0  0  0  0
    0.6862    1.1312    4.1910 H   0  0  0  0  0  0  0  0  0  0  0  0
   -0.9980    0.7641    4.6360 H   0  0  0  0  0  0  0  0  0  0  0  0
    0.1959   -0.5481    4.4891 H   0  0  0  0  0  0  0  0  0  0  0  0
  5  6  2  0  0  0  0
  5  7  1  0  0  0  0
  2  3  1  0  0  0  0
  2  4  1  0  0  0  0
  2  5  1  0  0  0  0
  1  2  1  0  0  0  0
 19 20  2  0  0  0  0
 19 21  1  0  0  0  0
 16 17  1  0  0  0  0
 16 18  1  0  0  0  0
 14 15  2  0  0  0  0
 14 16  1  0  0  0  0
 11 12  1  0  0  0  0
 11 13  1  0  0  0  0
 11 14  1  0  0  0  0
  9 10  1  0  0  0  0
  9 11  1  0  0  0  0
  9 19  1  0  0  0  0
  7  8  1  0  0  0  0
  7  9  1  0  0  0  0
 23 24  1  0  0  0  0
 23 25  1  0  0  0  0
 23 26  1  0  0  0  0
 21 22  1  0  0  0  0
 21 23  1  0  0  0  0
M  END
$$$$
default_name
  -OEChem-02102213163D

 26 25  0     1  0  0  0  0  0999 V2000
   -3.0232   -3.6924    1.0038 H   0  0  0  0  0  0  0  0  0  0  0  0
   -3.0082   -2.6684    0.6318 C   0  0  0  0  0  0  0  0  0  0  0  0
   -3.6332   -2.0414    1.2658 H   0  0  0  0  0  0  0  0  0  0  0  0
   -3.3762   -2.6444   -0.3912 H   0  0  0  0  0  0  0  0  0  0  0  0
   -1.5882   -2.1554    0.6658 C   0  0  0  0  0  0  0  0  0  0  0  0
   -0.6832   -2.8764    1.0638 O   0  0  0  0  0  0  0  0  0  0  0  0
   -1.3952   -0.9084    0.2428 N   0  0  0  0  0  0  0  0  0  0  0  0
   -2.1972   -0.3644   -0.0422 H   0  0  0  0  0  0  0  0  0  0  0  0
   -0.1122   -0.1994    0.2658 C   0  0  1  0  0  0  0  0  0  0  0  0
    0.6131   -0.7748   -0.3153 H   0  0  0  0  0  0  0  0  0  0  0  0
   -0.2973    1.1841   -0.3966 C   0  0  0  0  0  0  0  0  0  0  0  0
   -0.0628    1.9620    0.3291 H   0  0  0  0  0  0  0  0  0  0  0  0
    0.3934    1.2769   -1.2333 H   0  0  0  0  0  0  0  0  0  0  0  0
   -1.7115    1.4506   -0.8868 C   0  0  0  0  0  0  0  0  0  0  0  0
   -2.5676    1.9699   -0.1921 O   0  0  0  0  0  0  0  0  0  0  0  0
   -2.0121    1.0923   -2.1113 N   0  0  0  0  0  0  0  0  0  0  0  0
   -2.9483    1.2966   -2.4136 H   0  0  0  0  0  0  0  0  0  0  0  0
   -1.3205    0.6806   -2.7091 H   0  0  0  0  0  0  0  0  0  0  0  0
    0.4075   -0.0985    1.7169 C   0  0  0  0  0  0  0  0  0  0  0  0
    1.5860   -0.3526    1.9662 O   0  0  0  0  0  0  0  0  0  0  0  0
   -0.4625    0.2583    2.6666 N   0  0  0  0  0  0  0  0  0  0  0  0
   -1.4309    0.3754    2.3860 H   0  0  0  0  0  0  0  0  0  0  0  0
   -0.1275    0.4111    4.0813 C   0  0  0  0  0  0  0  0  0  0  0  0
    0.6862    1.1312    4.1910 H   0  0  0  0  0  0  0  0  0  0  0  0
   -0.9980    0.7641    4.6360 H   0  0  0  0  0  0  0  0  0  0  0  0
    0.1959   -0.5481    4.4891 H   0  0  0  0  0  0  0  0  0  0  0  0
  5  6  2  0  0  0  0
  5  7  1  0  0  0  0
  2  3  1  0  0  0  0
  2  4  1  0  0  0  0
  2  5  1  0  0  0  0
  1  2  1  0  0  0  0
 19 20  2  0  0  0  0
 19 21  1  0  0  0  0
 16 17  1  0  0  0  0
 16 18  1  0  0  0  0
 14 15  2  0  0  0  0
 14 16  1  0  0  0  0
 11 12  1  0  0  0  0
 11 13  1  0  0  0  0
 11 14  1  0  0  0  0
  9 10  1  0  0  0  0
  9 11  1  0  0  0  0
  9 19  1  0  0  0  0
  7  8  1  0  0  0  0
  7  9  1  0  0  0  0
 23 24  1  0  0  0  0
 23 25  1  0  0  0  0
 23 26  1  0  0  0  0
 21 22  1  0  0  0  0
 21 23  1  0  0  0  0
M  END
$$$$
default_name
  -OEChem-02102213163D

 26 25  0     1  0  0  0  0  0999 V2000
   -3.0232   -3.6924    1.0038 H   0  0  0  0  0  0  0  0  0  0  0  0
   -3.0082   -2.6684    0.6318 C   0  0  0  0  0  0  0  0  0  0  0  0
   -3.6332   -2.0414    1.2658 H   0  0  0  0  0  0  0  0  0  0  0  0
   -3.3762   -2.6444   -0.3912 H   0  0  0  0  0  0  0  0  0  0  0  0
   -1.5882   -2.1554    0.6658 C   0  0  0  0  0  0  0  0  0  0  0  0
   -0.6832   -2.8764    1.0638 O   0  0  0  0  0  0  0  0  0  0  0  0
   -1.3952   -0.9084    0.2428 N   0  0  0  0  0  0  0  0  0  0  0  0
   -2.1972   -0.3644   -0.0422 H   0  0  0  0  0  0  0  0  0  0  0  0
   -0.1122   -0.1994    0.2658 C   0  0  1  0  0  0  0  0  0  0  0  0
    0.6131   -0.7748   -0.3153 H   0  0  0  0  0  0  0  0  0  0  0  0
   -0.2973    1.1841   -0.3966 C   0  0  0  0  0  0  0  0  0  0  0  0
   -0.0628    1.9620    0.3291 H   0  0  0  0  0  0  0  0  0  0  0  0
    0.3934    1.2769   -1.2333 H   0  0  0  0  0  0  0  0  0  0  0  0
   -1.7115    1.4506   -0.8868 C   0  0  0  0  0  0  0  0  0  0  0  0
   -2.4845    2.1949   -0.3092 O   0  0  0  0  0  0  0  0  0  0  0  0
   -2.1067    0.8384   -1.9764 N   0  0  0  0  0  0  0  0  0  0  0  0
   -3.0395    1.0472   -2.2862 H   0  0  0  0  0  0  0  0  0  0  0  0
   -1.4836    0.2361   -2.4804 H   0  0  0  0  0  0  0  0  0  0  0  0
    0.4075   -0.0985    1.7169 C   0  0  0  0  0  0  0  0  0  0  0  0
    1.5860   -0.3526    1.9662 O   0  0  0  0  0  0  0  0  0  0  0  0
   -0.4625    0.2583    2.6666 N   0  0  0  0  0  0  0  0  0  0  0  0
   -1.4309    0.3754    2.3860 H   0  0  0  0  0  0  0  0  0  0  0  0
   -0.1275    0.4111    4.0813 C   0  0  0  0  0  0  0  0  0  0  0  0
    0.6862    1.1312    4.1910 H   0  0  0  0  0  0  0  0  0  0  0  0
   -0.9980    0.7641    4.6360 H   0  0  0  0  0  0  0  0  0  0  0  0
    0.1959   -0.5481    4.4891 H   0  0  0  0  0  0  0  0  0  0  0  0
  5  6  2  0  0  0  0
  5  7  1  0  0  0  0
  2  3  1  0  0  0  0
  2  4  1  0  0  0  0
  2  5  1  0  0  0  0
  1  2  1  0  0  0  0
 19 20  2  0  0  0  0
 19 21  1  0  0  0  0
 16 17  1  0  0  0  0
 16 18  1  0  0  0  0
 14 15  2  0  0  0  0
 14 16  1  0  0  0  0
 11 12  1  0  0  0  0
 11 13  1  0  0  0  0
 11 14  1  0  0  0  0
  9 10  1  0  0  0  0
  9 11  1  0  0  0  0
  9 19  1  0  0  0  0
  7  8  1  0  0  0  0
  7  9  1  0  0  0  0
 23 24  1  0  0  0  0
 23 25  1  0  0  0  0
 23 26  1  0  0  0  0
 21 22  1  0  0  0  0
 21 23  1  0  0  0  0
M  END
$$$$
default_name
  -OEChem-02102213163D

 26 25  0     1  0  0  0  0  0999 V2000
   -3.0232   -3.6924    1.0038 H   0  0  0  0  0  0  0  0  0  0  0  0
   -3.0082   -2.6684    0.6318 C   0  0  0  0  0  0  0  0  0  0  0  0
   -3.6332   -2.0414    1.2658 H   0  0  0  0  0  0  0  0  0  0  0  0
   -3.3762   -2.6444   -0.3912 H   0  0  0  0  0  0  0  0  0  0  0  0
   -1.5882   -2.1554    0.6658 C   0  0  0  0  0  0  0  0  0  0  0  0
   -0.6832   -2.8764    1.0638 O   0  0  0  0  0  0  0  0  0  0  0  0
   -1.3952   -0.9084    0.2428 N   0  0  0  0  0  0  0  0  0  0  0  0
   -2.1972   -0.3644   -0.0422 H   0  0  0  0  0  0  0  0  0  0  0  0
   -0.1122   -0.1994    0.2658 C   0  0  1  0  0  0  0  0  0  0  0  0
    0.6131   -0.7748   -0.3153 H   0  0  0  0  0  0  0  0  0  0  0  0
   -0.2973    1.1841   -0.3966 C   0  0  0  0  0  0  0  0  0  0  0  0
   -0.0628    1.9620    0.3291 H   0  0  0  0  0  0  0  0  0  0  0  0
    0.3934    1.2769   -1.2333 H   0  0  0  0  0  0  0  0  0  0  0  0
   -1.7115    1.4506   -0.8868 C   0  0  0  0  0  0  0  0  0  0  0  0
   -2.3909    2.3771   -0.4803 O   0  0  0  0  0  0  0  0  0  0  0  0
   -2.2132    0.6336   -1.7807 N   0  0  0  0  0  0  0  0  0  0  0  0
   -3.1426    0.8445   -2.0988 H   0  0  0  0  0  0  0  0  0  0  0  0
   -1.6678   -0.1247   -2.1450 H   0  0  0  0  0  0  0  0  0  0  0  0
    0.4075   -0.0985    1.7169 C   0  0  0  0  0  0  0  0  0  0  0  0
    1.5860   -0.3526    1.9662 O   0  0  0  0  0  0  0  0  0  0  0  0
   -0.4625    0.2583    2.6666 N   0  0  0  0  0  0  0  0  0  0  0  0
   -1.4309    0.3754    2.3860 H   0  0  0  0  0  0  0  0  0  0  0  0
   -0.1275    0.4111    4.0813 C   0  0  0  0  0  0  0  0  0  0  0  0
    0.6862    1.1312    4.1910 H   0  0  0  0  0  0  0  0  0  0  0  0
   -0.9980    0.7641    4.6360 H   0  0  0  0  0  0  0  0  0  0  0  0
    0.1959   -0.5481    4.4891 H   0  0  0  0  0  0  0  0  0  0  0  0
  5  6  2  0  0  0  0
  5  7  1  0  0  0  0
  2  3  1  0  0  0  0
  2  4  1  0  0  0  0
  2  5  1  0  0  0  0
  1  2  1  0  0  0  0
 19 20  2  0  0  0  0
 19 21  1  0  0  0  0
 16 17  1  0  0  0  0
 16 18  1  0  0  0  0
 14 15  2  0  0  0  0
 14 16  1  0  0  0  0
 11 12  1  0  0  0  0
 11 13  1  0  0  0  0
 11 14  1  0  0  0  0
  9 10  1  0  0  0  0
  9 11  1  0  0  0  0
  9 19  1  0  0  0  0
  7  8  1  0  0  0  0
  7  9  1  0  0  0  0
 23 24  1  0  0  0  0
 23 25  1  0  0  0  0
 23 26  1  0  0  0  0
 21 22  1  0  0  0  0
 21 23  1  0  0  0  0
M  END
$$$$
default_name
  -OEChem-02102213163D

 26 25  0     1  0  0  0  0  0999 V2000
   -3.0232   -3.6924    1.0038 H   0  0  0  0  0  0  0  0  0  0  0  0
   -3.0082   -2.6684    0.6318 C   0  0  0  0  0  0  0  0  0  0  0  0
   -3.6332   -2.0414    1.2658 H   0  0  0  0  0  0  0  0  0  0  0  0
   -3.3762   -2.6444   -0.3912 H   0  0  0  0  0  0  0  0  0  0  0  0
   -1.5882   -2.1554    0.6658 C   0  0  0  0  0  0  0  0  0  0  0  0
   -0.6832   -2.8764    1.0638 O   0  0  0  0  0  0  0  0  0  0  0  0
   -1.3952   -0.9084    0.2428 N   0  0  0  0  0  0  0  0  0  0  0  0
   -2.1972   -0.3644   -0.0422 H   0  0  0  0  0  0  0  0  0  0  0  0
   -0.1122   -0.1994    0.2658 C   0  0  1  0  0  0  0  0  0  0  0  0
    0.6131   -0.7748   -0.3153 H   0  0  0  0  0  0  0  0  0  0  0  0
   -0.2973    1.1841   -0.3966 C   0  0  0  0  0  0  0  0  0  0  0  0
   -0.0628    1.9620    0.3291 H   0  0  0  0  0  0  0  0  0  0  0  0
    0.3934    1.2769   -1.2333 H   0  0  0  0  0  0  0  0  0  0  0  0
   -1.7115    1.4506   -0.8868 C   0  0  0  0  0  0  0  0  0  0  0  0
   -2.2930    2.5040   -0.6937 O   0  0  0  0  0  0  0  0  0  0  0  0
   -2.3242    0.4917   -1.5375 N   0  0  0  0  0  0  0  0  0  0  0  0
   -3.2507    0.7024   -1.8644 H   0  0  0  0  0  0  0  0  0  0  0  0
   -1.8607   -0.3771   -1.7258 H   0  0  0  0  0  0  0  0  0  0  0  0
    0.4075   -0.0985    1.7169 C   0  0  0  0  0  0  0  0  0  0  0  0
    1.5860   -0.3526    1.9662 O   0  0  0  0  0  0  0  0  0  0  0  0
   -0.4625    0.2583    2.6666 N   0  0  0  0  0  0  0  0  0  0  0  0
   -1.4309    0.3754    2.3860 H   0  0  0  0  0  0  0  0  0  0  0  0
   -0.1275    0.4111    4.0813 C   0  0  0  0  0  0  0  0  0  0  0  0
    0.6862    1.1312    4.1910 H   0  0  0  0  0  0  0  0  0  0  0  0
   -0.9980    0.7641    4.6360 H   0  0  0  0  0  0  0  0  0  0  0  0
    0.1959   -0.5481    4.4891 H   0  0  0  0  0  0  0  0  0  0  0  0
  5  6  2  0  0  0  0
  5  7  1  0  0  0  0
  2  3  1  0  0  0  0
  2  4  1  0  0  0  0
  2  5  1  0  0  0  0
  1  2  1  0  0  0  0
 19 20  2  0  0  0  0
 19 21  1  0  0  0  0
 16 17  1  0  0  0  0
 16 18  1  0  0  0  0
 14 15  2  0  0  0  0
 14 16  1  0  0  0  0
 11 12  1  0  0  0  0
 11 13  1  0  0  0  0
 11 14  1  0  0  0  0
  9 10  1  0  0  0  0
  9 11  1  0  0  0  0
  9 19  1  0  0  0  0
  7  8  1  0  0  0  0
  7  9  1  0  0  0  0
 23 24  1  0  0  0  0
 23 25  1  0  0  0  0
 23 26  1  0  0  0  0
 21 22  1  0  0  0  0
 21 23  1  0  0  0  0
M  END
$$$$
default_name
  -OEChem-02102213163D

 26 25  0     1  0  0  0  0  0999 V2000
   -3.0232   -3.6924    1.0038 H   0  0  0  0  0  0  0  0  0  0  0  0
   -3.0082   -2.6684    0.6318 C   0  0  0  0  0  0  0  0  0  0  0  0
   -3.6332   -2.0414    1.2658 H   0  0  0  0  0  0  0  0  0  0  0  0
   -3.3762   -2.6444   -0.3912 H   0  0  0  0  0  0  0  0  0  0  0  0
   -1.5882   -2.1554    0.6658 C   0  0  0  0  0  0  0  0  0  0  0  0
   -0.6832   -2.8764    1.0638 O   0  0  0  0  0  0  0  0  0  0  0  0
   -1.3952   -0.9084    0.2428 N   0  0  0  0  0  0  0  0  0  0  0  0
   -2.1972   -0.3644   -0.0422 H   0  0  0  0  0  0  0  0  0  0  0  0
   -0.1122   -0.1994    0.2658 C   0  0  1  0  0  0  0  0  0  0  0  0
    0.6131   -0.7748   -0.3153 H   0  0  0  0  0  0  0  0  0  0  0  0
   -0.2973    1.1841   -0.3966 C   0  0  0  0  0  0  0  0  0  0  0  0
   -0.0628    1.9620    0.3291 H   0  0  0  0  0  0  0  0  0  0  0  0
    0.3934    1.2769   -1.2333 H   0  0  0  0  0  0  0  0  0  0  0  0
   -1.7115    1.4506   -0.8868 C   0  0  0  0  0  0  0  0  0  0  0  0
   -2.1976    2.5671   -0.9348 O   0  0  0  0  0  0  0  0  0  0  0  0
   -2.4323    0.4225   -1.2634 N   0  0  0  0  0  0  0  0  0  0  0  0
   -3.3562    0.6307   -1.5989 H   0  0  0  0  0  0  0  0  0  0  0  0
   -2.0490   -0.5038   -1.2514 H   0  0  0  0  0  0  0  0  0  0  0  0
    0.4075   -0.0985    1.7169 C   0  0  0  0  0  0  0  0  0  0  0  0
    1.5860   -0.3526    1.9662 O   0  0  0  0  0  0  0  0  0  0  0  0
   -0.4625    0.2583    2.6666 N   0  0  0  0  0  0  0  0  0  0  0  0
   -1.4309    0.3754    2.3860 H   0  0  0  0  0  0  0  0  0  0  0  0
   -0.1275    0.4111    4.0813 C   0  0  0  0  0  0  0  0  0  0  0  0
    0.6862    1.1312    4.1910 H   0  0  0  0  0  0  0  0  0  0  0  0
   -0.9980    0.7641    4.6360 H   0  0  0  0  0  0  0  0  0  0  0  0
    0.1959   -0.5481    4.4891 H   0  0  0  0  0  0  0  0  0  0  0  0
  5  6  2  0  0  0  0
  5  7  1  0  0  0  0
  2  3  1  0  0  0  0
  2  4  1  0  0  0  0
  2  5  1  0  0  0  0
  1  2  1  0  0  0  0
 19 20  2  0  0  0  0
 19 21  1  0  0  0  0
 16 17  1  0  0  0  0
 16 18  1  0  0  0  0
 14 15  2  0  0  0  0
 14 16  1  0  0  0  0
 11 12  1  0  0  0  0
 11 13  1  0  0  0  0
 11 14  1  0  0  0  0
  9 10  1  0  0  0  0
  9 11  1  0  0  0  0
  9 19  1  0  0  0  0
  7  8  1  0  0  0  0
  7  9  1  0  0  0  0
 23 24  1  0  0  0  0
 23 25  1  0  0  0  0
 23 26  1  0  0  0  0
 21 22  1  0  0  0  0
 21 23  1  0  0  0  0
M  END
$$$$
default_name
  -OEChem-02102213163D

 26 25  0     1  0  0  0  0  0999 V2000
   -3.0232   -3.6924    1.0038 H   0  0  0  0  0  0  0  0  0  0  0  0
   -3.0082   -2.6684    0.6318 C   0  0  0  0  0  0  0  0  0  0  0  0
   -3.6332   -2.0414    1.2658 H   0  0  0  0  0  0  0  0  0  0  0  0
   -3.3762   -2.6444   -0.3912 H   0  0  0  0  0  0  0  0  0  0  0  0
   -1.5882   -2.1554    0.6658 C   0  0  0  0  0  0  0  0  0  0  0  0
   -0.6832   -2.8764    1.0638 O   0  0  0  0  0  0  0  0  0  0  0  0
   -1.3952   -0.9084    0.2428 N   0  0  0  0  0  0  0  0  0  0  0  0
   -2.1972   -0.3644   -0.0422 H   0  0  0  0  0  0  0  0  0  0  0  0
   -0.1122   -0.1994    0.2658 C   0  0  1  0  0  0  0  0  0  0  0  0
    0.6131   -0.7748   -0.3153 H   0  0  0  0  0  0  0  0  0  0  0  0
   -0.2973    1.1841   -0.3966 C   0  0  0  0  0  0  0  0  0  0  0  0
   -0.0628    1.9620    0.3291 H   0  0  0  0  0  0  0  0  0  0  0  0
    0.3934    1.2769   -1.2333 H   0  0  0  0  0  0  0  0  0  0  0  0
   -1.7115    1.4506   -0.8868 C   0  0  0  0  0  0  0  0  0  0  0  0
   -2.1110    2.5620   -1.1872 O   0  0  0  0  0  0  0  0  0  0  0  0
   -2.5300    0.4307   -0.9771 N   0  0  0  0  0  0  0  0  0  0  0  0
   -3.4522    0.6341   -1.3204 H   0  0  0  0  0  0  0  0  0  0  0  0
   -2.2200   -0.4963   -0.7541 H   0  0  0  0  0  0  0  0  0  0  0  0
    0.4075   -0.0985    1.7169 C   0  0  0  0  0  0  0  0  0  0  0  0
    1.5860   -0.3526    1.9662 O   0  0  0  0  0  0  0  0  0  0  0  0
   -0.4625    0.2583    2.6666 N   0  0  0  0  0  0  0  0  0  0  0  0
   -1.4309    0.3754    2.3860 H   0  0  0  0  0  0  0  0  0  0  0  0
   -0.1275    0.4111    4.0813 C   0  0  0  0  0  0  0  0  0  0  0  0
    0.6862    1.1312    4.1910 H   0  0  0  0  0  0  0  0  0  0  0  0
   -0.9980    0.7641    4.6360 H   0  0  0  0  0  0  0  0  0  0  0  0
    0.1959   -0.5481    4.4891 H   0  0  0  0  0  0  0  0  0  0  0  0
  5  6  2  0  0  0  0
  5  7  1  0  0  0  0
  2  3  1  0  0  0  0
  2  4  1  0  0  0  0
  2  5  1  0  0  0  0
  1  2  1  0  0  0  0
 19 20  2  0  0  0  0
 19 21  1  0  0  0  0
 16 17  1  0  0  0  0
 16 18  1  0  0  0  0
 14 15  2  0  0  0  0
 14 16  1  0  0  0  0
 11 12  1  0  0  0  0
 11 13  1  0  0  0  0
 11 14  1  0  0  0  0
  9 10  1  0  0  0  0
  9 11  1  0  0  0  0
  9 19  1  0  0  0  0
  7  8  1  0  0  0  0
  7  9  1  0  0  0  0
 23 24  1  0  0  0  0
 23 25  1  0  0  0  0
 23 26  1  0  0  0  0
 21 22  1  0  0  0  0
 21 23  1  0  0  0  0
M  END
$$$$
default_name
  -OEChem-02102213163D

 26 25  0     1  0  0  0  0  0999 V2000
   -3.0232   -3.6924    1.0038 H   0  0  0  0  0  0  0  0  0  0  0  0
   -3.0082   -2.6684    0.6318 C   0  0  0  0  0  0  0  0  0  0  0  0
   -3.6332   -2.0414    1.2658 H   0  0  0  0  0  0  0  0  0  0  0  0
   -3.3762   -2.6444   -0.3912 H   0  0  0  0  0  0  0  0  0  0  0  0
   -1.5882   -2.1554    0.6658 C   0  0  0  0  0  0  0  0  0  0  0  0
   -0.6832   -2.8764    1.0638 O   0  0  0  0  0  0  0  0  0  0  0  0
   -1.3952   -0.9084    0.2428 N   0  0  0  0  0  0  0  0  0  0  0  0
   -2.1972   -0.3644   -0.0422 H   0  0  0  0  0  0  0  0  0  0  0  0
   -0.1122   -0.1994    0.2658 C   0  0  1  0  0  0  0  0  0  0  0  0
    0.6131   -0.7748   -0.3153 H   0  0  0  0  0  0  0  0  0  0  0  0
   -0.2973    1.1841   -0.3966 C   0  0  0  0  0  0  0  0  0  0  0  0
    0.1822    1.9429    0.2207 H   0  0  0  0  0  0  0  0  0  0  0  0
    0.1848    1.1821   -1.3730 H   0  0  0  0  0  0  0  0  0  0  0  0
   -1.7498    1.6021   -0.5596 C   0  0  0  0  0  0  0  0  0  0  0  0
   -2.0829    2.6614   -1.0618 O   0  0  0  0  0  0  0  0  0  0  0  0
   -2.6751    0.7799   -0.1281 N   0  0  0  0  0  0  0  0  0  0  0  0
   -3.6259    1.0747   -0.2649 H   0  0  0  0  0  0  0  0  0  0  0  0
   -2.4277   -0.1057    0.2714 H   0  0  0  0  0  0  0  0  0  0  0  0
    0.4075   -0.0985    1.7169 C   0  0  0  0  0  0  0  0  0  0  0  0
    1.5860   -0.3526    1.9662 O   0  0  0  0  0  0  0  0  0  0  0  0
   -0.4625    0.2583    2.6666 N   0  0  0  0  0  0  0  0  0  0  0  0
   -1.4309    0.3754    2.3860 H   0  0  0  0  0  0  0  0  0  0  0  0
   -0.1275    0.4111    4.0813 C   0  0  0  0  0  0  0  0  0  0  0  0
    0.6862    1.1312    4.1910 H   0  0  0  0  0  0  0  0  0  0  0  0
   -0.9980    0.7641    4.6360 H   0  0  0  0  0  0  0  0  0  0  0  0
    0.1959   -0.5481    4.4891 H   0  0  0  0  0  0  0  0  0  0  0  0
  5  6  2  0  0  0  0
  5  7  1  0  0  0  0
  2  3  1  0  0  0  0
  2  4  1  0  0  0  0
  2  5  1  0  0  0  0
  1  2  1  0  0  0  0
 19 20  2  0  0  0  0
 19 21  1  0  0  0  0
 16 17  1  0  0  0  0
 16 18  1  0  0  0  0
 14 15  2  0  0  0  0
 14 16  1  0  0  0  0
 11 12  1  0  0  0  0
 11 13  1  0  0  0  0
 11 14  1  0  0  0  0
  9 10  1  0  0  0  0
  9 11  1  0  0  0  0
  9 19  1  0  0  0  0
  7  8  1  0  0  0  0
  7  9  1  0  0  0  0
 23 24  1  0  0  0  0
 23 25  1  0  0  0  0
 23 26  1  0  0  0  0
 21 22  1  0  0  0  0
 21 23  1  0  0  0  0
M  END
$$$$
default_name
  -OEChem-02102213163D

 26 25  0     1  0  0  0  0  0999 V2000
   -3.0232   -3.6924    1.0038 H   0  0  0  0  0  0  0  0  0  0  0  0
   -3.0082   -2.6684    0.6318 C   0  0  0  0  0  0  0  0  0  0  0  0
   -3.6332   -2.0414    1.2658 H   0  0  0  0  0  0  0  0  0  0  0  0
   -3.3762   -2.6444   -0.3912 H   0  0  0  0  0  0  0  0  0  0  0  0
   -1.5882   -2.1554    0.6658 C   0  0  0  0  0  0  0  0  0  0  0  0
   -0.6832   -2.8764    1.0638 O   0  0  0  0  0  0  0  0  0  0  0  0
   -1.3952   -0.9084    0.2428 N   0  0  0  0  0  0  0  0  0  0  0  0
   -2.1972   -0.3644   -0.0422 H   0  0  0  0  0  0  0  0  0  0  0  0
   -0.1122   -0.1994    0.2658 C   0  0  1  0  0  0  0  0  0  0  0  0
    0.6131   -0.7748   -0.3153 H   0  0  0  0  0  0  0  0  0  0  0  0
   -0.2973    1.1841   -0.3966 C   0  0  0  0  0  0  0  0  0  0  0  0
    0.1822    1.9429    0.2207 H   0  0  0  0  0  0  0  0  0  0  0  0
    0.1848    1.1821   -1.3730 H   0  0  0  0  0  0  0  0  0  0  0  0
   -1.7498    1.6021   -0.5596 C   0  0  0  0  0  0  0  0  0  0  0  0
   -2.0995    2.5166   -1.2853 O   0  0  0  0  0  0  0  0  0  0  0  0
   -2.6556    0.9461    0.1241 N   0  0  0  0  0  0  0  0  0  0  0  0
   -3.6083    1.2328   -0.0169 H   0  0  0  0  0  0  0  0  0  0  0  0
   -2.3958    0.1777    0.7133 H   0  0  0  0  0  0  0  0  0  0  0  0
    0.4075   -0.0985    1.7169 C   0  0  0  0  0  0  0  0  0  0  0  0
    1.5860   -0.3526    1.9662 O   0  0  0  0  0  0  0  0  0  0  0  0
   -0.4625    0.2583    2.6666 N   0  0  0  0  0  0  0  0  0  0  0  0
   -1.4309    0.3754    2.3860 H   0  0  0  0  0  0  0  0  0  0  0  0
   -0.1275    0.4111    4.0813 C   0  0  0  0  0  0  0  0  0  0  0  0
    0.6862    1.1312    4.1910 H   0  0  0  0  0  0  0  0  0  0  0  0
   -0.9980    0.7641    4.6360 H   0  0  0  0  0  0  0  0  0  0  0  0
    0.1959   -0.5481    4.4891 H   0  0  0  0  0  0  0  0  0  0  0  0
  5  6  2  0  0  0  0
  5  7  1  0  0  0  0
  2  3  1  0  0  0  0
  2  4  1  0  0  0  0
  2  5  1  0  0  0  0
  1  2  1  0  0  0  0
 19 20  2  0  0  0  0
 19 21  1  0  0  0  0
 16 17  1  0  0  0  0
 16 18  1  0  0  0  0
 14 15  2  0  0  0  0
 14 16  1  0  0  0  0
 11 12  1  0  0  0  0
 11 13  1  0  0  0  0
 11 14  1  0  0  0  0
  9 10  1  0  0  0  0
  9 11  1  0  0  0  0
  9 19  1  0  0  0  0
  7  8  1  0  0  0  0
  7  9  1  0  0  0  0
 23 24  1  0  0  0  0
 23 25  1  0  0  0  0
 23 26  1  0  0  0  0
 21 22  1  0  0  0  0
 21 23  1  0  0  0  0
M  END
$$$$
default_name
  -OEChem-02102213163D

 26 25  0     1  0  0  0  0  0999 V2000
   -3.0232   -3.6924    1.0038 H   0  0  0  0  0  0  0  0  0  0  0  0
   -3.0082   -2.6684    0.6318 C   0  0  0  0  0  0  0  0  0  0  0  0
   -3.6332   -2.0414    1.2658 H   0  0  0  0  0  0  0  0  0  0  0  0
   -3.3762   -2.6444   -0.3912 H   0  0  0  0  0  0  0  0  0  0  0  0
   -1.5882   -2.1554    0.6658 C   0  0  0  0  0  0  0  0  0  0  0  0
   -0.6832   -2.8764    1.0638 O   0  0  0  0  0  0  0  0  0  0  0  0
   -1.3952   -0.9084    0.2428 N   0  0  0  0  0  0  0  0  0  0  0  0
   -2.1972   -0.3644   -0.0422 H   0  0  0  0  0  0  0  0  0  0  0  0
   -0.1122   -0.1994    0.2658 C   0  0  1  0  0  0  0  0  0  0  0  0
    0.6131   -0.7748   -0.3153 H   0  0  0  0  0  0  0  0  0  0  0  0
   -0.2973    1.1841   -0.3966 C   0  0  0  0  0  0  0  0  0  0  0  0
    0.1822    1.9429    0.2207 H   0  0  0  0  0  0  0  0  0  0  0  0
    0.1848    1.1821   -1.3730 H   0  0  0  0  0  0  0  0  0  0  0  0
   -1.7498    1.6021   -0.5596 C   0  0  0  0  0  0  0  0  0  0  0  0
   -2.1354    2.3219   -1.4643 O   0  0  0  0  0  0  0  0  0  0  0  0
   -2.6142    1.1684    0.3253 N   0  0  0  0  0  0  0  0  0  0  0  0
   -3.5692    1.4463    0.1822 H   0  0  0  0  0  0  0  0  0  0  0  0
   -2.3256    0.5598    1.0678 H   0  0  0  0  0  0  0  0  0  0  0  0
    0.4075   -0.0985    1.7169 C   0  0  0  0  0  0  0  0  0  0  0  0
    1.5860   -0.3526    1.9662 O   0  0  0  0  0  0  0  0  0  0  0  0
   -0.4625    0.2583    2.6666 N   0  0  0  0  0  0  0  0  0  0  0  0
   -1.4309    0.3754    2.3860 H   0  0  0  0  0  0  0  0  0  0  0  0
   -0.1275    0.4111    4.0813 C   0  0  0  0  0  0  0  0  0  0  0  0
    0.6862    1.1312    4.1910 H   0  0  0  0  0  0  0  0  0  0  0  0
   -0.9980    0.7641    4.6360 H   0  0  0  0  0  0  0  0  0  0  0  0
    0.1959   -0.5481    4.4891 H   0  0  0  0  0  0  0  0  0  0  0  0
  5  6  2  0  0  0  0
  5  7  1  0  0  0  0
  2  3  1  0  0  0  0
  2  4  1  0  0  0  0
  2  5  1  0  0  0  0
  1  2  1  0  0  0  0
 19 20  2  0  0  0  0
 19 21  1  0  0  0  0
 16 17  1  0  0  0  0
 16 18  1  0  0  0  0
 14 15  2  0  0  0  0
 14 16  1  0  0  0  0
 11 12  1  0  0  0  0
 11 13  1  0  0  0  0
 11 14  1  0  0  0  0
  9 10  1  0  0  0  0
  9 11  1  0  0  0  0
  9 19  1  0  0  0  0
  7  8  1  0  0  0  0
  7  9  1  0  0  0  0
 23 24  1  0  0  0  0
 23 25  1  0  0  0  0
 23 26  1  0  0  0  0
 21 22  1  0  0  0  0
 21 23  1  0  0  0  0
M  END
$$$$
default_name
  -OEChem-02102213163D

 26 25  0     1  0  0  0  0  0999 V2000
   -3.0232   -3.6924    1.0038 H   0  0  0  0  0  0  0  0  0  0  0  0
   -3.0082   -2.6684    0.6318 C   0  0  0  0  0  0  0  0  0  0  0  0
   -3.6332   -2.0414    1.2658 H   0  0  0  0  0  0  0  0  0  0  0  0
   -3.3762   -2.6444   -0.3912 H   0  0  0  0  0  0  0  0  0  0  0  0
   -1.5882   -2.1554    0.6658 C   0  0  0  0  0  0  0  0  0  0  0  0
   -0.6832   -2.8764    1.0638 O   0  0  0  0  0  0  0  0  0  0  0  0
   -1.3952   -0.9084    0.2428 N   0  0  0  0  0  0  0  0  0  0  0  0
   -2.1972   -0.3644   -0.0422 H   0  0  0  0  0  0  0  0  0  0  0  0
   -0.1122   -0.1994    0.2658 C   0  0  1  0  0  0  0  0  0  0  0  0
    0.6131   -0.7748   -0.3153 H   0  0  0  0  0  0  0  0  0  0  0  0
   -0.2973    1.1841   -0.3966 C   0  0  0  0  0  0  0  0  0  0  0  0
    0.1822    1.9429    0.2207 H   0  0  0  0  0  0  0  0  0  0  0  0
    0.1848    1.1821   -1.3730 H   0  0  0  0  0  0  0  0  0  0  0  0
   -1.7498    1.6021   -0.5596 C   0  0  0  0  0  0  0  0  0  0  0  0
   -2.1883    2.0906   -1.5865 O   0  0  0  0  0  0  0  0  0  0  0  0
   -2.5537    1.4318    0.4617 N   0  0  0  0  0  0  0  0  0  0  0  0
   -3.5113    1.7007    0.3191 H   0  0  0  0  0  0  0  0  0  0  0  0
   -2.2220    1.0145    1.3107 H   0  0  0  0  0  0  0  0  0  0  0  0
    0.4075   -0.0985    1.7169 C   0  0  0  0  0  0  0  0  0  0  0  0
    1.5860   -0.3526    1.9662 O   0  0  0  0  0  0  0  0  0  0  0  0
   -0.4625    0.2583    2.6666 N   0  0  0  0  0  0  0  0  0  0  0  0
   -1.4309    0.3754    2.3860 H   0  0  0  0  0  0  0  0  0  0  0  0
   -0.1275    0.4111    4.0813 C   0  0  0  0  0  0  0  0  0  0  0  0
    0.6862    1.1312    4.1910 H   0  0  0  0  0  0  0  0  0  0  0  0
   -0.9980    0.7641    4.6360 H   0  0  0  0  0  0  0  0  0  0  0  0
    0.1959   -0.5481    4.4891 H   0  0  0  0  0  0  0  0  0  0  0  0
  5  6  2  0  0  0  0
  5  7  1  0  0  0  0
  2  3  1  0  0  0  0
  2  4  1  0  0  0  0
  2  5  1  0  0  0  0
  1  2  1  0  0  0  0
 19 20  2  0  0  0  0
 19 21  1  0  0  0  0
 16 17  1  0  0  0  0
 16 18  1  0  0  0  0
 14 15  2  0  0  0  0
 14 16  1  0  0  0  0
 11 12  1  0  0  0  0
 11 13  1  0  0  0  0
 11 14  1  0  0  0  0
  9 10  1  0  0  0  0
  9 11  1  0  0  0  0
  9 19  1  0  0  0  0
  7  8  1  0  0  0  0
  7  9  1  0  0  0  0
 23 24  1  0  0  0  0
 23 25  1  0  0  0  0
 23 26  1  0  0  0  0
 21 22  1  0  0  0  0
 21 23  1  0  0  0  0
M  END
$$$$
default_name
  -OEChem-02102213163D

 26 25  0     1  0  0  0  0  0999 V2000
   -3.0232   -3.6924    1.0038 H   0  0  0  0  0  0  0  0  0  0  0  0
   -3.0082   -2.6684    0.6318 C   0  0  0  0  0  0  0  0  0  0  0  0
   -3.6332   -2.0414    1.2658 H   0  0  0  0  0  0  0  0  0  0  0  0
   -3.3762   -2.6444   -0.3912 H   0  0  0  0  0  0  0  0  0  0  0  0
   -1.5882   -2.1554    0.6658 C   0  0  0  0  0  0  0  0  0  0  0  0
   -0.6832   -2.8764    1.0638 O   0  0  0  0  0  0  0  0  0  0  0  0
   -1.3952   -0.9084    0.2428 N   0  0  0  0  0  0  0  0  0  0  0  0
   -2.1972   -0.3644   -0.0422 H   0  0  0  0  0  0  0  0  0  0  0  0
   -0.1122   -0.1994    0.2658 C   0  0  1  0  0  0  0  0  0  0  0  0
    0.6131   -0.7748   -0.3153 H   0  0  0  0  0  0  0  0  0  0  0  0
   -0.2973    1.1841   -0.3966 C   0  0  0  0  0  0  0  0  0  0  0  0
    0.1822    1.9429    0.2207 H   0  0  0  0  0  0  0  0  0  0  0  0
    0.1848    1.1821   -1.3730 H   0  0  0  0  0  0  0  0  0  0  0  0
   -1.7498    1.6021   -0.5596 C   0  0  0  0  0  0  0  0  0  0  0  0
   -2.2545    1.8384   -1.6435 O   0  0  0  0  0  0  0  0  0  0  0  0
   -2.4783    1.7182    0.5239 N   0  0  0  0  0  0  0  0  0  0  0  0
   -3.4387    1.9787    0.3842 H   0  0  0  0  0  0  0  0  0  0  0  0
   -2.0920    1.5110    1.4256 H   0  0  0  0  0  0  0  0  0  0  0  0
    0.4075   -0.0985    1.7169 C   0  0  0  0  0  0  0  0  0  0  0  0
    1.5860   -0.3526    1.9662 O   0  0  0  0  0  0  0  0  0  0  0  0
   -0.4625    0.2583    2.6666 N   0  0  0  0  0  0  0  0  0  0  0  0
   -1.4309    0.3754    2.3860 H   0  0  0  0  0  0  0  0  0  0  0  0
   -0.1275    0.4111    4.0813 C   0  0  0  0  0  0  0  0  0  0  0  0
    0.6862    1.1312    4.1910 H   0  0  0  0  0  0  0  0  0  0  0  0
   -0.9980    0.7641    4.6360 H   0  0  0  0  0  0  0  0  0  0  0  0
    0.1959   -0.5481    4.4891 H   0  0  0  0  0  0  0  0  0  0  0  0
  5  6  2  0  0  0  0
  5  7  1  0  0  0  0
  2  3  1  0  0  0  0
  2  4  1  0  0  0  0
  2  5  1  0  0  0  0
  1  2  1  0  0  0  0
 19 20  2  0  0  0  0
 19 21  1  0  0  0  0
 16 17  1  0  0  0  0
 16 18  1  0  0  0  0
 14 15  2  0  0  0  0
 14 16  1  0  0  0  0
 11 12  1  0  0  0  0
 11 13  1  0  0  0  0
 11 14  1  0  0  0  0
  9 10  1  0  0  0  0
  9 11  1  0  0  0  0
  9 19  1  0  0  0  0
  7  8  1  0  0  0  0
  7  9  1  0  0  0  0
 23 24  1  0  0  0  0
 23 25  1  0  0  0  0
 23 26  1  0  0  0  0
 21 22  1  0  0  0  0
 21 23  1  0  0  0  0
M  END
$$$$
default_name
  -OEChem-02102213163D

 26 25  0     1  0  0  0  0  0999 V2000
   -3.0232   -3.6924    1.0038 H   0  0  0  0  0  0  0  0  0  0  0  0
   -3.0082   -2.6684    0.6318 C   0  0  0  0  0  0  0  0  0  0  0  0
   -3.6332   -2.0414    1.2658 H   0  0  0  0  0  0  0  0  0  0  0  0
   -3.3762   -2.6444   -0.3912 H   0  0  0  0  0  0  0  0  0  0  0  0
   -1.5882   -2.1554    0.6658 C   0  0  0  0  0  0  0  0  0  0  0  0
   -0.6832   -2.8764    1.0638 O   0  0  0  0  0  0  0  0  0  0  0  0
   -1.3952   -0.9084    0.2428 N   0  0  0  0  0  0  0  0  0  0  0  0
   -2.1972   -0.3644   -0.0422 H   0  0  0  0  0  0  0  0  0  0  0  0
   -0.1122   -0.1994    0.2658 C   0  0  1  0  0  0  0  0  0  0  0  0
    0.6131   -0.7748   -0.3153 H   0  0  0  0  0  0  0  0  0  0  0  0
   -0.2973    1.1841   -0.3966 C   0  0  0  0  0  0  0  0  0  0  0  0
    0.1822    1.9429    0.2207 H   0  0  0  0  0  0  0  0  0  0  0  0
    0.1848    1.1821   -1.3730 H   0  0  0  0  0  0  0  0  0  0  0  0
   -1.7498    1.6021   -0.5596 C   0  0  0  0  0  0  0  0  0  0  0  0
   -2.3294    1.5826   -1.6315 O   0  0  0  0  0  0  0  0  0  0  0  0
   -2.3931    2.0081    0.5079 N   0  0  0  0  0  0  0  0  0  0  0  0
   -3.3561    2.2613    0.3732 H   0  0  0  0  0  0  0  0  0  0  0  0
   -1.9445    2.0154    1.4045 H   0  0  0  0  0  0  0  0  0  0  0  0
    0.4075   -0.0985    1.7169 C   0  0  0  0  0  0  0  0  0  0  0  0
    1.5860   -0.3526    1.9662 O   0  0  0  0  0  0  0  0  0  0  0  0
   -0.4625    0.2583    2.6666 N   0  0  0  0  0  0  0  0  0  0  0  0
   -1.4309    0.3754    2.3860 H   0  0  0  0  0  0  0  0  0  0  0  0
   -0.1275    0.4111    4.0813 C   0  0  0  0  0  0  0  0  0  0  0  0
    0.6862    1.1312    4.1910 H   0  0  0  0  0  0  0  0  0  0  0  0
   -0.9980    0.7641    4.6360 H   0  0  0  0  0  0  0  0  0  0  0  0
    0.1959   -0.5481    4.4891 H   0  0  0  0  0  0  0  0  0  0  0  0
  5  6  2  0  0  0  0
  5  7  1  0  0  0  0
  2  3  1  0  0  0  0
  2  4  1  0  0  0  0
  2  5  1  0  0  0  0
  1  2  1  0  0  0  0
 19 20  2  0  0  0  0
 19 21  1  0  0  0  0
 16 17  1  0  0  0  0
 16 18  1  0  0  0  0
 14 15  2  0  0  0  0
 14 16  1  0  0  0  0
 11 12  1  0  0  0  0
 11 13  1  0  0  0  0
 11 14  1  0  0  0  0
  9 10  1  0  0  0  0
  9 11  1  0  0  0  0
  9 19  1  0  0  0  0
  7  8  1  0  0  0  0
  7  9  1  0  0  0  0
 23 24  1  0  0  0  0
 23 25  1  0  0  0  0
 23 26  1  0  0  0  0
 21 22  1  0  0  0  0
 21 23  1  0  0  0  0
M  END
$$$$
default_name
  -OEChem-02102213163D

 26 25  0     1  0  0  0  0  0999 V2000
   -3.0232   -3.6924    1.0038 H   0  0  0  0  0  0  0  0  0  0  0  0
   -3.0082   -2.6684    0.6318 C   0  0  0  0  0  0  0  0  0  0  0  0
   -3.6332   -2.0414    1.2658 H   0  0  0  0  0  0  0  0  0  0  0  0
   -3.3762   -2.6444   -0.3912 H   0  0  0  0  0  0  0  0  0  0  0  0
   -1.5882   -2.1554    0.6658 C   0  0  0  0  0  0  0  0  0  0  0  0
   -0.6832   -2.8764    1.0638 O   0  0  0  0  0  0  0  0  0  0  0  0
   -1.3952   -0.9084    0.2428 N   0  0  0  0  0  0  0  0  0  0  0  0
   -2.1972   -0.3644   -0.0422 H   0  0  0  0  0  0  0  0  0  0  0  0
   -0.1122   -0.1994    0.2658 C   0  0  1  0  0  0  0  0  0  0  0  0
    0.6131   -0.7748   -0.3153 H   0  0  0  0  0  0  0  0  0  0  0  0
   -0.2973    1.1841   -0.3966 C   0  0  0  0  0  0  0  0  0  0  0  0
    0.1822    1.9429    0.2207 H   0  0  0  0  0  0  0  0  0  0  0  0
    0.1848    1.1821   -1.3730 H   0  0  0  0  0  0  0  0  0  0  0  0
   -1.7498    1.6021   -0.5596 C   0  0  0  0  0  0  0  0  0  0  0  0
   -2.4081    1.3405   -1.5513 O   0  0  0  0  0  0  0  0  0  0  0  0
   -2.3038    2.2819    0.4147 N   0  0  0  0  0  0  0  0  0  0  0  0
   -3.2693    2.5292    0.2868 H   0  0  0  0  0  0  0  0  0  0  0  0
   -1.7895    2.4933    1.2489 H   0  0  0  0  0  0  0  0  0  0  0  0
    0.4075   -0.0985    1.7169 C   0  0  0  0  0  0  0  0  0  0  0  0
    1.5860   -0.3526    1.9662 O   0  0  0  0  0  0  0  0  0  0  0  0
   -0.4625    0.2583    2.6666 N   0  0  0  0  0  0  0  0  0  0  0  0
   -1.4309    0.3754    2.3860 H   0  0  0  0  0  0  0  0  0  0  0  0
   -0.1275    0.4111    4.0813 C   0  0  0  0  0  0  0  0  0  0  0  0
    0.6862    1.1312    4.1910 H   0  0  0  0  0  0  0  0  0  0  0  0
   -0.9980    0.7641    4.6360 H   0  0  0  0  0  0  0  0  0  0  0  0
    0.1959   -0.5481    4.4891 H   0  0  0  0  0  0  0  0  0  0  0  0
  5  6  2  0  0  0  0
  5  7  1  0  0  0  0
  2  3  1  0  0  0  0
  2  4  1  0  0  0  0
  2  5  1  0  0  0  0
  1  2  1  0  0  0  0
 19 20  2  0  0  0  0
 19 21  1  0  0  0  0
 16 17  1  0  0  0  0
 16 18  1  0  0  0  0
 14 15  2  0  0  0  0
 14 16  1  0  0  0  0
 11 12  1  0  0  0  0
 11 13  1  0  0  0  0
 11 14  1  0  0  0  0
  9 10  1  0  0  0  0
  9 11  1  0  0  0  0
  9 19  1  0  0  0  0
  7  8  1  0  0  0  0
  7  9  1  0  0  0  0
 23 24  1  0  0  0  0
 23 25  1  0  0  0  0
 23 26  1  0  0  0  0
 21 22  1  0  0  0  0
 21 23  1  0  0  0  0
M  END
$$$$
default_name
  -OEChem-02102213163D

 26 25  0     1  0  0  0  0  0999 V2000
   -3.0232   -3.6924    1.0038 H   0  0  0  0  0  0  0  0  0  0  0  0
   -3.0082   -2.6684    0.6318 C   0  0  0  0  0  0  0  0  0  0  0  0
   -3.6332   -2.0414    1.2658 H   0  0  0  0  0  0  0  0  0  0  0  0
   -3.3762   -2.6444   -0.3912 H   0  0  0  0  0  0  0  0  0  0  0  0
   -1.5882   -2.1554    0.6658 C   0  0  0  0  0  0  0  0  0  0  0  0
   -0.6832   -2.8764    1.0638 O   0  0  0  0  0  0  0  0  0  0  0  0
   -1.3952   -0.9084    0.2428 N   0  0  0  0  0  0  0  0  0  0  0  0
   -2.1972   -0.3644   -0.0422 H   0  0  0  0  0  0  0  0  0  0  0  0
   -0.1122   -0.1994    0.2658 C   0  0  1  0  0  0  0  0  0  0  0  0
    0.6131   -0.7748   -0.3153 H   0  0  0  0  0  0  0  0  0  0  0  0
   -0.2973    1.1841   -0.3966 C   0  0  0  0  0  0  0  0  0  0  0  0
    0.1822    1.9429    0.2207 H   0  0  0  0  0  0  0  0  0  0  0  0
    0.1848    1.1821   -1.3730 H   0  0  0  0  0  0  0  0  0  0  0  0
   -1.7498    1.6021   -0.5596 C   0  0  0  0  0  0  0  0  0  0  0  0
   -2.4851    1.1286   -1.4084 O   0  0  0  0  0  0  0  0  0  0  0  0
   -2.2167    2.5208    0.2505 N   0  0  0  0  0  0  0  0  0  0  0  0
   -3.1841    2.7643    0.1309 H   0  0  0  0  0  0  0  0  0  0  0  0
   -1.6376    2.9121    0.9694 H   0  0  0  0  0  0  0  0  0  0  0  0
    0.4075   -0.0985    1.7169 C   0  0  0  0  0  0  0  0  0  0  0  0
    1.5860   -0.3526    1.9662 O   0  0  0  0  0  0  0  0  0  0  0  0
   -0.4625    0.2583    2.6666 N   0  0  0  0  0  0  0  0  0  0  0  0
   -1.4309    0.3754    2.3860 H   0  0  0  0  0  0  0  0  0  0  0  0
   -0.1275    0.4111    4.0813 C   0  0  0  0  0  0  0  0  0  0  0  0
    0.6862    1.1312    4.1910 H   0  0  0  0  0  0  0  0  0  0  0  0
   -0.9980    0.7641    4.6360 H   0  0  0  0  0  0  0  0  0  0  0  0
    0.1959   -0.5481    4.4891 H   0  0  0  0  0  0  0  0  0  0  0  0
  5  6  2  0  0  0  0
  5  7  1  0  0  0  0
  2  3  1  0  0  0  0
  2  4  1  0  0  0  0
  2  5  1  0  0  0  0
  1  2  1  0  0  0  0
 19 20  2  0  0  0  0
 19 21  1  0  0  0  0
 16 17  1  0  0  0  0
 16 18  1  0  0  0  0
 14 15  2  0  0  0  0
 14 16  1  0  0  0  0
 11 12  1  0  0  0  0
 11 13  1  0  0  0  0
 11 14  1  0  0  0  0
  9 10  1  0  0  0  0
  9 11  1  0  0  0  0
  9 19  1  0  0  0  0
  7  8  1  0  0  0  0
  7  9  1  0  0  0  0
 23 24  1  0  0  0  0
 23 25  1  0  0  0  0
 23 26  1  0  0  0  0
 21 22  1  0  0  0  0
 21 23  1  0  0  0  0
M  END
$$$$
default_name
  -OEChem-02102213163D

 26 25  0     1  0  0  0  0  0999 V2000
   -3.0232   -3.6924    1.0038 H   0  0  0  0  0  0  0  0  0  0  0  0
   -3.0082   -2.6684    0.6318 C   0  0  0  0  0  0  0  0  0  0  0  0
   -3.6332   -2.0414    1.2658 H   0  0  0  0  0  0  0  0  0  0  0  0
   -3.3762   -2.6444   -0.3912 H   0  0  0  0  0  0  0  0  0  0  0  0
   -1.5882   -2.1554    0.6658 C   0  0  0  0  0  0  0  0  0  0  0  0
   -0.6832   -2.8764    1.0638 O   0  0  0  0  0  0  0  0  0  0  0  0
   -1.3952   -0.9084    0.2428 N   0  0  0  0  0  0  0  0  0  0  0  0
   -2.1972   -0.3644   -0.0422 H   0  0  0  0  0  0  0  0  0  0  0  0
   -0.1122   -0.1994    0.2658 C   0  0  1  0  0  0  0  0  0  0  0  0
    0.6131   -0.7748   -0.3153 H   0  0  0  0  0  0  0  0  0  0  0  0
   -0.2973    1.1841   -0.3966 C   0  0  0  0  0  0  0  0  0  0  0  0
    0.1822    1.9429    0.2207 H   0  0  0  0  0  0  0  0  0  0  0  0
    0.1848    1.1821   -1.3730 H   0  0  0  0  0  0  0  0  0  0  0  0
   -1.7498    1.6021   -0.5596 C   0  0  0  0  0  0  0  0  0  0  0  0
   -2.5552    0.9615   -1.2125 O   0  0  0  0  0  0  0  0  0  0  0  0
   -2.1375    2.7085    0.0267 N   0  0  0  0  0  0  0  0  0  0  0  0
   -3.1065    2.9504   -0.0839 H   0  0  0  0  0  0  0  0  0  0  0  0
   -1.4992    3.2432    0.5850 H   0  0  0  0  0  0  0  0  0  0  0  0
    0.4075   -0.0985    1.7169 C   0  0  0  0  0  0  0  0  0  0  0  0
    1.5860   -0.3526    1.9662 O   0  0  0  0  0  0  0  0  0  0  0  0
   -0.4625    0.2583    2.6666 N   0  0  0  0  0  0  0  0  0  0  0  0
   -1.4309    0.3754    2.3860 H   0  0  0  0  0  0  0  0  0  0  0  0
   -0.1275    0.4111    4.0813 C   0  0  0  0  0  0  0  0  0  0  0  0
    0.6862    1.1312    4.1910 H   0  0  0  0  0  0  0  0  0  0  0  0
   -0.9980    0.7641    4.6360 H   0  0  0  0  0  0  0  0  0  0  0  0
    0.1959   -0.5481    4.4891 H   0  0  0  0  0  0  0  0  0  0  0  0
  5  6  2  0  0  0  0
  5  7  1  0  0  0  0
  2  3  1  0  0  0  0
  2  4  1  0  0  0  0
  2  5  1  0  0  0  0
  1  2  1  0  0  0  0
 19 20  2  0  0  0  0
 19 21  1  0  0  0  0
 16 17  1  0  0  0  0
 16 18  1  0  0  0  0
 14 15  2  0  0  0  0
 14 16  1  0  0  0  0
 11 12  1  0  0  0  0
 11 13  1  0  0  0  0
 11 14  1  0  0  0  0
  9 10  1  0  0  0  0
  9 11  1  0  0  0  0
  9 19  1  0  0  0  0
  7  8  1  0  0  0  0
  7  9  1  0  0  0  0
 23 24  1  0  0  0  0
 23 25  1  0  0  0  0
 23 26  1  0  0  0  0
 21 22  1  0  0  0  0
 21 23  1  0  0  0  0
M  END
$$$$
default_name
  -OEChem-02102213163D

 26 25  0     1  0  0  0  0  0999 V2000
   -3.0232   -3.6924    1.0038 H   0  0  0  0  0  0  0  0  0  0  0  0
   -3.0082   -2.6684    0.6318 C   0  0  0  0  0  0  0  0  0  0  0  0
   -3.6332   -2.0414    1.2658 H   0  0  0  0  0  0  0  0  0  0  0  0
   -3.3762   -2.6444   -0.3912 H   0  0  0  0  0  0  0  0  0  0  0  0
   -1.5882   -2.1554    0.6658 C   0  0  0  0  0  0  0  0  0  0  0  0
   -0.6832   -2.8764    1.0638 O   0  0  0  0  0  0  0  0  0  0  0  0
   -1.3952   -0.9084    0.2428 N   0  0  0  0  0  0  0  0  0  0  0  0
   -2.1972   -0.3644   -0.0422 H   0  0  0  0  0  0  0  0  0  0  0  0
   -0.1122   -0.1994    0.2658 C   0  0  1  0  0  0  0  0  0  0  0  0
    0.6131   -0.7748   -0.3153 H   0  0  0  0  0  0  0  0  0  0  0  0
   -0.2973    1.1841   -0.3966 C   0  0  0  0  0  0  0  0  0  0  0  0
    0.1822    1.9429    0.2207 H   0  0  0  0  0  0  0  0  0  0  0  0
    0.1848    1.1821   -1.3730 H   0  0  0  0  0  0  0  0  0  0  0  0
   -1.7498    1.6021   -0.5596 C   0  0  0  0  0  0  0  0  0  0  0  0
   -2.6136    0.8504   -0.9770 O   0  0  0  0  0  0  0  0  0  0  0  0
   -2.0718    2.8323   -0.2415 N   0  0  0  0  0  0  0  0  0  0  0  0
   -3.0416    3.0749   -0.3429 H   0  0  0  0  0  0  0  0  0  0  0  0
   -1.3836    3.4643    0.1220 H   0  0  0  0  0  0  0  0  0  0  0  0
    0.4075   -0.0985    1.7169 C   0  0  0  0  0  0  0  0  0  0  0  0
    1.5860   -0.3526    1.9662 O   0  0  0  0  0  0  0  0  0  0  0  0
   -0.4625    0.2583    2.6666 N   0  0  0  0  0  0  0  0  0  0  0  0
   -1.4309    0.3754    2.3860 H   0  0  0  0  0  0  0  0  0  0  0  0
   -0.1275    0.4111    4.0813 C   0  0  0  0  0  0  0  0  0  0  0  0
    0.6862    1.1312    4.1910 H   0  0  0  0  0  0  0  0  0  0  0  0
   -0.9980    0.7641    4.6360 H   0  0  0  0  0  0  0  0  0  0  0  0
    0.1959   -0.5481    4.4891 H   0  0  0  0  0  0  0  0  0  0  0  0
  5  6  2  0  0  0  0
  5  7  1  0  0  0  0
  2  3  1  0  0  0  0
  2  4  1  0  0  0  0
  2  5  1  0  0  0  0
  1  2  1  0  0  0  0
 19 20  2  0  0  0  0
 19 21  1  0  0  0  0
 16 17  1  0  0  0  0
 16 18  1  0  0  0  0
 14 15  2  0  0  0  0
 14 16  1  0  0  0  0
 11 12  1  0  0  0  0
 11 13  1  0  0  0  0
 11 14  1  0  0  0  0
  9 10  1  0  0  0  0
  9 11  1  0  0  0  0
  9 19  1  0  0  0  0
  7  8  1  0  0  0  0
  7  9  1  0  0  0  0
 23 24  1  0  0  0  0
 23 25  1  0  0  0  0
 23 26  1  0  0  0  0
 21 22  1  0  0  0  0
 21 23  1  0  0  0  0
M  END
$$$$
default_name
  -OEChem-02102213163D

 26 25  0     1  0  0  0  0  0999 V2000
   -3.0232   -3.6924    1.0038 H   0  0  0  0  0  0  0  0  0  0  0  0
   -3.0082   -2.6684    0.6318 C   0  0  0  0  0  0  0  0  0  0  0  0
   -3.6332   -2.0414    1.2658 H   0  0  0  0  0  0  0  0  0  0  0  0
   -3.3762   -2.6444   -0.3912 H   0  0  0  0  0  0  0  0  0  0  0  0
   -1.5882   -2.1554    0.6658 C   0  0  0  0  0  0  0  0  0  0  0  0
   -0.6832   -2.8764    1.0638 O   0  0  0  0  0  0  0  0  0  0  0  0
   -1.3952   -0.9084    0.2428 N   0  0  0  0  0  0  0  0  0  0  0  0
   -2.1972   -0.3644   -0.0422 H   0  0  0  0  0  0  0  0  0  0  0  0
   -0.1122   -0.1994    0.2658 C   0  0  1  0  0  0  0  0  0  0  0  0
    0.6131   -0.7748   -0.3153 H   0  0  0  0  0  0  0  0  0  0  0  0
   -0.2973    1.1841   -0.3966 C   0  0  0  0  0  0  0  0  0  0  0  0
    0.1822    1.9429    0.2207 H   0  0  0  0  0  0  0  0  0  0  0  0
    0.1848    1.1821   -1.3730 H   0  0  0  0  0  0  0  0  0  0  0  0
   -1.7498    1.6021   -0.5596 C   0  0  0  0  0  0  0  0  0  0  0  0
   -2.6563    0.8030   -0.7179 O   0  0  0  0  0  0  0  0  0  0  0  0
   -2.0239    2.8837   -0.5359 N   0  0  0  0  0  0  0  0  0  0  0  0
   -2.9938    3.1293   -0.6284 H   0  0  0  0  0  0  0  0  0  0  0  0
   -1.2988    3.5600   -0.3881 H   0  0  0  0  0  0  0  0  0  0  0  0
    0.4075   -0.0985    1.7169 C   0  0  0  0  0  0  0  0  0  0  0  0
    1.5860   -0.3526    1.9662 O   0  0  0  0  0  0  0  0  0  0  0  0
   -0.4625    0.2583    2.6666 N   0  0  0  0  0  0  0  0  0  0  0  0
   -1.4309    0.3754    2.3860 H   0  0  0  0  0  0  0  0  0  0  0  0
   -0.1275    0.4111    4.0813 C   0  0  0  0  0  0  0  0  0  0  0  0
    0.6862    1.1312    4.1910 H   0  0  0  0  0  0  0  0  0  0  0  0
   -0.9980    0.7641    4.6360 H   0  0  0  0  0  0  0  0  0  0  0  0
    0.1959   -0.5481    4.4891 H   0  0  0  0  0  0  0  0  0  0  0  0
  5  6  2  0  0  0  0
  5  7  1  0  0  0  0
  2  3  1  0  0  0  0
  2  4  1  0  0  0  0
  2  5  1  0  0  0  0
  1  2  1  0  0  0  0
 19 20  2  0  0  0  0
 19 21  1  0  0  0  0
 16 17  1  0  0  0  0
 16 18  1  0  0  0  0
 14 15  2  0  0  0  0
 14 16  1  0  0  0  0
 11 12  1  0  0  0  0
 11 13  1  0  0  0  0
 11 14  1  0  0  0  0
  9 10  1  0  0  0  0
  9 11  1  0  0  0  0
  9 19  1  0  0  0  0
  7  8  1  0  0  0  0
  7  9  1  0  0  0  0
 23 24  1  0  0  0  0
 23 25  1  0  0  0  0
 23 26  1  0  0  0  0
 21 22  1  0  0  0  0
 21 23  1  0  0  0  0
M  END
$$$$
default_name
  -OEChem-02102213163D

 26 25  0     1  0  0  0  0  0999 V2000
   -3.0232   -3.6924    1.0038 H   0  0  0  0  0  0  0  0  0  0  0  0
   -3.0082   -2.6684    0.6318 C   0  0  0  0  0  0  0  0  0  0  0  0
   -3.6332   -2.0414    1.2658 H   0  0  0  0  0  0  0  0  0  0  0  0
   -3.3762   -2.6444   -0.3912 H   0  0  0  0  0  0  0  0  0  0  0  0
   -1.5882   -2.1554    0.6658 C   0  0  0  0  0  0  0  0  0  0  0  0
   -0.6832   -2.8764    1.0638 O   0  0  0  0  0  0  0  0  0  0  0  0
   -1.3952   -0.9084    0.2428 N   0  0  0  0  0  0  0  0  0  0  0  0
   -2.1972   -0.3644   -0.0422 H   0  0  0  0  0  0  0  0  0  0  0  0
   -0.1122   -0.1994    0.2658 C   0  0  1  0  0  0  0  0  0  0  0  0
    0.6131   -0.7748   -0.3153 H   0  0  0  0  0  0  0  0  0  0  0  0
   -0.2973    1.1841   -0.3966 C   0  0  0  0  0  0  0  0  0  0  0  0
    0.1822    1.9429    0.2207 H   0  0  0  0  0  0  0  0  0  0  0  0
    0.1848    1.1821   -1.3730 H   0  0  0  0  0  0  0  0  0  0  0  0
   -1.7498    1.6021   -0.5596 C   0  0  0  0  0  0  0  0  0  0  0  0
   -2.6805    0.8225   -0.4528 O   0  0  0  0  0  0  0  0  0  0  0  0
   -1.9972    2.8593   -0.8364 N   0  0  0  0  0  0  0  0  0  0  0  0
   -2.9666    3.1099   -0.9211 H   0  0  0  0  0  0  0  0  0  0  0  0
   -1.2505    3.5241   -0.9106 H   0  0  0  0  0  0  0  0  0  0  0  0
    0.4075   -0.0985    1.7169 C   0  0  0  0  0  0  0  0  0  0  0  0
    1.5860   -0.3526    1.9662 O   0  0  0  0  0  0  0  0  0  0  0  0
   -0.4625    0.2583    2.6666 N   0  0  0  0  0  0  0  0  0  0  0  0
   -1.4309    0.3754    2.3860 H   0  0  0  0  0  0  0  0  0  0  0  0
   -0.1275    0.4111    4.0813 C   0  0  0  0  0  0  0  0  0  0  0  0
    0.6862    1.1312    4.1910 H   0  0  0  0  0  0  0  0  0  0  0  0
   -0.9980    0.7641    4.6360 H   0  0  0  0  0  0  0  0  0  0  0  0
    0.1959   -0.5481    4.4891 H   0  0  0  0  0  0  0  0  0  0  0  0
  5  6  2  0  0  0  0
  5  7  1  0  0  0  0
  2  3  1  0  0  0  0
  2  4  1  0  0  0  0
  2  5  1  0  0  0  0
  1  2  1  0  0  0  0
 19 20  2  0  0  0  0
 19 21  1  0  0  0  0
 16 17  1  0  0  0  0
 16 18  1  0  0  0  0
 14 15  2  0  0  0  0
 14 16  1  0  0  0  0
 11 12  1  0  0  0  0
 11 13  1  0  0  0  0
 11 14  1  0  0  0  0
  9 10  1  0  0  0  0
  9 11  1  0  0  0  0
  9 19  1  0  0  0  0
  7  8  1  0  0  0  0
  7  9  1  0  0  0  0
 23 24  1  0  0  0  0
 23 25  1  0  0  0  0
 23 26  1  0  0  0  0
 21 22  1  0  0  0  0
 21 23  1  0  0  0  0
M  END
$$$$
default_name
  -OEChem-02102213163D

 26 25  0     1  0  0  0  0  0999 V2000
   -3.0232   -3.6924    1.0038 H   0  0  0  0  0  0  0  0  0  0  0  0
   -3.0082   -2.6684    0.6318 C   0  0  0  0  0  0  0  0  0  0  0  0
   -3.6332   -2.0414    1.2658 H   0  0  0  0  0  0  0  0  0  0  0  0
   -3.3762   -2.6444   -0.3912 H   0  0  0  0  0  0  0  0  0  0  0  0
   -1.5882   -2.1554    0.6658 C   0  0  0  0  0  0  0  0  0  0  0  0
   -0.6832   -2.8764    1.0638 O   0  0  0  0  0  0  0  0  0  0  0  0
   -1.3952   -0.9084    0.2428 N   0  0  0  0  0  0  0  0  0  0  0  0
   -2.1972   -0.3644   -0.0422 H   0  0  0  0  0  0  0  0  0  0  0  0
   -0.1122   -0.1994    0.2658 C   0  0  1  0  0  0  0  0  0  0  0  0
    0.6131   -0.7748   -0.3153 H   0  0  0  0  0  0  0  0  0  0  0  0
   -0.2973    1.1841   -0.3966 C   0  0  0  0  0  0  0  0  0  0  0  0
    0.1822    1.9429    0.2207 H   0  0  0  0  0  0  0  0  0  0  0  0
    0.1848    1.1821   -1.3730 H   0  0  0  0  0  0  0  0  0  0  0  0
   -1.7498    1.6021   -0.5596 C   0  0  0  0  0  0  0  0  0  0  0  0
   -2.6844    0.9076   -0.1999 O   0  0  0  0  0  0  0  0  0  0  0  0
   -1.9935    2.7606   -1.1225 N   0  0  0  0  0  0  0  0  0  0  0  0
   -2.9616    3.0181   -1.2010 H   0  0  0  0  0  0  0  0  0  0  0  0
   -1.2420    3.3588   -1.4097 H   0  0  0  0  0  0  0  0  0  0  0  0
    0.4075   -0.0985    1.7169 C   0  0  0  0  0  0  0  0  0  0  0  0
    1.5860   -0.3526    1.9662 O   0  0  0  0  0  0  0  0  0  0  0  0
   -0.4625    0.2583    2.6666 N   0  0  0  0  0  0  0  0  0  0  0  0
   -1.4309    0.3754    2.3860 H   0  0  0  0  0  0  0  0  0  0  0  0
   -0.1275    0.4111    4.0813 C   0  0  0  0  0  0  0  0  0  0  0  0
    0.6862    1.1312    4.1910 H   0  0  0  0  0  0  0  0  0  0  0  0
   -0.9980    0.7641    4.6360 H   0  0  0  0  0  0  0  0  0  0  0  0
    0.1959   -0.5481    4.4891 H   0  0  0  0  0  0  0  0  0  0  0  0
  5  6  2  0  0  0  0
  5  7  1  0  0  0  0
  2  3  1  0  0  0  0
  2  4  1  0  0  0  0
  2  5  1  0  0  0  0
  1  2  1  0  0  0  0
 19 20  2  0  0  0  0
 19 21  1  0  0  0  0
 16 17  1  0  0  0  0
 16 18  1  0  0  0  0
 14 15  2  0  0  0  0
 14 16  1  0  0  0  0
 11 12  1  0  0  0  0
 11 13  1  0  0  0  0
 11 14  1  0  0  0  0
  9 10  1  0  0  0  0
  9 11  1  0  0  0  0
  9 19  1  0  0  0  0
  7  8  1  0  0  0  0
  7  9  1  0  0  0  0
 23 24  1  0  0  0  0
 23 25  1  0  0  0  0
 23 26  1  0  0  0  0
 21 22  1  0  0  0  0
 21 23  1  0  0  0  0
M  END
$$$$
default_name
  -OEChem-02102213163D

 26 25  0     1  0  0  0  0  0999 V2000
   -3.0232   -3.6924    1.0038 H   0  0  0  0  0  0  0  0  0  0  0  0
   -3.0082   -2.6684    0.6318 C   0  0  0  0  0  0  0  0  0  0  0  0
   -3.6332   -2.0414    1.2658 H   0  0  0  0  0  0  0  0  0  0  0  0
   -3.3762   -2.6444   -0.3912 H   0  0  0  0  0  0  0  0  0  0  0  0
   -1.5882   -2.1554    0.6658 C   0  0  0  0  0  0  0  0  0  0  0  0
   -0.6832   -2.8764    1.0638 O   0  0  0  0  0  0  0  0  0  0  0  0
   -1.3952   -0.9084    0.2428 N   0  0  0  0  0  0  0  0  0  0  0  0
   -2.1972   -0.3644   -0.0422 H   0  0  0  0  0  0  0  0  0  0  0  0
   -0.1122   -0.1994    0.2658 C   0  0  1  0  0  0  0  0  0  0  0  0
    0.6131   -0.7748   -0.3153 H   0  0  0  0  0  0  0  0  0  0  0  0
   -0.2973    1.1841   -0.3966 C   0  0  0  0  0  0  0  0  0  0  0  0
    0.1822    1.9429    0.2207 H   0  0  0  0  0  0  0  0  0  0  0  0
    0.1848    1.1821   -1.3730 H   0  0  0  0  0  0  0  0  0  0  0  0
   -1.7498    1.6021   -0.5596 C   0  0  0  0  0  0  0  0  0  0  0  0
   -2.6678    1.0524    0.0237 O   0  0  0  0  0  0  0  0  0  0  0  0
   -2.0130    2.5945   -1.3747 N   0  0  0  0  0  0  0  0  0  0  0  0
   -2.9792    2.8600   -1.4490 H   0  0  0  0  0  0  0  0  0  0  0  0
   -1.2739    3.0754   -1.8517 H   0  0  0  0  0  0  0  0  0  0  0  0
    0.4075   -0.0985    1.7169 C   0  0  0  0  0  0  0  0  0  0  0  0
    1.5860   -0.3526    1.9662 O   0  0  0  0  0  0  0  0  0  0  0  0
   -0.4625    0.2583    2.6666 N   0  0  0  0  0  0  0  0  0  0  0  0
   -1.4309    0.3754    2.3860 H   0  0  0  0  0  0  0  0  0  0  0  0
   -0.1275    0.4111    4.0813 C   0  0  0  0  0  0  0  0  0  0  0  0
    0.6862    1.1312    4.1910 H   0  0  0  0  0  0  0  0  0  0  0  0
   -0.9980    0.7641    4.6360 H   0  0  0  0  0  0  0  0  0  0  0  0
    0.1959   -0.5481    4.4891 H   0  0  0  0  0  0  0  0  0  0  0  0
  5  6  2  0  0  0  0
  5  7  1  0  0  0  0
  2  3  1  0  0  0  0
  2  4  1  0  0  0  0
  2  5  1  0  0  0  0
  1  2  1  0  0  0  0
 19 20  2  0  0  0  0
 19 21  1  0  0  0  0
 16 17  1  0  0  0  0
 16 18  1  0  0  0  0
 14 15  2  0  0  0  0
 14 16  1  0  0  0  0
 11 12  1  0  0  0  0
 11 13  1  0  0  0  0
 11 14  1  0  0  0  0
  9 10  1  0  0  0  0
  9 11  1  0  0  0  0
  9 19  1  0  0  0  0
  7  8  1  0  0  0  0
  7  9  1  0  0  0  0
 23 24  1  0  0  0  0
 23 25  1  0  0  0  0
 23 26  1  0  0  0  0
 21 22  1  0  0  0  0
 21 23  1  0  0  0  0
M  END
$$$$
default_name
  -OEChem-02102213163D

 26 25  0     1  0  0  0  0  0999 V2000
   -3.0232   -3.6924    1.0038 H   0  0  0  0  0  0  0  0  0  0  0  0
   -3.0082   -2.6684    0.6318 C   0  0  0  0  0  0  0  0  0  0  0  0
   -3.6332   -2.0414    1.2658 H   0  0  0  0  0  0  0  0  0  0  0  0
   -3.3762   -2.6444   -0.3912 H   0  0  0  0  0  0  0  0  0  0  0  0
   -1.5882   -2.1554    0.6658 C   0  0  0  0  0  0  0  0  0  0  0  0
   -0.6832   -2.8764    1.0638 O   0  0  0  0  0  0  0  0  0  0  0  0
   -1.3952   -0.9084    0.2428 N   0  0  0  0  0  0  0  0  0  0  0  0
   -2.1972   -0.3644   -0.0422 H   0  0  0  0  0  0  0  0  0  0  0  0
   -0.1122   -0.1994    0.2658 C   0  0  1  0  0  0  0  0  0  0  0  0
    0.6131   -0.7748   -0.3153 H   0  0  0  0  0  0  0  0  0  0  0  0
   -0.2973    1.1841   -0.3966 C   0  0  0  0  0  0  0  0  0  0  0  0
    0.1822    1.9429    0.2207 H   0  0  0  0  0  0  0  0  0  0  0  0
    0.1848    1.1821   -1.3730 H   0  0  0  0  0  0  0  0  0  0  0  0
   -1.7498    1.6021   -0.5596 C   0  0  0  0  0  0  0  0  0  0  0  0
   -2.6319    1.2471    0.2027 O   0  0  0  0  0  0  0  0  0  0  0  0
   -2.0544    2.3721   -1.5758 N   0  0  0  0  0  0  0  0  0  0  0  0
   -3.0183    2.6465   -1.6482 H   0  0  0  0  0  0  0  0  0  0  0  0
   -1.3441    2.6933   -2.2062 H   0  0  0  0  0  0  0  0  0  0  0  0
    0.4075   -0.0985    1.7169 C   0  0  0  0  0  0  0  0  0  0  0  0
    1.5860   -0.3526    1.9662 O   0  0  0  0  0  0  0  0  0  0  0  0
   -0.4625    0.2583    2.6666 N   0  0  0  0  0  0  0  0  0  0  0  0
   -1.4309    0.3754    2.3860 H   0  0  0  0  0  0  0  0  0  0  0  0
   -0.1275    0.4111    4.0813 C   0  0  0  0  0  0  0  0  0  0  0  0
    0.6862    1.1312    4.1910 H   0  0  0  0  0  0  0  0  0  0  0  0
   -0.9980    0.7641    4.6360 H   0  0  0  0  0  0  0  0  0  0  0  0
    0.1959   -0.5481    4.4891 H   0  0  0  0  0  0  0  0  0  0  0  0
  5  6  2  0  0  0  0
  5  7  1  0  0  0  0
  2  3  1  0  0  0  0
  2  4  1  0  0  0  0
  2  5  1  0  0  0  0
  1  2  1  0  0  0  0
 19 20  2  0  0  0  0
 19 21  1  0  0  0  0
 16 17  1  0  0  0  0
 16 18  1  0  0  0  0
 14 15  2  0  0  0  0
 14 16  1  0  0  0  0
 11 12  1  0  0  0  0
 11 13  1  0  0  0  0
 11 14  1  0  0  0  0
  9 10  1  0  0  0  0
  9 11  1  0  0  0  0
  9 19  1  0  0  0  0
  7  8  1  0  0  0  0
  7  9  1  0  0  0  0
 23 24  1  0  0  0  0
 23 25  1  0  0  0  0
 23 26  1  0  0  0  0
 21 22  1  0  0  0  0
 21 23  1  0  0  0  0
M  END
$$$$
default_name
  -OEChem-02102213163D

 26 25  0     1  0  0  0  0  0999 V2000
   -3.0232   -3.6924    1.0038 H   0  0  0  0  0  0  0  0  0  0  0  0
   -3.0082   -2.6684    0.6318 C   0  0  0  0  0  0  0  0  0  0  0  0
   -3.6332   -2.0414    1.2658 H   0  0  0  0  0  0  0  0  0  0  0  0
   -3.3762   -2.6444   -0.3912 H   0  0  0  0  0  0  0  0  0  0  0  0
   -1.5882   -2.1554    0.6658 C   0  0  0  0  0  0  0  0  0  0  0  0
   -0.6832   -2.8764    1.0638 O   0  0  0  0  0  0  0  0  0  0  0  0
   -1.3952   -0.9084    0.2428 N   0  0  0  0  0  0  0  0  0  0  0  0
   -2.1972   -0.3644   -0.0422 H   0  0  0  0  0  0  0  0  0  0  0  0
   -0.1122   -0.1994    0.2658 C   0  0  1  0  0  0  0  0  0  0  0  0
    0.6131   -0.7748   -0.3153 H   0  0  0  0  0  0  0  0  0  0  0  0
   -0.2973    1.1841   -0.3966 C   0  0  0  0  0  0  0  0  0  0  0  0
    0.1822    1.9429    0.2207 H   0  0  0  0  0  0  0  0  0  0  0  0
    0.1848    1.1821   -1.3730 H   0  0  0  0  0  0  0  0  0  0  0  0
   -1.7498    1.6021   -0.5596 C   0  0  0  0  0  0  0  0  0  0  0  0
   -2.5790    1.4784    0.3248 O   0  0  0  0  0  0  0  0  0  0  0  0
   -2.1149    2.1088   -1.7122 N   0  0  0  0  0  0  0  0  0  0  0  0
   -3.0762    2.3921   -1.7850 H   0  0  0  0  0  0  0  0  0  0  0  0
   -1.4477    2.2386   -2.4491 H   0  0  0  0  0  0  0  0  0  0  0  0
    0.4075   -0.0985    1.7169 C   0  0  0  0  0  0  0  0  0  0  0  0
    1.5860   -0.3526    1.9662 O   0  0  0  0  0  0  0  0  0  0  0  0
   -0.4625    0.2583    2.6666 N   0  0  0  0  0  0  0  0  0  0  0  0
   -1.4309    0.3754    2.3860 H   0  0  0  0  0  0  0  0  0  0  0  0
   -0.1275    0.4111    4.0813 C   0  0  0  0  0  0  0  0  0  0  0  0
    0.6862    1.1312    4.1910 H   0  0  0  0  0  0  0  0  0  0  0  0
   -0.9980    0.7641    4.6360 H   0  0  0  0  0  0  0  0  0  0  0  0
    0.1959   -0.5481    4.4891 H   0  0  0  0  0  0  0  0  0  0  0  0
  5  6  2  0  0  0  0
  5  7  1  0  0  0  0
  2  3  1  0  0  0  0
  2  4  1  0  0  0  0
  2  5  1  0  0  0  0
  1  2  1  0  0  0  0
 19 20  2  0  0  0  0
 19 21  1  0  0  0  0
 16 17  1  0  0  0  0
 16 18  1  0  0  0  0
 14 15  2  0  0  0  0
 14 16  1  0  0  0  0
 11 12  1  0  0  0  0
 11 13  1  0  0  0  0
 11 14  1  0  0  0  0
  9 10  1  0  0  0  0
  9 11  1  0  0  0  0
  9 19  1  0  0  0  0
  7  8  1  0  0  0  0
  7  9  1  0  0  0  0
 23 24  1  0  0  0  0
 23 25  1  0  0  0  0
 23 26  1  0  0  0  0
 21 22  1  0  0  0  0
 21 23  1  0  0  0  0
M  END
$$$$
default_name
  -OEChem-02102213163D

 26 25  0     1  0  0  0  0  0999 V2000
   -3.0232   -3.6924    1.0038 H   0  0  0  0  0  0  0  0  0  0  0  0
   -3.0082   -2.6684    0.6318 C   0  0  0  0  0  0  0  0  0  0  0  0
   -3.6332   -2.0414    1.2658 H   0  0  0  0  0  0  0  0  0  0  0  0
   -3.3762   -2.6444   -0.3912 H   0  0  0  0  0  0  0  0  0  0  0  0
   -1.5882   -2.1554    0.6658 C   0  0  0  0  0  0  0  0  0  0  0  0
   -0.6832   -2.8764    1.0638 O   0  0  0  0  0  0  0  0  0  0  0  0
   -1.3952   -0.9084    0.2428 N   0  0  0  0  0  0  0  0  0  0  0  0
   -2.1972   -0.3644   -0.0422 H   0  0  0  0  0  0  0  0  0  0  0  0
   -0.1122   -0.1994    0.2658 C   0  0  1  0  0  0  0  0  0  0  0  0
    0.6131   -0.7748   -0.3153 H   0  0  0  0  0  0  0  0  0  0  0  0
   -0.2973    1.1841   -0.3966 C   0  0  0  0  0  0  0  0  0  0  0  0
    0.1822    1.9429    0.2207 H   0  0  0  0  0  0  0  0  0  0  0  0
    0.1848    1.1821   -1.3730 H   0  0  0  0  0  0  0  0  0  0  0  0
   -1.7498    1.6021   -0.5596 C   0  0  0  0  0  0  0  0  0  0  0  0
   -2.5129    1.7306    0.3819 O   0  0  0  0  0  0  0  0  0  0  0  0
   -2.1903    1.8224   -1.7745 N   0  0  0  0  0  0  0  0  0  0  0  0
   -3.1489    2.1141   -1.8501 H   0  0  0  0  0  0  0  0  0  0  0  0
   -1.5777    1.7421   -2.5640 H   0  0  0  0  0  0  0  0  0  0  0  0
    0.4075   -0.0985    1.7169 C   0  0  0  0  0  0  0  0  0  0  0  0
    1.5860   -0.3526    1.9662 O   0  0  0  0  0  0  0  0  0  0  0  0
   -0.4625    0.2583    2.6666 N   0  0  0  0  0  0  0  0  0  0  0  0
   -1.4309    0.3754    2.3860 H   0  0  0  0  0  0  0  0  0  0  0  0
   -0.1275    0.4111    4.0813 C   0  0  0  0  0  0  0  0  0  0  0  0
    0.6862    1.1312    4.1910 H   0  0  0  0  0  0  0  0  0  0  0  0
   -0.9980    0.7641    4.6360 H   0  0  0  0  0  0  0  0  0  0  0  0
    0.1959   -0.5481    4.4891 H   0  0  0  0  0  0  0  0  0  0  0  0
  5  6  2  0  0  0  0
  5  7  1  0  0  0  0
  2  3  1  0  0  0  0
  2  4  1  0  0  0  0
  2  5  1  0  0  0  0
  1  2  1  0  0  0  0
 19 20  2  0  0  0  0
 19 21  1  0  0  0  0
 16 17  1  0  0  0  0
 16 18  1  0  0  0  0
 14 15  2  0  0  0  0
 14 16  1  0  0  0  0
 11 12  1  0  0  0  0
 11 13  1  0  0  0  0
 11 14  1  0  0  0  0
  9 10  1  0  0  0  0
  9 11  1  0  0  0  0
  9 19  1  0  0  0  0
  7  8  1  0  0  0  0
  7  9  1  0  0  0  0
 23 24  1  0  0  0  0
 23 25  1  0  0  0  0
 23 26  1  0  0  0  0
 21 22  1  0  0  0  0
 21 23  1  0  0  0  0
M  END
$$$$
default_name
  -OEChem-02102213163D

 26 25  0     1  0  0  0  0  0999 V2000
   -3.0232   -3.6924    1.0038 H   0  0  0  0  0  0  0  0  0  0  0  0
   -3.0082   -2.6684    0.6318 C   0  0  0  0  0  0  0  0  0  0  0  0
   -3.6332   -2.0414    1.2658 H   0  0  0  0  0  0  0  0  0  0  0  0
   -3.3762   -2.6444   -0.3912 H   0  0  0  0  0  0  0  0  0  0  0  0
   -1.5882   -2.1554    0.6658 C   0  0  0  0  0  0  0  0  0  0  0  0
   -0.6832   -2.8764    1.0638 O   0  0  0  0  0  0  0  0  0  0  0  0
   -1.3952   -0.9084    0.2428 N   0  0  0  0  0  0  0  0  0  0  0  0
   -2.1972   -0.3644   -0.0422 H   0  0  0  0  0  0  0  0  0  0  0  0
   -0.1122   -0.1994    0.2658 C   0  0  1  0  0  0  0  0  0  0  0  0
    0.6131   -0.7748   -0.3153 H   0  0  0  0  0  0  0  0  0  0  0  0
   -0.2973    1.1841   -0.3966 C   0  0  0  0  0  0  0  0  0  0  0  0
    0.1822    1.9429    0.2207 H   0  0  0  0  0  0  0  0  0  0  0  0
    0.1848    1.1821   -1.3730 H   0  0  0  0  0  0  0  0  0  0  0  0
   -1.7498    1.6021   -0.5596 C   0  0  0  0  0  0  0  0  0  0  0  0
   -2.4379    1.9864    0.3699 O   0  0  0  0  0  0  0  0  0  0  0  0
   -2.2755    1.5324   -1.7584 N   0  0  0  0  0  0  0  0  0  0  0  0
   -3.2314    1.8315   -1.8391 H   0  0  0  0  0  0  0  0  0  0  0  0
   -1.7252    1.2377   -2.5428 H   0  0  0  0  0  0  0  0  0  0  0  0
    0.4075   -0.0985    1.7169 C   0  0  0  0  0  0  0  0  0  0  0  0
    1.5860   -0.3526    1.9662 O   0  0  0  0  0  0  0  0  0  0  0  0
   -0.4625    0.2583    2.6666 N   0  0  0  0  0  0  0  0  0  0  0  0
   -1.4309    0.3754    2.3860 H   0  0  0  0  0  0  0  0  0  0  0  0
   -0.1275    0.4111    4.0813 C   0  0  0  0  0  0  0  0  0  0  0  0
    0.6862    1.1312    4.1910 H   0  0  0  0  0  0  0  0  0  0  0  0
   -0.9980    0.7641    4.6360 H   0  0  0  0  0  0  0  0  0  0  0  0
    0.1959   -0.5481    4.4891 H   0  0  0  0  0  0  0  0  0  0  0  0
  5  6  2  0  0  0  0
  5  7  1  0  0  0  0
  2  3  1  0  0  0  0
  2  4  1  0  0  0  0
  2  5  1  0  0  0  0
  1  2  1  0  0  0  0
 19 20  2  0  0  0  0
 19 21  1  0  0  0  0
 16 17  1  0  0  0  0
 16 18  1  0  0  0  0
 14 15  2  0  0  0  0
 14 16  1  0  0  0  0
 11 12  1  0  0  0  0
 11 13  1  0  0  0  0
 11 14  1  0  0  0  0
  9 10  1  0  0  0  0
  9 11  1  0  0  0  0
  9 19  1  0  0  0  0
  7  8  1  0  0  0  0
  7  9  1  0  0  0  0
 23 24  1  0  0  0  0
 23 25  1  0  0  0  0
 23 26  1  0  0  0  0
 21 22  1  0  0  0  0
 21 23  1  0  0  0  0
M  END
$$$$
default_name
  -OEChem-02102213163D

 26 25  0     1  0  0  0  0  0999 V2000
   -3.0232   -3.6924    1.0038 H   0  0  0  0  0  0  0  0  0  0  0  0
   -3.0082   -2.6684    0.6318 C   0  0  0  0  0  0  0  0  0  0  0  0
   -3.6332   -2.0414    1.2658 H   0  0  0  0  0  0  0  0  0  0  0  0
   -3.3762   -2.6444   -0.3912 H   0  0  0  0  0  0  0  0  0  0  0  0
   -1.5882   -2.1554    0.6658 C   0  0  0  0  0  0  0  0  0  0  0  0
   -0.6832   -2.8764    1.0638 O   0  0  0  0  0  0  0  0  0  0  0  0
   -1.3952   -0.9084    0.2428 N   0  0  0  0  0  0  0  0  0  0  0  0
   -2.1972   -0.3644   -0.0422 H   0  0  0  0  0  0  0  0  0  0  0  0
   -0.1122   -0.1994    0.2658 C   0  0  1  0  0  0  0  0  0  0  0  0
    0.6131   -0.7748   -0.3153 H   0  0  0  0  0  0  0  0  0  0  0  0
   -0.2973    1.1841   -0.3966 C   0  0  0  0  0  0  0  0  0  0  0  0
    0.1822    1.9429    0.2207 H   0  0  0  0  0  0  0  0  0  0  0  0
    0.1848    1.1821   -1.3730 H   0  0  0  0  0  0  0  0  0  0  0  0
   -1.7498    1.6021   -0.5596 C   0  0  0  0  0  0  0  0  0  0  0  0
   -2.3592    2.2285    0.2897 O   0  0  0  0  0  0  0  0  0  0  0  0
   -2.3648    1.2587   -1.6652 N   0  0  0  0  0  0  0  0  0  0  0  0
   -3.3182    1.5636   -1.7527 H   0  0  0  0  0  0  0  0  0  0  0  0
   -1.8802    0.7598   -2.3872 H   0  0  0  0  0  0  0  0  0  0  0  0
    0.4075   -0.0985    1.7169 C   0  0  0  0  0  0  0  0  0  0  0  0
    1.5860   -0.3526    1.9662 O   0  0  0  0  0  0  0  0  0  0  0  0
   -0.4625    0.2583    2.6666 N   0  0  0  0  0  0  0  0  0  0  0  0
   -1.4309    0.3754    2.3860 H   0  0  0  0  0  0  0  0  0  0  0  0
   -0.1275    0.4111    4.0813 C   0  0  0  0  0  0  0  0  0  0  0  0
    0.6862    1.1312    4.1910 H   0  0  0  0  0  0  0  0  0  0  0  0
   -0.9980    0.7641    4.6360 H   0  0  0  0  0  0  0  0  0  0  0  0
    0.1959   -0.5481    4.4891 H   0  0  0  0  0  0  0  0  0  0  0  0
  5  6  2  0  0  0  0
  5  7  1  0  0  0  0
  2  3  1  0  0  0  0
  2  4  1  0  0  0  0
  2  5  1  0  0  0  0
  1  2  1  0  0  0  0
 19 20  2  0  0  0  0
 19 21  1  0  0  0  0
 16 17  1  0  0  0  0
 16 18  1  0  0  0  0
 14 15  2  0  0  0  0
 14 16  1  0  0  0  0
 11 12  1  0  0  0  0
 11 13  1  0  0  0  0
 11 14  1  0  0  0  0
  9 10  1  0  0  0  0
  9 11  1  0  0  0  0
  9 19  1  0  0  0  0
  7  8  1  0  0  0  0
  7  9  1  0  0  0  0
 23 24  1  0  0  0  0
 23 25  1  0  0  0  0
 23 26  1  0  0  0  0
 21 22  1  0  0  0  0
 21 23  1  0  0  0  0
M  END
$$$$
default_name
  -OEChem-02102213163D

 26 25  0     1  0  0  0  0  0999 V2000
   -3.0232   -3.6924    1.0038 H   0  0  0  0  0  0  0  0  0  0  0  0
   -3.0082   -2.6684    0.6318 C   0  0  0  0  0  0  0  0  0  0  0  0
   -3.6332   -2.0414    1.2658 H   0  0  0  0  0  0  0  0  0  0  0  0
   -3.3762   -2.6444   -0.3912 H   0  0  0  0  0  0  0  0  0  0  0  0
   -1.5882   -2.1554    0.6658 C   0  0  0  0  0  0  0  0  0  0  0  0
   -0.6832   -2.8764    1.0638 O   0  0  0  0  0  0  0  0  0  0  0  0
   -1.3952   -0.9084    0.2428 N   0  0  0  0  0  0  0  0  0  0  0  0
   -2.1972   -0.3644   -0.0422 H   0  0  0  0  0  0  0  0  0  0  0  0
   -0.1122   -0.1994    0.2658 C   0  0  1  0  0  0  0  0  0  0  0  0
    0.6131   -0.7748   -0.3153 H   0  0  0  0  0  0  0  0  0  0  0  0
   -0.2973    1.1841   -0.3966 C   0  0  0  0  0  0  0  0  0  0  0  0
    0.1822    1.9429    0.2207 H   0  0  0  0  0  0  0  0  0  0  0  0
    0.1848    1.1821   -1.3730 H   0  0  0  0  0  0  0  0  0  0  0  0
   -1.7498    1.6021   -0.5596 C   0  0  0  0  0  0  0  0  0  0  0  0
   -2.2822    2.4403    0.1468 O   0  0  0  0  0  0  0  0  0  0  0  0
   -2.4519    1.0198   -1.5011 N   0  0  0  0  0  0  0  0  0  0  0  0
   -3.4034    1.3285   -1.5968 H   0  0  0  0  0  0  0  0  0  0  0  0
   -2.0321    0.3411   -2.1077 H   0  0  0  0  0  0  0  0  0  0  0  0
    0.4075   -0.0985    1.7169 C   0  0  0  0  0  0  0  0  0  0  0  0
    1.5860   -0.3526    1.9662 O   0  0  0  0  0  0  0  0  0  0  0  0
   -0.4625    0.2583    2.6666 N   0  0  0  0  0  0  0  0  0  0  0  0
   -1.4309    0.3754    2.3860 H   0  0  0  0  0  0  0  0  0  0  0  0
   -0.1275    0.4111    4.0813 C   0  0  0  0  0  0  0  0  0  0  0  0
    0.6862    1.1312    4.1910 H   0  0  0  0  0  0  0  0  0  0  0  0
   -0.9980    0.7641    4.6360 H   0  0  0  0  0  0  0  0  0  0  0  0
    0.1959   -0.5481    4.4891 H   0  0  0  0  0  0  0  0  0  0  0  0
  5  6  2  0  0  0  0
  5  7  1  0  0  0  0
  2  3  1  0  0  0  0
  2  4  1  0  0  0  0
  2  5  1  0  0  0  0
  1  2  1  0  0  0  0
 19 20  2  0  0  0  0
 19 21  1  0  0  0  0
 16 17  1  0  0  0  0
 16 18  1  0  0  0  0
 14 15  2  0  0  0  0
 14 16  1  0  0  0  0
 11 12  1  0  0  0  0
 11 13  1  0  0  0  0
 11 14  1  0  0  0  0
  9 10  1  0  0  0  0
  9 11  1  0  0  0  0
  9 19  1  0  0  0  0
  7  8  1  0  0  0  0
  7  9  1  0  0  0  0
 23 24  1  0  0  0  0
 23 25  1  0  0  0  0
 23 26  1  0  0  0  0
 21 22  1  0  0  0  0
 21 23  1  0  0  0  0
M  END
$$$$
default_name
  -OEChem-02102213163D

 26 25  0     1  0  0  0  0  0999 V2000
   -3.0232   -3.6924    1.0038 H   0  0  0  0  0  0  0  0  0  0  0  0
   -3.0082   -2.6684    0.6318 C   0  0  0  0  0  0  0  0  0  0  0  0
   -3.6332   -2.0414    1.2658 H   0  0  0  0  0  0  0  0  0  0  0  0
   -3.3762   -2.6444   -0.3912 H   0  0  0  0  0  0  0  0  0  0  0  0
   -1.5882   -2.1554    0.6658 C   0  0  0  0  0  0  0  0  0  0  0  0
   -0.6832   -2.8764    1.0638 O   0  0  0  0  0  0  0  0  0  0  0  0
   -1.3952   -0.9084    0.2428 N   0  0  0  0  0  0  0  0  0  0  0  0
   -2.1972   -0.3644   -0.0422 H   0  0  0  0  0  0  0  0  0  0  0  0
   -0.1122   -0.1994    0.2658 C   0  0  1  0  0  0  0  0  0  0  0  0
    0.6131   -0.7748   -0.3153 H   0  0  0  0  0  0  0  0  0  0  0  0
   -0.2973    1.1841   -0.3966 C   0  0  0  0  0  0  0  0  0  0  0  0
    0.1822    1.9429    0.2207 H   0  0  0  0  0  0  0  0  0  0  0  0
    0.1848    1.1821   -1.3730 H   0  0  0  0  0  0  0  0  0  0  0  0
   -1.7498    1.6021   -0.5596 C   0  0  0  0  0  0  0  0  0  0  0  0
   -2.2121    2.6075   -0.0491 O   0  0  0  0  0  0  0  0  0  0  0  0
   -2.5311    0.8320   -1.2773 N   0  0  0  0  0  0  0  0  0  0  0  0
   -3.4810    1.1424   -1.3821 H   0  0  0  0  0  0  0  0  0  0  0  0
   -2.1705    0.0099   -1.7234 H   0  0  0  0  0  0  0  0  0  0  0  0
    0.4075   -0.0985    1.7169 C   0  0  0  0  0  0  0  0  0  0  0  0
    1.5860   -0.3526    1.9662 O   0  0  0  0  0  0  0  0  0  0  0  0
   -0.4625    0.2583    2.6666 N   0  0  0  0  0  0  0  0  0  0  0  0
   -1.4309    0.3754    2.3860 H   0  0  0  0  0  0  0  0  0  0  0  0
   -0.1275    0.4111    4.0813 C   0  0  0  0  0  0  0  0  0  0  0  0
    0.6862    1.1312    4.1910 H   0  0  0  0  0  0  0  0  0  0  0  0
   -0.9980    0.7641    4.6360 H   0  0  0  0  0  0  0  0  0  0  0  0
    0.1959   -0.5481    4.4891 H   0  0  0  0  0  0  0  0  0  0  0  0
  5  6  2  0  0  0  0
  5  7  1  0  0  0  0
  2  3  1  0  0  0  0
  2  4  1  0  0  0  0
  2  5  1  0  0  0  0
  1  2  1  0  0  0  0
 19 20  2  0  0  0  0
 19 21  1  0  0  0  0
 16 17  1  0  0  0  0
 16 18  1  0  0  0  0
 14 15  2  0  0  0  0
 14 16  1  0  0  0  0
 11 12  1  0  0  0  0
 11 13  1  0  0  0  0
 11 14  1  0  0  0  0
  9 10  1  0  0  0  0
  9 11  1  0  0  0  0
  9 19  1  0  0  0  0
  7  8  1  0  0  0  0
  7  9  1  0  0  0  0
 23 24  1  0  0  0  0
 23 25  1  0  0  0  0
 23 26  1  0  0  0  0
 21 22  1  0  0  0  0
 21 23  1  0  0  0  0
M  END
$$$$
default_name
  -OEChem-02102213163D

 26 25  0     1  0  0  0  0  0999 V2000
   -3.0232   -3.6924    1.0038 H   0  0  0  0  0  0  0  0  0  0  0  0
   -3.0082   -2.6684    0.6318 C   0  0  0  0  0  0  0  0  0  0  0  0
   -3.6332   -2.0414    1.2658 H   0  0  0  0  0  0  0  0  0  0  0  0
   -3.3762   -2.6444   -0.3912 H   0  0  0  0  0  0  0  0  0  0  0  0
   -1.5882   -2.1554    0.6658 C   0  0  0  0  0  0  0  0  0  0  0  0
   -0.6832   -2.8764    1.0638 O   0  0  0  0  0  0  0  0  0  0  0  0
   -1.3952   -0.9084    0.2428 N   0  0  0  0  0  0  0  0  0  0  0  0
   -2.1972   -0.3644   -0.0422 H   0  0  0  0  0  0  0  0  0  0  0  0
   -0.1122   -0.1994    0.2658 C   0  0  1  0  0  0  0  0  0  0  0  0
    0.6131   -0.7748   -0.3153 H   0  0  0  0  0  0  0  0  0  0  0  0
   -0.2973    1.1841   -0.3966 C   0  0  0  0  0  0  0  0  0  0  0  0
    0.1822    1.9429    0.2207 H   0  0  0  0  0  0  0  0  0  0  0  0
    0.1848    1.1821   -1.3730 H   0  0  0  0  0  0  0  0  0  0  0  0
   -1.7498    1.6021   -0.5596 C   0  0  0  0  0  0  0  0  0  0  0  0
   -2.1537    2.7185   -0.2846 O   0  0  0  0  0  0  0  0  0  0  0  0
   -2.5968    0.7082   -1.0090 N   0  0  0  0  0  0  0  0  0  0  0  0
   -3.5459    1.0179   -1.1231 H   0  0  0  0  0  0  0  0  0  0  0  0
   -2.2861   -0.2112   -1.2604 H   0  0  0  0  0  0  0  0  0  0  0  0
    0.4075   -0.0985    1.7169 C   0  0  0  0  0  0  0  0  0  0  0  0
    1.5860   -0.3526    1.9662 O   0  0  0  0  0  0  0  0  0  0  0  0
   -0.4625    0.2583    2.6666 N   0  0  0  0  0  0  0  0  0  0  0  0
   -1.4309    0.3754    2.3860 H   0  0  0  0  0  0  0  0  0  0  0  0
   -0.1275    0.4111    4.0813 C   0  0  0  0  0  0  0  0  0  0  0  0
    0.6862    1.1312    4.1910 H   0  0  0  0  0  0  0  0  0  0  0  0
   -0.9980    0.7641    4.6360 H   0  0  0  0  0  0  0  0  0  0  0  0
    0.1959   -0.5481    4.4891 H   0  0  0  0  0  0  0  0  0  0  0  0
  5  6  2  0  0  0  0
  5  7  1  0  0  0  0
  2  3  1  0  0  0  0
  2  4  1  0  0  0  0
  2  5  1  0  0  0  0
  1  2  1  0  0  0  0
 19 20  2  0  0  0  0
 19 21  1  0  0  0  0
 16 17  1  0  0  0  0
 16 18  1  0  0  0  0
 14 15  2  0  0  0  0
 14 16  1  0  0  0  0
 11 12  1  0  0  0  0
 11 13  1  0  0  0  0
 11 14  1  0  0  0  0
  9 10  1  0  0  0  0
  9 11  1  0  0  0  0
  9 19  1  0  0  0  0
  7  8  1  0  0  0  0
  7  9  1  0  0  0  0
 23 24  1  0  0  0  0
 23 25  1  0  0  0  0
 23 26  1  0  0  0  0
 21 22  1  0  0  0  0
 21 23  1  0  0  0  0
M  END
$$$$
default_name
  -OEChem-02102213163D

 26 25  0     1  0  0  0  0  0999 V2000
   -3.0232   -3.6924    1.0038 H   0  0  0  0  0  0  0  0  0  0  0  0
   -3.0082   -2.6684    0.6318 C   0  0  0  0  0  0  0  0  0  0  0  0
   -3.6332   -2.0414    1.2658 H   0  0  0  0  0  0  0  0  0  0  0  0
   -3.3762   -2.6444   -0.3912 H   0  0  0  0  0  0  0  0  0  0  0  0
   -1.5882   -2.1554    0.6658 C   0  0  0  0  0  0  0  0  0  0  0  0
   -0.6832   -2.8764    1.0638 O   0  0  0  0  0  0  0  0  0  0  0  0
   -1.3952   -0.9084    0.2428 N   0  0  0  0  0  0  0  0  0  0  0  0
   -2.1972   -0.3644   -0.0422 H   0  0  0  0  0  0  0  0  0  0  0  0
   -0.1122   -0.1994    0.2658 C   0  0  1  0  0  0  0  0  0  0  0  0
    0.6131   -0.7748   -0.3153 H   0  0  0  0  0  0  0  0  0  0  0  0
   -0.2973    1.1841   -0.3966 C   0  0  0  0  0  0  0  0  0  0  0  0
    0.1822    1.9429    0.2207 H   0  0  0  0  0  0  0  0  0  0  0  0
    0.1848    1.1821   -1.3730 H   0  0  0  0  0  0  0  0  0  0  0  0
   -1.7498    1.6021   -0.5596 C   0  0  0  0  0  0  0  0  0  0  0  0
   -2.1110    2.7659   -0.5437 O   0  0  0  0  0  0  0  0  0  0  0  0
   -2.6447    0.6568   -0.7146 N   0  0  0  0  0  0  0  0  0  0  0  0
   -3.5937    0.9635   -0.8375 H   0  0  0  0  0  0  0  0  0  0  0  0
   -2.3709   -0.3069   -0.7503 H   0  0  0  0  0  0  0  0  0  0  0  0
    0.4075   -0.0985    1.7169 C   0  0  0  0  0  0  0  0  0  0  0  0
    1.5860   -0.3526    1.9662 O   0  0  0  0  0  0  0  0  0  0  0  0
   -0.4625    0.2583    2.6666 N   0  0  0  0  0  0  0  0  0  0  0  0
   -1.4309    0.3754    2.3860 H   0  0  0  0  0  0  0  0  0  0  0  0
   -0.1275    0.4111    4.0813 C   0  0  0  0  0  0  0  0  0  0  0  0
    0.6862    1.1312    4.1910 H   0  0  0  0  0  0  0  0  0  0  0  0
   -0.9980    0.7641    4.6360 H   0  0  0  0  0  0  0  0  0  0  0  0
    0.1959   -0.5481    4.4891 H   0  0  0  0  0  0  0  0  0  0  0  0
  5  6  2  0  0  0  0
  5  7  1  0  0  0  0
  2  3  1  0  0  0  0
  2  4  1  0  0  0  0
  2  5  1  0  0  0  0
  1  2  1  0  0  0  0
 19 20  2  0  0  0  0
 19 21  1  0  0  0  0
 16 17  1  0  0  0  0
 16 18  1  0  0  0  0
 14 15  2  0  0  0  0
 14 16  1  0  0  0  0
 11 12  1  0  0  0  0
 11 13  1  0  0  0  0
 11 14  1  0  0  0  0
  9 10  1  0  0  0  0
  9 11  1  0  0  0  0
  9 19  1  0  0  0  0
  7  8  1  0  0  0  0
  7  9  1  0  0  0  0
 23 24  1  0  0  0  0
 23 25  1  0  0  0  0
 23 26  1  0  0  0  0
 21 22  1  0  0  0  0
 21 23  1  0  0  0  0
M  END
$$$$
default_name
  -OEChem-02102213163D

 26 25  0     1  0  0  0  0  0999 V2000
   -3.0232   -3.6924    1.0038 H   0  0  0  0  0  0  0  0  0  0  0  0
   -3.0082   -2.6684    0.6318 C   0  0  0  0  0  0  0  0  0  0  0  0
   -3.6332   -2.0414    1.2658 H   0  0  0  0  0  0  0  0  0  0  0  0
   -3.3762   -2.6444   -0.3912 H   0  0  0  0  0  0  0  0  0  0  0  0
   -1.5882   -2.1554    0.6658 C   0  0  0  0  0  0  0  0  0  0  0  0
   -0.6832   -2.8764    1.0638 O   0  0  0  0  0  0  0  0  0  0  0  0
   -1.3952   -0.9084    0.2428 N   0  0  0  0  0  0  0  0  0  0  0  0
   -2.1972   -0.3644   -0.0422 H   0  0  0  0  0  0  0  0  0  0  0  0
   -0.1122   -0.1994    0.2658 C   0  0  1  0  0  0  0  0  0  0  0  0
    0.6131   -0.7748   -0.3153 H   0  0  0  0  0  0  0  0  0  0  0  0
   -0.2973    1.1841   -0.3966 C   0  0  0  0  0  0  0  0  0  0  0  0
    0.1822    1.9429    0.2207 H   0  0  0  0  0  0  0  0  0  0  0  0
    0.1848    1.1821   -1.3730 H   0  0  0  0  0  0  0  0  0  0  0  0
   -1.7498    1.6021   -0.5596 C   0  0  0  0  0  0  0  0  0  0  0  0
   -2.0869    2.7464   -0.8088 O   0  0  0  0  0  0  0  0  0  0  0  0
   -2.6714    0.6813   -0.4142 N   0  0  0  0  0  0  0  0  0  0  0  0
   -3.6209    0.9828   -0.5448 H   0  0  0  0  0  0  0  0  0  0  0  0
   -2.4192   -0.2710   -0.2278 H   0  0  0  0  0  0  0  0  0  0  0  0
    0.4075   -0.0985    1.7169 C   0  0  0  0  0  0  0  0  0  0  0  0
    1.5860   -0.3526    1.9662 O   0  0  0  0  0  0  0  0  0  0  0  0
   -0.4625    0.2583    2.6666 N   0  0  0  0  0  0  0  0  0  0  0  0
   -1.4309    0.3754    2.3860 H   0  0  0  0  0  0  0  0  0  0  0  0
   -0.1275    0.4111    4.0813 C   0  0  0  0  0  0  0  0  0  0  0  0
    0.6862    1.1312    4.1910 H   0  0  0  0  0  0  0  0  0  0  0  0
   -0.9980    0.7641    4.6360 H   0  0  0  0  0  0  0  0  0  0  0  0
    0.1959   -0.5481    4.4891 H   0  0  0  0  0  0  0  0  0  0  0  0
  5  6  2  0  0  0  0
  5  7  1  0  0  0  0
  2  3  1  0  0  0  0
  2  4  1  0  0  0  0
  2  5  1  0  0  0  0
  1  2  1  0  0  0  0
 19 20  2  0  0  0  0
 19 21  1  0  0  0  0
 16 17  1  0  0  0  0
 16 18  1  0  0  0  0
 14 15  2  0  0  0  0
 14 16  1  0  0  0  0
 11 12  1  0  0  0  0
 11 13  1  0  0  0  0
 11 14  1  0  0  0  0
  9 10  1  0  0  0  0
  9 11  1  0  0  0  0
  9 19  1  0  0  0  0
  7  8  1  0  0  0  0
  7  9  1  0  0  0  0
 23 24  1  0  0  0  0
 23 25  1  0  0  0  0
 23 26  1  0  0  0  0
 21 22  1  0  0  0  0
 21 23  1  0  0  0  0
M  END
$$$$
default_name
  -OEChem-02102213163D

 26 25  0     1  0  0  0  0  0999 V2000
   -3.0232   -3.6924    1.0038 H   0  0  0  0  0  0  0  0  0  0  0  0
   -3.0082   -2.6684    0.6318 C   0  0  0  0  0  0  0  0  0  0  0  0
   -3.6332   -2.0414    1.2658 H   0  0  0  0  0  0  0  0  0  0  0  0
   -3.3762   -2.6444   -0.3912 H   0  0  0  0  0  0  0  0  0  0  0  0
   -1.5882   -2.1554    0.6658 C   0  0  0  0  0  0  0  0  0  0  0  0
   -0.6832   -2.8764    1.0638 O   0  0  0  0  0  0  0  0  0  0  0  0
   -1.3952   -0.9084    0.2428 N   0  0  0  0  0  0  0  0  0  0  0  0
   -2.1972   -0.3644   -0.0422 H   0  0  0  0  0  0  0  0  0  0  0  0
   -0.1122   -0.1994    0.2658 C   0  0  1  0  0  0  0  0  0  0  0  0
    0.6131   -0.7748   -0.3153 H   0  0  0  0  0  0  0  0  0  0  0  0
   -0.2973    1.1841   -0.3966 C   0  0  0  0  0  0  0  0  0  0  0  0
    0.3917    1.8939    0.0598 H   0  0  0  0  0  0  0  0  0  0  0  0
   -0.0596    1.1094   -1.4567 H   0  0  0  0  0  0  0  0  0  0  0  0
   -1.6943    1.7628   -0.2395 C   0  0  0  0  0  0  0  0  0  0  0  0
   -2.0198    2.8442   -0.6977 O   0  0  0  0  0  0  0  0  0  0  0  0
   -2.5759    1.0600    0.4292 N   0  0  0  0  0  0  0  0  0  0  0  0
   -3.4951    1.4593    0.5018 H   0  0  0  0  0  0  0  0  0  0  0  0
   -2.3386    0.1592    0.7997 H   0  0  0  0  0  0  0  0  0  0  0  0
    0.4075   -0.0985    1.7169 C   0  0  0  0  0  0  0  0  0  0  0  0
    1.5860   -0.3526    1.9662 O   0  0  0  0  0  0  0  0  0  0  0  0
   -0.4625    0.2583    2.6666 N   0  0  0  0  0  0  0  0  0  0  0  0
   -1.4309    0.3754    2.3860 H   0  0  0  0  0  0  0  0  0  0  0  0
   -0.1275    0.4111    4.0813 C   0  0  0  0  0  0  0  0  0  0  0  0
    0.6862    1.1312    4.1910 H   0  0  0  0  0  0  0  0  0  0  0  0
   -0.9980    0.7641    4.6360 H   0  0  0  0  0  0  0  0  0  0  0  0
    0.1959   -0.5481    4.4891 H   0  0  0  0  0  0  0  0  0  0  0  0
  5  6  2  0  0  0  0
  5  7  1  0  0  0  0
  2  3  1  0  0  0  0
  2  4  1  0  0  0  0
  2  5  1  0  0  0  0
  1  2  1  0  0  0  0
 19 20  2  0  0  0  0
 19 21  1  0  0  0  0
 16 17  1  0  0  0  0
 16 18  1  0  0  0  0
 14 15  2  0  0  0  0
 14 16  1  0  0  0  0
 11 12  1  0  0  0  0
 11 13  1  0  0  0  0
 11 14  1  0  0  0  0
  9 10  1  0  0  0  0
  9 11  1  0  0  0  0
  9 19  1  0  0  0  0
  7  8  1  0  0  0  0
  7  9  1  0  0  0  0
 23 24  1  0  0  0  0
 23 25  1  0  0  0  0
 23 26  1  0  0  0  0
 21 22  1  0  0  0  0
 21 23  1  0  0  0  0
M  END
$$$$
default_name
  -OEChem-02102213163D

 26 25  0     1  0  0  0  0  0999 V2000
   -3.0232   -3.6924    1.0038 H   0  0  0  0  0  0  0  0  0  0  0  0
   -3.0082   -2.6684    0.6318 C   0  0  0  0  0  0  0  0  0  0  0  0
   -3.6332   -2.0414    1.2658 H   0  0  0  0  0  0  0  0  0  0  0  0
   -3.3762   -2.6444   -0.3912 H   0  0  0  0  0  0  0  0  0  0  0  0
   -1.5882   -2.1554    0.6658 C   0  0  0  0  0  0  0  0  0  0  0  0
   -0.6832   -2.8764    1.0638 O   0  0  0  0  0  0  0  0  0  0  0  0
   -1.3952   -0.9084    0.2428 N   0  0  0  0  0  0  0  0  0  0  0  0
   -2.1972   -0.3644   -0.0422 H   0  0  0  0  0  0  0  0  0  0  0  0
   -0.1122   -0.1994    0.2658 C   0  0  1  0  0  0  0  0  0  0  0  0
    0.6131   -0.7748   -0.3153 H   0  0  0  0  0  0  0  0  0  0  0  0
   -0.2973    1.1841   -0.3966 C   0  0  0  0  0  0  0  0  0  0  0  0
    0.3917    1.8939    0.0598 H   0  0  0  0  0  0  0  0  0  0  0  0
   -0.0596    1.1094   -1.4567 H   0  0  0  0  0  0  0  0  0  0  0  0
   -1.6943    1.7628   -0.2395 C   0  0  0  0  0  0  0  0  0  0  0  0
   -2.1035    2.6982   -0.9049 O   0  0  0  0  0  0  0  0  0  0  0  0
   -2.4803    1.2274    0.6626 N   0  0  0  0  0  0  0  0  0  0  0  0
   -3.4032    1.6187    0.7319 H   0  0  0  0  0  0  0  0  0  0  0  0
   -2.1741    0.4449    1.2094 H   0  0  0  0  0  0  0  0  0  0  0  0
    0.4075   -0.0985    1.7169 C   0  0  0  0  0  0  0  0  0  0  0  0
    1.5860   -0.3526    1.9662 O   0  0  0  0  0  0  0  0  0  0  0  0
   -0.4625    0.2583    2.6666 N   0  0  0  0  0  0  0  0  0  0  0  0
   -1.4309    0.3754    2.3860 H   0  0  0  0  0  0  0  0  0  0  0  0
   -0.1275    0.4111    4.0813 C   0  0  0  0  0  0  0  0  0  0  0  0
    0.6862    1.1312    4.1910 H   0  0  0  0  0  0  0  0  0  0  0  0
   -0.9980    0.7641    4.6360 H   0  0  0  0  0  0  0  0  0  0  0  0
    0.1959   -0.5481    4.4891 H   0  0  0  0  0  0  0  0  0  0  0  0
  5  6  2  0  0  0  0
  5  7  1  0  0  0  0
  2  3  1  0  0  0  0
  2  4  1  0  0  0  0
  2  5  1  0  0  0  0
  1  2  1  0  0  0  0
 19 20  2  0  0  0  0
 19 21  1  0  0  0  0
 16 17  1  0  0  0  0
 16 18  1  0  0  0  0
 14 15  2  0  0  0  0
 14 16  1  0  0  0  0
 11 12  1  0  0  0  0
 11 13  1  0  0  0  0
 11 14  1  0  0  0  0
  9 10  1  0  0  0  0
  9 11  1  0  0  0  0
  9 19  1  0  0  0  0
  7  8  1  0  0  0  0
  7  9  1  0  0  0  0
 23 24  1  0  0  0  0
 23 25  1  0  0  0  0
 23 26  1  0  0  0  0
 21 22  1  0  0  0  0
 21 23  1  0  0  0  0
M  END
$$$$
default_name
  -OEChem-02102213163D

 26 25  0     1  0  0  0  0  0999 V2000
   -3.0232   -3.6924    1.0038 H   0  0  0  0  0  0  0  0  0  0  0  0
   -3.0082   -2.6684    0.6318 C   0  0  0  0  0  0  0  0  0  0  0  0
   -3.6332   -2.0414    1.2658 H   0  0  0  0  0  0  0  0  0  0  0  0
   -3.3762   -2.6444   -0.3912 H   0  0  0  0  0  0  0  0  0  0  0  0
   -1.5882   -2.1554    0.6658 C   0  0  0  0  0  0  0  0  0  0  0  0
   -0.6832   -2.8764    1.0638 O   0  0  0  0  0  0  0  0  0  0  0  0
   -1.3952   -0.9084    0.2428 N   0  0  0  0  0  0  0  0  0  0  0  0
   -2.1972   -0.3644   -0.0422 H   0  0  0  0  0  0  0  0  0  0  0  0
   -0.1122   -0.1994    0.2658 C   0  0  1  0  0  0  0  0  0  0  0  0
    0.6131   -0.7748   -0.3153 H   0  0  0  0  0  0  0  0  0  0  0  0
   -0.2973    1.1841   -0.3966 C   0  0  0  0  0  0  0  0  0  0  0  0
    0.3917    1.8939    0.0598 H   0  0  0  0  0  0  0  0  0  0  0  0
   -0.0596    1.1094   -1.4567 H   0  0  0  0  0  0  0  0  0  0  0  0
   -1.6943    1.7628   -0.2395 C   0  0  0  0  0  0  0  0  0  0  0  0
   -2.2009    2.5058   -1.0620 O   0  0  0  0  0  0  0  0  0  0  0  0
   -2.3695    1.4470    0.8388 N   0  0  0  0  0  0  0  0  0  0  0  0
   -3.2960    1.8299    0.9071 H   0  0  0  0  0  0  0  0  0  0  0  0
   -1.9825    0.8227    1.5211 H   0  0  0  0  0  0  0  0  0  0  0  0
    0.4075   -0.0985    1.7169 C   0  0  0  0  0  0  0  0  0  0  0  0
    1.5860   -0.3526    1.9662 O   0  0  0  0  0  0  0  0  0  0  0  0
   -0.4625    0.2583    2.6666 N   0  0  0  0  0  0  0  0  0  0  0  0
   -1.4309    0.3754    2.3860 H   0  0  0  0  0  0  0  0  0  0  0  0
   -0.1275    0.4111    4.0813 C   0  0  0  0  0  0  0  0  0  0  0  0
    0.6862    1.1312    4.1910 H   0  0  0  0  0  0  0  0  0  0  0  0
   -0.9980    0.7641    4.6360 H   0  0  0  0  0  0  0  0  0  0  0  0
    0.1959   -0.5481    4.4891 H   0  0  0  0  0  0  0  0  0  0  0  0
  5  6  2  0  0  0  0
  5  7  1  0  0  0  0
  2  3  1  0  0  0  0
  2  4  1  0  0  0  0
  2  5  1  0  0  0  0
  1  2  1  0  0  0  0
 19 20  2  0  0  0  0
 19 21  1  0  0  0  0
 16 17  1  0  0  0  0
 16 18  1  0  0  0  0
 14 15  2  0  0  0  0
 14 16  1  0  0  0  0
 11 12  1  0  0  0  0
 11 13  1  0  0  0  0
 11 14  1  0  0  0  0
  9 10  1  0  0  0  0
  9 11  1  0  0  0  0
  9 19  1  0  0  0  0
  7  8  1  0  0  0  0
  7  9  1  0  0  0  0
 23 24  1  0  0  0  0
 23 25  1  0  0  0  0
 23 26  1  0  0  0  0
 21 22  1  0  0  0  0
 21 23  1  0  0  0  0
M  END
$$$$
default_name
  -OEChem-02102213163D

 26 25  0     1  0  0  0  0  0999 V2000
   -3.0232   -3.6924    1.0038 H   0  0  0  0  0  0  0  0  0  0  0  0
   -3.0082   -2.6684    0.6318 C   0  0  0  0  0  0  0  0  0  0  0  0
   -3.6332   -2.0414    1.2658 H   0  0  0  0  0  0  0  0  0  0  0  0
   -3.3762   -2.6444   -0.3912 H   0  0  0  0  0  0  0  0  0  0  0  0
   -1.5882   -2.1554    0.6658 C   0  0  0  0  0  0  0  0  0  0  0  0
   -0.6832   -2.8764    1.0638 O   0  0  0  0  0  0  0  0  0  0  0  0
   -1.3952   -0.9084    0.2428 N   0  0  0  0  0  0  0  0  0  0  0  0
   -2.1972   -0.3644   -0.0422 H   0  0  0  0  0  0  0  0  0  0  0  0
   -0.1122   -0.1994    0.2658 C   0  0  1  0  0  0  0  0  0  0  0  0
    0.6131   -0.7748   -0.3153 H   0  0  0  0  0  0  0  0  0  0  0  0
   -0.2973    1.1841   -0.3966 C   0  0  0  0  0  0  0  0  0  0  0  0
    0.3917    1.8939    0.0598 H   0  0  0  0  0  0  0  0  0  0  0  0
   -0.0596    1.1094   -1.4567 H   0  0  0  0  0  0  0  0  0  0  0  0
   -1.6943    1.7628   -0.2395 C   0  0  0  0  0  0  0  0  0  0  0  0
   -2.3054    2.2799   -1.1584 O   0  0  0  0  0  0  0  0  0  0  0  0
   -2.2510    1.7041    0.9459 N   0  0  0  0  0  0  0  0  0  0  0  0
   -3.1808    2.0784    1.0156 H   0  0  0  0  0  0  0  0  0  0  0  0
   -1.7769    1.2669    1.7134 H   0  0  0  0  0  0  0  0  0  0  0  0
    0.4075   -0.0985    1.7169 C   0  0  0  0  0  0  0  0  0  0  0  0
    1.5860   -0.3526    1.9662 O   0  0  0  0  0  0  0  0  0  0  0  0
   -0.4625    0.2583    2.6666 N   0  0  0  0  0  0  0  0  0  0  0  0
   -1.4309    0.3754    2.3860 H   0  0  0  0  0  0  0  0  0  0  0  0
   -0.1275    0.4111    4.0813 C   0  0  0  0  0  0  0  0  0  0  0  0
    0.6862    1.1312    4.1910 H   0  0  0  0  0  0  0  0  0  0  0  0
   -0.9980    0.7641    4.6360 H   0  0  0  0  0  0  0  0  0  0  0  0
    0.1959   -0.5481    4.4891 H   0  0  0  0  0  0  0  0  0  0  0  0
  5  6  2  0  0  0  0
  5  7  1  0  0  0  0
  2  3  1  0  0  0  0
  2  4  1  0  0  0  0
  2  5  1  0  0  0  0
  1  2  1  0  0  0  0
 19 20  2  0  0  0  0
 19 21  1  0  0  0  0
 16 17  1  0  0  0  0
 16 18  1  0  0  0  0
 14 15  2  0  0  0  0
 14 16  1  0  0  0  0
 11 12  1  0  0  0  0
 11 13  1  0  0  0  0
 11 14  1  0  0  0  0
  9 10  1  0  0  0  0
  9 11  1  0  0  0  0
  9 19  1  0  0  0  0
  7  8  1  0  0  0  0
  7  9  1  0  0  0  0
 23 24  1  0  0  0  0
 23 25  1  0  0  0  0
 23 26  1  0  0  0  0
 21 22  1  0  0  0  0
 21 23  1  0  0  0  0
M  END
$$$$
default_name
  -OEChem-02102213163D

 26 25  0     1  0  0  0  0  0999 V2000
   -3.0232   -3.6924    1.0038 H   0  0  0  0  0  0  0  0  0  0  0  0
   -3.0082   -2.6684    0.6318 C   0  0  0  0  0  0  0  0  0  0  0  0
   -3.6332   -2.0414    1.2658 H   0  0  0  0  0  0  0  0  0  0  0  0
   -3.3762   -2.6444   -0.3912 H   0  0  0  0  0  0  0  0  0  0  0  0
   -1.5882   -2.1554    0.6658 C   0  0  0  0  0  0  0  0  0  0  0  0
   -0.6832   -2.8764    1.0638 O   0  0  0  0  0  0  0  0  0  0  0  0
   -1.3952   -0.9084    0.2428 N   0  0  0  0  0  0  0  0  0  0  0  0
   -2.1972   -0.3644   -0.0422 H   0  0  0  0  0  0  0  0  0  0  0  0
   -0.1122   -0.1994    0.2658 C   0  0  1  0  0  0  0  0  0  0  0  0
    0.6131   -0.7748   -0.3153 H   0  0  0  0  0  0  0  0  0  0  0  0
   -0.2973    1.1841   -0.3966 C   0  0  0  0  0  0  0  0  0  0  0  0
    0.3917    1.8939    0.0598 H   0  0  0  0  0  0  0  0  0  0  0  0
   -0.0596    1.1094   -1.4567 H   0  0  0  0  0  0  0  0  0  0  0  0
   -1.6943    1.7628   -0.2395 C   0  0  0  0  0  0  0  0  0  0  0  0
   -2.4097    2.0360   -1.1875 O   0  0  0  0  0  0  0  0  0  0  0  0
   -2.1328    1.9811    0.9764 N   0  0  0  0  0  0  0  0  0  0  0  0
   -3.0656    2.3474    1.0500 H   0  0  0  0  0  0  0  0  0  0  0  0
   -1.5712    1.7472    1.7733 H   0  0  0  0  0  0  0  0  0  0  0  0
    0.4075   -0.0985    1.7169 C   0  0  0  0  0  0  0  0  0  0  0  0
    1.5860   -0.3526    1.9662 O   0  0  0  0  0  0  0  0  0  0  0  0
   -0.4625    0.2583    2.6666 N   0  0  0  0  0  0  0  0  0  0  0  0
   -1.4309    0.3754    2.3860 H   0  0  0  0  0  0  0  0  0  0  0  0
   -0.1275    0.4111    4.0813 C   0  0  0  0  0  0  0  0  0  0  0  0
    0.6862    1.1312    4.1910 H   0  0  0  0  0  0  0  0  0  0  0  0
   -0.9980    0.7641    4.6360 H   0  0  0  0  0  0  0  0  0  0  0  0
    0.1959   -0.5481    4.4891 H   0  0  0  0  0  0  0  0  0  0  0  0
  5  6  2  0  0  0  0
  5  7  1  0  0  0  0
  2  3  1  0  0  0  0
  2  4  1  0  0  0  0
  2  5  1  0  0  0  0
  1  2  1  0  0  0  0
 19 20  2  0  0  0  0
 19 21  1  0  0  0  0
 16 17  1  0  0  0  0
 16 18  1  0  0  0  0
 14 15  2  0  0  0  0
 14 16  1  0  0  0  0
 11 12  1  0  0  0  0
 11 13  1  0  0  0  0
 11 14  1  0  0  0  0
  9 10  1  0  0  0  0
  9 11  1  0  0  0  0
  9 19  1  0  0  0  0
  7  8  1  0  0  0  0
  7  9  1  0  0  0  0
 23 24  1  0  0  0  0
 23 25  1  0  0  0  0
 23 26  1  0  0  0  0
 21 22  1  0  0  0  0
 21 23  1  0  0  0  0
M  END
$$$$
default_name
  -OEChem-02102213163D

 26 25  0     1  0  0  0  0  0999 V2000
   -3.0232   -3.6924    1.0038 H   0  0  0  0  0  0  0  0  0  0  0  0
   -3.0082   -2.6684    0.6318 C   0  0  0  0  0  0  0  0  0  0  0  0
   -3.6332   -2.0414    1.2658 H   0  0  0  0  0  0  0  0  0  0  0  0
   -3.3762   -2.6444   -0.3912 H   0  0  0  0  0  0  0  0  0  0  0  0
   -1.5882   -2.1554    0.6658 C   0  0  0  0  0  0  0  0  0  0  0  0
   -0.6832   -2.8764    1.0638 O   0  0  0  0  0  0  0  0  0  0  0  0
   -1.3952   -0.9084    0.2428 N   0  0  0  0  0  0  0  0  0  0  0  0
   -2.1972   -0.3644   -0.0422 H   0  0  0  0  0  0  0  0  0  0  0  0
   -0.1122   -0.1994    0.2658 C   0  0  1  0  0  0  0  0  0  0  0  0
    0.6131   -0.7748   -0.3153 H   0  0  0  0  0  0  0  0  0  0  0  0
   -0.2973    1.1841   -0.3966 C   0  0  0  0  0  0  0  0  0  0  0  0
    0.3917    1.8939    0.0598 H   0  0  0  0  0  0  0  0  0  0  0  0
   -0.0596    1.1094   -1.4567 H   0  0  0  0  0  0  0  0  0  0  0  0
   -1.6943    1.7628   -0.2395 C   0  0  0  0  0  0  0  0  0  0  0  0
   -2.5068    1.7906   -1.1473 O   0  0  0  0  0  0  0  0  0  0  0  0
   -2.0230    2.2590    0.9285 N   0  0  0  0  0  0  0  0  0  0  0  0
   -2.9580    2.6184    1.0078 H   0  0  0  0  0  0  0  0  0  0  0  0
   -1.3794    2.2309    1.6966 H   0  0  0  0  0  0  0  0  0  0  0  0
    0.4075   -0.0985    1.7169 C   0  0  0  0  0  0  0  0  0  0  0  0
    1.5860   -0.3526    1.9662 O   0  0  0  0  0  0  0  0  0  0  0  0
   -0.4625    0.2583    2.6666 N   0  0  0  0  0  0  0  0  0  0  0  0
   -1.4309    0.3754    2.3860 H   0  0  0  0  0  0  0  0  0  0  0  0
   -0.1275    0.4111    4.0813 C   0  0  0  0  0  0  0  0  0  0  0  0
    0.6862    1.1312    4.1910 H   0  0  0  0  0  0  0  0  0  0  0  0
   -0.9980    0.7641    4.6360 H   0  0  0  0  0  0  0  0  0  0  0  0
    0.1959   -0.5481    4.4891 H   0  0  0  0  0  0  0  0  0  0  0  0
  5  6  2  0  0  0  0
  5  7  1  0  0  0  0
  2  3  1  0  0  0  0
  2  4  1  0  0  0  0
  2  5  1  0  0  0  0
  1  2  1  0  0  0  0
 19 20  2  0  0  0  0
 19 21  1  0  0  0  0
 16 17  1  0  0  0  0
 16 18  1  0  0  0  0
 14 15  2  0  0  0  0
 14 16  1  0  0  0  0
 11 12  1  0  0  0  0
 11 13  1  0  0  0  0
 11 14  1  0  0  0  0
  9 10  1  0  0  0  0
  9 11  1  0  0  0  0
  9 19  1  0  0  0  0
  7  8  1  0  0  0  0
  7  9  1  0  0  0  0
 23 24  1  0  0  0  0
 23 25  1  0  0  0  0
 23 26  1  0  0  0  0
 21 22  1  0  0  0  0
 21 23  1  0  0  0  0
M  END
$$$$
default_name
  -OEChem-02102213163D

 26 25  0     1  0  0  0  0  0999 V2000
   -3.0232   -3.6924    1.0038 H   0  0  0  0  0  0  0  0  0  0  0  0
   -3.0082   -2.6684    0.6318 C   0  0  0  0  0  0  0  0  0  0  0  0
   -3.6332   -2.0414    1.2658 H   0  0  0  0  0  0  0  0  0  0  0  0
   -3.3762   -2.6444   -0.3912 H   0  0  0  0  0  0  0  0  0  0  0  0
   -1.5882   -2.1554    0.6658 C   0  0  0  0  0  0  0  0  0  0  0  0
   -0.6832   -2.8764    1.0638 O   0  0  0  0  0  0  0  0  0  0  0  0
   -1.3952   -0.9084    0.2428 N   0  0  0  0  0  0  0  0  0  0  0  0
   -2.1972   -0.3644   -0.0422 H   0  0  0  0  0  0  0  0  0  0  0  0
   -0.1122   -0.1994    0.2658 C   0  0  1  0  0  0  0  0  0  0  0  0
    0.6131   -0.7748   -0.3153 H   0  0  0  0  0  0  0  0  0  0  0  0
   -0.2973    1.1841   -0.3966 C   0  0  0  0  0  0  0  0  0  0  0  0
    0.3917    1.8939    0.0598 H   0  0  0  0  0  0  0  0  0  0  0  0
   -0.0596    1.1094   -1.4567 H   0  0  0  0  0  0  0  0  0  0  0  0
   -1.6943    1.7628   -0.2395 C   0  0  0  0  0  0  0  0  0  0  0  0
   -2.5901    1.5606   -1.0406 O   0  0  0  0  0  0  0  0  0  0  0  0
   -1.9292    2.5190    0.8052 N   0  0  0  0  0  0  0  0  0  0  0  0
   -2.8656    2.8730    0.8920 H   0  0  0  0  0  0  0  0  0  0  0  0
   -1.2147    2.6850    1.4886 H   0  0  0  0  0  0  0  0  0  0  0  0
    0.4075   -0.0985    1.7169 C   0  0  0  0  0  0  0  0  0  0  0  0
    1.5860   -0.3526    1.9662 O   0  0  0  0  0  0  0  0  0  0  0  0
   -0.4625    0.2583    2.6666 N   0  0  0  0  0  0  0  0  0  0  0  0
   -1.4309    0.3754    2.3860 H   0  0  0  0  0  0  0  0  0  0  0  0
   -0.1275    0.4111    4.0813 C   0  0  0  0  0  0  0  0  0  0  0  0
    0.6862    1.1312    4.1910 H   0  0  0  0  0  0  0  0  0  0  0  0
   -0.9980    0.7641    4.6360 H   0  0  0  0  0  0  0  0  0  0  0  0
    0.1959   -0.5481    4.4891 H   0  0  0  0  0  0  0  0  0  0  0  0
  5  6  2  0  0  0  0
  5  7  1  0  0  0  0
  2  3  1  0  0  0  0
  2  4  1  0  0  0  0
  2  5  1  0  0  0  0
  1  2  1  0  0  0  0
 19 20  2  0  0  0  0
 19 21  1  0  0  0  0
 16 17  1  0  0  0  0
 16 18  1  0  0  0  0
 14 15  2  0  0  0  0
 14 16  1  0  0  0  0
 11 12  1  0  0  0  0
 11 13  1  0  0  0  0
 11 14  1  0  0  0  0
  9 10  1  0  0  0  0
  9 11  1  0  0  0  0
  9 19  1  0  0  0  0
  7  8  1  0  0  0  0
  7  9  1  0  0  0  0
 23 24  1  0  0  0  0
 23 25  1  0  0  0  0
 23 26  1  0  0  0  0
 21 22  1  0  0  0  0
 21 23  1  0  0  0  0
M  END
$$$$
default_name
  -OEChem-02102213163D

 26 25  0     1  0  0  0  0  0999 V2000
   -3.0232   -3.6924    1.0038 H   0  0  0  0  0  0  0  0  0  0  0  0
   -3.0082   -2.6684    0.6318 C   0  0  0  0  0  0  0  0  0  0  0  0
   -3.6332   -2.0414    1.2658 H   0  0  0  0  0  0  0  0  0  0  0  0
   -3.3762   -2.6444   -0.3912 H   0  0  0  0  0  0  0  0  0  0  0  0
   -1.5882   -2.1554    0.6658 C   0  0  0  0  0  0  0  0  0  0  0  0
   -0.6832   -2.8764    1.0638 O   0  0  0  0  0  0  0  0  0  0  0  0
   -1.3952   -0.9084    0.2428 N   0  0  0  0  0  0  0  0  0  0  0  0
   -2.1972   -0.3644   -0.0422 H   0  0  0  0  0  0  0  0  0  0  0  0
   -0.1122   -0.1994    0.2658 C   0  0  1  0  0  0  0  0  0  0  0  0
    0.6131   -0.7748   -0.3153 H   0  0  0  0  0  0  0  0  0  0  0  0
   -0.2973    1.1841   -0.3966 C   0  0  0  0  0  0  0  0  0  0  0  0
    0.3917    1.8939    0.0598 H   0  0  0  0  0  0  0  0  0  0  0  0
   -0.0596    1.1094   -1.4567 H   0  0  0  0  0  0  0  0  0  0  0  0
   -1.6943    1.7628   -0.2395 C   0  0  0  0  0  0  0  0  0  0  0  0
   -2.6539    1.3616   -0.8747 O   0  0  0  0  0  0  0  0  0  0  0  0
   -1.8576    2.7433    0.6151 N   0  0  0  0  0  0  0  0  0  0  0  0
   -2.7945    3.0939    0.7105 H   0  0  0  0  0  0  0  0  0  0  0  0
   -1.0882    3.0785    1.1635 H   0  0  0  0  0  0  0  0  0  0  0  0
    0.4075   -0.0985    1.7169 C   0  0  0  0  0  0  0  0  0  0  0  0
    1.5860   -0.3526    1.9662 O   0  0  0  0  0  0  0  0  0  0  0  0
   -0.4625    0.2583    2.6666 N   0  0  0  0  0  0  0  0  0  0  0  0
   -1.4309    0.3754    2.3860 H   0  0  0  0  0  0  0  0  0  0  0  0
   -0.1275    0.4111    4.0813 C   0  0  0  0  0  0  0  0  0  0  0  0
    0.6862    1.1312    4.1910 H   0  0  0  0  0  0  0  0  0  0  0  0
   -0.9980    0.7641    4.6360 H   0  0  0  0  0  0  0  0  0  0  0  0
    0.1959   -0.5481    4.4891 H   0  0  0  0  0  0  0  0  0  0  0  0
  5  6  2  0  0  0  0
  5  7  1  0  0  0  0
  2  3  1  0  0  0  0
  2  4  1  0  0  0  0
  2  5  1  0  0  0  0
  1  2  1  0  0  0  0
 19 20  2  0  0  0  0
 19 21  1  0  0  0  0
 16 17  1  0  0  0  0
 16 18  1  0  0  0  0
 14 15  2  0  0  0  0
 14 16  1  0  0  0  0
 11 12  1  0  0  0  0
 11 13  1  0  0  0  0
 11 14  1  0  0  0  0
  9 10  1  0  0  0  0
  9 11  1  0  0  0  0
  9 19  1  0  0  0  0
  7  8  1  0  0  0  0
  7  9  1  0  0  0  0
 23 24  1  0  0  0  0
 23 25  1  0  0  0  0
 23 26  1  0  0  0  0
 21 22  1  0  0  0  0
 21 23  1  0  0  0  0
M  END
$$$$
default_name
  -OEChem-02102213163D

 26 25  0     1  0  0  0  0  0999 V2000
   -3.0232   -3.6924    1.0038 H   0  0  0  0  0  0  0  0  0  0  0  0
   -3.0082   -2.6684    0.6318 C   0  0  0  0  0  0  0  0  0  0  0  0
   -3.6332   -2.0414    1.2658 H   0  0  0  0  0  0  0  0  0  0  0  0
   -3.3762   -2.6444   -0.3912 H   0  0  0  0  0  0  0  0  0  0  0  0
   -1.5882   -2.1554    0.6658 C   0  0  0  0  0  0  0  0  0  0  0  0
   -0.6832   -2.8764    1.0638 O   0  0  0  0  0  0  0  0  0  0  0  0
   -1.3952   -0.9084    0.2428 N   0  0  0  0  0  0  0  0  0  0  0  0
   -2.1972   -0.3644   -0.0422 H   0  0  0  0  0  0  0  0  0  0  0  0
   -0.1122   -0.1994    0.2658 C   0  0  1  0  0  0  0  0  0  0  0  0
    0.6131   -0.7748   -0.3153 H   0  0  0  0  0  0  0  0  0  0  0  0
   -0.2973    1.1841   -0.3966 C   0  0  0  0  0  0  0  0  0  0  0  0
    0.3917    1.8939    0.0598 H   0  0  0  0  0  0  0  0  0  0  0  0
   -0.0596    1.1094   -1.4567 H   0  0  0  0  0  0  0  0  0  0  0  0
   -1.6943    1.7628   -0.2395 C   0  0  0  0  0  0  0  0  0  0  0  0
   -2.6938    1.2072   -0.6607 O   0  0  0  0  0  0  0  0  0  0  0  0
   -1.8133    2.9167    0.3710 N   0  0  0  0  0  0  0  0  0  0  0  0
   -2.7496    3.2660    0.4757 H   0  0  0  0  0  0  0  0  0  0  0  0
   -1.0087    3.3847    0.7433 H   0  0  0  0  0  0  0  0  0  0  0  0
    0.4075   -0.0985    1.7169 C   0  0  0  0  0  0  0  0  0  0  0  0
    1.5860   -0.3526    1.9662 O   0  0  0  0  0  0  0  0  0  0  0  0
   -0.4625    0.2583    2.6666 N   0  0  0  0  0  0  0  0  0  0  0  0
   -1.4309    0.3754    2.3860 H   0  0  0  0  0  0  0  0  0  0  0  0
   -0.1275    0.4111    4.0813 C   0  0  0  0  0  0  0  0  0  0  0  0
    0.6862    1.1312    4.1910 H   0  0  0  0  0  0  0  0  0  0  0  0
   -0.9980    0.7641    4.6360 H   0  0  0  0  0  0  0  0  0  0  0  0
    0.1959   -0.5481    4.4891 H   0  0  0  0  0  0  0  0  0  0  0  0
  5  6  2  0  0  0  0
  5  7  1  0  0  0  0
  2  3  1  0  0  0  0
  2  4  1  0  0  0  0
  2  5  1  0  0  0  0
  1  2  1  0  0  0  0
 19 20  2  0  0  0  0
 19 21  1  0  0  0  0
 16 17  1  0  0  0  0
 16 18  1  0  0  0  0
 14 15  2  0  0  0  0
 14 16  1  0  0  0  0
 11 12  1  0  0  0  0
 11 13  1  0  0  0  0
 11 14  1  0  0  0  0
  9 10  1  0  0  0  0
  9 11  1  0  0  0  0
  9 19  1  0  0  0  0
  7  8  1  0  0  0  0
  7  9  1  0  0  0  0
 23 24  1  0  0  0  0
 23 25  1  0  0  0  0
 23 26  1  0  0  0  0
 21 22  1  0  0  0  0
 21 23  1  0  0  0  0
M  END
$$$$
default_name
  -OEChem-02102213163D

 26 25  0     1  0  0  0  0  0999 V2000
   -3.0232   -3.6924    1.0038 H   0  0  0  0  0  0  0  0  0  0  0  0
   -3.0082   -2.6684    0.6318 C   0  0  0  0  0  0  0  0  0  0  0  0
   -3.6332   -2.0414    1.2658 H   0  0  0  0  0  0  0  0  0  0  0  0
   -3.3762   -2.6444   -0.3912 H   0  0  0  0  0  0  0  0  0  0  0  0
   -1.5882   -2.1554    0.6658 C   0  0  0  0  0  0  0  0  0  0  0  0
   -0.6832   -2.8764    1.0638 O   0  0  0  0  0  0  0  0  0  0  0  0
   -1.3952   -0.9084    0.2428 N   0  0  0  0  0  0  0  0  0  0  0  0
   -2.1972   -0.3644   -0.0422 H   0  0  0  0  0  0  0  0  0  0  0  0
   -0.1122   -0.1994    0.2658 C   0  0  1  0  0  0  0  0  0  0  0  0
    0.6131   -0.7748   -0.3153 H   0  0  0  0  0  0  0  0  0  0  0  0
   -0.2973    1.1841   -0.3966 C   0  0  0  0  0  0  0  0  0  0  0  0
    0.3917    1.8939    0.0598 H   0  0  0  0  0  0  0  0  0  0  0  0
   -0.0596    1.1094   -1.4567 H   0  0  0  0  0  0  0  0  0  0  0  0
   -1.6943    1.7628   -0.2395 C   0  0  0  0  0  0  0  0  0  0  0  0
   -2.7071    1.1078   -0.4134 O   0  0  0  0  0  0  0  0  0  0  0  0
   -1.7991    3.0274    0.0896 N   0  0  0  0  0  0  0  0  0  0  0  0
   -2.7340    3.3776    0.2035 H   0  0  0  0  0  0  0  0  0  0  0  0
   -0.9814    3.5827    0.2569 H   0  0  0  0  0  0  0  0  0  0  0  0
    0.4075   -0.0985    1.7169 C   0  0  0  0  0  0  0  0  0  0  0  0
    1.5860   -0.3526    1.9662 O   0  0  0  0  0  0  0  0  0  0  0  0
   -0.4625    0.2583    2.6666 N   0  0  0  0  0  0  0  0  0  0  0  0
   -1.4309    0.3754    2.3860 H   0  0  0  0  0  0  0  0  0  0  0  0
   -0.1275    0.4111    4.0813 C   0  0  0  0  0  0  0  0  0  0  0  0
    0.6862    1.1312    4.1910 H   0  0  0  0  0  0  0  0  0  0  0  0
   -0.9980    0.7641    4.6360 H   0  0  0  0  0  0  0  0  0  0  0  0
    0.1959   -0.5481    4.4891 H   0  0  0  0  0  0  0  0  0  0  0  0
  5  6  2  0  0  0  0
  5  7  1  0  0  0  0
  2  3  1  0  0  0  0
  2  4  1  0  0  0  0
  2  5  1  0  0  0  0
  1  2  1  0  0  0  0
 19 20  2  0  0  0  0
 19 21  1  0  0  0  0
 16 17  1  0  0  0  0
 16 18  1  0  0  0  0
 14 15  2  0  0  0  0
 14 16  1  0  0  0  0
 11 12  1  0  0  0  0
 11 13  1  0  0  0  0
 11 14  1  0  0  0  0
  9 10  1  0  0  0  0
  9 11  1  0  0  0  0
  9 19  1  0  0  0  0
  7  8  1  0  0  0  0
  7  9  1  0  0  0  0
 23 24  1  0  0  0  0
 23 25  1  0  0  0  0
 23 26  1  0  0  0  0
 21 22  1  0  0  0  0
 21 23  1  0  0  0  0
M  END
$$$$
default_name
  -OEChem-02102213163D

 26 25  0     1  0  0  0  0  0999 V2000
   -3.0232   -3.6924    1.0038 H   0  0  0  0  0  0  0  0  0  0  0  0
   -3.0082   -2.6684    0.6318 C   0  0  0  0  0  0  0  0  0  0  0  0
   -3.6332   -2.0414    1.2658 H   0  0  0  0  0  0  0  0  0  0  0  0
   -3.3762   -2.6444   -0.3912 H   0  0  0  0  0  0  0  0  0  0  0  0
   -1.5882   -2.1554    0.6658 C   0  0  0  0  0  0  0  0  0  0  0  0
   -0.6832   -2.8764    1.0638 O   0  0  0  0  0  0  0  0  0  0  0  0
   -1.3952   -0.9084    0.2428 N   0  0  0  0  0  0  0  0  0  0  0  0
   -2.1972   -0.3644   -0.0422 H   0  0  0  0  0  0  0  0  0  0  0  0
   -0.1122   -0.1994    0.2658 C   0  0  1  0  0  0  0  0  0  0  0  0
    0.6131   -0.7748   -0.3153 H   0  0  0  0  0  0  0  0  0  0  0  0
   -0.2973    1.1841   -0.3966 C   0  0  0  0  0  0  0  0  0  0  0  0
    0.3917    1.8939    0.0598 H   0  0  0  0  0  0  0  0  0  0  0  0
   -0.0596    1.1094   -1.4567 H   0  0  0  0  0  0  0  0  0  0  0  0
   -1.6943    1.7628   -0.2395 C   0  0  0  0  0  0  0  0  0  0  0  0
   -2.6930    1.0702   -0.1495 O   0  0  0  0  0  0  0  0  0  0  0  0
   -1.8161    3.0677   -0.2098 N   0  0  0  0  0  0  0  0  0  0  0  0
   -2.7487    3.4211   -0.0876 H   0  0  0  0  0  0  0  0  0  0  0  0
   -1.0082    3.6589   -0.2628 H   0  0  0  0  0  0  0  0  0  0  0  0
    0.4075   -0.0985    1.7169 C   0  0  0  0  0  0  0  0  0  0  0  0
    1.5860   -0.3526    1.9662 O   0  0  0  0  0  0  0  0  0  0  0  0
   -0.4625    0.2583    2.6666 N   0  0  0  0  0  0  0  0  0  0  0  0
   -1.4309    0.3754    2.3860 H   0  0  0  0  0  0  0  0  0  0  0  0
   -0.1275    0.4111    4.0813 C   0  0  0  0  0  0  0  0  0  0  0  0
    0.6862    1.1312    4.1910 H   0  0  0  0  0  0  0  0  0  0  0  0
   -0.9980    0.7641    4.6360 H   0  0  0  0  0  0  0  0  0  0  0  0
    0.1959   -0.5481    4.4891 H   0  0  0  0  0  0  0  0  0  0  0  0
  5  6  2  0  0  0  0
  5  7  1  0  0  0  0
  2  3  1  0  0  0  0
  2  4  1  0  0  0  0
  2  5  1  0  0  0  0
  1  2  1  0  0  0  0
 19 20  2  0  0  0  0
 19 21  1  0  0  0  0
 16 17  1  0  0  0  0
 16 18  1  0  0  0  0
 14 15  2  0  0  0  0
 14 16  1  0  0  0  0
 11 12  1  0  0  0  0
 11 13  1  0  0  0  0
 11 14  1  0  0  0  0
  9 10  1  0  0  0  0
  9 11  1  0  0  0  0
  9 19  1  0  0  0  0
  7  8  1  0  0  0  0
  7  9  1  0  0  0  0
 23 24  1  0  0  0  0
 23 25  1  0  0  0  0
 23 26  1  0  0  0  0
 21 22  1  0  0  0  0
 21 23  1  0  0  0  0
M  END
$$$$
default_name
  -OEChem-02102213163D

 26 25  0     1  0  0  0  0  0999 V2000
   -3.0232   -3.6924    1.0038 H   0  0  0  0  0  0  0  0  0  0  0  0
   -3.0082   -2.6684    0.6318 C   0  0  0  0  0  0  0  0  0  0  0  0
   -3.6332   -2.0414    1.2658 H   0  0  0  0  0  0  0  0  0  0  0  0
   -3.3762   -2.6444   -0.3912 H   0  0  0  0  0  0  0  0  0  0  0  0
   -1.5882   -2.1554    0.6658 C   0  0  0  0  0  0  0  0  0  0  0  0
   -0.6832   -2.8764    1.0638 O   0  0  0  0  0  0  0  0  0  0  0  0
   -1.3952   -0.9084    0.2428 N   0  0  0  0  0  0  0  0  0  0  0  0
   -2.1972   -0.3644   -0.0422 H   0  0  0  0  0  0  0  0  0  0  0  0
   -0.1122   -0.1994    0.2658 C   0  0  1  0  0  0  0  0  0  0  0  0
    0.6131   -0.7748   -0.3153 H   0  0  0  0  0  0  0  0  0  0  0  0
   -0.2973    1.1841   -0.3966 C   0  0  0  0  0  0  0  0  0  0  0  0
    0.3917    1.8939    0.0598 H   0  0  0  0  0  0  0  0  0  0  0  0
   -0.0596    1.1094   -1.4567 H   0  0  0  0  0  0  0  0  0  0  0  0
   -1.6943    1.7628   -0.2395 C   0  0  0  0  0  0  0  0  0  0  0  0
   -2.6524    1.0971    0.1129 O   0  0  0  0  0  0  0  0  0  0  0  0
   -1.8631    3.0349   -0.5070 N   0  0  0  0  0  0  0  0  0  0  0  0
   -2.7928    3.3935   -0.3775 H   0  0  0  0  0  0  0  0  0  0  0  0
   -1.0874    3.6083   -0.7802 H   0  0  0  0  0  0  0  0  0  0  0  0
    0.4075   -0.0985    1.7169 C   0  0  0  0  0  0  0  0  0  0  0  0
    1.5860   -0.3526    1.9662 O   0  0  0  0  0  0  0  0  0  0  0  0
   -0.4625    0.2583    2.6666 N   0  0  0  0  0  0  0  0  0  0  0  0
   -1.4309    0.3754    2.3860 H   0  0  0  0  0  0  0  0  0  0  0  0
   -0.1275    0.4111    4.0813 C   0  0  0  0  0  0  0  0  0  0  0  0
    0.6862    1.1312    4.1910 H   0  0  0  0  0  0  0  0  0  0  0  0
   -0.9980    0.7641    4.6360 H   0  0  0  0  0  0  0  0  0  0  0  0
    0.1959   -0.5481    4.4891 H   0  0  0  0  0  0  0  0  0  0  0  0
  5  6  2  0  0  0  0
  5  7  1  0  0  0  0
  2  3  1  0  0  0  0
  2  4  1  0  0  0  0
  2  5  1  0  0  0  0
  1  2  1  0  0  0  0
 19 20  2  0  0  0  0
 19 21  1  0  0  0  0
 16 17  1  0  0  0  0
 16 18  1  0  0  0  0
 14 15  2  0  0  0  0
 14 16  1  0  0  0  0
 11 12  1  0  0  0  0
 11 13  1  0  0  0  0
 11 14  1  0  0  0  0
  9 10  1  0  0  0  0
  9 11  1  0  0  0  0
  9 19  1  0  0  0  0
  7  8  1  0  0  0  0
  7  9  1  0  0  0  0
 23 24  1  0  0  0  0
 23 25  1  0  0  0  0
 23 26  1  0  0  0  0
 21 22  1  0  0  0  0
 21 23  1  0  0  0  0
M  END
$$$$
default_name
  -OEChem-02102213163D

 26 25  0     1  0  0  0  0  0999 V2000
   -3.0232   -3.6924    1.0038 H   0  0  0  0  0  0  0  0  0  0  0  0
   -3.0082   -2.6684    0.6318 C   0  0  0  0  0  0  0  0  0  0  0  0
   -3.6332   -2.0414    1.2658 H   0  0  0  0  0  0  0  0  0  0  0  0
   -3.3762   -2.6444   -0.3912 H   0  0  0  0  0  0  0  0  0  0  0  0
   -1.5882   -2.1554    0.6658 C   0  0  0  0  0  0  0  0  0  0  0  0
   -0.6832   -2.8764    1.0638 O   0  0  0  0  0  0  0  0  0  0  0  0
   -1.3952   -0.9084    0.2428 N   0  0  0  0  0  0  0  0  0  0  0  0
   -2.1972   -0.3644   -0.0422 H   0  0  0  0  0  0  0  0  0  0  0  0
   -0.1122   -0.1994    0.2658 C   0  0  1  0  0  0  0  0  0  0  0  0
    0.6131   -0.7748   -0.3153 H   0  0  0  0  0  0  0  0  0  0  0  0
   -0.2973    1.1841   -0.3966 C   0  0  0  0  0  0  0  0  0  0  0  0
    0.3917    1.8939    0.0598 H   0  0  0  0  0  0  0  0  0  0  0  0
   -0.0596    1.1094   -1.4567 H   0  0  0  0  0  0  0  0  0  0  0  0
   -1.6943    1.7628   -0.2395 C   0  0  0  0  0  0  0  0  0  0  0  0
   -2.5880    1.1866    0.3559 O   0  0  0  0  0  0  0  0  0  0  0  0
   -1.9369    2.9314   -0.7817 N   0  0  0  0  0  0  0  0  0  0  0  0
   -2.8631    3.2966   -0.6467 H   0  0  0  0  0  0  0  0  0  0  0  0
   -1.2135    3.4342   -1.2602 H   0  0  0  0  0  0  0  0  0  0  0  0
    0.4075   -0.0985    1.7169 C   0  0  0  0  0  0  0  0  0  0  0  0
    1.5860   -0.3526    1.9662 O   0  0  0  0  0  0  0  0  0  0  0  0
   -0.4625    0.2583    2.6666 N   0  0  0  0  0  0  0  0  0  0  0  0
   -1.4309    0.3754    2.3860 H   0  0  0  0  0  0  0  0  0  0  0  0
   -0.1275    0.4111    4.0813 C   0  0  0  0  0  0  0  0  0  0  0  0
    0.6862    1.1312    4.1910 H   0  0  0  0  0  0  0  0  0  0  0  0
   -0.9980    0.7641    4.6360 H   0  0  0  0  0  0  0  0  0  0  0  0
    0.1959   -0.5481    4.4891 H   0  0  0  0  0  0  0  0  0  0  0  0
  5  6  2  0  0  0  0
  5  7  1  0  0  0  0
  2  3  1  0  0  0  0
  2  4  1  0  0  0  0
  2  5  1  0  0  0  0
  1  2  1  0  0  0  0
 19 20  2  0  0  0  0
 19 21  1  0  0  0  0
 16 17  1  0  0  0  0
 16 18  1  0  0  0  0
 14 15  2  0  0  0  0
 14 16  1  0  0  0  0
 11 12  1  0  0  0  0
 11 13  1  0  0  0  0
 11 14  1  0  0  0  0
  9 10  1  0  0  0  0
  9 11  1  0  0  0  0
  9 19  1  0  0  0  0
  7  8  1  0  0  0  0
  7  9  1  0  0  0  0
 23 24  1  0  0  0  0
 23 25  1  0  0  0  0
 23 26  1  0  0  0  0
 21 22  1  0  0  0  0
 21 23  1  0  0  0  0
M  END
$$$$
default_name
  -OEChem-02102213163D

 26 25  0     1  0  0  0  0  0999 V2000
   -3.0232   -3.6924    1.0038 H   0  0  0  0  0  0  0  0  0  0  0  0
   -3.0082   -2.6684    0.6318 C   0  0  0  0  0  0  0  0  0  0  0  0
   -3.6332   -2.0414    1.2658 H   0  0  0  0  0  0  0  0  0  0  0  0
   -3.3762   -2.6444   -0.3912 H   0  0  0  0  0  0  0  0  0  0  0  0
   -1.5882   -2.1554    0.6658 C   0  0  0  0  0  0  0  0  0  0  0  0
   -0.6832   -2.8764    1.0638 O   0  0  0  0  0  0  0  0  0  0  0  0
   -1.3952   -0.9084    0.2428 N   0  0  0  0  0  0  0  0  0  0  0  0
   -2.1972   -0.3644   -0.0422 H   0  0  0  0  0  0  0  0  0  0  0  0
   -0.1122   -0.1994    0.2658 C   0  0  1  0  0  0  0  0  0  0  0  0
    0.6131   -0.7748   -0.3153 H   0  0  0  0  0  0  0  0  0  0  0  0
   -0.2973    1.1841   -0.3966 C   0  0  0  0  0  0  0  0  0  0  0  0
    0.3917    1.8939    0.0598 H   0  0  0  0  0  0  0  0  0  0  0  0
   -0.0596    1.1094   -1.4567 H   0  0  0  0  0  0  0  0  0  0  0  0
   -1.6943    1.7628   -0.2395 C   0  0  0  0  0  0  0  0  0  0  0  0
   -2.5042    1.3325    0.5631 O   0  0  0  0  0  0  0  0  0  0  0  0
   -2.0324    2.7640   -1.0150 N   0  0  0  0  0  0  0  0  0  0  0  0
   -2.9551    3.1372   -0.8768 H   0  0  0  0  0  0  0  0  0  0  0  0
   -1.3780    3.1485   -1.6700 H   0  0  0  0  0  0  0  0  0  0  0  0
    0.4075   -0.0985    1.7169 C   0  0  0  0  0  0  0  0  0  0  0  0
    1.5860   -0.3526    1.9662 O   0  0  0  0  0  0  0  0  0  0  0  0
   -0.4625    0.2583    2.6666 N   0  0  0  0  0  0  0  0  0  0  0  0
   -1.4309    0.3754    2.3860 H   0  0  0  0  0  0  0  0  0  0  0  0
   -0.1275    0.4111    4.0813 C   0  0  0  0  0  0  0  0  0  0  0  0
    0.6862    1.1312    4.1910 H   0  0  0  0  0  0  0  0  0  0  0  0
   -0.9980    0.7641    4.6360 H   0  0  0  0  0  0  0  0  0  0  0  0
    0.1959   -0.5481    4.4891 H   0  0  0  0  0  0  0  0  0  0  0  0
  5  6  2  0  0  0  0
  5  7  1  0  0  0  0
  2  3  1  0  0  0  0
  2  4  1  0  0  0  0
  2  5  1  0  0  0  0
  1  2  1  0  0  0  0
 19 20  2  0  0  0  0
 19 21  1  0  0  0  0
 16 17  1  0  0  0  0
 16 18  1  0  0  0  0
 14 15  2  0  0  0  0
 14 16  1  0  0  0  0
 11 12  1  0  0  0  0
 11 13  1  0  0  0  0
 11 14  1  0  0  0  0
  9 10  1  0  0  0  0
  9 11  1  0  0  0  0
  9 19  1  0  0  0  0
  7  8  1  0  0  0  0
  7  9  1  0  0  0  0
 23 24  1  0  0  0  0
 23 25  1  0  0  0  0
 23 26  1  0  0  0  0
 21 22  1  0  0  0  0
 21 23  1  0  0  0  0
M  END
$$$$
default_name
  -OEChem-02102213163D

 26 25  0     1  0  0  0  0  0999 V2000
   -3.0232   -3.6924    1.0038 H   0  0  0  0  0  0  0  0  0  0  0  0
   -3.0082   -2.6684    0.6318 C   0  0  0  0  0  0  0  0  0  0  0  0
   -3.6332   -2.0414    1.2658 H   0  0  0  0  0  0  0  0  0  0  0  0
   -3.3762   -2.6444   -0.3912 H   0  0  0  0  0  0  0  0  0  0  0  0
   -1.5882   -2.1554    0.6658 C   0  0  0  0  0  0  0  0  0  0  0  0
   -0.6832   -2.8764    1.0638 O   0  0  0  0  0  0  0  0  0  0  0  0
   -1.3952   -0.9084    0.2428 N   0  0  0  0  0  0  0  0  0  0  0  0
   -2.1972   -0.3644   -0.0422 H   0  0  0  0  0  0  0  0  0  0  0  0
   -0.1122   -0.1994    0.2658 C   0  0  1  0  0  0  0  0  0  0  0  0
    0.6131   -0.7748   -0.3153 H   0  0  0  0  0  0  0  0  0  0  0  0
   -0.2973    1.1841   -0.3966 C   0  0  0  0  0  0  0  0  0  0  0  0
    0.3917    1.8939    0.0598 H   0  0  0  0  0  0  0  0  0  0  0  0
   -0.0596    1.1094   -1.4567 H   0  0  0  0  0  0  0  0  0  0  0  0
   -1.6943    1.7628   -0.2395 C   0  0  0  0  0  0  0  0  0  0  0  0
   -2.4068    1.5250    0.7202 O   0  0  0  0  0  0  0  0  0  0  0  0
   -2.1433    2.5444   -1.1913 N   0  0  0  0  0  0  0  0  0  0  0  0
   -3.0623    2.9260   -1.0520 H   0  0  0  0  0  0  0  0  0  0  0  0
   -1.5695    2.7707   -1.9816 H   0  0  0  0  0  0  0  0  0  0  0  0
    0.4075   -0.0985    1.7169 C   0  0  0  0  0  0  0  0  0  0  0  0
    1.5860   -0.3526    1.9662 O   0  0  0  0  0  0  0  0  0  0  0  0
   -0.4625    0.2583    2.6666 N   0  0  0  0  0  0  0  0  0  0  0  0
   -1.4309    0.3754    2.3860 H   0  0  0  0  0  0  0  0  0  0  0  0
   -0.1275    0.4111    4.0813 C   0  0  0  0  0  0  0  0  0  0  0  0
    0.6862    1.1312    4.1910 H   0  0  0  0  0  0  0  0  0  0  0  0
   -0.9980    0.7641    4.6360 H   0  0  0  0  0  0  0  0  0  0  0  0
    0.1959   -0.5481    4.4891 H   0  0  0  0  0  0  0  0  0  0  0  0
  5  6  2  0  0  0  0
  5  7  1  0  0  0  0
  2  3  1  0  0  0  0
  2  4  1  0  0  0  0
  2  5  1  0  0  0  0
  1  2  1  0  0  0  0
 19 20  2  0  0  0  0
 19 21  1  0  0  0  0
 16 17  1  0  0  0  0
 16 18  1  0  0  0  0
 14 15  2  0  0  0  0
 14 16  1  0  0  0  0
 11 12  1  0  0  0  0
 11 13  1  0  0  0  0
 11 14  1  0  0  0  0
  9 10  1  0  0  0  0
  9 11  1  0  0  0  0
  9 19  1  0  0  0  0
  7  8  1  0  0  0  0
  7  9  1  0  0  0  0
 23 24  1  0  0  0  0
 23 25  1  0  0  0  0
 23 26  1  0  0  0  0
 21 22  1  0  0  0  0
 21 23  1  0  0  0  0
M  END
$$$$
default_name
  -OEChem-02102213163D

 26 25  0     1  0  0  0  0  0999 V2000
   -3.0232   -3.6924    1.0038 H   0  0  0  0  0  0  0  0  0  0  0  0
   -3.0082   -2.6684    0.6318 C   0  0  0  0  0  0  0  0  0  0  0  0
   -3.6332   -2.0414    1.2658 H   0  0  0  0  0  0  0  0  0  0  0  0
   -3.3762   -2.6444   -0.3912 H   0  0  0  0  0  0  0  0  0  0  0  0
   -1.5882   -2.1554    0.6658 C   0  0  0  0  0  0  0  0  0  0  0  0
   -0.6832   -2.8764    1.0638 O   0  0  0  0  0  0  0  0  0  0  0  0
   -1.3952   -0.9084    0.2428 N   0  0  0  0  0  0  0  0  0  0  0  0
   -2.1972   -0.3644   -0.0422 H   0  0  0  0  0  0  0  0  0  0  0  0
   -0.1122   -0.1994    0.2658 C   0  0  1  0  0  0  0  0  0  0  0  0
    0.6131   -0.7748   -0.3153 H   0  0  0  0  0  0  0  0  0  0  0  0
   -0.2973    1.1841   -0.3966 C   0  0  0  0  0  0  0  0  0  0  0  0
    0.3917    1.8939    0.0598 H   0  0  0  0  0  0  0  0  0  0  0  0
   -0.0596    1.1094   -1.4567 H   0  0  0  0  0  0  0  0  0  0  0  0
   -1.6943    1.7628   -0.2395 C   0  0  0  0  0  0  0  0  0  0  0  0
   -2.3024    1.7509    0.8166 O   0  0  0  0  0  0  0  0  0  0  0  0
   -2.2618    2.2873   -1.2983 N   0  0  0  0  0  0  0  0  0  0  0  0
   -3.1774    2.6775   -1.1605 H   0  0  0  0  0  0  0  0  0  0  0  0
   -1.7752    2.3265   -2.1739 H   0  0  0  0  0  0  0  0  0  0  0  0
    0.4075   -0.0985    1.7169 C   0  0  0  0  0  0  0  0  0  0  0  0
    1.5860   -0.3526    1.9662 O   0  0  0  0  0  0  0  0  0  0  0  0
   -0.4625    0.2583    2.6666 N   0  0  0  0  0  0  0  0  0  0  0  0
   -1.4309    0.3754    2.3860 H   0  0  0  0  0  0  0  0  0  0  0  0
   -0.1275    0.4111    4.0813 C   0  0  0  0  0  0  0  0  0  0  0  0
    0.6862    1.1312    4.1910 H   0  0  0  0  0  0  0  0  0  0  0  0
   -0.9980    0.7641    4.6360 H   0  0  0  0  0  0  0  0  0  0  0  0
    0.1959   -0.5481    4.4891 H   0  0  0  0  0  0  0  0  0  0  0  0
  5  6  2  0  0  0  0
  5  7  1  0  0  0  0
  2  3  1  0  0  0  0
  2  4  1  0  0  0  0
  2  5  1  0  0  0  0
  1  2  1  0  0  0  0
 19 20  2  0  0  0  0
 19 21  1  0  0  0  0
 16 17  1  0  0  0  0
 16 18  1  0  0  0  0
 14 15  2  0  0  0  0
 14 16  1  0  0  0  0
 11 12  1  0  0  0  0
 11 13  1  0  0  0  0
 11 14  1  0  0  0  0
  9 10  1  0  0  0  0
  9 11  1  0  0  0  0
  9 19  1  0  0  0  0
  7  8  1  0  0  0  0
  7  9  1  0  0  0  0
 23 24  1  0  0  0  0
 23 25  1  0  0  0  0
 23 26  1  0  0  0  0
 21 22  1  0  0  0  0
 21 23  1  0  0  0  0
M  END
$$$$
default_name
  -OEChem-02102213163D

 26 25  0     1  0  0  0  0  0999 V2000
   -3.0232   -3.6924    1.0038 H   0  0  0  0  0  0  0  0  0  0  0  0
   -3.0082   -2.6684    0.6318 C   0  0  0  0  0  0  0  0  0  0  0  0
   -3.6332   -2.0414    1.2658 H   0  0  0  0  0  0  0  0  0  0  0  0
   -3.3762   -2.6444   -0.3912 H   0  0  0  0  0  0  0  0  0  0  0  0
   -1.5882   -2.1554    0.6658 C   0  0  0  0  0  0  0  0  0  0  0  0
   -0.6832   -2.8764    1.0638 O   0  0  0  0  0  0  0  0  0  0  0  0
   -1.3952   -0.9084    0.2428 N   0  0  0  0  0  0  0  0  0  0  0  0
   -2.1972   -0.3644   -0.0422 H   0  0  0  0  0  0  0  0  0  0  0  0
   -0.1122   -0.1994    0.2658 C   0  0  1  0  0  0  0  0  0  0  0  0
    0.6131   -0.7748   -0.3153 H   0  0  0  0  0  0  0  0  0  0  0  0
   -0.2973    1.1841   -0.3966 C   0  0  0  0  0  0  0  0  0  0  0  0
    0.3917    1.8939    0.0598 H   0  0  0  0  0  0  0  0  0  0  0  0
   -0.0596    1.1094   -1.4567 H   0  0  0  0  0  0  0  0  0  0  0  0
   -1.6943    1.7628   -0.2395 C   0  0  0  0  0  0  0  0  0  0  0  0
   -2.1980    1.9948    0.8457 O   0  0  0  0  0  0  0  0  0  0  0  0
   -2.3800    2.0103   -1.3289 N   0  0  0  0  0  0  0  0  0  0  0  0
   -3.2927    2.4086   -1.1948 H   0  0  0  0  0  0  0  0  0  0  0  0
   -1.9809    1.8462   -2.2338 H   0  0  0  0  0  0  0  0  0  0  0  0
    0.4075   -0.0985    1.7169 C   0  0  0  0  0  0  0  0  0  0  0  0
    1.5860   -0.3526    1.9662 O   0  0  0  0  0  0  0  0  0  0  0  0
   -0.4625    0.2583    2.6666 N   0  0  0  0  0  0  0  0  0  0  0  0
   -1.4309    0.3754    2.3860 H   0  0  0  0  0  0  0  0  0  0  0  0
   -0.1275    0.4111    4.0813 C   0  0  0  0  0  0  0  0  0  0  0  0
    0.6862    1.1312    4.1910 H   0  0  0  0  0  0  0  0  0  0  0  0
   -0.9980    0.7641    4.6360 H   0  0  0  0  0  0  0  0  0  0  0  0
    0.1959   -0.5481    4.4891 H   0  0  0  0  0  0  0  0  0  0  0  0
  5  6  2  0  0  0  0
  5  7  1  0  0  0  0
  2  3  1  0  0  0  0
  2  4  1  0  0  0  0
  2  5  1  0  0  0  0
  1  2  1  0  0  0  0
 19 20  2  0  0  0  0
 19 21  1  0  0  0  0
 16 17  1  0  0  0  0
 16 18  1  0  0  0  0
 14 15  2  0  0  0  0
 14 16  1  0  0  0  0
 11 12  1  0  0  0  0
 11 13  1  0  0  0  0
 11 14  1  0  0  0  0
  9 10  1  0  0  0  0
  9 11  1  0  0  0  0
  9 19  1  0  0  0  0
  7  8  1  0  0  0  0
  7  9  1  0  0  0  0
 23 24  1  0  0  0  0
 23 25  1  0  0  0  0
 23 26  1  0  0  0  0
 21 22  1  0  0  0  0
 21 23  1  0  0  0  0
M  END
$$$$
default_name
  -OEChem-02102213163D

 26 25  0     1  0  0  0  0  0999 V2000
   -3.0232   -3.6924    1.0038 H   0  0  0  0  0  0  0  0  0  0  0  0
   -3.0082   -2.6684    0.6318 C   0  0  0  0  0  0  0  0  0  0  0  0
   -3.6332   -2.0414    1.2658 H   0  0  0  0  0  0  0  0  0  0  0  0
   -3.3762   -2.6444   -0.3912 H   0  0  0  0  0  0  0  0  0  0  0  0
   -1.5882   -2.1554    0.6658 C   0  0  0  0  0  0  0  0  0  0  0  0
   -0.6832   -2.8764    1.0638 O   0  0  0  0  0  0  0  0  0  0  0  0
   -1.3952   -0.9084    0.2428 N   0  0  0  0  0  0  0  0  0  0  0  0
   -2.1972   -0.3644   -0.0422 H   0  0  0  0  0  0  0  0  0  0  0  0
   -0.1122   -0.1994    0.2658 C   0  0  1  0  0  0  0  0  0  0  0  0
    0.6131   -0.7748   -0.3153 H   0  0  0  0  0  0  0  0  0  0  0  0
   -0.2973    1.1841   -0.3966 C   0  0  0  0  0  0  0  0  0  0  0  0
    0.3917    1.8939    0.0598 H   0  0  0  0  0  0  0  0  0  0  0  0
   -0.0596    1.1094   -1.4567 H   0  0  0  0  0  0  0  0  0  0  0  0
   -1.6943    1.7628   -0.2395 C   0  0  0  0  0  0  0  0  0  0  0  0
   -2.1009    2.2401    0.8056 O   0  0  0  0  0  0  0  0  0  0  0  0
   -2.4897    1.7324   -1.2809 N   0  0  0  0  0  0  0  0  0  0  0  0
   -3.4002    2.1376   -1.1527 H   0  0  0  0  0  0  0  0  0  0  0  0
   -2.1726    1.3625   -2.1571 H   0  0  0  0  0  0  0  0  0  0  0  0
    0.4075   -0.0985    1.7169 C   0  0  0  0  0  0  0  0  0  0  0  0
    1.5860   -0.3526    1.9662 O   0  0  0  0  0  0  0  0  0  0  0  0
   -0.4625    0.2583    2.6666 N   0  0  0  0  0  0  0  0  0  0  0  0
   -1.4309    0.3754    2.3860 H   0  0  0  0  0  0  0  0  0  0  0  0
   -0.1275    0.4111    4.0813 C   0  0  0  0  0  0  0  0  0  0  0  0
    0.6862    1.1312    4.1910 H   0  0  0  0  0  0  0  0  0  0  0  0
   -0.9980    0.7641    4.6360 H   0  0  0  0  0  0  0  0  0  0  0  0
    0.1959   -0.5481    4.4891 H   0  0  0  0  0  0  0  0  0  0  0  0
  5  6  2  0  0  0  0
  5  7  1  0  0  0  0
  2  3  1  0  0  0  0
  2  4  1  0  0  0  0
  2  5  1  0  0  0  0
  1  2  1  0  0  0  0
 19 20  2  0  0  0  0
 19 21  1  0  0  0  0
 16 17  1  0  0  0  0
 16 18  1  0  0  0  0
 14 15  2  0  0  0  0
 14 16  1  0  0  0  0
 11 12  1  0  0  0  0
 11 13  1  0  0  0  0
 11 14  1  0  0  0  0
  9 10  1  0  0  0  0
  9 11  1  0  0  0  0
  9 19  1  0  0  0  0
  7  8  1  0  0  0  0
  7  9  1  0  0  0  0
 23 24  1  0  0  0  0
 23 25  1  0  0  0  0
 23 26  1  0  0  0  0
 21 22  1  0  0  0  0
 21 23  1  0  0  0  0
M  END
$$$$
default_name
  -OEChem-02102213163D

 26 25  0     1  0  0  0  0  0999 V2000
   -3.0232   -3.6924    1.0038 H   0  0  0  0  0  0  0  0  0  0  0  0
   -3.0082   -2.6684    0.6318 C   0  0  0  0  0  0  0  0  0  0  0  0
   -3.6332   -2.0414    1.2658 H   0  0  0  0  0  0  0  0  0  0  0  0
   -3.3762   -2.6444   -0.3912 H   0  0  0  0  0  0  0  0  0  0  0  0
   -1.5882   -2.1554    0.6658 C   0  0  0  0  0  0  0  0  0  0  0  0
   -0.6832   -2.8764    1.0638 O   0  0  0  0  0  0  0  0  0  0  0  0
   -1.3952   -0.9084    0.2428 N   0  0  0  0  0  0  0  0  0  0  0  0
   -2.1972   -0.3644   -0.0422 H   0  0  0  0  0  0  0  0  0  0  0  0
   -0.1122   -0.1994    0.2658 C   0  0  1  0  0  0  0  0  0  0  0  0
    0.6131   -0.7748   -0.3153 H   0  0  0  0  0  0  0  0  0  0  0  0
   -0.2973    1.1841   -0.3966 C   0  0  0  0  0  0  0  0  0  0  0  0
    0.3917    1.8939    0.0598 H   0  0  0  0  0  0  0  0  0  0  0  0
   -0.0596    1.1094   -1.4567 H   0  0  0  0  0  0  0  0  0  0  0  0
   -1.6943    1.7628   -0.2395 C   0  0  0  0  0  0  0  0  0  0  0  0
   -2.0177    2.4701    0.6989 O   0  0  0  0  0  0  0  0  0  0  0  0
   -2.5836    1.4724   -1.1577 N   0  0  0  0  0  0  0  0  0  0  0  0
   -3.4927    1.8829   -1.0369 H   0  0  0  0  0  0  0  0  0  0  0  0
   -2.3374    0.9084   -1.9491 H   0  0  0  0  0  0  0  0  0  0  0  0
    0.4075   -0.0985    1.7169 C   0  0  0  0  0  0  0  0  0  0  0  0
    1.5860   -0.3526    1.9662 O   0  0  0  0  0  0  0  0  0  0  0  0
   -0.4625    0.2583    2.6666 N   0  0  0  0  0  0  0  0  0  0  0  0
   -1.4309    0.3754    2.3860 H   0  0  0  0  0  0  0  0  0  0  0  0
   -0.1275    0.4111    4.0813 C   0  0  0  0  0  0  0  0  0  0  0  0
    0.6862    1.1312    4.1910 H   0  0  0  0  0  0  0  0  0  0  0  0
   -0.9980    0.7641    4.6360 H   0  0  0  0  0  0  0  0  0  0  0  0
    0.1959   -0.5481    4.4891 H   0  0  0  0  0  0  0  0  0  0  0  0
  5  6  2  0  0  0  0
  5  7  1  0  0  0  0
  2  3  1  0  0  0  0
  2  4  1  0  0  0  0
  2  5  1  0  0  0  0
  1  2  1  0  0  0  0
 19 20  2  0  0  0  0
 19 21  1  0  0  0  0
 16 17  1  0  0  0  0
 16 18  1  0  0  0  0
 14 15  2  0  0  0  0
 14 16  1  0  0  0  0
 11 12  1  0  0  0  0
 11 13  1  0  0  0  0
 11 14  1  0  0  0  0
  9 10  1  0  0  0  0
  9 11  1  0  0  0  0
  9 19  1  0  0  0  0
  7  8  1  0  0  0  0
  7  9  1  0  0  0  0
 23 24  1  0  0  0  0
 23 25  1  0  0  0  0
 23 26  1  0  0  0  0
 21 22  1  0  0  0  0
 21 23  1  0  0  0  0
M  END
$$$$
default_name
  -OEChem-02102213163D

 26 25  0     1  0  0  0  0  0999 V2000
   -3.0232   -3.6924    1.0038 H   0  0  0  0  0  0  0  0  0  0  0  0
   -3.0082   -2.6684    0.6318 C   0  0  0  0  0  0  0  0  0  0  0  0
   -3.6332   -2.0414    1.2658 H   0  0  0  0  0  0  0  0  0  0  0  0
   -3.3762   -2.6444   -0.3912 H   0  0  0  0  0  0  0  0  0  0  0  0
   -1.5882   -2.1554    0.6658 C   0  0  0  0  0  0  0  0  0  0  0  0
   -0.6832   -2.8764    1.0638 O   0  0  0  0  0  0  0  0  0  0  0  0
   -1.3952   -0.9084    0.2428 N   0  0  0  0  0  0  0  0  0  0  0  0
   -2.1972   -0.3644   -0.0422 H   0  0  0  0  0  0  0  0  0  0  0  0
   -0.1122   -0.1994    0.2658 C   0  0  1  0  0  0  0  0  0  0  0  0
    0.6131   -0.7748   -0.3153 H   0  0  0  0  0  0  0  0  0  0  0  0
   -0.2973    1.1841   -0.3966 C   0  0  0  0  0  0  0  0  0  0  0  0
    0.3917    1.8939    0.0598 H   0  0  0  0  0  0  0  0  0  0  0  0
   -0.0596    1.1094   -1.4567 H   0  0  0  0  0  0  0  0  0  0  0  0
   -1.6943    1.7628   -0.2395 C   0  0  0  0  0  0  0  0  0  0  0  0
   -1.9539    2.6691    0.5329 O   0  0  0  0  0  0  0  0  0  0  0  0
   -2.6551    1.2480   -0.9675 N   0  0  0  0  0  0  0  0  0  0  0  0
   -3.5638    1.6620   -0.8554 H   0  0  0  0  0  0  0  0  0  0  0  0
   -2.4638    0.5149   -1.6240 H   0  0  0  0  0  0  0  0  0  0  0  0
    0.4075   -0.0985    1.7169 C   0  0  0  0  0  0  0  0  0  0  0  0
    1.5860   -0.3526    1.9662 O   0  0  0  0  0  0  0  0  0  0  0  0
   -0.4625    0.2583    2.6666 N   0  0  0  0  0  0  0  0  0  0  0  0
   -1.4309    0.3754    2.3860 H   0  0  0  0  0  0  0  0  0  0  0  0
   -0.1275    0.4111    4.0813 C   0  0  0  0  0  0  0  0  0  0  0  0
    0.6862    1.1312    4.1910 H   0  0  0  0  0  0  0  0  0  0  0  0
   -0.9980    0.7641    4.6360 H   0  0  0  0  0  0  0  0  0  0  0  0
    0.1959   -0.5481    4.4891 H   0  0  0  0  0  0  0  0  0  0  0  0
  5  6  2  0  0  0  0
  5  7  1  0  0  0  0
  2  3  1  0  0  0  0
  2  4  1  0  0  0  0
  2  5  1  0  0  0  0
  1  2  1  0  0  0  0
 19 20  2  0  0  0  0
 19 21  1  0  0  0  0
 16 17  1  0  0  0  0
 16 18  1  0  0  0  0
 14 15  2  0  0  0  0
 14 16  1  0  0  0  0
 11 12  1  0  0  0  0
 11 13  1  0  0  0  0
 11 14  1  0  0  0  0
  9 10  1  0  0  0  0
  9 11  1  0  0  0  0
  9 19  1  0  0  0  0
  7  8  1  0  0  0  0
  7  9  1  0  0  0  0
 23 24  1  0  0  0  0
 23 25  1  0  0  0  0
 23 26  1  0  0  0  0
 21 22  1  0  0  0  0
 21 23  1  0  0  0  0
M  END
$$$$
default_name
  -OEChem-02102213163D

 26 25  0     1  0  0  0  0  0999 V2000
   -3.0232   -3.6924    1.0038 H   0  0  0  0  0  0  0  0  0  0  0  0
   -3.0082   -2.6684    0.6318 C   0  0  0  0  0  0  0  0  0  0  0  0
   -3.6332   -2.0414    1.2658 H   0  0  0  0  0  0  0  0  0  0  0  0
   -3.3762   -2.6444   -0.3912 H   0  0  0  0  0  0  0  0  0  0  0  0
   -1.5882   -2.1554    0.6658 C   0  0  0  0  0  0  0  0  0  0  0  0
   -0.6832   -2.8764    1.0638 O   0  0  0  0  0  0  0  0  0  0  0  0
   -1.3952   -0.9084    0.2428 N   0  0  0  0  0  0  0  0  0  0  0  0
   -2.1972   -0.3644   -0.0422 H   0  0  0  0  0  0  0  0  0  0  0  0
   -0.1122   -0.1994    0.2658 C   0  0  1  0  0  0  0  0  0  0  0  0
    0.6131   -0.7748   -0.3153 H   0  0  0  0  0  0  0  0  0  0  0  0
   -0.2973    1.1841   -0.3966 C   0  0  0  0  0  0  0  0  0  0  0  0
    0.3917    1.8939    0.0598 H   0  0  0  0  0  0  0  0  0  0  0  0
   -0.0596    1.1094   -1.4567 H   0  0  0  0  0  0  0  0  0  0  0  0
   -1.6943    1.7628   -0.2395 C   0  0  0  0  0  0  0  0  0  0  0  0
   -1.9139    2.8236    0.3189 O   0  0  0  0  0  0  0  0  0  0  0  0
   -2.6995    1.0747   -0.7235 N   0  0  0  0  0  0  0  0  0  0  0  0
   -3.6087    1.4899   -0.6206 H   0  0  0  0  0  0  0  0  0  0  0  0
   -2.5434    0.2087   -1.2039 H   0  0  0  0  0  0  0  0  0  0  0  0
    0.4075   -0.0985    1.7169 C   0  0  0  0  0  0  0  0  0  0  0  0
    1.5860   -0.3526    1.9662 O   0  0  0  0  0  0  0  0  0  0  0  0
   -0.4625    0.2583    2.6666 N   0  0  0  0  0  0  0  0  0  0  0  0
   -1.4309    0.3754    2.3860 H   0  0  0  0  0  0  0  0  0  0  0  0
   -0.1275    0.4111    4.0813 C   0  0  0  0  0  0  0  0  0  0  0  0
    0.6862    1.1312    4.1910 H   0  0  0  0  0  0  0  0  0  0  0  0
   -0.9980    0.7641    4.6360 H   0  0  0  0  0  0  0  0  0  0  0  0
    0.1959   -0.5481    4.4891 H   0  0  0  0  0  0  0  0  0  0  0  0
  5  6  2  0  0  0  0
  5  7  1  0  0  0  0
  2  3  1  0  0  0  0
  2  4  1  0  0  0  0
  2  5  1  0  0  0  0
  1  2  1  0  0  0  0
 19 20  2  0  0  0  0
 19 21  1  0  0  0  0
 16 17  1  0  0  0  0
 16 18  1  0  0  0  0
 14 15  2  0  0  0  0
 14 16  1  0  0  0  0
 11 12  1  0  0  0  0
 11 13  1  0  0  0  0
 11 14  1  0  0  0  0
  9 10  1  0  0  0  0
  9 11  1  0  0  0  0
  9 19  1  0  0  0  0
  7  8  1  0  0  0  0
  7  9  1  0  0  0  0
 23 24  1  0  0  0  0
 23 25  1  0  0  0  0
 23 26  1  0  0  0  0
 21 22  1  0  0  0  0
 21 23  1  0  0  0  0
M  END
$$$$
default_name
  -OEChem-02102213163D

 26 25  0     1  0  0  0  0  0999 V2000
   -3.0232   -3.6924    1.0038 H   0  0  0  0  0  0  0  0  0  0  0  0
   -3.0082   -2.6684    0.6318 C   0  0  0  0  0  0  0  0  0  0  0  0
   -3.6332   -2.0414    1.2658 H   0  0  0  0  0  0  0  0  0  0  0  0
   -3.3762   -2.6444   -0.3912 H   0  0  0  0  0  0  0  0  0  0  0  0
   -1.5882   -2.1554    0.6658 C   0  0  0  0  0  0  0  0  0  0  0  0
   -0.6832   -2.8764    1.0638 O   0  0  0  0  0  0  0  0  0  0  0  0
   -1.3952   -0.9084    0.2428 N   0  0  0  0  0  0  0  0  0  0  0  0
   -2.1972   -0.3644   -0.0422 H   0  0  0  0  0  0  0  0  0  0  0  0
   -0.1122   -0.1994    0.2658 C   0  0  1  0  0  0  0  0  0  0  0  0
    0.6131   -0.7748   -0.3153 H   0  0  0  0  0  0  0  0  0  0  0  0
   -0.2973    1.1841   -0.3966 C   0  0  0  0  0  0  0  0  0  0  0  0
    0.3917    1.8939    0.0598 H   0  0  0  0  0  0  0  0  0  0  0  0
   -0.0596    1.1094   -1.4567 H   0  0  0  0  0  0  0  0  0  0  0  0
   -1.6943    1.7628   -0.2395 C   0  0  0  0  0  0  0  0  0  0  0  0
   -1.9006    2.9230    0.0716 O   0  0  0  0  0  0  0  0  0  0  0  0
   -2.7137    0.9640   -0.4421 N   0  0  0  0  0  0  0  0  0  0  0  0
   -3.6243    1.3783   -0.3483 H   0  0  0  0  0  0  0  0  0  0  0  0
   -2.5707    0.0107   -0.7174 H   0  0  0  0  0  0  0  0  0  0  0  0
    0.4075   -0.0985    1.7169 C   0  0  0  0  0  0  0  0  0  0  0  0
    1.5860   -0.3526    1.9662 O   0  0  0  0  0  0  0  0  0  0  0  0
   -0.4625    0.2583    2.6666 N   0  0  0  0  0  0  0  0  0  0  0  0
   -1.4309    0.3754    2.3860 H   0  0  0  0  0  0  0  0  0  0  0  0
   -0.1275    0.4111    4.0813 C   0  0  0  0  0  0  0  0  0  0  0  0
    0.6862    1.1312    4.1910 H   0  0  0  0  0  0  0  0  0  0  0  0
   -0.9980    0.7641    4.6360 H   0  0  0  0  0  0  0  0  0  0  0  0
    0.1959   -0.5481    4.4891 H   0  0  0  0  0  0  0  0  0  0  0  0
  5  6  2  0  0  0  0
  5  7  1  0  0  0  0
  2  3  1  0  0  0  0
  2  4  1  0  0  0  0
  2  5  1  0  0  0  0
  1  2  1  0  0  0  0
 19 20  2  0  0  0  0
 19 21  1  0  0  0  0
 16 17  1  0  0  0  0
 16 18  1  0  0  0  0
 14 15  2  0  0  0  0
 14 16  1  0  0  0  0
 11 12  1  0  0  0  0
 11 13  1  0  0  0  0
 11 14  1  0  0  0  0
  9 10  1  0  0  0  0
  9 11  1  0  0  0  0
  9 19  1  0  0  0  0
  7  8  1  0  0  0  0
  7  9  1  0  0  0  0
 23 24  1  0  0  0  0
 23 25  1  0  0  0  0
 23 26  1  0  0  0  0
 21 22  1  0  0  0  0
 21 23  1  0  0  0  0
M  END
$$$$
default_name
  -OEChem-02102213163D

 26 25  0     1  0  0  0  0  0999 V2000
   -3.0232   -3.6924    1.0038 H   0  0  0  0  0  0  0  0  0  0  0  0
   -3.0082   -2.6684    0.6318 C   0  0  0  0  0  0  0  0  0  0  0  0
   -3.6332   -2.0414    1.2658 H   0  0  0  0  0  0  0  0  0  0  0  0
   -3.3762   -2.6444   -0.3912 H   0  0  0  0  0  0  0  0  0  0  0  0
   -1.5882   -2.1554    0.6658 C   0  0  0  0  0  0  0  0  0  0  0  0
   -0.6832   -2.8764    1.0638 O   0  0  0  0  0  0  0  0  0  0  0  0
   -1.3952   -0.9084    0.2428 N   0  0  0  0  0  0  0  0  0  0  0  0
   -2.1972   -0.3644   -0.0422 H   0  0  0  0  0  0  0  0  0  0  0  0
   -0.1122   -0.1994    0.2658 C   0  0  1  0  0  0  0  0  0  0  0  0
    0.6131   -0.7748   -0.3153 H   0  0  0  0  0  0  0  0  0  0  0  0
   -0.2973    1.1841   -0.3966 C   0  0  0  0  0  0  0  0  0  0  0  0
    0.3917    1.8939    0.0598 H   0  0  0  0  0  0  0  0  0  0  0  0
   -0.0596    1.1094   -1.4567 H   0  0  0  0  0  0  0  0  0  0  0  0
   -1.6943    1.7628   -0.2395 C   0  0  0  0  0  0  0  0  0  0  0  0
   -1.9147    2.9605   -0.1922 O   0  0  0  0  0  0  0  0  0  0  0  0
   -2.6967    0.9237   -0.1426 N   0  0  0  0  0  0  0  0  0  0  0  0
   -3.6096    1.3349   -0.0573 H   0  0  0  0  0  0  0  0  0  0  0  0
   -2.5439   -0.0655   -0.1977 H   0  0  0  0  0  0  0  0  0  0  0  0
    0.4075   -0.0985    1.7169 C   0  0  0  0  0  0  0  0  0  0  0  0
    1.5860   -0.3526    1.9662 O   0  0  0  0  0  0  0  0  0  0  0  0
   -0.4625    0.2583    2.6666 N   0  0  0  0  0  0  0  0  0  0  0  0
   -1.4309    0.3754    2.3860 H   0  0  0  0  0  0  0  0  0  0  0  0
   -0.1275    0.4111    4.0813 C   0  0  0  0  0  0  0  0  0  0  0  0
    0.6862    1.1312    4.1910 H   0  0  0  0  0  0  0  0  0  0  0  0
   -0.9980    0.7641    4.6360 H   0  0  0  0  0  0  0  0  0  0  0  0
    0.1959   -0.5481    4.4891 H   0  0  0  0  0  0  0  0  0  0  0  0
  5  6  2  0  0  0  0
  5  7  1  0  0  0  0
  2  3  1  0  0  0  0
  2  4  1  0  0  0  0
  2  5  1  0  0  0  0
  1  2  1  0  0  0  0
 19 20  2  0  0  0  0
 19 21  1  0  0  0  0
 16 17  1  0  0  0  0
 16 18  1  0  0  0  0
 14 15  2  0  0  0  0
 14 16  1  0  0  0  0
 11 12  1  0  0  0  0
 11 13  1  0  0  0  0
 11 14  1  0  0  0  0
  9 10  1  0  0  0  0
  9 11  1  0  0  0  0
  9 19  1  0  0  0  0
  7  8  1  0  0  0  0
  7  9  1  0  0  0  0
 23 24  1  0  0  0  0
 23 25  1  0  0  0  0
 23 26  1  0  0  0  0
 21 22  1  0  0  0  0
 21 23  1  0  0  0  0
M  END
$$$$
default_name
  -OEChem-02102213163D

 26 25  0     1  0  0  0  0  0999 V2000
   -3.0232   -3.6924    1.0038 H   0  0  0  0  0  0  0  0  0  0  0  0
   -3.0082   -2.6684    0.6318 C   0  0  0  0  0  0  0  0  0  0  0  0
   -3.6332   -2.0414    1.2658 H   0  0  0  0  0  0  0  0  0  0  0  0
   -3.3762   -2.6444   -0.3912 H   0  0  0  0  0  0  0  0  0  0  0  0
   -1.5882   -2.1554    0.6658 C   0  0  0  0  0  0  0  0  0  0  0  0
   -0.6832   -2.8764    1.0638 O   0  0  0  0  0  0  0  0  0  0  0  0
   -1.3952   -0.9084    0.2428 N   0  0  0  0  0  0  0  0  0  0  0  0
   -2.1972   -0.3644   -0.0422 H   0  0  0  0  0  0  0  0  0  0  0  0
   -0.1122   -0.1994    0.2658 C   0  0  1  0  0  0  0  0  0  0  0  0
    0.6131   -0.7748   -0.3153 H   0  0  0  0  0  0  0  0  0  0  0  0
   -0.2973    1.1841   -0.3966 C   0  0  0  0  0  0  0  0  0  0  0  0
    0.3917    1.8939    0.0598 H   0  0  0  0  0  0  0  0  0  0  0  0
   -0.0596    1.1094   -1.4567 H   0  0  0  0  0  0  0  0  0  0  0  0
   -1.6943    1.7628   -0.2395 C   0  0  0  0  0  0  0  0  0  0  0  0
   -1.9554    2.9336   -0.4546 O   0  0  0  0  0  0  0  0  0  0  0  0
   -2.6497    0.9565    0.1546 N   0  0  0  0  0  0  0  0  0  0  0  0
   -3.5655    1.3625    0.2327 H   0  0  0  0  0  0  0  0  0  0  0  0
   -2.4647   -0.0149    0.3197 H   0  0  0  0  0  0  0  0  0  0  0  0
    0.4075   -0.0985    1.7169 C   0  0  0  0  0  0  0  0  0  0  0  0
    1.5860   -0.3526    1.9662 O   0  0  0  0  0  0  0  0  0  0  0  0
   -0.4625    0.2583    2.6666 N   0  0  0  0  0  0  0  0  0  0  0  0
   -1.4309    0.3754    2.3860 H   0  0  0  0  0  0  0  0  0  0  0  0
   -0.1275    0.4111    4.0813 C   0  0  0  0  0  0  0  0  0  0  0  0
    0.6862    1.1312    4.1910 H   0  0  0  0  0  0  0  0  0  0  0  0
   -0.9980    0.7641    4.6360 H   0  0  0  0  0  0  0  0  0  0  0  0
    0.1959   -0.5481    4.4891 H   0  0  0  0  0  0  0  0  0  0  0  0
  5  6  2  0  0  0  0
  5  7  1  0  0  0  0
  2  3  1  0  0  0  0
  2  4  1  0  0  0  0
  2  5  1  0  0  0  0
  1  2  1  0  0  0  0
 19 20  2  0  0  0  0
 19 21  1  0  0  0  0
 16 17  1  0  0  0  0
 16 18  1  0  0  0  0
 14 15  2  0  0  0  0
 14 16  1  0  0  0  0
 11 12  1  0  0  0  0
 11 13  1  0  0  0  0
 11 14  1  0  0  0  0
  9 10  1  0  0  0  0
  9 11  1  0  0  0  0
  9 19  1  0  0  0  0
  7  8  1  0  0  0  0
  7  9  1  0  0  0  0
 23 24  1  0  0  0  0
 23 25  1  0  0  0  0
 23 26  1  0  0  0  0
 21 22  1  0  0  0  0
 21 23  1  0  0  0  0
M  END
$$$$
default_name
  -OEChem-02102213163D

 26 25  0     1  0  0  0  0  0999 V2000
   -3.0232   -3.6924    1.0038 H   0  0  0  0  0  0  0  0  0  0  0  0
   -3.0082   -2.6684    0.6318 C   0  0  0  0  0  0  0  0  0  0  0  0
   -3.6332   -2.0414    1.2658 H   0  0  0  0  0  0  0  0  0  0  0  0
   -3.3762   -2.6444   -0.3912 H   0  0  0  0  0  0  0  0  0  0  0  0
   -1.5882   -2.1554    0.6658 C   0  0  0  0  0  0  0  0  0  0  0  0
   -0.6832   -2.8764    1.0638 O   0  0  0  0  0  0  0  0  0  0  0  0
   -1.3952   -0.9084    0.2428 N   0  0  0  0  0  0  0  0  0  0  0  0
   -2.1972   -0.3644   -0.0422 H   0  0  0  0  0  0  0  0  0  0  0  0
   -0.1122   -0.1994    0.2658 C   0  0  1  0  0  0  0  0  0  0  0  0
    0.6131   -0.7748   -0.3153 H   0  0  0  0  0  0  0  0  0  0  0  0
   -0.2973    1.1841   -0.3966 C   0  0  0  0  0  0  0  0  0  0  0  0
    0.5513    1.8183   -0.1427 H   0  0  0  0  0  0  0  0  0  0  0  0
   -0.3232    1.0636   -1.4786 H   0  0  0  0  0  0  0  0  0  0  0  0
   -1.5486    1.9218    0.0520 C   0  0  0  0  0  0  0  0  0  0  0  0
   -1.8541    3.0250   -0.3664 O   0  0  0  0  0  0  0  0  0  0  0  0
   -2.3199    1.3368    0.9358 N   0  0  0  0  0  0  0  0  0  0  0  0
   -3.1484    1.8401    1.2002 H   0  0  0  0  0  0  0  0  0  0  0  0
   -2.1007    0.4216    1.2811 H   0  0  0  0  0  0  0  0  0  0  0  0
    0.4075   -0.0985    1.7169 C   0  0  0  0  0  0  0  0  0  0  0  0
    1.5860   -0.3526    1.9662 O   0  0  0  0  0  0  0  0  0  0  0  0
   -0.4625    0.2583    2.6666 N   0  0  0  0  0  0  0  0  0  0  0  0
   -1.4309    0.3754    2.3860 H   0  0  0  0  0  0  0  0  0  0  0  0
   -0.1275    0.4111    4.0813 C   0  0  0  0  0  0  0  0  0  0  0  0
    0.6862    1.1312    4.1910 H   0  0  0  0  0  0  0  0  0  0  0  0
   -0.9980    0.7641    4.6360 H   0  0  0  0  0  0  0  0  0  0  0  0
    0.1959   -0.5481    4.4891 H   0  0  0  0  0  0  0  0  0  0  0  0
  5  6  2  0  0  0  0
  5  7  1  0  0  0  0
  2  3  1  0  0  0  0
  2  4  1  0  0  0  0
  2  5  1  0  0  0  0
  1  2  1  0  0  0  0
 19 20  2  0  0  0  0
 19 21  1  0  0  0  0
 16 17  1  0  0  0  0
 16 18  1  0  0  0  0
 14 15  2  0  0  0  0
 14 16  1  0  0  0  0
 11 12  1  0  0  0  0
 11 13  1  0  0  0  0
 11 14  1  0  0  0  0
  9 10  1  0  0  0  0
  9 11  1  0  0  0  0
  9 19  1  0  0  0  0
  7  8  1  0  0  0  0
  7  9  1  0  0  0  0
 23 24  1  0  0  0  0
 23 25  1  0  0  0  0
 23 26  1  0  0  0  0
 21 22  1  0  0  0  0
 21 23  1  0  0  0  0
M  END
$$$$
default_name
  -OEChem-02102213163D

 26 25  0     1  0  0  0  0  0999 V2000
   -3.0232   -3.6924    1.0038 H   0  0  0  0  0  0  0  0  0  0  0  0
   -3.0082   -2.6684    0.6318 C   0  0  0  0  0  0  0  0  0  0  0  0
   -3.6332   -2.0414    1.2658 H   0  0  0  0  0  0  0  0  0  0  0  0
   -3.3762   -2.6444   -0.3912 H   0  0  0  0  0  0  0  0  0  0  0  0
   -1.5882   -2.1554    0.6658 C   0  0  0  0  0  0  0  0  0  0  0  0
   -0.6832   -2.8764    1.0638 O   0  0  0  0  0  0  0  0  0  0  0  0
   -1.3952   -0.9084    0.2428 N   0  0  0  0  0  0  0  0  0  0  0  0
   -2.1972   -0.3644   -0.0422 H   0  0  0  0  0  0  0  0  0  0  0  0
   -0.1122   -0.1994    0.2658 C   0  0  1  0  0  0  0  0  0  0  0  0
    0.6131   -0.7748   -0.3153 H   0  0  0  0  0  0  0  0  0  0  0  0
   -0.2973    1.1841   -0.3966 C   0  0  0  0  0  0  0  0  0  0  0  0
    0.5513    1.8183   -0.1427 H   0  0  0  0  0  0  0  0  0  0  0  0
   -0.3232    1.0636   -1.4786 H   0  0  0  0  0  0  0  0  0  0  0  0
   -1.5486    1.9218    0.0520 C   0  0  0  0  0  0  0  0  0  0  0  0
   -1.9991    2.8859   -0.5420 O   0  0  0  0  0  0  0  0  0  0  0  0
   -2.1551    1.4963    1.1333 N   0  0  0  0  0  0  0  0  0  0  0  0
   -2.9887    1.9920    1.3957 H   0  0  0  0  0  0  0  0  0  0  0  0
   -1.8154    0.6938    1.6290 H   0  0  0  0  0  0  0  0  0  0  0  0
    0.4075   -0.0985    1.7169 C   0  0  0  0  0  0  0  0  0  0  0  0
    1.5860   -0.3526    1.9662 O   0  0  0  0  0  0  0  0  0  0  0  0
   -0.4625    0.2583    2.6666 N   0  0  0  0  0  0  0  0  0  0  0  0
   -1.4309    0.3754    2.3860 H   0  0  0  0  0  0  0  0  0  0  0  0
   -0.1275    0.4111    4.0813 C   0  0  0  0  0  0  0  0  0  0  0  0
    0.6862    1.1312    4.1910 H   0  0  0  0  0  0  0  0  0  0  0  0
   -0.9980    0.7641    4.6360 H   0  0  0  0  0  0  0  0  0  0  0  0
    0.1959   -0.5481    4.4891 H   0  0  0  0  0  0  0  0  0  0  0  0
  5  6  2  0  0  0  0
  5  7  1  0  0  0  0
  2  3  1  0  0  0  0
  2  4  1  0  0  0  0
  2  5  1  0  0  0  0
  1  2  1  0  0  0  0
 19 20  2  0  0  0  0
 19 21  1  0  0  0  0
 16 17  1  0  0  0  0
 16 18  1  0  0  0  0
 14 15  2  0  0  0  0
 14 16  1  0  0  0  0
 11 12  1  0  0  0  0
 11 13  1  0  0  0  0
 11 14  1  0  0  0  0
  9 10  1  0  0  0  0
  9 11  1  0  0  0  0
  9 19  1  0  0  0  0
  7  8  1  0  0  0  0
  7  9  1  0  0  0  0
 23 24  1  0  0  0  0
 23 25  1  0  0  0  0
 23 26  1  0  0  0  0
 21 22  1  0  0  0  0
 21 23  1  0  0  0  0
M  END
$$$$
default_name
  -OEChem-02102213163D

 26 25  0     1  0  0  0  0  0999 V2000
   -3.0232   -3.6924    1.0038 H   0  0  0  0  0  0  0  0  0  0  0  0
   -3.0082   -2.6684    0.6318 C   0  0  0  0  0  0  0  0  0  0  0  0
   -3.6332   -2.0414    1.2658 H   0  0  0  0  0  0  0  0  0  0  0  0
   -3.3762   -2.6444   -0.3912 H   0  0  0  0  0  0  0  0  0  0  0  0
   -1.5882   -2.1554    0.6658 C   0  0  0  0  0  0  0  0  0  0  0  0
   -0.6832   -2.8764    1.0638 O   0  0  0  0  0  0  0  0  0  0  0  0
   -1.3952   -0.9084    0.2428 N   0  0  0  0  0  0  0  0  0  0  0  0
   -2.1972   -0.3644   -0.0422 H   0  0  0  0  0  0  0  0  0  0  0  0
   -0.1122   -0.1994    0.2658 C   0  0  1  0  0  0  0  0  0  0  0  0
    0.6131   -0.7748   -0.3153 H   0  0  0  0  0  0  0  0  0  0  0  0
   -0.2973    1.1841   -0.3966 C   0  0  0  0  0  0  0  0  0  0  0  0
    0.5513    1.8183   -0.1427 H   0  0  0  0  0  0  0  0  0  0  0  0
   -0.3232    1.0636   -1.4786 H   0  0  0  0  0  0  0  0  0  0  0  0
   -1.5486    1.9218    0.0520 C   0  0  0  0  0  0  0  0  0  0  0  0
   -2.1506    2.7031   -0.6639 O   0  0  0  0  0  0  0  0  0  0  0  0
   -1.9832    1.7049    1.2695 N   0  0  0  0  0  0  0  0  0  0  0  0
   -2.8216    2.1926    1.5321 H   0  0  0  0  0  0  0  0  0  0  0  0
   -1.5169    1.0527    1.8713 H   0  0  0  0  0  0  0  0  0  0  0  0
    0.4075   -0.0985    1.7169 C   0  0  0  0  0  0  0  0  0  0  0  0
    1.5860   -0.3526    1.9662 O   0  0  0  0  0  0  0  0  0  0  0  0
   -0.4625    0.2583    2.6666 N   0  0  0  0  0  0  0  0  0  0  0  0
   -1.4309    0.3754    2.3860 H   0  0  0  0  0  0  0  0  0  0  0  0
   -0.1275    0.4111    4.0813 C   0  0  0  0  0  0  0  0  0  0  0  0
    0.6862    1.1312    4.1910 H   0  0  0  0  0  0  0  0  0  0  0  0
   -0.9980    0.7641    4.6360 H   0  0  0  0  0  0  0  0  0  0  0  0
    0.1959   -0.5481    4.4891 H   0  0  0  0  0  0  0  0  0  0  0  0
  5  6  2  0  0  0  0
  5  7  1  0  0  0  0
  2  3  1  0  0  0  0
  2  4  1  0  0  0  0
  2  5  1  0  0  0  0
  1  2  1  0  0  0  0
 19 20  2  0  0  0  0
 19 21  1  0  0  0  0
 16 17  1  0  0  0  0
 16 18  1  0  0  0  0
 14 15  2  0  0  0  0
 14 16  1  0  0  0  0
 11 12  1  0  0  0  0
 11 13  1  0  0  0  0
 11 14  1  0  0  0  0
  9 10  1  0  0  0  0
  9 11  1  0  0  0  0
  9 19  1  0  0  0  0
  7  8  1  0  0  0  0
  7  9  1  0  0  0  0
 23 24  1  0  0  0  0
 23 25  1  0  0  0  0
 23 26  1  0  0  0  0
 21 22  1  0  0  0  0
 21 23  1  0  0  0  0
M  END
$$$$
default_name
  -OEChem-02102213163D

 26 25  0     1  0  0  0  0  0999 V2000
   -3.0232   -3.6924    1.0038 H   0  0  0  0  0  0  0  0  0  0  0  0
   -3.0082   -2.6684    0.6318 C   0  0  0  0  0  0  0  0  0  0  0  0
   -3.6332   -2.0414    1.2658 H   0  0  0  0  0  0  0  0  0  0  0  0
   -3.3762   -2.6444   -0.3912 H   0  0  0  0  0  0  0  0  0  0  0  0
   -1.5882   -2.1554    0.6658 C   0  0  0  0  0  0  0  0  0  0  0  0
   -0.6832   -2.8764    1.0638 O   0  0  0  0  0  0  0  0  0  0  0  0
   -1.3952   -0.9084    0.2428 N   0  0  0  0  0  0  0  0  0  0  0  0
   -2.1972   -0.3644   -0.0422 H   0  0  0  0  0  0  0  0  0  0  0  0
   -0.1122   -0.1994    0.2658 C   0  0  1  0  0  0  0  0  0  0  0  0
    0.6131   -0.7748   -0.3153 H   0  0  0  0  0  0  0  0  0  0  0  0
   -0.2973    1.1841   -0.3966 C   0  0  0  0  0  0  0  0  0  0  0  0
    0.5513    1.8183   -0.1427 H   0  0  0  0  0  0  0  0  0  0  0  0
   -0.3232    1.0636   -1.4786 H   0  0  0  0  0  0  0  0  0  0  0  0
   -1.5486    1.9218    0.0520 C   0  0  0  0  0  0  0  0  0  0  0  0
   -2.2982    2.4890   -0.7237 O   0  0  0  0  0  0  0  0  0  0  0  0
   -1.8161    1.9486    1.3349 N   0  0  0  0  0  0  0  0  0  0  0  0
   -2.6583    2.4282    1.6001 H   0  0  0  0  0  0  0  0  0  0  0  0
   -1.2256    1.4738    1.9914 H   0  0  0  0  0  0  0  0  0  0  0  0
    0.4075   -0.0985    1.7169 C   0  0  0  0  0  0  0  0  0  0  0  0
    1.5860   -0.3526    1.9662 O   0  0  0  0  0  0  0  0  0  0  0  0
   -0.4625    0.2583    2.6666 N   0  0  0  0  0  0  0  0  0  0  0  0
   -1.4309    0.3754    2.3860 H   0  0  0  0  0  0  0  0  0  0  0  0
   -0.1275    0.4111    4.0813 C   0  0  0  0  0  0  0  0  0  0  0  0
    0.6862    1.1312    4.1910 H   0  0  0  0  0  0  0  0  0  0  0  0
   -0.9980    0.7641    4.6360 H   0  0  0  0  0  0  0  0  0  0  0  0
    0.1959   -0.5481    4.4891 H   0  0  0  0  0  0  0  0  0  0  0  0
  5  6  2  0  0  0  0
  5  7  1  0  0  0  0
  2  3  1  0  0  0  0
  2  4  1  0  0  0  0
  2  5  1  0  0  0  0
  1  2  1  0  0  0  0
 19 20  2  0  0  0  0
 19 21  1  0  0  0  0
 16 17  1  0  0  0  0
 16 18  1  0  0  0  0
 14 15  2  0  0  0  0
 14 16  1  0  0  0  0
 11 12  1  0  0  0  0
 11 13  1  0  0  0  0
 11 14  1  0  0  0  0
  9 10  1  0  0  0  0
  9 11  1  0  0  0  0
  9 19  1  0  0  0  0
  7  8  1  0  0  0  0
  7  9  1  0  0  0  0
 23 24  1  0  0  0  0
 23 25  1  0  0  0  0
 23 26  1  0  0  0  0
 21 22  1  0  0  0  0
 21 23  1  0  0  0  0
M  END
$$$$
default_name
  -OEChem-02102213163D

 26 25  0     1  0  0  0  0  0999 V2000
   -3.0232   -3.6924    1.0038 H   0  0  0  0  0  0  0  0  0  0  0  0
   -3.0082   -2.6684    0.6318 C   0  0  0  0  0  0  0  0  0  0  0  0
   -3.6332   -2.0414    1.2658 H   0  0  0  0  0  0  0  0  0  0  0  0
   -3.3762   -2.6444   -0.3912 H   0  0  0  0  0  0  0  0  0  0  0  0
   -1.5882   -2.1554    0.6658 C   0  0  0  0  0  0  0  0  0  0  0  0
   -0.6832   -2.8764    1.0638 O   0  0  0  0  0  0  0  0  0  0  0  0
   -1.3952   -0.9084    0.2428 N   0  0  0  0  0  0  0  0  0  0  0  0
   -2.1972   -0.3644   -0.0422 H   0  0  0  0  0  0  0  0  0  0  0  0
   -0.1122   -0.1994    0.2658 C   0  0  1  0  0  0  0  0  0  0  0  0
    0.6131   -0.7748   -0.3153 H   0  0  0  0  0  0  0  0  0  0  0  0
   -0.2973    1.1841   -0.3966 C   0  0  0  0  0  0  0  0  0  0  0  0
    0.5513    1.8183   -0.1427 H   0  0  0  0  0  0  0  0  0  0  0  0
   -0.3232    1.0636   -1.4786 H   0  0  0  0  0  0  0  0  0  0  0  0
   -1.5486    1.9218    0.0520 C   0  0  0  0  0  0  0  0  0  0  0  0
   -2.4320    2.2581   -0.7172 O   0  0  0  0  0  0  0  0  0  0  0  0
   -1.6650    2.2107    1.3253 N   0  0  0  0  0  0  0  0  0  0  0  0
   -2.5100    2.6828    1.5951 H   0  0  0  0  0  0  0  0  0  0  0  0
   -0.9613    1.9283    1.9811 H   0  0  0  0  0  0  0  0  0  0  0  0
    0.4075   -0.0985    1.7169 C   0  0  0  0  0  0  0  0  0  0  0  0
    1.5860   -0.3526    1.9662 O   0  0  0  0  0  0  0  0  0  0  0  0
   -0.4625    0.2583    2.6666 N   0  0  0  0  0  0  0  0  0  0  0  0
   -1.4309    0.3754    2.3860 H   0  0  0  0  0  0  0  0  0  0  0  0
   -0.1275    0.4111    4.0813 C   0  0  0  0  0  0  0  0  0  0  0  0
    0.6862    1.1312    4.1910 H   0  0  0  0  0  0  0  0  0  0  0  0
   -0.9980    0.7641    4.6360 H   0  0  0  0  0  0  0  0  0  0  0  0
    0.1959   -0.5481    4.4891 H   0  0  0  0  0  0  0  0  0  0  0  0
  5  6  2  0  0  0  0
  5  7  1  0  0  0  0
  2  3  1  0  0  0  0
  2  4  1  0  0  0  0
  2  5  1  0  0  0  0
  1  2  1  0  0  0  0
 19 20  2  0  0  0  0
 19 21  1  0  0  0  0
 16 17  1  0  0  0  0
 16 18  1  0  0  0  0
 14 15  2  0  0  0  0
 14 16  1  0  0  0  0
 11 12  1  0  0  0  0
 11 13  1  0  0  0  0
 11 14  1  0  0  0  0
  9 10  1  0  0  0  0
  9 11  1  0  0  0  0
  9 19  1  0  0  0  0
  7  8  1  0  0  0  0
  7  9  1  0  0  0  0
 23 24  1  0  0  0  0
 23 25  1  0  0  0  0
 23 26  1  0  0  0  0
 21 22  1  0  0  0  0
 21 23  1  0  0  0  0
M  END
$$$$
default_name
  -OEChem-02102213163D

 26 25  0     1  0  0  0  0  0999 V2000
   -3.0232   -3.6924    1.0038 H   0  0  0  0  0  0  0  0  0  0  0  0
   -3.0082   -2.6684    0.6318 C   0  0  0  0  0  0  0  0  0  0  0  0
   -3.6332   -2.0414    1.2658 H   0  0  0  0  0  0  0  0  0  0  0  0
   -3.3762   -2.6444   -0.3912 H   0  0  0  0  0  0  0  0  0  0  0  0
   -1.5882   -2.1554    0.6658 C   0  0  0  0  0  0  0  0  0  0  0  0
   -0.6832   -2.8764    1.0638 O   0  0  0  0  0  0  0  0  0  0  0  0
   -1.3952   -0.9084    0.2428 N   0  0  0  0  0  0  0  0  0  0  0  0
   -2.1972   -0.3644   -0.0422 H   0  0  0  0  0  0  0  0  0  0  0  0
   -0.1122   -0.1994    0.2658 C   0  0  1  0  0  0  0  0  0  0  0  0
    0.6131   -0.7748   -0.3153 H   0  0  0  0  0  0  0  0  0  0  0  0
   -0.2973    1.1841   -0.3966 C   0  0  0  0  0  0  0  0  0  0  0  0
    0.5513    1.8183   -0.1427 H   0  0  0  0  0  0  0  0  0  0  0  0
   -0.3232    1.0636   -1.4786 H   0  0  0  0  0  0  0  0  0  0  0  0
   -1.5486    1.9218    0.0520 C   0  0  0  0  0  0  0  0  0  0  0  0
   -2.5428    2.0263   -0.6450 O   0  0  0  0  0  0  0  0  0  0  0  0
   -1.5403    2.4733    1.2411 N   0  0  0  0  0  0  0  0  0  0  0  0
   -2.3868    2.9389    1.5175 H   0  0  0  0  0  0  0  0  0  0  0  0
   -0.7420    2.3854    1.8411 H   0  0  0  0  0  0  0  0  0  0  0  0
    0.4075   -0.0985    1.7169 C   0  0  0  0  0  0  0  0  0  0  0  0
    1.5860   -0.3526    1.9662 O   0  0  0  0  0  0  0  0  0  0  0  0
   -0.4625    0.2583    2.6666 N   0  0  0  0  0  0  0  0  0  0  0  0
   -1.4309    0.3754    2.3860 H   0  0  0  0  0  0  0  0  0  0  0  0
   -0.1275    0.4111    4.0813 C   0  0  0  0  0  0  0  0  0  0  0  0
    0.6862    1.1312    4.1910 H   0  0  0  0  0  0  0  0  0  0  0  0
   -0.9980    0.7641    4.6360 H   0  0  0  0  0  0  0  0  0  0  0  0
    0.1959   -0.5481    4.4891 H   0  0  0  0  0  0  0  0  0  0  0  0
  5  6  2  0  0  0  0
  5  7  1  0  0  0  0
  2  3  1  0  0  0  0
  2  4  1  0  0  0  0
  2  5  1  0  0  0  0
  1  2  1  0  0  0  0
 19 20  2  0  0  0  0
 19 21  1  0  0  0  0
 16 17  1  0  0  0  0
 16 18  1  0  0  0  0
 14 15  2  0  0  0  0
 14 16  1  0  0  0  0
 11 12  1  0  0  0  0
 11 13  1  0  0  0  0
 11 14  1  0  0  0  0
  9 10  1  0  0  0  0
  9 11  1  0  0  0  0
  9 19  1  0  0  0  0
  7  8  1  0  0  0  0
  7  9  1  0  0  0  0
 23 24  1  0  0  0  0
 23 25  1  0  0  0  0
 23 26  1  0  0  0  0
 21 22  1  0  0  0  0
 21 23  1  0  0  0  0
M  END
$$$$
default_name
  -OEChem-02102213163D

 26 25  0     1  0  0  0  0  0999 V2000
   -3.0232   -3.6924    1.0038 H   0  0  0  0  0  0  0  0  0  0  0  0
   -3.0082   -2.6684    0.6318 C   0  0  0  0  0  0  0  0  0  0  0  0
   -3.6332   -2.0414    1.2658 H   0  0  0  0  0  0  0  0  0  0  0  0
   -3.3762   -2.6444   -0.3912 H   0  0  0  0  0  0  0  0  0  0  0  0
   -1.5882   -2.1554    0.6658 C   0  0  0  0  0  0  0  0  0  0  0  0
   -0.6832   -2.8764    1.0638 O   0  0  0  0  0  0  0  0  0  0  0  0
   -1.3952   -0.9084    0.2428 N   0  0  0  0  0  0  0  0  0  0  0  0
   -2.1972   -0.3644   -0.0422 H   0  0  0  0  0  0  0  0  0  0  0  0
   -0.1122   -0.1994    0.2658 C   0  0  1  0  0  0  0  0  0  0  0  0
    0.6131   -0.7748   -0.3153 H   0  0  0  0  0  0  0  0  0  0  0  0
   -0.2973    1.1841   -0.3966 C   0  0  0  0  0  0  0  0  0  0  0  0
    0.5513    1.8183   -0.1427 H   0  0  0  0  0  0  0  0  0  0  0  0
   -0.3232    1.0636   -1.4786 H   0  0  0  0  0  0  0  0  0  0  0  0
   -1.5486    1.9218    0.0520 C   0  0  0  0  0  0  0  0  0  0  0  0
   -2.6231    1.8093   -0.5120 O   0  0  0  0  0  0  0  0  0  0  0  0
   -1.4505    2.7186    1.0883 N   0  0  0  0  0  0  0  0  0  0  0  0
   -2.2972    3.1791    1.3724 H   0  0  0  0  0  0  0  0  0  0  0  0
   -0.5826    2.8138    1.5810 H   0  0  0  0  0  0  0  0  0  0  0  0
    0.4075   -0.0985    1.7169 C   0  0  0  0  0  0  0  0  0  0  0  0
    1.5860   -0.3526    1.9662 O   0  0  0  0  0  0  0  0  0  0  0  0
   -0.4625    0.2583    2.6666 N   0  0  0  0  0  0  0  0  0  0  0  0
   -1.4309    0.3754    2.3860 H   0  0  0  0  0  0  0  0  0  0  0  0
   -0.1275    0.4111    4.0813 C   0  0  0  0  0  0  0  0  0  0  0  0
    0.6862    1.1312    4.1910 H   0  0  0  0  0  0  0  0  0  0  0  0
   -0.9980    0.7641    4.6360 H   0  0  0  0  0  0  0  0  0  0  0  0
    0.1959   -0.5481    4.4891 H   0  0  0  0  0  0  0  0  0  0  0  0
  5  6  2  0  0  0  0
  5  7  1  0  0  0  0
  2  3  1  0  0  0  0
  2  4  1  0  0  0  0
  2  5  1  0  0  0  0
  1  2  1  0  0  0  0
 19 20  2  0  0  0  0
 19 21  1  0  0  0  0
 16 17  1  0  0  0  0
 16 18  1  0  0  0  0
 14 15  2  0  0  0  0
 14 16  1  0  0  0  0
 11 12  1  0  0  0  0
 11 13  1  0  0  0  0
 11 14  1  0  0  0  0
  9 10  1  0  0  0  0
  9 11  1  0  0  0  0
  9 19  1  0  0  0  0
  7  8  1  0  0  0  0
  7  9  1  0  0  0  0
 23 24  1  0  0  0  0
 23 25  1  0  0  0  0
 23 26  1  0  0  0  0
 21 22  1  0  0  0  0
 21 23  1  0  0  0  0
M  END
$$$$
default_name
  -OEChem-02102213163D

 26 25  0     1  0  0  0  0  0999 V2000
   -3.0232   -3.6924    1.0038 H   0  0  0  0  0  0  0  0  0  0  0  0
   -3.0082   -2.6684    0.6318 C   0  0  0  0  0  0  0  0  0  0  0  0
   -3.6332   -2.0414    1.2658 H   0  0  0  0  0  0  0  0  0  0  0  0
   -3.3762   -2.6444   -0.3912 H   0  0  0  0  0  0  0  0  0  0  0  0
   -1.5882   -2.1554    0.6658 C   0  0  0  0  0  0  0  0  0  0  0  0
   -0.6832   -2.8764    1.0638 O   0  0  0  0  0  0  0  0  0  0  0  0
   -1.3952   -0.9084    0.2428 N   0  0  0  0  0  0  0  0  0  0  0  0
   -2.1972   -0.3644   -0.0422 H   0  0  0  0  0  0  0  0  0  0  0  0
   -0.1122   -0.1994    0.2658 C   0  0  1  0  0  0  0  0  0  0  0  0
    0.6131   -0.7748   -0.3153 H   0  0  0  0  0  0  0  0  0  0  0  0
   -0.2973    1.1841   -0.3966 C   0  0  0  0  0  0  0  0  0  0  0  0
    0.5513    1.8183   -0.1427 H   0  0  0  0  0  0  0  0  0  0  0  0
   -0.3232    1.0636   -1.4786 H   0  0  0  0  0  0  0  0  0  0  0  0
   -1.5486    1.9218    0.0520 C   0  0  0  0  0  0  0  0  0  0  0  0
   -2.6673    1.6220   -0.3272 O   0  0  0  0  0  0  0  0  0  0  0  0
   -1.4017    2.9298    0.8771 N   0  0  0  0  0  0  0  0  0  0  0  0
   -2.2471    3.3871    1.1699 H   0  0  0  0  0  0  0  0  0  0  0  0
   -0.4941    3.1843    1.2185 H   0  0  0  0  0  0  0  0  0  0  0  0
    0.4075   -0.0985    1.7169 C   0  0  0  0  0  0  0  0  0  0  0  0
    1.5860   -0.3526    1.9662 O   0  0  0  0  0  0  0  0  0  0  0  0
   -0.4625    0.2583    2.6666 N   0  0  0  0  0  0  0  0  0  0  0  0
   -1.4309    0.3754    2.3860 H   0  0  0  0  0  0  0  0  0  0  0  0
   -0.1275    0.4111    4.0813 C   0  0  0  0  0  0  0  0  0  0  0  0
    0.6862    1.1312    4.1910 H   0  0  0  0  0  0  0  0  0  0  0  0
   -0.9980    0.7641    4.6360 H   0  0  0  0  0  0  0  0  0  0  0  0
    0.1959   -0.5481    4.4891 H   0  0  0  0  0  0  0  0  0  0  0  0
  5  6  2  0  0  0  0
  5  7  1  0  0  0  0
  2  3  1  0  0  0  0
  2  4  1  0  0  0  0
  2  5  1  0  0  0  0
  1  2  1  0  0  0  0
 19 20  2  0  0  0  0
 19 21  1  0  0  0  0
 16 17  1  0  0  0  0
 16 18  1  0  0  0  0
 14 15  2  0  0  0  0
 14 16  1  0  0  0  0
 11 12  1  0  0  0  0
 11 13  1  0  0  0  0
 11 14  1  0  0  0  0
  9 10  1  0  0  0  0
  9 11  1  0  0  0  0
  9 19  1  0  0  0  0
  7  8  1  0  0  0  0
  7  9  1  0  0  0  0
 23 24  1  0  0  0  0
 23 25  1  0  0  0  0
 23 26  1  0  0  0  0
 21 22  1  0  0  0  0
 21 23  1  0  0  0  0
M  END
$$$$
default_name
  -OEChem-02102213163D

 26 25  0     1  0  0  0  0  0999 V2000
   -3.0232   -3.6924    1.0038 H   0  0  0  0  0  0  0  0  0  0  0  0
   -3.0082   -2.6684    0.6318 C   0  0  0  0  0  0  0  0  0  0  0  0
   -3.6332   -2.0414    1.2658 H   0  0  0  0  0  0  0  0  0  0  0  0
   -3.3762   -2.6444   -0.3912 H   0  0  0  0  0  0  0  0  0  0  0  0
   -1.5882   -2.1554    0.6658 C   0  0  0  0  0  0  0  0  0  0  0  0
   -0.6832   -2.8764    1.0638 O   0  0  0  0  0  0  0  0  0  0  0  0
   -1.3952   -0.9084    0.2428 N   0  0  0  0  0  0  0  0  0  0  0  0
   -2.1972   -0.3644   -0.0422 H   0  0  0  0  0  0  0  0  0  0  0  0
   -0.1122   -0.1994    0.2658 C   0  0  1  0  0  0  0  0  0  0  0  0
    0.6131   -0.7748   -0.3153 H   0  0  0  0  0  0  0  0  0  0  0  0
   -0.2973    1.1841   -0.3966 C   0  0  0  0  0  0  0  0  0  0  0  0
    0.5513    1.8183   -0.1427 H   0  0  0  0  0  0  0  0  0  0  0  0
   -0.3232    1.0636   -1.4786 H   0  0  0  0  0  0  0  0  0  0  0  0
   -1.5486    1.9218    0.0520 C   0  0  0  0  0  0  0  0  0  0  0  0
   -2.6725    1.4770   -0.1032 O   0  0  0  0  0  0  0  0  0  0  0  0
   -1.3972    3.0926    0.6219 N   0  0  0  0  0  0  0  0  0  0  0  0
   -2.2401    3.5487    0.9236 H   0  0  0  0  0  0  0  0  0  0  0  0
   -0.4824    3.4718    0.7782 H   0  0  0  0  0  0  0  0  0  0  0  0
    0.4075   -0.0985    1.7169 C   0  0  0  0  0  0  0  0  0  0  0  0
    1.5860   -0.3526    1.9662 O   0  0  0  0  0  0  0  0  0  0  0  0
   -0.4625    0.2583    2.6666 N   0  0  0  0  0  0  0  0  0  0  0  0
   -1.4309    0.3754    2.3860 H   0  0  0  0  0  0  0  0  0  0  0  0
   -0.1275    0.4111    4.0813 C   0  0  0  0  0  0  0  0  0  0  0  0
    0.6862    1.1312    4.1910 H   0  0  0  0  0  0  0  0  0  0  0  0
   -0.9980    0.7641    4.6360 H   0  0  0  0  0  0  0  0  0  0  0  0
    0.1959   -0.5481    4.4891 H   0  0  0  0  0  0  0  0  0  0  0  0
  5  6  2  0  0  0  0
  5  7  1  0  0  0  0
  2  3  1  0  0  0  0
  2  4  1  0  0  0  0
  2  5  1  0  0  0  0
  1  2  1  0  0  0  0
 19 20  2  0  0  0  0
 19 21  1  0  0  0  0
 16 17  1  0  0  0  0
 16 18  1  0  0  0  0
 14 15  2  0  0  0  0
 14 16  1  0  0  0  0
 11 12  1  0  0  0  0
 11 13  1  0  0  0  0
 11 14  1  0  0  0  0
  9 10  1  0  0  0  0
  9 11  1  0  0  0  0
  9 19  1  0  0  0  0
  7  8  1  0  0  0  0
  7  9  1  0  0  0  0
 23 24  1  0  0  0  0
 23 25  1  0  0  0  0
 23 26  1  0  0  0  0
 21 22  1  0  0  0  0
 21 23  1  0  0  0  0
M  END
$$$$
default_name
  -OEChem-02102213163D

 26 25  0     1  0  0  0  0  0999 V2000
   -3.0232   -3.6924    1.0038 H   0  0  0  0  0  0  0  0  0  0  0  0
   -3.0082   -2.6684    0.6318 C   0  0  0  0  0  0  0  0  0  0  0  0
   -3.6332   -2.0414    1.2658 H   0  0  0  0  0  0  0  0  0  0  0  0
   -3.3762   -2.6444   -0.3912 H   0  0  0  0  0  0  0  0  0  0  0  0
   -1.5882   -2.1554    0.6658 C   0  0  0  0  0  0  0  0  0  0  0  0
   -0.6832   -2.8764    1.0638 O   0  0  0  0  0  0  0  0  0  0  0  0
   -1.3952   -0.9084    0.2428 N   0  0  0  0  0  0  0  0  0  0  0  0
   -2.1972   -0.3644   -0.0422 H   0  0  0  0  0  0  0  0  0  0  0  0
   -0.1122   -0.1994    0.2658 C   0  0  1  0  0  0  0  0  0  0  0  0
    0.6131   -0.7748   -0.3153 H   0  0  0  0  0  0  0  0  0  0  0  0
   -0.2973    1.1841   -0.3966 C   0  0  0  0  0  0  0  0  0  0  0  0
    0.5513    1.8183   -0.1427 H   0  0  0  0  0  0  0  0  0  0  0  0
   -0.3232    1.0636   -1.4786 H   0  0  0  0  0  0  0  0  0  0  0  0
   -1.5486    1.9218    0.0520 C   0  0  0  0  0  0  0  0  0  0  0  0
   -2.6383    1.3842    0.1447 O   0  0  0  0  0  0  0  0  0  0  0  0
   -1.4373    3.1958    0.3403 N   0  0  0  0  0  0  0  0  0  0  0  0
   -2.2766    3.6529    0.6505 H   0  0  0  0  0  0  0  0  0  0  0  0
   -0.5484    3.6566    0.2903 H   0  0  0  0  0  0  0  0  0  0  0  0
    0.4075   -0.0985    1.7169 C   0  0  0  0  0  0  0  0  0  0  0  0
    1.5860   -0.3526    1.9662 O   0  0  0  0  0  0  0  0  0  0  0  0
   -0.4625    0.2583    2.6666 N   0  0  0  0  0  0  0  0  0  0  0  0
   -1.4309    0.3754    2.3860 H   0  0  0  0  0  0  0  0  0  0  0  0
   -0.1275    0.4111    4.0813 C   0  0  0  0  0  0  0  0  0  0  0  0
    0.6862    1.1312    4.1910 H   0  0  0  0  0  0  0  0  0  0  0  0
   -0.9980    0.7641    4.6360 H   0  0  0  0  0  0  0  0  0  0  0  0
    0.1959   -0.5481    4.4891 H   0  0  0  0  0  0  0  0  0  0  0  0
  5  6  2  0  0  0  0
  5  7  1  0  0  0  0
  2  3  1  0  0  0  0
  2  4  1  0  0  0  0
  2  5  1  0  0  0  0
  1  2  1  0  0  0  0
 19 20  2  0  0  0  0
 19 21  1  0  0  0  0
 16 17  1  0  0  0  0
 16 18  1  0  0  0  0
 14 15  2  0  0  0  0
 14 16  1  0  0  0  0
 11 12  1  0  0  0  0
 11 13  1  0  0  0  0
 11 14  1  0  0  0  0
  9 10  1  0  0  0  0
  9 11  1  0  0  0  0
  9 19  1  0  0  0  0
  7  8  1  0  0  0  0
  7  9  1  0  0  0  0
 23 24  1  0  0  0  0
 23 25  1  0  0  0  0
 23 26  1  0  0  0  0
 21 22  1  0  0  0  0
 21 23  1  0  0  0  0
M  END
$$$$
default_name
  -OEChem-02102213163D

 26 25  0     1  0  0  0  0  0999 V2000
   -3.0232   -3.6924    1.0038 H   0  0  0  0  0  0  0  0  0  0  0  0
   -3.0082   -2.6684    0.6318 C   0  0  0  0  0  0  0  0  0  0  0  0
   -3.6332   -2.0414    1.2658 H   0  0  0  0  0  0  0  0  0  0  0  0
   -3.3762   -2.6444   -0.3912 H   0  0  0  0  0  0  0  0  0  0  0  0
   -1.5882   -2.1554    0.6658 C   0  0  0  0  0  0  0  0  0  0  0  0
   -0.6832   -2.8764    1.0638 O   0  0  0  0  0  0  0  0  0  0  0  0
   -1.3952   -0.9084    0.2428 N   0  0  0  0  0  0  0  0  0  0  0  0
   -2.1972   -0.3644   -0.0422 H   0  0  0  0  0  0  0  0  0  0  0  0
   -0.1122   -0.1994    0.2658 C   0  0  1  0  0  0  0  0  0  0  0  0
    0.6131   -0.7748   -0.3153 H   0  0  0  0  0  0  0  0  0  0  0  0
   -0.2973    1.1841   -0.3966 C   0  0  0  0  0  0  0  0  0  0  0  0
    0.5513    1.8183   -0.1427 H   0  0  0  0  0  0  0  0  0  0  0  0
   -0.3232    1.0636   -1.4786 H   0  0  0  0  0  0  0  0  0  0  0  0
   -1.5486    1.9218    0.0520 C   0  0  0  0  0  0  0  0  0  0  0  0
   -2.5671    1.3500    0.3996 O   0  0  0  0  0  0  0  0  0  0  0  0
   -1.5193    3.2324    0.0512 N   0  0  0  0  0  0  0  0  0  0  0  0
   -2.3542    3.6925    0.3690 H   0  0  0  0  0  0  0  0  0  0  0  0
   -0.6875    3.7261   -0.2121 H   0  0  0  0  0  0  0  0  0  0  0  0
    0.4075   -0.0985    1.7169 C   0  0  0  0  0  0  0  0  0  0  0  0
    1.5860   -0.3526    1.9662 O   0  0  0  0  0  0  0  0  0  0  0  0
   -0.4625    0.2583    2.6666 N   0  0  0  0  0  0  0  0  0  0  0  0
   -1.4309    0.3754    2.3860 H   0  0  0  0  0  0  0  0  0  0  0  0
   -0.1275    0.4111    4.0813 C   0  0  0  0  0  0  0  0  0  0  0  0
    0.6862    1.1312    4.1910 H   0  0  0  0  0  0  0  0  0  0  0  0
   -0.9980    0.7641    4.6360 H   0  0  0  0  0  0  0  0  0  0  0  0
    0.1959   -0.5481    4.4891 H   0  0  0  0  0  0  0  0  0  0  0  0
  5  6  2  0  0  0  0
  5  7  1  0  0  0  0
  2  3  1  0  0  0  0
  2  4  1  0  0  0  0
  2  5  1  0  0  0  0
  1  2  1  0  0  0  0
 19 20  2  0  0  0  0
 19 21  1  0  0  0  0
 16 17  1  0  0  0  0
 16 18  1  0  0  0  0
 14 15  2  0  0  0  0
 14 16  1  0  0  0  0
 11 12  1  0  0  0  0
 11 13  1  0  0  0  0
 11 14  1  0  0  0  0
  9 10  1  0  0  0  0
  9 11  1  0  0  0  0
  9 19  1  0  0  0  0
  7  8  1  0  0  0  0
  7  9  1  0  0  0  0
 23 24  1  0  0  0  0
 23 25  1  0  0  0  0
 23 26  1  0  0  0  0
 21 22  1  0  0  0  0
 21 23  1  0  0  0  0
M  END
$$$$
default_name
  -OEChem-02102213163D

 26 25  0     1  0  0  0  0  0999 V2000
   -3.0232   -3.6924    1.0038 H   0  0  0  0  0  0  0  0  0  0  0  0
   -3.0082   -2.6684    0.6318 C   0  0  0  0  0  0  0  0  0  0  0  0
   -3.6332   -2.0414    1.2658 H   0  0  0  0  0  0  0  0  0  0  0  0
   -3.3762   -2.6444   -0.3912 H   0  0  0  0  0  0  0  0  0  0  0  0
   -1.5882   -2.1554    0.6658 C   0  0  0  0  0  0  0  0  0  0  0  0
   -0.6832   -2.8764    1.0638 O   0  0  0  0  0  0  0  0  0  0  0  0
   -1.3952   -0.9084    0.2428 N   0  0  0  0  0  0  0  0  0  0  0  0
   -2.1972   -0.3644   -0.0422 H   0  0  0  0  0  0  0  0  0  0  0  0
   -0.1122   -0.1994    0.2658 C   0  0  1  0  0  0  0  0  0  0  0  0
    0.6131   -0.7748   -0.3153 H   0  0  0  0  0  0  0  0  0  0  0  0
   -0.2973    1.1841   -0.3966 C   0  0  0  0  0  0  0  0  0  0  0  0
    0.5513    1.8183   -0.1427 H   0  0  0  0  0  0  0  0  0  0  0  0
   -0.3232    1.0636   -1.4786 H   0  0  0  0  0  0  0  0  0  0  0  0
   -1.5486    1.9218    0.0520 C   0  0  0  0  0  0  0  0  0  0  0  0
   -2.4636    1.3768    0.6442 O   0  0  0  0  0  0  0  0  0  0  0  0
   -1.6377    3.1999   -0.2254 N   0  0  0  0  0  0  0  0  0  0  0  0
   -2.4674    3.6649    0.0985 H   0  0  0  0  0  0  0  0  0  0  0  0
   -0.8903    3.6756   -0.6947 H   0  0  0  0  0  0  0  0  0  0  0  0
    0.4075   -0.0985    1.7169 C   0  0  0  0  0  0  0  0  0  0  0  0
    1.5860   -0.3526    1.9662 O   0  0  0  0  0  0  0  0  0  0  0  0
   -0.4625    0.2583    2.6666 N   0  0  0  0  0  0  0  0  0  0  0  0
   -1.4309    0.3754    2.3860 H   0  0  0  0  0  0  0  0  0  0  0  0
   -0.1275    0.4111    4.0813 C   0  0  0  0  0  0  0  0  0  0  0  0
    0.6862    1.1312    4.1910 H   0  0  0  0  0  0  0  0  0  0  0  0
   -0.9980    0.7641    4.6360 H   0  0  0  0  0  0  0  0  0  0  0  0
    0.1959   -0.5481    4.4891 H   0  0  0  0  0  0  0  0  0  0  0  0
  5  6  2  0  0  0  0
  5  7  1  0  0  0  0
  2  3  1  0  0  0  0
  2  4  1  0  0  0  0
  2  5  1  0  0  0  0
  1  2  1  0  0  0  0
 19 20  2  0  0  0  0
 19 21  1  0  0  0  0
 16 17  1  0  0  0  0
 16 18  1  0  0  0  0
 14 15  2  0  0  0  0
 14 16  1  0  0  0  0
 11 12  1  0  0  0  0
 11 13  1  0  0  0  0
 11 14  1  0  0  0  0
  9 10  1  0  0  0  0
  9 11  1  0  0  0  0
  9 19  1  0  0  0  0
  7  8  1  0  0  0  0
  7  9  1  0  0  0  0
 23 24  1  0  0  0  0
 23 25  1  0  0  0  0
 23 26  1  0  0  0  0
 21 22  1  0  0  0  0
 21 23  1  0  0  0  0
M  END
$$$$
default_name
  -OEChem-02102213163D

 26 25  0     1  0  0  0  0  0999 V2000
   -3.0232   -3.6924    1.0038 H   0  0  0  0  0  0  0  0  0  0  0  0
   -3.0082   -2.6684    0.6318 C   0  0  0  0  0  0  0  0  0  0  0  0
   -3.6332   -2.0414    1.2658 H   0  0  0  0  0  0  0  0  0  0  0  0
   -3.3762   -2.6444   -0.3912 H   0  0  0  0  0  0  0  0  0  0  0  0
   -1.5882   -2.1554    0.6658 C   0  0  0  0  0  0  0  0  0  0  0  0
   -0.6832   -2.8764    1.0638 O   0  0  0  0  0  0  0  0  0  0  0  0
   -1.3952   -0.9084    0.2428 N   0  0  0  0  0  0  0  0  0  0  0  0
   -2.1972   -0.3644   -0.0422 H   0  0  0  0  0  0  0  0  0  0  0  0
   -0.1122   -0.1994    0.2658 C   0  0  1  0  0  0  0  0  0  0  0  0
    0.6131   -0.7748   -0.3153 H   0  0  0  0  0  0  0  0  0  0  0  0
   -0.2973    1.1841   -0.3966 C   0  0  0  0  0  0  0  0  0  0  0  0
    0.5513    1.8183   -0.1427 H   0  0  0  0  0  0  0  0  0  0  0  0
   -0.3232    1.0636   -1.4786 H   0  0  0  0  0  0  0  0  0  0  0  0
   -1.5486    1.9218    0.0520 C   0  0  0  0  0  0  0  0  0  0  0  0
   -2.3351    1.4626    0.8617 O   0  0  0  0  0  0  0  0  0  0  0  0
   -1.7842    3.1006   -0.4709 N   0  0  0  0  0  0  0  0  0  0  0  0
   -2.6087    3.5720   -0.1428 H   0  0  0  0  0  0  0  0  0  0  0  0
   -1.1429    3.5085   -1.1247 H   0  0  0  0  0  0  0  0  0  0  0  0
    0.4075   -0.0985    1.7169 C   0  0  0  0  0  0  0  0  0  0  0  0
    1.5860   -0.3526    1.9662 O   0  0  0  0  0  0  0  0  0  0  0  0
   -0.4625    0.2583    2.6666 N   0  0  0  0  0  0  0  0  0  0  0  0
   -1.4309    0.3754    2.3860 H   0  0  0  0  0  0  0  0  0  0  0  0
   -0.1275    0.4111    4.0813 C   0  0  0  0  0  0  0  0  0  0  0  0
    0.6862    1.1312    4.1910 H   0  0  0  0  0  0  0  0  0  0  0  0
   -0.9980    0.7641    4.6360 H   0  0  0  0  0  0  0  0  0  0  0  0
    0.1959   -0.5481    4.4891 H   0  0  0  0  0  0  0  0  0  0  0  0
  5  6  2  0  0  0  0
  5  7  1  0  0  0  0
  2  3  1  0  0  0  0
  2  4  1  0  0  0  0
  2  5  1  0  0  0  0
  1  2  1  0  0  0  0
 19 20  2  0  0  0  0
 19 21  1  0  0  0  0
 16 17  1  0  0  0  0
 16 18  1  0  0  0  0
 14 15  2  0  0  0  0
 14 16  1  0  0  0  0
 11 12  1  0  0  0  0
 11 13  1  0  0  0  0
 11 14  1  0  0  0  0
  9 10  1  0  0  0  0
  9 11  1  0  0  0  0
  9 19  1  0  0  0  0
  7  8  1  0  0  0  0
  7  9  1  0  0  0  0
 23 24  1  0  0  0  0
 23 25  1  0  0  0  0
 23 26  1  0  0  0  0
 21 22  1  0  0  0  0
 21 23  1  0  0  0  0
M  END
$$$$
default_name
  -OEChem-02102213163D

 26 25  0     1  0  0  0  0  0999 V2000
   -3.0232   -3.6924    1.0038 H   0  0  0  0  0  0  0  0  0  0  0  0
   -3.0082   -2.6684    0.6318 C   0  0  0  0  0  0  0  0  0  0  0  0
   -3.6332   -2.0414    1.2658 H   0  0  0  0  0  0  0  0  0  0  0  0
   -3.3762   -2.6444   -0.3912 H   0  0  0  0  0  0  0  0  0  0  0  0
   -1.5882   -2.1554    0.6658 C   0  0  0  0  0  0  0  0  0  0  0  0
   -0.6832   -2.8764    1.0638 O   0  0  0  0  0  0  0  0  0  0  0  0
   -1.3952   -0.9084    0.2428 N   0  0  0  0  0  0  0  0  0  0  0  0
   -2.1972   -0.3644   -0.0422 H   0  0  0  0  0  0  0  0  0  0  0  0
   -0.1122   -0.1994    0.2658 C   0  0  1  0  0  0  0  0  0  0  0  0
    0.6131   -0.7748   -0.3153 H   0  0  0  0  0  0  0  0  0  0  0  0
   -0.2973    1.1841   -0.3966 C   0  0  0  0  0  0  0  0  0  0  0  0
    0.5513    1.8183   -0.1427 H   0  0  0  0  0  0  0  0  0  0  0  0
   -0.3232    1.0636   -1.4786 H   0  0  0  0  0  0  0  0  0  0  0  0
   -1.5486    1.9218    0.0520 C   0  0  0  0  0  0  0  0  0  0  0  0
   -2.1901    1.6017    1.0374 O   0  0  0  0  0  0  0  0  0  0  0  0
   -1.9490    2.9412   -0.6684 N   0  0  0  0  0  0  0  0  0  0  0  0
   -2.7684    3.4200   -0.3382 H   0  0  0  0  0  0  0  0  0  0  0  0
   -1.4282    3.2362   -1.4726 H   0  0  0  0  0  0  0  0  0  0  0  0
    0.4075   -0.0985    1.7169 C   0  0  0  0  0  0  0  0  0  0  0  0
    1.5860   -0.3526    1.9662 O   0  0  0  0  0  0  0  0  0  0  0  0
   -0.4625    0.2583    2.6666 N   0  0  0  0  0  0  0  0  0  0  0  0
   -1.4309    0.3754    2.3860 H   0  0  0  0  0  0  0  0  0  0  0  0
   -0.1275    0.4111    4.0813 C   0  0  0  0  0  0  0  0  0  0  0  0
    0.6862    1.1312    4.1910 H   0  0  0  0  0  0  0  0  0  0  0  0
   -0.9980    0.7641    4.6360 H   0  0  0  0  0  0  0  0  0  0  0  0
    0.1959   -0.5481    4.4891 H   0  0  0  0  0  0  0  0  0  0  0  0
  5  6  2  0  0  0  0
  5  7  1  0  0  0  0
  2  3  1  0  0  0  0
  2  4  1  0  0  0  0
  2  5  1  0  0  0  0
  1  2  1  0  0  0  0
 19 20  2  0  0  0  0
 19 21  1  0  0  0  0
 16 17  1  0  0  0  0
 16 18  1  0  0  0  0
 14 15  2  0  0  0  0
 14 16  1  0  0  0  0
 11 12  1  0  0  0  0
 11 13  1  0  0  0  0
 11 14  1  0  0  0  0
  9 10  1  0  0  0  0
  9 11  1  0  0  0  0
  9 19  1  0  0  0  0
  7  8  1  0  0  0  0
  7  9  1  0  0  0  0
 23 24  1  0  0  0  0
 23 25  1  0  0  0  0
 23 26  1  0  0  0  0
 21 22  1  0  0  0  0
 21 23  1  0  0  0  0
M  END
$$$$
default_name
  -OEChem-02102213163D

 26 25  0     1  0  0  0  0  0999 V2000
   -3.0232   -3.6924    1.0038 H   0  0  0  0  0  0  0  0  0  0  0  0
   -3.0082   -2.6684    0.6318 C   0  0  0  0  0  0  0  0  0  0  0  0
   -3.6332   -2.0414    1.2658 H   0  0  0  0  0  0  0  0  0  0  0  0
   -3.3762   -2.6444   -0.3912 H   0  0  0  0  0  0  0  0  0  0  0  0
   -1.5882   -2.1554    0.6658 C   0  0  0  0  0  0  0  0  0  0  0  0
   -0.6832   -2.8764    1.0638 O   0  0  0  0  0  0  0  0  0  0  0  0
   -1.3952   -0.9084    0.2428 N   0  0  0  0  0  0  0  0  0  0  0  0
   -2.1972   -0.3644   -0.0422 H   0  0  0  0  0  0  0  0  0  0  0  0
   -0.1122   -0.1994    0.2658 C   0  0  1  0  0  0  0  0  0  0  0  0
    0.6131   -0.7748   -0.3153 H   0  0  0  0  0  0  0  0  0  0  0  0
   -0.2973    1.1841   -0.3966 C   0  0  0  0  0  0  0  0  0  0  0  0
    0.5513    1.8183   -0.1427 H   0  0  0  0  0  0  0  0  0  0  0  0
   -0.3232    1.0636   -1.4786 H   0  0  0  0  0  0  0  0  0  0  0  0
   -1.5486    1.9218    0.0520 C   0  0  0  0  0  0  0  0  0  0  0  0
   -2.0386    1.7845    1.1593 O   0  0  0  0  0  0  0  0  0  0  0  0
   -2.1209    2.7325   -0.8046 N   0  0  0  0  0  0  0  0  0  0  0  0
   -2.9355    3.2194   -0.4746 H   0  0  0  0  0  0  0  0  0  0  0  0
   -1.7267    2.8774   -1.7149 H   0  0  0  0  0  0  0  0  0  0  0  0
    0.4075   -0.0985    1.7169 C   0  0  0  0  0  0  0  0  0  0  0  0
    1.5860   -0.3526    1.9662 O   0  0  0  0  0  0  0  0  0  0  0  0
   -0.4625    0.2583    2.6666 N   0  0  0  0  0  0  0  0  0  0  0  0
   -1.4309    0.3754    2.3860 H   0  0  0  0  0  0  0  0  0  0  0  0
   -0.1275    0.4111    4.0813 C   0  0  0  0  0  0  0  0  0  0  0  0
    0.6862    1.1312    4.1910 H   0  0  0  0  0  0  0  0  0  0  0  0
   -0.9980    0.7641    4.6360 H   0  0  0  0  0  0  0  0  0  0  0  0
    0.1959   -0.5481    4.4891 H   0  0  0  0  0  0  0  0  0  0  0  0
  5  6  2  0  0  0  0
  5  7  1  0  0  0  0
  2  3  1  0  0  0  0
  2  4  1  0  0  0  0
  2  5  1  0  0  0  0
  1  2  1  0  0  0  0
 19 20  2  0  0  0  0
 19 21  1  0  0  0  0
 16 17  1  0  0  0  0
 16 18  1  0  0  0  0
 14 15  2  0  0  0  0
 14 16  1  0  0  0  0
 11 12  1  0  0  0  0
 11 13  1  0  0  0  0
 11 14  1  0  0  0  0
  9 10  1  0  0  0  0
  9 11  1  0  0  0  0
  9 19  1  0  0  0  0
  7  8  1  0  0  0  0
  7  9  1  0  0  0  0
 23 24  1  0  0  0  0
 23 25  1  0  0  0  0
 23 26  1  0  0  0  0
 21 22  1  0  0  0  0
 21 23  1  0  0  0  0
M  END
$$$$
default_name
  -OEChem-02102213163D

 26 25  0     1  0  0  0  0  0999 V2000
   -3.0232   -3.6924    1.0038 H   0  0  0  0  0  0  0  0  0  0  0  0
   -3.0082   -2.6684    0.6318 C   0  0  0  0  0  0  0  0  0  0  0  0
   -3.6332   -2.0414    1.2658 H   0  0  0  0  0  0  0  0  0  0  0  0
   -3.3762   -2.6444   -0.3912 H   0  0  0  0  0  0  0  0  0  0  0  0
   -1.5882   -2.1554    0.6658 C   0  0  0  0  0  0  0  0  0  0  0  0
   -0.6832   -2.8764    1.0638 O   0  0  0  0  0  0  0  0  0  0  0  0
   -1.3952   -0.9084    0.2428 N   0  0  0  0  0  0  0  0  0  0  0  0
   -2.1972   -0.3644   -0.0422 H   0  0  0  0  0  0  0  0  0  0  0  0
   -0.1122   -0.1994    0.2658 C   0  0  1  0  0  0  0  0  0  0  0  0
    0.6131   -0.7748   -0.3153 H   0  0  0  0  0  0  0  0  0  0  0  0
   -0.2973    1.1841   -0.3966 C   0  0  0  0  0  0  0  0  0  0  0  0
    0.5513    1.8183   -0.1427 H   0  0  0  0  0  0  0  0  0  0  0  0
   -0.3232    1.0636   -1.4786 H   0  0  0  0  0  0  0  0  0  0  0  0
   -1.5486    1.9218    0.0520 C   0  0  0  0  0  0  0  0  0  0  0  0
   -1.8909    1.9986    1.2191 O   0  0  0  0  0  0  0  0  0  0  0  0
   -2.2880    2.4888   -0.8700 N   0  0  0  0  0  0  0  0  0  0  0  0
   -3.0988    2.9838   -0.5427 H   0  0  0  0  0  0  0  0  0  0  0  0
   -2.0180    2.4563   -1.8350 H   0  0  0  0  0  0  0  0  0  0  0  0
    0.4075   -0.0985    1.7169 C   0  0  0  0  0  0  0  0  0  0  0  0
    1.5860   -0.3526    1.9662 O   0  0  0  0  0  0  0  0  0  0  0  0
   -0.4625    0.2583    2.6666 N   0  0  0  0  0  0  0  0  0  0  0  0
   -1.4309    0.3754    2.3860 H   0  0  0  0  0  0  0  0  0  0  0  0
   -0.1275    0.4111    4.0813 C   0  0  0  0  0  0  0  0  0  0  0  0
    0.6862    1.1312    4.1910 H   0  0  0  0  0  0  0  0  0  0  0  0
   -0.9980    0.7641    4.6360 H   0  0  0  0  0  0  0  0  0  0  0  0
    0.1959   -0.5481    4.4891 H   0  0  0  0  0  0  0  0  0  0  0  0
  5  6  2  0  0  0  0
  5  7  1  0  0  0  0
  2  3  1  0  0  0  0
  2  4  1  0  0  0  0
  2  5  1  0  0  0  0
  1  2  1  0  0  0  0
 19 20  2  0  0  0  0
 19 21  1  0  0  0  0
 16 17  1  0  0  0  0
 16 18  1  0  0  0  0
 14 15  2  0  0  0  0
 14 16  1  0  0  0  0
 11 12  1  0  0  0  0
 11 13  1  0  0  0  0
 11 14  1  0  0  0  0
  9 10  1  0  0  0  0
  9 11  1  0  0  0  0
  9 19  1  0  0  0  0
  7  8  1  0  0  0  0
  7  9  1  0  0  0  0
 23 24  1  0  0  0  0
 23 25  1  0  0  0  0
 23 26  1  0  0  0  0
 21 22  1  0  0  0  0
 21 23  1  0  0  0  0
M  END
$$$$
default_name
  -OEChem-02102213163D

 26 25  0     1  0  0  0  0  0999 V2000
   -3.0232   -3.6924    1.0038 H   0  0  0  0  0  0  0  0  0  0  0  0
   -3.0082   -2.6684    0.6318 C   0  0  0  0  0  0  0  0  0  0  0  0
   -3.6332   -2.0414    1.2658 H   0  0  0  0  0  0  0  0  0  0  0  0
   -3.3762   -2.6444   -0.3912 H   0  0  0  0  0  0  0  0  0  0  0  0
   -1.5882   -2.1554    0.6658 C   0  0  0  0  0  0  0  0  0  0  0  0
   -0.6832   -2.8764    1.0638 O   0  0  0  0  0  0  0  0  0  0  0  0
   -1.3952   -0.9084    0.2428 N   0  0  0  0  0  0  0  0  0  0  0  0
   -2.1972   -0.3644   -0.0422 H   0  0  0  0  0  0  0  0  0  0  0  0
   -0.1122   -0.1994    0.2658 C   0  0  1  0  0  0  0  0  0  0  0  0
    0.6131   -0.7748   -0.3153 H   0  0  0  0  0  0  0  0  0  0  0  0
   -0.2973    1.1841   -0.3966 C   0  0  0  0  0  0  0  0  0  0  0  0
    0.5513    1.8183   -0.1427 H   0  0  0  0  0  0  0  0  0  0  0  0
   -0.3232    1.0636   -1.4786 H   0  0  0  0  0  0  0  0  0  0  0  0
   -1.5486    1.9218    0.0520 C   0  0  0  0  0  0  0  0  0  0  0  0
   -1.7571    2.2294    1.2126 O   0  0  0  0  0  0  0  0  0  0  0  0
   -2.4391    2.2267   -0.8604 N   0  0  0  0  0  0  0  0  0  0  0  0
   -3.2471    2.7293   -0.5377 H   0  0  0  0  0  0  0  0  0  0  0  0
   -2.2823    2.0017   -1.8247 H   0  0  0  0  0  0  0  0  0  0  0  0
    0.4075   -0.0985    1.7169 C   0  0  0  0  0  0  0  0  0  0  0  0
    1.5860   -0.3526    1.9662 O   0  0  0  0  0  0  0  0  0  0  0  0
   -0.4625    0.2583    2.6666 N   0  0  0  0  0  0  0  0  0  0  0  0
   -1.4309    0.3754    2.3860 H   0  0  0  0  0  0  0  0  0  0  0  0
   -0.1275    0.4111    4.0813 C   0  0  0  0  0  0  0  0  0  0  0  0
    0.6862    1.1312    4.1910 H   0  0  0  0  0  0  0  0  0  0  0  0
   -0.9980    0.7641    4.6360 H   0  0  0  0  0  0  0  0  0  0  0  0
    0.1959   -0.5481    4.4891 H   0  0  0  0  0  0  0  0  0  0  0  0
  5  6  2  0  0  0  0
  5  7  1  0  0  0  0
  2  3  1  0  0  0  0
  2  4  1  0  0  0  0
  2  5  1  0  0  0  0
  1  2  1  0  0  0  0
 19 20  2  0  0  0  0
 19 21  1  0  0  0  0
 16 17  1  0  0  0  0
 16 18  1  0  0  0  0
 14 15  2  0  0  0  0
 14 16  1  0  0  0  0
 11 12  1  0  0  0  0
 11 13  1  0  0  0  0
 11 14  1  0  0  0  0
  9 10  1  0  0  0  0
  9 11  1  0  0  0  0
  9 19  1  0  0  0  0
  7  8  1  0  0  0  0
  7  9  1  0  0  0  0
 23 24  1  0  0  0  0
 23 25  1  0  0  0  0
 23 26  1  0  0  0  0
 21 22  1  0  0  0  0
 21 23  1  0  0  0  0
M  END
$$$$
default_name
  -OEChem-02102213163D

 26 25  0     1  0  0  0  0  0999 V2000
   -3.0232   -3.6924    1.0038 H   0  0  0  0  0  0  0  0  0  0  0  0
   -3.0082   -2.6684    0.6318 C   0  0  0  0  0  0  0  0  0  0  0  0
   -3.6332   -2.0414    1.2658 H   0  0  0  0  0  0  0  0  0  0  0  0
   -3.3762   -2.6444   -0.3912 H   0  0  0  0  0  0  0  0  0  0  0  0
   -1.5882   -2.1554    0.6658 C   0  0  0  0  0  0  0  0  0  0  0  0
   -0.6832   -2.8764    1.0638 O   0  0  0  0  0  0  0  0  0  0  0  0
   -1.3952   -0.9084    0.2428 N   0  0  0  0  0  0  0  0  0  0  0  0
   -2.1972   -0.3644   -0.0422 H   0  0  0  0  0  0  0  0  0  0  0  0
   -0.1122   -0.1994    0.2658 C   0  0  1  0  0  0  0  0  0  0  0  0
    0.6131   -0.7748   -0.3153 H   0  0  0  0  0  0  0  0  0  0  0  0
   -0.2973    1.1841   -0.3966 C   0  0  0  0  0  0  0  0  0  0  0  0
    0.5513    1.8183   -0.1427 H   0  0  0  0  0  0  0  0  0  0  0  0
   -0.3232    1.0636   -1.4786 H   0  0  0  0  0  0  0  0  0  0  0  0
   -1.5486    1.9218    0.0520 C   0  0  0  0  0  0  0  0  0  0  0  0
   -1.6463    2.4612    1.1404 O   0  0  0  0  0  0  0  0  0  0  0  0
   -2.5638    1.9641   -0.7762 N   0  0  0  0  0  0  0  0  0  0  0  0
   -3.3703    2.4732   -0.4600 H   0  0  0  0  0  0  0  0  0  0  0  0
   -2.5016    1.5447   -1.6847 H   0  0  0  0  0  0  0  0  0  0  0  0
    0.4075   -0.0985    1.7169 C   0  0  0  0  0  0  0  0  0  0  0  0
    1.5860   -0.3526    1.9662 O   0  0  0  0  0  0  0  0  0  0  0  0
   -0.4625    0.2583    2.6666 N   0  0  0  0  0  0  0  0  0  0  0  0
   -1.4309    0.3754    2.3860 H   0  0  0  0  0  0  0  0  0  0  0  0
   -0.1275    0.4111    4.0813 C   0  0  0  0  0  0  0  0  0  0  0  0
    0.6862    1.1312    4.1910 H   0  0  0  0  0  0  0  0  0  0  0  0
   -0.9980    0.7641    4.6360 H   0  0  0  0  0  0  0  0  0  0  0  0
    0.1959   -0.5481    4.4891 H   0  0  0  0  0  0  0  0  0  0  0  0
  5  6  2  0  0  0  0
  5  7  1  0  0  0  0
  2  3  1  0  0  0  0
  2  4  1  0  0  0  0
  2  5  1  0  0  0  0
  1  2  1  0  0  0  0
 19 20  2  0  0  0  0
 19 21  1  0  0  0  0
 16 17  1  0  0  0  0
 16 18  1  0  0  0  0
 14 15  2  0  0  0  0
 14 16  1  0  0  0  0
 11 12  1  0  0  0  0
 11 13  1  0  0  0  0
 11 14  1  0  0  0  0
  9 10  1  0  0  0  0
  9 11  1  0  0  0  0
  9 19  1  0  0  0  0
  7  8  1  0  0  0  0
  7  9  1  0  0  0  0
 23 24  1  0  0  0  0
 23 25  1  0  0  0  0
 23 26  1  0  0  0  0
 21 22  1  0  0  0  0
 21 23  1  0  0  0  0
M  END
$$$$
default_name
  -OEChem-02102213163D

 26 25  0     1  0  0  0  0  0999 V2000
   -3.0232   -3.6924    1.0038 H   0  0  0  0  0  0  0  0  0  0  0  0
   -3.0082   -2.6684    0.6318 C   0  0  0  0  0  0  0  0  0  0  0  0
   -3.6332   -2.0414    1.2658 H   0  0  0  0  0  0  0  0  0  0  0  0
   -3.3762   -2.6444   -0.3912 H   0  0  0  0  0  0  0  0  0  0  0  0
   -1.5882   -2.1554    0.6658 C   0  0  0  0  0  0  0  0  0  0  0  0
   -0.6832   -2.8764    1.0638 O   0  0  0  0  0  0  0  0  0  0  0  0
   -1.3952   -0.9084    0.2428 N   0  0  0  0  0  0  0  0  0  0  0  0
   -2.1972   -0.3644   -0.0422 H   0  0  0  0  0  0  0  0  0  0  0  0
   -0.1122   -0.1994    0.2658 C   0  0  1  0  0  0  0  0  0  0  0  0
    0.6131   -0.7748   -0.3153 H   0  0  0  0  0  0  0  0  0  0  0  0
   -0.2973    1.1841   -0.3966 C   0  0  0  0  0  0  0  0  0  0  0  0
    0.5513    1.8183   -0.1427 H   0  0  0  0  0  0  0  0  0  0  0  0
   -0.3232    1.0636   -1.4786 H   0  0  0  0  0  0  0  0  0  0  0  0
   -1.5486    1.9218    0.0520 C   0  0  0  0  0  0  0  0  0  0  0  0
   -1.5661    2.6782    1.0074 O   0  0  0  0  0  0  0  0  0  0  0  0
   -2.6536    1.7188   -0.6234 N   0  0  0  0  0  0  0  0  0  0  0  0
   -3.4599    2.2330   -0.3149 H   0  0  0  0  0  0  0  0  0  0  0  0
   -2.6610    1.1163   -1.4246 H   0  0  0  0  0  0  0  0  0  0  0  0
    0.4075   -0.0985    1.7169 C   0  0  0  0  0  0  0  0  0  0  0  0
    1.5860   -0.3526    1.9662 O   0  0  0  0  0  0  0  0  0  0  0  0
   -0.4625    0.2583    2.6666 N   0  0  0  0  0  0  0  0  0  0  0  0
   -1.4309    0.3754    2.3860 H   0  0  0  0  0  0  0  0  0  0  0  0
   -0.1275    0.4111    4.0813 C   0  0  0  0  0  0  0  0  0  0  0  0
    0.6862    1.1312    4.1910 H   0  0  0  0  0  0  0  0  0  0  0  0
   -0.9980    0.7641    4.6360 H   0  0  0  0  0  0  0  0  0  0  0  0
    0.1959   -0.5481    4.4891 H   0  0  0  0  0  0  0  0  0  0  0  0
  5  6  2  0  0  0  0
  5  7  1  0  0  0  0
  2  3  1  0  0  0  0
  2  4  1  0  0  0  0
  2  5  1  0  0  0  0
  1  2  1  0  0  0  0
 19 20  2  0  0  0  0
 19 21  1  0  0  0  0
 16 17  1  0  0  0  0
 16 18  1  0  0  0  0
 14 15  2  0  0  0  0
 14 16  1  0  0  0  0
 11 12  1  0  0  0  0
 11 13  1  0  0  0  0
 11 14  1  0  0  0  0
  9 10  1  0  0  0  0
  9 11  1  0  0  0  0
  9 19  1  0  0  0  0
  7  8  1  0  0  0  0
  7  9  1  0  0  0  0
 23 24  1  0  0  0  0
 23 25  1  0  0  0  0
 23 26  1  0  0  0  0
 21 22  1  0  0  0  0
 21 23  1  0  0  0  0
M  END
$$$$
default_name
  -OEChem-02102213163D

 26 25  0     1  0  0  0  0  0999 V2000
   -3.0232   -3.6924    1.0038 H   0  0  0  0  0  0  0  0  0  0  0  0
   -3.0082   -2.6684    0.6318 C   0  0  0  0  0  0  0  0  0  0  0  0
   -3.6332   -2.0414    1.2658 H   0  0  0  0  0  0  0  0  0  0  0  0
   -3.3762   -2.6444   -0.3912 H   0  0  0  0  0  0  0  0  0  0  0  0
   -1.5882   -2.1554    0.6658 C   0  0  0  0  0  0  0  0  0  0  0  0
   -0.6832   -2.8764    1.0638 O   0  0  0  0  0  0  0  0  0  0  0  0
   -1.3952   -0.9084    0.2428 N   0  0  0  0  0  0  0  0  0  0  0  0
   -2.1972   -0.3644   -0.0422 H   0  0  0  0  0  0  0  0  0  0  0  0
   -0.1122   -0.1994    0.2658 C   0  0  1  0  0  0  0  0  0  0  0  0
    0.6131   -0.7748   -0.3153 H   0  0  0  0  0  0  0  0  0  0  0  0
   -0.2973    1.1841   -0.3966 C   0  0  0  0  0  0  0  0  0  0  0  0
    0.5513    1.8183   -0.1427 H   0  0  0  0  0  0  0  0  0  0  0  0
   -0.3232    1.0636   -1.4786 H   0  0  0  0  0  0  0  0  0  0  0  0
   -1.5486    1.9218    0.0520 C   0  0  0  0  0  0  0  0  0  0  0  0
   -1.5219    2.8656    0.8226 O   0  0  0  0  0  0  0  0  0  0  0  0
   -2.7024    1.5076   -0.4122 N   0  0  0  0  0  0  0  0  0  0  0  0
   -3.5100    2.0250   -0.1124 H   0  0  0  0  0  0  0  0  0  0  0  0
   -2.7495    0.7457   -1.0620 H   0  0  0  0  0  0  0  0  0  0  0  0
    0.4075   -0.0985    1.7169 C   0  0  0  0  0  0  0  0  0  0  0  0
    1.5860   -0.3526    1.9662 O   0  0  0  0  0  0  0  0  0  0  0  0
   -0.4625    0.2583    2.6666 N   0  0  0  0  0  0  0  0  0  0  0  0
   -1.4309    0.3754    2.3860 H   0  0  0  0  0  0  0  0  0  0  0  0
   -0.1275    0.4111    4.0813 C   0  0  0  0  0  0  0  0  0  0  0  0
    0.6862    1.1312    4.1910 H   0  0  0  0  0  0  0  0  0  0  0  0
   -0.9980    0.7641    4.6360 H   0  0  0  0  0  0  0  0  0  0  0  0
    0.1959   -0.5481    4.4891 H   0  0  0  0  0  0  0  0  0  0  0  0
  5  6  2  0  0  0  0
  5  7  1  0  0  0  0
  2  3  1  0  0  0  0
  2  4  1  0  0  0  0
  2  5  1  0  0  0  0
  1  2  1  0  0  0  0
 19 20  2  0  0  0  0
 19 21  1  0  0  0  0
 16 17  1  0  0  0  0
 16 18  1  0  0  0  0
 14 15  2  0  0  0  0
 14 16  1  0  0  0  0
 11 12  1  0  0  0  0
 11 13  1  0  0  0  0
 11 14  1  0  0  0  0
  9 10  1  0  0  0  0
  9 11  1  0  0  0  0
  9 19  1  0  0  0  0
  7  8  1  0  0  0  0
  7  9  1  0  0  0  0
 23 24  1  0  0  0  0
 23 25  1  0  0  0  0
 23 26  1  0  0  0  0
 21 22  1  0  0  0  0
 21 23  1  0  0  0  0
M  END
$$$$
default_name
  -OEChem-02102213163D

 26 25  0     1  0  0  0  0  0999 V2000
   -3.0232   -3.6924    1.0038 H   0  0  0  0  0  0  0  0  0  0  0  0
   -3.0082   -2.6684    0.6318 C   0  0  0  0  0  0  0  0  0  0  0  0
   -3.6332   -2.0414    1.2658 H   0  0  0  0  0  0  0  0  0  0  0  0
   -3.3762   -2.6444   -0.3912 H   0  0  0  0  0  0  0  0  0  0  0  0
   -1.5882   -2.1554    0.6658 C   0  0  0  0  0  0  0  0  0  0  0  0
   -0.6832   -2.8764    1.0638 O   0  0  0  0  0  0  0  0  0  0  0  0
   -1.3952   -0.9084    0.2428 N   0  0  0  0  0  0  0  0  0  0  0  0
   -2.1972   -0.3644   -0.0422 H   0  0  0  0  0  0  0  0  0  0  0  0
   -0.1122   -0.1994    0.2658 C   0  0  1  0  0  0  0  0  0  0  0  0
    0.6131   -0.7748   -0.3153 H   0  0  0  0  0  0  0  0  0  0  0  0
   -0.2973    1.1841   -0.3966 C   0  0  0  0  0  0  0  0  0  0  0  0
    0.5513    1.8183   -0.1427 H   0  0  0  0  0  0  0  0  0  0  0  0
   -0.3232    1.0636   -1.4786 H   0  0  0  0  0  0  0  0  0  0  0  0
   -1.5486    1.9218    0.0520 C   0  0  0  0  0  0  0  0  0  0  0  0
   -1.5166    3.0106    0.5986 O   0  0  0  0  0  0  0  0  0  0  0  0
   -2.7069    1.3449   -0.1570 N   0  0  0  0  0  0  0  0  0  0  0  0
   -3.5170    1.8634    0.1338 H   0  0  0  0  0  0  0  0  0  0  0  0
   -2.7612    0.4583   -0.6218 H   0  0  0  0  0  0  0  0  0  0  0  0
    0.4075   -0.0985    1.7169 C   0  0  0  0  0  0  0  0  0  0  0  0
    1.5860   -0.3526    1.9662 O   0  0  0  0  0  0  0  0  0  0  0  0
   -0.4625    0.2583    2.6666 N   0  0  0  0  0  0  0  0  0  0  0  0
   -1.4309    0.3754    2.3860 H   0  0  0  0  0  0  0  0  0  0  0  0
   -0.1275    0.4111    4.0813 C   0  0  0  0  0  0  0  0  0  0  0  0
    0.6862    1.1312    4.1910 H   0  0  0  0  0  0  0  0  0  0  0  0
   -0.9980    0.7641    4.6360 H   0  0  0  0  0  0  0  0  0  0  0  0
    0.1959   -0.5481    4.4891 H   0  0  0  0  0  0  0  0  0  0  0  0
  5  6  2  0  0  0  0
  5  7  1  0  0  0  0
  2  3  1  0  0  0  0
  2  4  1  0  0  0  0
  2  5  1  0  0  0  0
  1  2  1  0  0  0  0
 19 20  2  0  0  0  0
 19 21  1  0  0  0  0
 16 17  1  0  0  0  0
 16 18  1  0  0  0  0
 14 15  2  0  0  0  0
 14 16  1  0  0  0  0
 11 12  1  0  0  0  0
 11 13  1  0  0  0  0
 11 14  1  0  0  0  0
  9 10  1  0  0  0  0
  9 11  1  0  0  0  0
  9 19  1  0  0  0  0
  7  8  1  0  0  0  0
  7  9  1  0  0  0  0
 23 24  1  0  0  0  0
 23 25  1  0  0  0  0
 23 26  1  0  0  0  0
 21 22  1  0  0  0  0
 21 23  1  0  0  0  0
M  END
$$$$
default_name
  -OEChem-02102213163D

 26 25  0     1  0  0  0  0  0999 V2000
   -3.0232   -3.6924    1.0038 H   0  0  0  0  0  0  0  0  0  0  0  0
   -3.0082   -2.6684    0.6318 C   0  0  0  0  0  0  0  0  0  0  0  0
   -3.6332   -2.0414    1.2658 H   0  0  0  0  0  0  0  0  0  0  0  0
   -3.3762   -2.6444   -0.3912 H   0  0  0  0  0  0  0  0  0  0  0  0
   -1.5882   -2.1554    0.6658 C   0  0  0  0  0  0  0  0  0  0  0  0
   -0.6832   -2.8764    1.0638 O   0  0  0  0  0  0  0  0  0  0  0  0
   -1.3952   -0.9084    0.2428 N   0  0  0  0  0  0  0  0  0  0  0  0
   -2.1972   -0.3644   -0.0422 H   0  0  0  0  0  0  0  0  0  0  0  0
   -0.1122   -0.1994    0.2658 C   0  0  1  0  0  0  0  0  0  0  0  0
    0.6131   -0.7748   -0.3153 H   0  0  0  0  0  0  0  0  0  0  0  0
   -0.2973    1.1841   -0.3966 C   0  0  0  0  0  0  0  0  0  0  0  0
    0.5513    1.8183   -0.1427 H   0  0  0  0  0  0  0  0  0  0  0  0
   -0.3232    1.0636   -1.4786 H   0  0  0  0  0  0  0  0  0  0  0  0
   -1.5486    1.9218    0.0520 C   0  0  0  0  0  0  0  0  0  0  0  0
   -1.5508    3.1034    0.3507 O   0  0  0  0  0  0  0  0  0  0  0  0
   -2.6668    1.2417    0.1246 N   0  0  0  0  0  0  0  0  0  0  0  0
   -3.4805    1.7592    0.4070 H   0  0  0  0  0  0  0  0  0  0  0  0
   -2.6952    0.2735   -0.1338 H   0  0  0  0  0  0  0  0  0  0  0  0
    0.4075   -0.0985    1.7169 C   0  0  0  0  0  0  0  0  0  0  0  0
    1.5860   -0.3526    1.9662 O   0  0  0  0  0  0  0  0  0  0  0  0
   -0.4625    0.2583    2.6666 N   0  0  0  0  0  0  0  0  0  0  0  0
   -1.4309    0.3754    2.3860 H   0  0  0  0  0  0  0  0  0  0  0  0
   -0.1275    0.4111    4.0813 C   0  0  0  0  0  0  0  0  0  0  0  0
    0.6862    1.1312    4.1910 H   0  0  0  0  0  0  0  0  0  0  0  0
   -0.9980    0.7641    4.6360 H   0  0  0  0  0  0  0  0  0  0  0  0
    0.1959   -0.5481    4.4891 H   0  0  0  0  0  0  0  0  0  0  0  0
  5  6  2  0  0  0  0
  5  7  1  0  0  0  0
  2  3  1  0  0  0  0
  2  4  1  0  0  0  0
  2  5  1  0  0  0  0
  1  2  1  0  0  0  0
 19 20  2  0  0  0  0
 19 21  1  0  0  0  0
 16 17  1  0  0  0  0
 16 18  1  0  0  0  0
 14 15  2  0  0  0  0
 14 16  1  0  0  0  0
 11 12  1  0  0  0  0
 11 13  1  0  0  0  0
 11 14  1  0  0  0  0
  9 10  1  0  0  0  0
  9 11  1  0  0  0  0
  9 19  1  0  0  0  0
  7  8  1  0  0  0  0
  7  9  1  0  0  0  0
 23 24  1  0  0  0  0
 23 25  1  0  0  0  0
 23 26  1  0  0  0  0
 21 22  1  0  0  0  0
 21 23  1  0  0  0  0
M  END
$$$$
default_name
  -OEChem-02102213163D

 26 25  0     1  0  0  0  0  0999 V2000
   -3.0232   -3.6924    1.0038 H   0  0  0  0  0  0  0  0  0  0  0  0
   -3.0082   -2.6684    0.6318 C   0  0  0  0  0  0  0  0  0  0  0  0
   -3.6332   -2.0414    1.2658 H   0  0  0  0  0  0  0  0  0  0  0  0
   -3.3762   -2.6444   -0.3912 H   0  0  0  0  0  0  0  0  0  0  0  0
   -1.5882   -2.1554    0.6658 C   0  0  0  0  0  0  0  0  0  0  0  0
   -0.6832   -2.8764    1.0638 O   0  0  0  0  0  0  0  0  0  0  0  0
   -1.3952   -0.9084    0.2428 N   0  0  0  0  0  0  0  0  0  0  0  0
   -2.1972   -0.3644   -0.0422 H   0  0  0  0  0  0  0  0  0  0  0  0
   -0.1122   -0.1994    0.2658 C   0  0  1  0  0  0  0  0  0  0  0  0
    0.6131   -0.7748   -0.3153 H   0  0  0  0  0  0  0  0  0  0  0  0
   -0.2973    1.1841   -0.3966 C   0  0  0  0  0  0  0  0  0  0  0  0
    0.5513    1.8183   -0.1427 H   0  0  0  0  0  0  0  0  0  0  0  0
   -0.3232    1.0636   -1.4786 H   0  0  0  0  0  0  0  0  0  0  0  0
   -1.5486    1.9218    0.0520 C   0  0  0  0  0  0  0  0  0  0  0  0
   -1.6221    3.1375    0.0958 O   0  0  0  0  0  0  0  0  0  0  0  0
   -2.5848    1.2051    0.4137 N   0  0  0  0  0  0  0  0  0  0  0  0
   -3.4029    1.7196    0.6884 H   0  0  0  0  0  0  0  0  0  0  0  0
   -2.5561    0.2040    0.3686 H   0  0  0  0  0  0  0  0  0  0  0  0
    0.4075   -0.0985    1.7169 C   0  0  0  0  0  0  0  0  0  0  0  0
    1.5860   -0.3526    1.9662 O   0  0  0  0  0  0  0  0  0  0  0  0
   -0.4625    0.2583    2.6666 N   0  0  0  0  0  0  0  0  0  0  0  0
   -1.4309    0.3754    2.3860 H   0  0  0  0  0  0  0  0  0  0  0  0
   -0.1275    0.4111    4.0813 C   0  0  0  0  0  0  0  0  0  0  0  0
    0.6862    1.1312    4.1910 H   0  0  0  0  0  0  0  0  0  0  0  0
   -0.9980    0.7641    4.6360 H   0  0  0  0  0  0  0  0  0  0  0  0
    0.1959   -0.5481    4.4891 H   0  0  0  0  0  0  0  0  0  0  0  0
  5  6  2  0  0  0  0
  5  7  1  0  0  0  0
  2  3  1  0  0  0  0
  2  4  1  0  0  0  0
  2  5  1  0  0  0  0
  1  2  1  0  0  0  0
 19 20  2  0  0  0  0
 19 21  1  0  0  0  0
 16 17  1  0  0  0  0
 16 18  1  0  0  0  0
 14 15  2  0  0  0  0
 14 16  1  0  0  0  0
 11 12  1  0  0  0  0
 11 13  1  0  0  0  0
 11 14  1  0  0  0  0
  9 10  1  0  0  0  0
  9 11  1  0  0  0  0
  9 19  1  0  0  0  0
  7  8  1  0  0  0  0
  7  9  1  0  0  0  0
 23 24  1  0  0  0  0
 23 25  1  0  0  0  0
 23 26  1  0  0  0  0
 21 22  1  0  0  0  0
 21 23  1  0  0  0  0
M  END
$$$$
default_name
  -OEChem-02102213163D

 26 25  0     1  0  0  0  0  0999 V2000
   -3.0232   -3.6924    1.0038 H   0  0  0  0  0  0  0  0  0  0  0  0
   -3.0082   -2.6684    0.6318 C   0  0  0  0  0  0  0  0  0  0  0  0
   -3.6332   -2.0414    1.2658 H   0  0  0  0  0  0  0  0  0  0  0  0
   -3.3762   -2.6444   -0.3912 H   0  0  0  0  0  0  0  0  0  0  0  0
   -1.5882   -2.1554    0.6658 C   0  0  0  0  0  0  0  0  0  0  0  0
   -0.6832   -2.8764    1.0638 O   0  0  0  0  0  0  0  0  0  0  0  0
   -1.3952   -0.9084    0.2428 N   0  0  0  0  0  0  0  0  0  0  0  0
   -2.1972   -0.3644   -0.0422 H   0  0  0  0  0  0  0  0  0  0  0  0
   -0.1122   -0.1994    0.2658 C   0  0  1  0  0  0  0  0  0  0  0  0
    0.6131   -0.7748   -0.3153 H   0  0  0  0  0  0  0  0  0  0  0  0
   -0.2973    1.1841   -0.3966 C   0  0  0  0  0  0  0  0  0  0  0  0
    0.5513    1.8183   -0.1427 H   0  0  0  0  0  0  0  0  0  0  0  0
   -0.3232    1.0636   -1.4786 H   0  0  0  0  0  0  0  0  0  0  0  0
   -1.5486    1.9218    0.0520 C   0  0  0  0  0  0  0  0  0  0  0  0
   -1.7255    3.1108   -0.1488 O   0  0  0  0  0  0  0  0  0  0  0  0
   -2.4664    1.2375    0.6903 N   0  0  0  0  0  0  0  0  0  0  0  0
   -3.2897    1.7472    0.9590 H   0  0  0  0  0  0  0  0  0  0  0  0
   -2.3533    0.2545    0.8512 H   0  0  0  0  0  0  0  0  0  0  0  0
    0.4075   -0.0985    1.7169 C   0  0  0  0  0  0  0  0  0  0  0  0
    1.5860   -0.3526    1.9662 O   0  0  0  0  0  0  0  0  0  0  0  0
   -0.4625    0.2583    2.6666 N   0  0  0  0  0  0  0  0  0  0  0  0
   -1.4309    0.3754    2.3860 H   0  0  0  0  0  0  0  0  0  0  0  0
   -0.1275    0.4111    4.0813 C   0  0  0  0  0  0  0  0  0  0  0  0
    0.6862    1.1312    4.1910 H   0  0  0  0  0  0  0  0  0  0  0  0
   -0.9980    0.7641    4.6360 H   0  0  0  0  0  0  0  0  0  0  0  0
    0.1959   -0.5481    4.4891 H   0  0  0  0  0  0  0  0  0  0  0  0
  5  6  2  0  0  0  0
  5  7  1  0  0  0  0
  2  3  1  0  0  0  0
  2  4  1  0  0  0  0
  2  5  1  0  0  0  0
  1  2  1  0  0  0  0
 19 20  2  0  0  0  0
 19 21  1  0  0  0  0
 16 17  1  0  0  0  0
 16 18  1  0  0  0  0
 14 15  2  0  0  0  0
 14 16  1  0  0  0  0
 11 12  1  0  0  0  0
 11 13  1  0  0  0  0
 11 14  1  0  0  0  0
  9 10  1  0  0  0  0
  9 11  1  0  0  0  0
  9 19  1  0  0  0  0
  7  8  1  0  0  0  0
  7  9  1  0  0  0  0
 23 24  1  0  0  0  0
 23 25  1  0  0  0  0
 23 26  1  0  0  0  0
 21 22  1  0  0  0  0
 21 23  1  0  0  0  0
M  END
$$$$
default_name
  -OEChem-02102213163D

 26 25  0     1  0  0  0  0  0999 V2000
   -3.0232   -3.6924    1.0038 H   0  0  0  0  0  0  0  0  0  0  0  0
   -3.0082   -2.6684    0.6318 C   0  0  0  0  0  0  0  0  0  0  0  0
   -3.6332   -2.0414    1.2658 H   0  0  0  0  0  0  0  0  0  0  0  0
   -3.3762   -2.6444   -0.3912 H   0  0  0  0  0  0  0  0  0  0  0  0
   -1.5882   -2.1554    0.6658 C   0  0  0  0  0  0  0  0  0  0  0  0
   -0.6832   -2.8764    1.0638 O   0  0  0  0  0  0  0  0  0  0  0  0
   -1.3952   -0.9084    0.2428 N   0  0  0  0  0  0  0  0  0  0  0  0
   -2.1972   -0.3644   -0.0422 H   0  0  0  0  0  0  0  0  0  0  0  0
   -0.1122   -0.1994    0.2658 C   0  0  1  0  0  0  0  0  0  0  0  0
    0.6131   -0.7748   -0.3153 H   0  0  0  0  0  0  0  0  0  0  0  0
   -0.2973    1.1841   -0.3966 C   0  0  0  0  0  0  0  0  0  0  0  0
    0.6501    1.7213   -0.3729 H   0  0  0  0  0  0  0  0  0  0  0  0
   -0.5879    1.0480   -1.4372 H   0  0  0  0  0  0  0  0  0  0  0  0
   -1.3226    2.0683    0.2947 C   0  0  0  0  0  0  0  0  0  0  0  0
   -1.5972    3.1915   -0.0903 O   0  0  0  0  0  0  0  0  0  0  0  0
   -1.9244    1.5915    1.3572 N   0  0  0  0  0  0  0  0  0  0  0  0
   -2.6094    2.1911    1.7827 H   0  0  0  0  0  0  0  0  0  0  0  0
   -1.7302    0.6635    1.6828 H   0  0  0  0  0  0  0  0  0  0  0  0
    0.4075   -0.0985    1.7169 C   0  0  0  0  0  0  0  0  0  0  0  0
    1.5860   -0.3526    1.9662 O   0  0  0  0  0  0  0  0  0  0  0  0
   -0.4625    0.2583    2.6666 N   0  0  0  0  0  0  0  0  0  0  0  0
   -1.4309    0.3754    2.3860 H   0  0  0  0  0  0  0  0  0  0  0  0
   -0.1275    0.4111    4.0813 C   0  0  0  0  0  0  0  0  0  0  0  0
    0.6862    1.1312    4.1910 H   0  0  0  0  0  0  0  0  0  0  0  0
   -0.9980    0.7641    4.6360 H   0  0  0  0  0  0  0  0  0  0  0  0
    0.1959   -0.5481    4.4891 H   0  0  0  0  0  0  0  0  0  0  0  0
  5  6  2  0  0  0  0
  5  7  1  0  0  0  0
  2  3  1  0  0  0  0
  2  4  1  0  0  0  0
  2  5  1  0  0  0  0
  1  2  1  0  0  0  0
 19 20  2  0  0  0  0
 19 21  1  0  0  0  0
 16 17  1  0  0  0  0
 16 18  1  0  0  0  0
 14 15  2  0  0  0  0
 14 16  1  0  0  0  0
 11 12  1  0  0  0  0
 11 13  1  0  0  0  0
 11 14  1  0  0  0  0
  9 10  1  0  0  0  0
  9 11  1  0  0  0  0
  9 19  1  0  0  0  0
  7  8  1  0  0  0  0
  7  9  1  0  0  0  0
 23 24  1  0  0  0  0
 23 25  1  0  0  0  0
 23 26  1  0  0  0  0
 21 22  1  0  0  0  0
 21 23  1  0  0  0  0
M  END
$$$$
default_name
  -OEChem-02102213163D

 26 25  0     1  0  0  0  0  0999 V2000
   -3.0232   -3.6924    1.0038 H   0  0  0  0  0  0  0  0  0  0  0  0
   -3.0082   -2.6684    0.6318 C   0  0  0  0  0  0  0  0  0  0  0  0
   -3.6332   -2.0414    1.2658 H   0  0  0  0  0  0  0  0  0  0  0  0
   -3.3762   -2.6444   -0.3912 H   0  0  0  0  0  0  0  0  0  0  0  0
   -1.5882   -2.1554    0.6658 C   0  0  0  0  0  0  0  0  0  0  0  0
   -0.6832   -2.8764    1.0638 O   0  0  0  0  0  0  0  0  0  0  0  0
   -1.3952   -0.9084    0.2428 N   0  0  0  0  0  0  0  0  0  0  0  0
   -2.1972   -0.3644   -0.0422 H   0  0  0  0  0  0  0  0  0  0  0  0
   -0.1122   -0.1994    0.2658 C   0  0  1  0  0  0  0  0  0  0  0  0
    0.6131   -0.7748   -0.3153 H   0  0  0  0  0  0  0  0  0  0  0  0
   -0.2973    1.1841   -0.3966 C   0  0  0  0  0  0  0  0  0  0  0  0
    0.6501    1.7213   -0.3729 H   0  0  0  0  0  0  0  0  0  0  0  0
   -0.5879    1.0480   -1.4372 H   0  0  0  0  0  0  0  0  0  0  0  0
   -1.3226    2.0683    0.2947 C   0  0  0  0  0  0  0  0  0  0  0  0
   -1.7933    3.0669   -0.2216 O   0  0  0  0  0  0  0  0  0  0  0  0
   -1.7019    1.7345    1.5043 N   0  0  0  0  0  0  0  0  0  0  0  0
   -2.3931    2.3272    1.9293 H   0  0  0  0  0  0  0  0  0  0  0  0
   -1.3440    0.9075    1.9435 H   0  0  0  0  0  0  0  0  0  0  0  0
    0.4075   -0.0985    1.7169 C   0  0  0  0  0  0  0  0  0  0  0  0
    1.5860   -0.3526    1.9662 O   0  0  0  0  0  0  0  0  0  0  0  0
   -0.4625    0.2583    2.6666 N   0  0  0  0  0  0  0  0  0  0  0  0
   -1.4309    0.3754    2.3860 H   0  0  0  0  0  0  0  0  0  0  0  0
   -0.1275    0.4111    4.0813 C   0  0  0  0  0  0  0  0  0  0  0  0
    0.6862    1.1312    4.1910 H   0  0  0  0  0  0  0  0  0  0  0  0
   -0.9980    0.7641    4.6360 H   0  0  0  0  0  0  0  0  0  0  0  0
    0.1959   -0.5481    4.4891 H   0  0  0  0  0  0  0  0  0  0  0  0
  5  6  2  0  0  0  0
  5  7  1  0  0  0  0
  2  3  1  0  0  0  0
  2  4  1  0  0  0  0
  2  5  1  0  0  0  0
  1  2  1  0  0  0  0
 19 20  2  0  0  0  0
 19 21  1  0  0  0  0
 16 17  1  0  0  0  0
 16 18  1  0  0  0  0
 14 15  2  0  0  0  0
 14 16  1  0  0  0  0
 11 12  1  0  0  0  0
 11 13  1  0  0  0  0
 11 14  1  0  0  0  0
  9 10  1  0  0  0  0
  9 11  1  0  0  0  0
  9 19  1  0  0  0  0
  7  8  1  0  0  0  0
  7  9  1  0  0  0  0
 23 24  1  0  0  0  0
 23 25  1  0  0  0  0
 23 26  1  0  0  0  0
 21 22  1  0  0  0  0
 21 23  1  0  0  0  0
M  END
$$$$
default_name
  -OEChem-02102213163D

 26 25  0     1  0  0  0  0  0999 V2000
   -3.0232   -3.6924    1.0038 H   0  0  0  0  0  0  0  0  0  0  0  0
   -3.0082   -2.6684    0.6318 C   0  0  0  0  0  0  0  0  0  0  0  0
   -3.6332   -2.0414    1.2658 H   0  0  0  0  0  0  0  0  0  0  0  0
   -3.3762   -2.6444   -0.3912 H   0  0  0  0  0  0  0  0  0  0  0  0
   -1.5882   -2.1554    0.6658 C   0  0  0  0  0  0  0  0  0  0  0  0
   -0.6832   -2.8764    1.0638 O   0  0  0  0  0  0  0  0  0  0  0  0
   -1.3952   -0.9084    0.2428 N   0  0  0  0  0  0  0  0  0  0  0  0
   -2.1972   -0.3644   -0.0422 H   0  0  0  0  0  0  0  0  0  0  0  0
   -0.1122   -0.1994    0.2658 C   0  0  1  0  0  0  0  0  0  0  0  0
    0.6131   -0.7748   -0.3153 H   0  0  0  0  0  0  0  0  0  0  0  0
   -0.2973    1.1841   -0.3966 C   0  0  0  0  0  0  0  0  0  0  0  0
    0.6501    1.7213   -0.3729 H   0  0  0  0  0  0  0  0  0  0  0  0
   -0.5879    1.0480   -1.4372 H   0  0  0  0  0  0  0  0  0  0  0  0
   -1.3226    2.0683    0.2947 C   0  0  0  0  0  0  0  0  0  0  0  0
   -1.9877    2.9005   -0.2972 O   0  0  0  0  0  0  0  0  0  0  0  0
   -1.4817    1.9245    1.5879 N   0  0  0  0  0  0  0  0  0  0  0  0
   -2.1782    2.5097    2.0146 H   0  0  0  0  0  0  0  0  0  0  0  0
   -0.9605    1.2341    2.0946 H   0  0  0  0  0  0  0  0  0  0  0  0
    0.4075   -0.0985    1.7169 C   0  0  0  0  0  0  0  0  0  0  0  0
    1.5860   -0.3526    1.9662 O   0  0  0  0  0  0  0  0  0  0  0  0
   -0.4625    0.2583    2.6666 N   0  0  0  0  0  0  0  0  0  0  0  0
   -1.4309    0.3754    2.3860 H   0  0  0  0  0  0  0  0  0  0  0  0
   -0.1275    0.4111    4.0813 C   0  0  0  0  0  0  0  0  0  0  0  0
    0.6862    1.1312    4.1910 H   0  0  0  0  0  0  0  0  0  0  0  0
   -0.9980    0.7641    4.6360 H   0  0  0  0  0  0  0  0  0  0  0  0
    0.1959   -0.5481    4.4891 H   0  0  0  0  0  0  0  0  0  0  0  0
  5  6  2  0  0  0  0
  5  7  1  0  0  0  0
  2  3  1  0  0  0  0
  2  4  1  0  0  0  0
  2  5  1  0  0  0  0
  1  2  1  0  0  0  0
 19 20  2  0  0  0  0
 19 21  1  0  0  0  0
 16 17  1  0  0  0  0
 16 18  1  0  0  0  0
 14 15  2  0  0  0  0
 14 16  1  0  0  0  0
 11 12  1  0  0  0  0
 11 13  1  0  0  0  0
 11 14  1  0  0  0  0
  9 10  1  0  0  0  0
  9 11  1  0  0  0  0
  9 19  1  0  0  0  0
  7  8  1  0  0  0  0
  7  9  1  0  0  0  0
 23 24  1  0  0  0  0
 23 25  1  0  0  0  0
 23 26  1  0  0  0  0
 21 22  1  0  0  0  0
 21 23  1  0  0  0  0
M  END
$$$$
default_name
  -OEChem-02102213163D

 26 25  0     1  0  0  0  0  0999 V2000
   -3.0232   -3.6924    1.0038 H   0  0  0  0  0  0  0  0  0  0  0  0
   -3.0082   -2.6684    0.6318 C   0  0  0  0  0  0  0  0  0  0  0  0
   -3.6332   -2.0414    1.2658 H   0  0  0  0  0  0  0  0  0  0  0  0
   -3.3762   -2.6444   -0.3912 H   0  0  0  0  0  0  0  0  0  0  0  0
   -1.5882   -2.1554    0.6658 C   0  0  0  0  0  0  0  0  0  0  0  0
   -0.6832   -2.8764    1.0638 O   0  0  0  0  0  0  0  0  0  0  0  0
   -1.3952   -0.9084    0.2428 N   0  0  0  0  0  0  0  0  0  0  0  0
   -2.1972   -0.3644   -0.0422 H   0  0  0  0  0  0  0  0  0  0  0  0
   -0.1122   -0.1994    0.2658 C   0  0  1  0  0  0  0  0  0  0  0  0
    0.6131   -0.7748   -0.3153 H   0  0  0  0  0  0  0  0  0  0  0  0
   -0.2973    1.1841   -0.3966 C   0  0  0  0  0  0  0  0  0  0  0  0
    0.6501    1.7213   -0.3729 H   0  0  0  0  0  0  0  0  0  0  0  0
   -0.5879    1.0480   -1.4372 H   0  0  0  0  0  0  0  0  0  0  0  0
   -1.3226    2.0683    0.2947 C   0  0  0  0  0  0  0  0  0  0  0  0
   -2.1674    2.7036   -0.3119 O   0  0  0  0  0  0  0  0  0  0  0  0
   -1.2787    2.1486    1.6024 N   0  0  0  0  0  0  0  0  0  0  0  0
   -1.9792    2.7262    2.0328 H   0  0  0  0  0  0  0  0  0  0  0  0
   -0.6057    1.6211    2.1257 H   0  0  0  0  0  0  0  0  0  0  0  0
    0.4075   -0.0985    1.7169 C   0  0  0  0  0  0  0  0  0  0  0  0
    1.5860   -0.3526    1.9662 O   0  0  0  0  0  0  0  0  0  0  0  0
   -0.4625    0.2583    2.6666 N   0  0  0  0  0  0  0  0  0  0  0  0
   -1.4309    0.3754    2.3860 H   0  0  0  0  0  0  0  0  0  0  0  0
   -0.1275    0.4111    4.0813 C   0  0  0  0  0  0  0  0  0  0  0  0
    0.6862    1.1312    4.1910 H   0  0  0  0  0  0  0  0  0  0  0  0
   -0.9980    0.7641    4.6360 H   0  0  0  0  0  0  0  0  0  0  0  0
    0.1959   -0.5481    4.4891 H   0  0  0  0  0  0  0  0  0  0  0  0
  5  6  2  0  0  0  0
  5  7  1  0  0  0  0
  2  3  1  0  0  0  0
  2  4  1  0  0  0  0
  2  5  1  0  0  0  0
  1  2  1  0  0  0  0
 19 20  2  0  0  0  0
 19 21  1  0  0  0  0
 16 17  1  0  0  0  0
 16 18  1  0  0  0  0
 14 15  2  0  0  0  0
 14 16  1  0  0  0  0
 11 12  1  0  0  0  0
 11 13  1  0  0  0  0
 11 14  1  0  0  0  0
  9 10  1  0  0  0  0
  9 11  1  0  0  0  0
  9 19  1  0  0  0  0
  7  8  1  0  0  0  0
  7  9  1  0  0  0  0
 23 24  1  0  0  0  0
 23 25  1  0  0  0  0
 23 26  1  0  0  0  0
 21 22  1  0  0  0  0
 21 23  1  0  0  0  0
M  END
$$$$
default_name
  -OEChem-02102213163D

 26 25  0     1  0  0  0  0  0999 V2000
   -3.0232   -3.6924    1.0038 H   0  0  0  0  0  0  0  0  0  0  0  0
   -3.0082   -2.6684    0.6318 C   0  0  0  0  0  0  0  0  0  0  0  0
   -3.6332   -2.0414    1.2658 H   0  0  0  0  0  0  0  0  0  0  0  0
   -3.3762   -2.6444   -0.3912 H   0  0  0  0  0  0  0  0  0  0  0  0
   -1.5882   -2.1554    0.6658 C   0  0  0  0  0  0  0  0  0  0  0  0
   -0.6832   -2.8764    1.0638 O   0  0  0  0  0  0  0  0  0  0  0  0
   -1.3952   -0.9084    0.2428 N   0  0  0  0  0  0  0  0  0  0  0  0
   -2.1972   -0.3644   -0.0422 H   0  0  0  0  0  0  0  0  0  0  0  0
   -0.1122   -0.1994    0.2658 C   0  0  1  0  0  0  0  0  0  0  0  0
    0.6131   -0.7748   -0.3153 H   0  0  0  0  0  0  0  0  0  0  0  0
   -0.2973    1.1841   -0.3966 C   0  0  0  0  0  0  0  0  0  0  0  0
    0.6501    1.7213   -0.3729 H   0  0  0  0  0  0  0  0  0  0  0  0
   -0.5879    1.0480   -1.4372 H   0  0  0  0  0  0  0  0  0  0  0  0
   -1.3226    2.0683    0.2947 C   0  0  0  0  0  0  0  0  0  0  0  0
   -2.3199    2.4898   -0.2647 O   0  0  0  0  0  0  0  0  0  0  0  0
   -1.1069    2.3914    1.5467 N   0  0  0  0  0  0  0  0  0  0  0  0
   -1.8098    2.9620    1.9826 H   0  0  0  0  0  0  0  0  0  0  0  0
   -0.3039    2.0420    2.0349 H   0  0  0  0  0  0  0  0  0  0  0  0
    0.4075   -0.0985    1.7169 C   0  0  0  0  0  0  0  0  0  0  0  0
    1.5860   -0.3526    1.9662 O   0  0  0  0  0  0  0  0  0  0  0  0
   -0.4625    0.2583    2.6666 N   0  0  0  0  0  0  0  0  0  0  0  0
   -1.4309    0.3754    2.3860 H   0  0  0  0  0  0  0  0  0  0  0  0
   -0.1275    0.4111    4.0813 C   0  0  0  0  0  0  0  0  0  0  0  0
    0.6862    1.1312    4.1910 H   0  0  0  0  0  0  0  0  0  0  0  0
   -0.9980    0.7641    4.6360 H   0  0  0  0  0  0  0  0  0  0  0  0
    0.1959   -0.5481    4.4891 H   0  0  0  0  0  0  0  0  0  0  0  0
  5  6  2  0  0  0  0
  5  7  1  0  0  0  0
  2  3  1  0  0  0  0
  2  4  1  0  0  0  0
  2  5  1  0  0  0  0
  1  2  1  0  0  0  0
 19 20  2  0  0  0  0
 19 21  1  0  0  0  0
 16 17  1  0  0  0  0
 16 18  1  0  0  0  0
 14 15  2  0  0  0  0
 14 16  1  0  0  0  0
 11 12  1  0  0  0  0
 11 13  1  0  0  0  0
 11 14  1  0  0  0  0
  9 10  1  0  0  0  0
  9 11  1  0  0  0  0
  9 19  1  0  0  0  0
  7  8  1  0  0  0  0
  7  9  1  0  0  0  0
 23 24  1  0  0  0  0
 23 25  1  0  0  0  0
 23 26  1  0  0  0  0
 21 22  1  0  0  0  0
 21 23  1  0  0  0  0
M  END
$$$$
default_name
  -OEChem-02102213163D

 26 25  0     1  0  0  0  0  0999 V2000
   -3.0232   -3.6924    1.0038 H   0  0  0  0  0  0  0  0  0  0  0  0
   -3.0082   -2.6684    0.6318 C   0  0  0  0  0  0  0  0  0  0  0  0
   -3.6332   -2.0414    1.2658 H   0  0  0  0  0  0  0  0  0  0  0  0
   -3.3762   -2.6444   -0.3912 H   0  0  0  0  0  0  0  0  0  0  0  0
   -1.5882   -2.1554    0.6658 C   0  0  0  0  0  0  0  0  0  0  0  0
   -0.6832   -2.8764    1.0638 O   0  0  0  0  0  0  0  0  0  0  0  0
   -1.3952   -0.9084    0.2428 N   0  0  0  0  0  0  0  0  0  0  0  0
   -2.1972   -0.3644   -0.0422 H   0  0  0  0  0  0  0  0  0  0  0  0
   -0.1122   -0.1994    0.2658 C   0  0  1  0  0  0  0  0  0  0  0  0
    0.6131   -0.7748   -0.3153 H   0  0  0  0  0  0  0  0  0  0  0  0
   -0.2973    1.1841   -0.3966 C   0  0  0  0  0  0  0  0  0  0  0  0
    0.6501    1.7213   -0.3729 H   0  0  0  0  0  0  0  0  0  0  0  0
   -0.5879    1.0480   -1.4372 H   0  0  0  0  0  0  0  0  0  0  0  0
   -1.3226    2.0683    0.2947 C   0  0  0  0  0  0  0  0  0  0  0  0
   -2.4350    2.2736   -0.1588 O   0  0  0  0  0  0  0  0  0  0  0  0
   -0.9778    2.6364    1.4246 N   0  0  0  0  0  0  0  0  0  0  0  0
   -1.6814    3.2008    1.8675 H   0  0  0  0  0  0  0  0  0  0  0  0
   -0.0756    2.4684    1.8282 H   0  0  0  0  0  0  0  0  0  0  0  0
    0.4075   -0.0985    1.7169 C   0  0  0  0  0  0  0  0  0  0  0  0
    1.5860   -0.3526    1.9662 O   0  0  0  0  0  0  0  0  0  0  0  0
   -0.4625    0.2583    2.6666 N   0  0  0  0  0  0  0  0  0  0  0  0
   -1.4309    0.3754    2.3860 H   0  0  0  0  0  0  0  0  0  0  0  0
   -0.1275    0.4111    4.0813 C   0  0  0  0  0  0  0  0  0  0  0  0
    0.6862    1.1312    4.1910 H   0  0  0  0  0  0  0  0  0  0  0  0
   -0.9980    0.7641    4.6360 H   0  0  0  0  0  0  0  0  0  0  0  0
    0.1959   -0.5481    4.4891 H   0  0  0  0  0  0  0  0  0  0  0  0
  5  6  2  0  0  0  0
  5  7  1  0  0  0  0
  2  3  1  0  0  0  0
  2  4  1  0  0  0  0
  2  5  1  0  0  0  0
  1  2  1  0  0  0  0
 19 20  2  0  0  0  0
 19 21  1  0  0  0  0
 16 17  1  0  0  0  0
 16 18  1  0  0  0  0
 14 15  2  0  0  0  0
 14 16  1  0  0  0  0
 11 12  1  0  0  0  0
 11 13  1  0  0  0  0
 11 14  1  0  0  0  0
  9 10  1  0  0  0  0
  9 11  1  0  0  0  0
  9 19  1  0  0  0  0
  7  8  1  0  0  0  0
  7  9  1  0  0  0  0
 23 24  1  0  0  0  0
 23 25  1  0  0  0  0
 23 26  1  0  0  0  0
 21 22  1  0  0  0  0
 21 23  1  0  0  0  0
M  END
$$$$
default_name
  -OEChem-02102213163D

 26 25  0     1  0  0  0  0  0999 V2000
   -3.0232   -3.6924    1.0038 H   0  0  0  0  0  0  0  0  0  0  0  0
   -3.0082   -2.6684    0.6318 C   0  0  0  0  0  0  0  0  0  0  0  0
   -3.6332   -2.0414    1.2658 H   0  0  0  0  0  0  0  0  0  0  0  0
   -3.3762   -2.6444   -0.3912 H   0  0  0  0  0  0  0  0  0  0  0  0
   -1.5882   -2.1554    0.6658 C   0  0  0  0  0  0  0  0  0  0  0  0
   -0.6832   -2.8764    1.0638 O   0  0  0  0  0  0  0  0  0  0  0  0
   -1.3952   -0.9084    0.2428 N   0  0  0  0  0  0  0  0  0  0  0  0
   -2.1972   -0.3644   -0.0422 H   0  0  0  0  0  0  0  0  0  0  0  0
   -0.1122   -0.1994    0.2658 C   0  0  1  0  0  0  0  0  0  0  0  0
    0.6131   -0.7748   -0.3153 H   0  0  0  0  0  0  0  0  0  0  0  0
   -0.2973    1.1841   -0.3966 C   0  0  0  0  0  0  0  0  0  0  0  0
    0.6501    1.7213   -0.3729 H   0  0  0  0  0  0  0  0  0  0  0  0
   -0.5879    1.0480   -1.4372 H   0  0  0  0  0  0  0  0  0  0  0  0
   -1.3226    2.0683    0.2947 C   0  0  0  0  0  0  0  0  0  0  0  0
   -2.5048    2.0696   -0.0014 O   0  0  0  0  0  0  0  0  0  0  0  0
   -0.9004    2.8670    1.2445 N   0  0  0  0  0  0  0  0  0  0  0  0
   -1.6028    3.4266    1.6952 H   0  0  0  0  0  0  0  0  0  0  0  0
    0.0636    2.8709    1.5197 H   0  0  0  0  0  0  0  0  0  0  0  0
    0.4075   -0.0985    1.7169 C   0  0  0  0  0  0  0  0  0  0  0  0
    1.5860   -0.3526    1.9662 O   0  0  0  0  0  0  0  0  0  0  0  0
   -0.4625    0.2583    2.6666 N   0  0  0  0  0  0  0  0  0  0  0  0
   -1.4309    0.3754    2.3860 H   0  0  0  0  0  0  0  0  0  0  0  0
   -0.1275    0.4111    4.0813 C   0  0  0  0  0  0  0  0  0  0  0  0
    0.6862    1.1312    4.1910 H   0  0  0  0  0  0  0  0  0  0  0  0
   -0.9980    0.7641    4.6360 H   0  0  0  0  0  0  0  0  0  0  0  0
    0.1959   -0.5481    4.4891 H   0  0  0  0  0  0  0  0  0  0  0  0
  5  6  2  0  0  0  0
  5  7  1  0  0  0  0
  2  3  1  0  0  0  0
  2  4  1  0  0  0  0
  2  5  1  0  0  0  0
  1  2  1  0  0  0  0
 19 20  2  0  0  0  0
 19 21  1  0  0  0  0
 16 17  1  0  0  0  0
 16 18  1  0  0  0  0
 14 15  2  0  0  0  0
 14 16  1  0  0  0  0
 11 12  1  0  0  0  0
 11 13  1  0  0  0  0
 11 14  1  0  0  0  0
  9 10  1  0  0  0  0
  9 11  1  0  0  0  0
  9 19  1  0  0  0  0
  7  8  1  0  0  0  0
  7  9  1  0  0  0  0
 23 24  1  0  0  0  0
 23 25  1  0  0  0  0
 23 26  1  0  0  0  0
 21 22  1  0  0  0  0
 21 23  1  0  0  0  0
M  END
$$$$
default_name
  -OEChem-02102213163D

 26 25  0     1  0  0  0  0  0999 V2000
   -3.0232   -3.6924    1.0038 H   0  0  0  0  0  0  0  0  0  0  0  0
   -3.0082   -2.6684    0.6318 C   0  0  0  0  0  0  0  0  0  0  0  0
   -3.6332   -2.0414    1.2658 H   0  0  0  0  0  0  0  0  0  0  0  0
   -3.3762   -2.6444   -0.3912 H   0  0  0  0  0  0  0  0  0  0  0  0
   -1.5882   -2.1554    0.6658 C   0  0  0  0  0  0  0  0  0  0  0  0
   -0.6832   -2.8764    1.0638 O   0  0  0  0  0  0  0  0  0  0  0  0
   -1.3952   -0.9084    0.2428 N   0  0  0  0  0  0  0  0  0  0  0  0
   -2.1972   -0.3644   -0.0422 H   0  0  0  0  0  0  0  0  0  0  0  0
   -0.1122   -0.1994    0.2658 C   0  0  1  0  0  0  0  0  0  0  0  0
    0.6131   -0.7748   -0.3153 H   0  0  0  0  0  0  0  0  0  0  0  0
   -0.2973    1.1841   -0.3966 C   0  0  0  0  0  0  0  0  0  0  0  0
    0.6501    1.7213   -0.3729 H   0  0  0  0  0  0  0  0  0  0  0  0
   -0.5879    1.0480   -1.4372 H   0  0  0  0  0  0  0  0  0  0  0  0
   -1.3226    2.0683    0.2947 C   0  0  0  0  0  0  0  0  0  0  0  0
   -2.5245    1.8919    0.1967 O   0  0  0  0  0  0  0  0  0  0  0  0
   -0.8799    3.0674    1.0187 N   0  0  0  0  0  0  0  0  0  0  0  0
   -1.5795    3.6238    1.4776 H   0  0  0  0  0  0  0  0  0  0  0  0
    0.1043    3.2224    1.1306 H   0  0  0  0  0  0  0  0  0  0  0  0
    0.4075   -0.0985    1.7169 C   0  0  0  0  0  0  0  0  0  0  0  0
    1.5860   -0.3526    1.9662 O   0  0  0  0  0  0  0  0  0  0  0  0
   -0.4625    0.2583    2.6666 N   0  0  0  0  0  0  0  0  0  0  0  0
   -1.4309    0.3754    2.3860 H   0  0  0  0  0  0  0  0  0  0  0  0
   -0.1275    0.4111    4.0813 C   0  0  0  0  0  0  0  0  0  0  0  0
    0.6862    1.1312    4.1910 H   0  0  0  0  0  0  0  0  0  0  0  0
   -0.9980    0.7641    4.6360 H   0  0  0  0  0  0  0  0  0  0  0  0
    0.1959   -0.5481    4.4891 H   0  0  0  0  0  0  0  0  0  0  0  0
  5  6  2  0  0  0  0
  5  7  1  0  0  0  0
  2  3  1  0  0  0  0
  2  4  1  0  0  0  0
  2  5  1  0  0  0  0
  1  2  1  0  0  0  0
 19 20  2  0  0  0  0
 19 21  1  0  0  0  0
 16 17  1  0  0  0  0
 16 18  1  0  0  0  0
 14 15  2  0  0  0  0
 14 16  1  0  0  0  0
 11 12  1  0  0  0  0
 11 13  1  0  0  0  0
 11 14  1  0  0  0  0
  9 10  1  0  0  0  0
  9 11  1  0  0  0  0
  9 19  1  0  0  0  0
  7  8  1  0  0  0  0
  7  9  1  0  0  0  0
 23 24  1  0  0  0  0
 23 25  1  0  0  0  0
 23 26  1  0  0  0  0
 21 22  1  0  0  0  0
 21 23  1  0  0  0  0
M  END
$$$$
default_name
  -OEChem-02102213163D

 26 25  0     1  0  0  0  0  0999 V2000
   -3.0232   -3.6924    1.0038 H   0  0  0  0  0  0  0  0  0  0  0  0
   -3.0082   -2.6684    0.6318 C   0  0  0  0  0  0  0  0  0  0  0  0
   -3.6332   -2.0414    1.2658 H   0  0  0  0  0  0  0  0  0  0  0  0
   -3.3762   -2.6444   -0.3912 H   0  0  0  0  0  0  0  0  0  0  0  0
   -1.5882   -2.1554    0.6658 C   0  0  0  0  0  0  0  0  0  0  0  0
   -0.6832   -2.8764    1.0638 O   0  0  0  0  0  0  0  0  0  0  0  0
   -1.3952   -0.9084    0.2428 N   0  0  0  0  0  0  0  0  0  0  0  0
   -2.1972   -0.3644   -0.0422 H   0  0  0  0  0  0  0  0  0  0  0  0
   -0.1122   -0.1994    0.2658 C   0  0  1  0  0  0  0  0  0  0  0  0
    0.6131   -0.7748   -0.3153 H   0  0  0  0  0  0  0  0  0  0  0  0
   -0.2973    1.1841   -0.3966 C   0  0  0  0  0  0  0  0  0  0  0  0
    0.6501    1.7213   -0.3729 H   0  0  0  0  0  0  0  0  0  0  0  0
   -0.5879    1.0480   -1.4372 H   0  0  0  0  0  0  0  0  0  0  0  0
   -1.3226    2.0683    0.2947 C   0  0  0  0  0  0  0  0  0  0  0  0
   -2.4928    1.7525    0.4221 O   0  0  0  0  0  0  0  0  0  0  0  0
   -0.9176    3.2240    0.7624 N   0  0  0  0  0  0  0  0  0  0  0  0
   -1.6129    3.7791    1.2295 H   0  0  0  0  0  0  0  0  0  0  0  0
    0.0436    3.4986    0.6872 H   0  0  0  0  0  0  0  0  0  0  0  0
    0.4075   -0.0985    1.7169 C   0  0  0  0  0  0  0  0  0  0  0  0
    1.5860   -0.3526    1.9662 O   0  0  0  0  0  0  0  0  0  0  0  0
   -0.4625    0.2583    2.6666 N   0  0  0  0  0  0  0  0  0  0  0  0
   -1.4309    0.3754    2.3860 H   0  0  0  0  0  0  0  0  0  0  0  0
   -0.1275    0.4111    4.0813 C   0  0  0  0  0  0  0  0  0  0  0  0
    0.6862    1.1312    4.1910 H   0  0  0  0  0  0  0  0  0  0  0  0
   -0.9980    0.7641    4.6360 H   0  0  0  0  0  0  0  0  0  0  0  0
    0.1959   -0.5481    4.4891 H   0  0  0  0  0  0  0  0  0  0  0  0
  5  6  2  0  0  0  0
  5  7  1  0  0  0  0
  2  3  1  0  0  0  0
  2  4  1  0  0  0  0
  2  5  1  0  0  0  0
  1  2  1  0  0  0  0
 19 20  2  0  0  0  0
 19 21  1  0  0  0  0
 16 17  1  0  0  0  0
 16 18  1  0  0  0  0
 14 15  2  0  0  0  0
 14 16  1  0  0  0  0
 11 12  1  0  0  0  0
 11 13  1  0  0  0  0
 11 14  1  0  0  0  0
  9 10  1  0  0  0  0
  9 11  1  0  0  0  0
  9 19  1  0  0  0  0
  7  8  1  0  0  0  0
  7  9  1  0  0  0  0
 23 24  1  0  0  0  0
 23 25  1  0  0  0  0
 23 26  1  0  0  0  0
 21 22  1  0  0  0  0
 21 23  1  0  0  0  0
M  END
$$$$
default_name
  -OEChem-02102213163D

 26 25  0     1  0  0  0  0  0999 V2000
   -3.0232   -3.6924    1.0038 H   0  0  0  0  0  0  0  0  0  0  0  0
   -3.0082   -2.6684    0.6318 C   0  0  0  0  0  0  0  0  0  0  0  0
   -3.6332   -2.0414    1.2658 H   0  0  0  0  0  0  0  0  0  0  0  0
   -3.3762   -2.6444   -0.3912 H   0  0  0  0  0  0  0  0  0  0  0  0
   -1.5882   -2.1554    0.6658 C   0  0  0  0  0  0  0  0  0  0  0  0
   -0.6832   -2.8764    1.0638 O   0  0  0  0  0  0  0  0  0  0  0  0
   -1.3952   -0.9084    0.2428 N   0  0  0  0  0  0  0  0  0  0  0  0
   -2.1972   -0.3644   -0.0422 H   0  0  0  0  0  0  0  0  0  0  0  0
   -0.1122   -0.1994    0.2658 C   0  0  1  0  0  0  0  0  0  0  0  0
    0.6131   -0.7748   -0.3153 H   0  0  0  0  0  0  0  0  0  0  0  0
   -0.2973    1.1841   -0.3966 C   0  0  0  0  0  0  0  0  0  0  0  0
    0.6501    1.7213   -0.3729 H   0  0  0  0  0  0  0  0  0  0  0  0
   -0.5879    1.0480   -1.4372 H   0  0  0  0  0  0  0  0  0  0  0  0
   -1.3226    2.0683    0.2947 C   0  0  0  0  0  0  0  0  0  0  0  0
   -2.4118    1.6609    0.6593 O   0  0  0  0  0  0  0  0  0  0  0  0
   -1.0111    3.3260    0.4933 N   0  0  0  0  0  0  0  0  0  0  0  0
   -1.7007    3.8818    0.9678 H   0  0  0  0  0  0  0  0  0  0  0  0
   -0.1143    3.6810    0.2199 H   0  0  0  0  0  0  0  0  0  0  0  0
    0.4075   -0.0985    1.7169 C   0  0  0  0  0  0  0  0  0  0  0  0
    1.5860   -0.3526    1.9662 O   0  0  0  0  0  0  0  0  0  0  0  0
   -0.4625    0.2583    2.6666 N   0  0  0  0  0  0  0  0  0  0  0  0
   -1.4309    0.3754    2.3860 H   0  0  0  0  0  0  0  0  0  0  0  0
   -0.1275    0.4111    4.0813 C   0  0  0  0  0  0  0  0  0  0  0  0
    0.6862    1.1312    4.1910 H   0  0  0  0  0  0  0  0  0  0  0  0
   -0.9980    0.7641    4.6360 H   0  0  0  0  0  0  0  0  0  0  0  0
    0.1959   -0.5481    4.4891 H   0  0  0  0  0  0  0  0  0  0  0  0
  5  6  2  0  0  0  0
  5  7  1  0  0  0  0
  2  3  1  0  0  0  0
  2  4  1  0  0  0  0
  2  5  1  0  0  0  0
  1  2  1  0  0  0  0
 19 20  2  0  0  0  0
 19 21  1  0  0  0  0
 16 17  1  0  0  0  0
 16 18  1  0  0  0  0
 14 15  2  0  0  0  0
 14 16  1  0  0  0  0
 11 12  1  0  0  0  0
 11 13  1  0  0  0  0
 11 14  1  0  0  0  0
  9 10  1  0  0  0  0
  9 11  1  0  0  0  0
  9 19  1  0  0  0  0
  7  8  1  0  0  0  0
  7  9  1  0  0  0  0
 23 24  1  0  0  0  0
 23 25  1  0  0  0  0
 23 26  1  0  0  0  0
 21 22  1  0  0  0  0
 21 23  1  0  0  0  0
M  END
$$$$
default_name
  -OEChem-02102213163D

 26 25  0     1  0  0  0  0  0999 V2000
   -3.0232   -3.6924    1.0038 H   0  0  0  0  0  0  0  0  0  0  0  0
   -3.0082   -2.6684    0.6318 C   0  0  0  0  0  0  0  0  0  0  0  0
   -3.6332   -2.0414    1.2658 H   0  0  0  0  0  0  0  0  0  0  0  0
   -3.3762   -2.6444   -0.3912 H   0  0  0  0  0  0  0  0  0  0  0  0
   -1.5882   -2.1554    0.6658 C   0  0  0  0  0  0  0  0  0  0  0  0
   -0.6832   -2.8764    1.0638 O   0  0  0  0  0  0  0  0  0  0  0  0
   -1.3952   -0.9084    0.2428 N   0  0  0  0  0  0  0  0  0  0  0  0
   -2.1972   -0.3644   -0.0422 H   0  0  0  0  0  0  0  0  0  0  0  0
   -0.1122   -0.1994    0.2658 C   0  0  1  0  0  0  0  0  0  0  0  0
    0.6131   -0.7748   -0.3153 H   0  0  0  0  0  0  0  0  0  0  0  0
   -0.2973    1.1841   -0.3966 C   0  0  0  0  0  0  0  0  0  0  0  0
    0.6501    1.7213   -0.3729 H   0  0  0  0  0  0  0  0  0  0  0  0
   -0.5879    1.0480   -1.4372 H   0  0  0  0  0  0  0  0  0  0  0  0
   -1.3226    2.0683    0.2947 C   0  0  0  0  0  0  0  0  0  0  0  0
   -2.2871    1.6234    0.8922 O   0  0  0  0  0  0  0  0  0  0  0  0
   -1.1539    3.3666    0.2295 N   0  0  0  0  0  0  0  0  0  0  0  0
   -1.8371    3.9250    0.7102 H   0  0  0  0  0  0  0  0  0  0  0  0
   -0.3586    3.7570   -0.2396 H   0  0  0  0  0  0  0  0  0  0  0  0
    0.4075   -0.0985    1.7169 C   0  0  0  0  0  0  0  0  0  0  0  0
    1.5860   -0.3526    1.9662 O   0  0  0  0  0  0  0  0  0  0  0  0
   -0.4625    0.2583    2.6666 N   0  0  0  0  0  0  0  0  0  0  0  0
   -1.4309    0.3754    2.3860 H   0  0  0  0  0  0  0  0  0  0  0  0
   -0.1275    0.4111    4.0813 C   0  0  0  0  0  0  0  0  0  0  0  0
    0.6862    1.1312    4.1910 H   0  0  0  0  0  0  0  0  0  0  0  0
   -0.9980    0.7641    4.6360 H   0  0  0  0  0  0  0  0  0  0  0  0
    0.1959   -0.5481    4.4891 H   0  0  0  0  0  0  0  0  0  0  0  0
  5  6  2  0  0  0  0
  5  7  1  0  0  0  0
  2  3  1  0  0  0  0
  2  4  1  0  0  0  0
  2  5  1  0  0  0  0
  1  2  1  0  0  0  0
 19 20  2  0  0  0  0
 19 21  1  0  0  0  0
 16 17  1  0  0  0  0
 16 18  1  0  0  0  0
 14 15  2  0  0  0  0
 14 16  1  0  0  0  0
 11 12  1  0  0  0  0
 11 13  1  0  0  0  0
 11 14  1  0  0  0  0
  9 10  1  0  0  0  0
  9 11  1  0  0  0  0
  9 19  1  0  0  0  0
  7  8  1  0  0  0  0
  7  9  1  0  0  0  0
 23 24  1  0  0  0  0
 23 25  1  0  0  0  0
 23 26  1  0  0  0  0
 21 22  1  0  0  0  0
 21 23  1  0  0  0  0
M  END
$$$$
default_name
  -OEChem-02102213163D

 26 25  0     1  0  0  0  0  0999 V2000
   -3.0232   -3.6924    1.0038 H   0  0  0  0  0  0  0  0  0  0  0  0
   -3.0082   -2.6684    0.6318 C   0  0  0  0  0  0  0  0  0  0  0  0
   -3.6332   -2.0414    1.2658 H   0  0  0  0  0  0  0  0  0  0  0  0
   -3.3762   -2.6444   -0.3912 H   0  0  0  0  0  0  0  0  0  0  0  0
   -1.5882   -2.1554    0.6658 C   0  0  0  0  0  0  0  0  0  0  0  0
   -0.6832   -2.8764    1.0638 O   0  0  0  0  0  0  0  0  0  0  0  0
   -1.3952   -0.9084    0.2428 N   0  0  0  0  0  0  0  0  0  0  0  0
   -2.1972   -0.3644   -0.0422 H   0  0  0  0  0  0  0  0  0  0  0  0
   -0.1122   -0.1994    0.2658 C   0  0  1  0  0  0  0  0  0  0  0  0
    0.6131   -0.7748   -0.3153 H   0  0  0  0  0  0  0  0  0  0  0  0
   -0.2973    1.1841   -0.3966 C   0  0  0  0  0  0  0  0  0  0  0  0
    0.6501    1.7213   -0.3729 H   0  0  0  0  0  0  0  0  0  0  0  0
   -0.5879    1.0480   -1.4372 H   0  0  0  0  0  0  0  0  0  0  0  0
   -1.3226    2.0683    0.2947 C   0  0  0  0  0  0  0  0  0  0  0  0
   -2.1272    1.6424    1.1050 O   0  0  0  0  0  0  0  0  0  0  0  0
   -1.3364    3.3430   -0.0108 N   0  0  0  0  0  0  0  0  0  0  0  0
   -2.0127    3.9058    0.4745 H   0  0  0  0  0  0  0  0  0  0  0  0
   -0.6727    3.7214   -0.6599 H   0  0  0  0  0  0  0  0  0  0  0  0
    0.4075   -0.0985    1.7169 C   0  0  0  0  0  0  0  0  0  0  0  0
    1.5860   -0.3526    1.9662 O   0  0  0  0  0  0  0  0  0  0  0  0
   -0.4625    0.2583    2.6666 N   0  0  0  0  0  0  0  0  0  0  0  0
   -1.4309    0.3754    2.3860 H   0  0  0  0  0  0  0  0  0  0  0  0
   -0.1275    0.4111    4.0813 C   0  0  0  0  0  0  0  0  0  0  0  0
    0.6862    1.1312    4.1910 H   0  0  0  0  0  0  0  0  0  0  0  0
   -0.9980    0.7641    4.6360 H   0  0  0  0  0  0  0  0  0  0  0  0
    0.1959   -0.5481    4.4891 H   0  0  0  0  0  0  0  0  0  0  0  0
  5  6  2  0  0  0  0
  5  7  1  0  0  0  0
  2  3  1  0  0  0  0
  2  4  1  0  0  0  0
  2  5  1  0  0  0  0
  1  2  1  0  0  0  0
 19 20  2  0  0  0  0
 19 21  1  0  0  0  0
 16 17  1  0  0  0  0
 16 18  1  0  0  0  0
 14 15  2  0  0  0  0
 14 16  1  0  0  0  0
 11 12  1  0  0  0  0
 11 13  1  0  0  0  0
 11 14  1  0  0  0  0
  9 10  1  0  0  0  0
  9 11  1  0  0  0  0
  9 19  1  0  0  0  0
  7  8  1  0  0  0  0
  7  9  1  0  0  0  0
 23 24  1  0  0  0  0
 23 25  1  0  0  0  0
 23 26  1  0  0  0  0
 21 22  1  0  0  0  0
 21 23  1  0  0  0  0
M  END
$$$$
default_name
  -OEChem-02102213163D

 26 25  0     1  0  0  0  0  0999 V2000
   -3.0232   -3.6924    1.0038 H   0  0  0  0  0  0  0  0  0  0  0  0
   -3.0082   -2.6684    0.6318 C   0  0  0  0  0  0  0  0  0  0  0  0
   -3.6332   -2.0414    1.2658 H   0  0  0  0  0  0  0  0  0  0  0  0
   -3.3762   -2.6444   -0.3912 H   0  0  0  0  0  0  0  0  0  0  0  0
   -1.5882   -2.1554    0.6658 C   0  0  0  0  0  0  0  0  0  0  0  0
   -0.6832   -2.8764    1.0638 O   0  0  0  0  0  0  0  0  0  0  0  0
   -1.3952   -0.9084    0.2428 N   0  0  0  0  0  0  0  0  0  0  0  0
   -2.1972   -0.3644   -0.0422 H   0  0  0  0  0  0  0  0  0  0  0  0
   -0.1122   -0.1994    0.2658 C   0  0  1  0  0  0  0  0  0  0  0  0
    0.6131   -0.7748   -0.3153 H   0  0  0  0  0  0  0  0  0  0  0  0
   -0.2973    1.1841   -0.3966 C   0  0  0  0  0  0  0  0  0  0  0  0
    0.6501    1.7213   -0.3729 H   0  0  0  0  0  0  0  0  0  0  0  0
   -0.5879    1.0480   -1.4372 H   0  0  0  0  0  0  0  0  0  0  0  0
   -1.3226    2.0683    0.2947 C   0  0  0  0  0  0  0  0  0  0  0  0
   -1.9429    1.7168    1.2832 O   0  0  0  0  0  0  0  0  0  0  0  0
   -1.5460    3.2567   -0.2113 N   0  0  0  0  0  0  0  0  0  0  0  0
   -2.2156    3.8253    0.2765 H   0  0  0  0  0  0  0  0  0  0  0  0
   -1.0351    3.5767   -1.0124 H   0  0  0  0  0  0  0  0  0  0  0  0
    0.4075   -0.0985    1.7169 C   0  0  0  0  0  0  0  0  0  0  0  0
    1.5860   -0.3526    1.9662 O   0  0  0  0  0  0  0  0  0  0  0  0
   -0.4625    0.2583    2.6666 N   0  0  0  0  0  0  0  0  0  0  0  0
   -1.4309    0.3754    2.3860 H   0  0  0  0  0  0  0  0  0  0  0  0
   -0.1275    0.4111    4.0813 C   0  0  0  0  0  0  0  0  0  0  0  0
    0.6862    1.1312    4.1910 H   0  0  0  0  0  0  0  0  0  0  0  0
   -0.9980    0.7641    4.6360 H   0  0  0  0  0  0  0  0  0  0  0  0
    0.1959   -0.5481    4.4891 H   0  0  0  0  0  0  0  0  0  0  0  0
  5  6  2  0  0  0  0
  5  7  1  0  0  0  0
  2  3  1  0  0  0  0
  2  4  1  0  0  0  0
  2  5  1  0  0  0  0
  1  2  1  0  0  0  0
 19 20  2  0  0  0  0
 19 21  1  0  0  0  0
 16 17  1  0  0  0  0
 16 18  1  0  0  0  0
 14 15  2  0  0  0  0
 14 16  1  0  0  0  0
 11 12  1  0  0  0  0
 11 13  1  0  0  0  0
 11 14  1  0  0  0  0
  9 10  1  0  0  0  0
  9 11  1  0  0  0  0
  9 19  1  0  0  0  0
  7  8  1  0  0  0  0
  7  9  1  0  0  0  0
 23 24  1  0  0  0  0
 23 25  1  0  0  0  0
 23 26  1  0  0  0  0
 21 22  1  0  0  0  0
 21 23  1  0  0  0  0
M  END
$$$$
default_name
  -OEChem-02102213163D

 26 25  0     1  0  0  0  0  0999 V2000
   -3.0232   -3.6924    1.0038 H   0  0  0  0  0  0  0  0  0  0  0  0
   -3.0082   -2.6684    0.6318 C   0  0  0  0  0  0  0  0  0  0  0  0
   -3.6332   -2.0414    1.2658 H   0  0  0  0  0  0  0  0  0  0  0  0
   -3.3762   -2.6444   -0.3912 H   0  0  0  0  0  0  0  0  0  0  0  0
   -1.5882   -2.1554    0.6658 C   0  0  0  0  0  0  0  0  0  0  0  0
   -0.6832   -2.8764    1.0638 O   0  0  0  0  0  0  0  0  0  0  0  0
   -1.3952   -0.9084    0.2428 N   0  0  0  0  0  0  0  0  0  0  0  0
   -2.1972   -0.3644   -0.0422 H   0  0  0  0  0  0  0  0  0  0  0  0
   -0.1122   -0.1994    0.2658 C   0  0  1  0  0  0  0  0  0  0  0  0
    0.6131   -0.7748   -0.3153 H   0  0  0  0  0  0  0  0  0  0  0  0
   -0.2973    1.1841   -0.3966 C   0  0  0  0  0  0  0  0  0  0  0  0
    0.6501    1.7213   -0.3729 H   0  0  0  0  0  0  0  0  0  0  0  0
   -0.5879    1.0480   -1.4372 H   0  0  0  0  0  0  0  0  0  0  0  0
   -1.3226    2.0683    0.2947 C   0  0  0  0  0  0  0  0  0  0  0  0
   -1.7468    1.8415    1.4145 O   0  0  0  0  0  0  0  0  0  0  0  0
   -1.7685    3.1137   -0.3584 N   0  0  0  0  0  0  0  0  0  0  0  0
   -2.4318    3.6892    0.1299 H   0  0  0  0  0  0  0  0  0  0  0  0
   -1.4213    3.3327   -1.2731 H   0  0  0  0  0  0  0  0  0  0  0  0
    0.4075   -0.0985    1.7169 C   0  0  0  0  0  0  0  0  0  0  0  0
    1.5860   -0.3526    1.9662 O   0  0  0  0  0  0  0  0  0  0  0  0
   -0.4625    0.2583    2.6666 N   0  0  0  0  0  0  0  0  0  0  0  0
   -1.4309    0.3754    2.3860 H   0  0  0  0  0  0  0  0  0  0  0  0
   -0.1275    0.4111    4.0813 C   0  0  0  0  0  0  0  0  0  0  0  0
    0.6862    1.1312    4.1910 H   0  0  0  0  0  0  0  0  0  0  0  0
   -0.9980    0.7641    4.6360 H   0  0  0  0  0  0  0  0  0  0  0  0
    0.1959   -0.5481    4.4891 H   0  0  0  0  0  0  0  0  0  0  0  0
  5  6  2  0  0  0  0
  5  7  1  0  0  0  0
  2  3  1  0  0  0  0
  2  4  1  0  0  0  0
  2  5  1  0  0  0  0
  1  2  1  0  0  0  0
 19 20  2  0  0  0  0
 19 21  1  0  0  0  0
 16 17  1  0  0  0  0
 16 18  1  0  0  0  0
 14 15  2  0  0  0  0
 14 16  1  0  0  0  0
 11 12  1  0  0  0  0
 11 13  1  0  0  0  0
 11 14  1  0  0  0  0
  9 10  1  0  0  0  0
  9 11  1  0  0  0  0
  9 19  1  0  0  0  0
  7  8  1  0  0  0  0
  7  9  1  0  0  0  0
 23 24  1  0  0  0  0
 23 25  1  0  0  0  0
 23 26  1  0  0  0  0
 21 22  1  0  0  0  0
 21 23  1  0  0  0  0
M  END
$$$$
default_name
  -OEChem-02102213163D

 26 25  0     1  0  0  0  0  0999 V2000
   -3.0232   -3.6924    1.0038 H   0  0  0  0  0  0  0  0  0  0  0  0
   -3.0082   -2.6684    0.6318 C   0  0  0  0  0  0  0  0  0  0  0  0
   -3.6332   -2.0414    1.2658 H   0  0  0  0  0  0  0  0  0  0  0  0
   -3.3762   -2.6444   -0.3912 H   0  0  0  0  0  0  0  0  0  0  0  0
   -1.5882   -2.1554    0.6658 C   0  0  0  0  0  0  0  0  0  0  0  0
   -0.6832   -2.8764    1.0638 O   0  0  0  0  0  0  0  0  0  0  0  0
   -1.3952   -0.9084    0.2428 N   0  0  0  0  0  0  0  0  0  0  0  0
   -2.1972   -0.3644   -0.0422 H   0  0  0  0  0  0  0  0  0  0  0  0
   -0.1122   -0.1994    0.2658 C   0  0  1  0  0  0  0  0  0  0  0  0
    0.6131   -0.7748   -0.3153 H   0  0  0  0  0  0  0  0  0  0  0  0
   -0.2973    1.1841   -0.3966 C   0  0  0  0  0  0  0  0  0  0  0  0
    0.6501    1.7213   -0.3729 H   0  0  0  0  0  0  0  0  0  0  0  0
   -0.5879    1.0480   -1.4372 H   0  0  0  0  0  0  0  0  0  0  0  0
   -1.3226    2.0683    0.2947 C   0  0  0  0  0  0  0  0  0  0  0  0
   -1.5524    2.0079    1.4901 O   0  0  0  0  0  0  0  0  0  0  0  0
   -1.9887    2.9237   -0.4421 N   0  0  0  0  0  0  0  0  0  0  0  0
   -2.6468    3.5067    0.0446 H   0  0  0  0  0  0  0  0  0  0  0  0
   -1.8048    3.0061   -1.4241 H   0  0  0  0  0  0  0  0  0  0  0  0
    0.4075   -0.0985    1.7169 C   0  0  0  0  0  0  0  0  0  0  0  0
    1.5860   -0.3526    1.9662 O   0  0  0  0  0  0  0  0  0  0  0  0
   -0.4625    0.2583    2.6666 N   0  0  0  0  0  0  0  0  0  0  0  0
   -1.4309    0.3754    2.3860 H   0  0  0  0  0  0  0  0  0  0  0  0
   -0.1275    0.4111    4.0813 C   0  0  0  0  0  0  0  0  0  0  0  0
    0.6862    1.1312    4.1910 H   0  0  0  0  0  0  0  0  0  0  0  0
   -0.9980    0.7641    4.6360 H   0  0  0  0  0  0  0  0  0  0  0  0
    0.1959   -0.5481    4.4891 H   0  0  0  0  0  0  0  0  0  0  0  0
  5  6  2  0  0  0  0
  5  7  1  0  0  0  0
  2  3  1  0  0  0  0
  2  4  1  0  0  0  0
  2  5  1  0  0  0  0
  1  2  1  0  0  0  0
 19 20  2  0  0  0  0
 19 21  1  0  0  0  0
 16 17  1  0  0  0  0
 16 18  1  0  0  0  0
 14 15  2  0  0  0  0
 14 16  1  0  0  0  0
 11 12  1  0  0  0  0
 11 13  1  0  0  0  0
 11 14  1  0  0  0  0
  9 10  1  0  0  0  0
  9 11  1  0  0  0  0
  9 19  1  0  0  0  0
  7  8  1  0  0  0  0
  7  9  1  0  0  0  0
 23 24  1  0  0  0  0
 23 25  1  0  0  0  0
 23 26  1  0  0  0  0
 21 22  1  0  0  0  0
 21 23  1  0  0  0  0
M  END
$$$$
default_name
  -OEChem-02102213163D

 26 25  0     1  0  0  0  0  0999 V2000
   -3.0232   -3.6924    1.0038 H   0  0  0  0  0  0  0  0  0  0  0  0
   -3.0082   -2.6684    0.6318 C   0  0  0  0  0  0  0  0  0  0  0  0
   -3.6332   -2.0414    1.2658 H   0  0  0  0  0  0  0  0  0  0  0  0
   -3.3762   -2.6444   -0.3912 H   0  0  0  0  0  0  0  0  0  0  0  0
   -1.5882   -2.1554    0.6658 C   0  0  0  0  0  0  0  0  0  0  0  0
   -0.6832   -2.8764    1.0638 O   0  0  0  0  0  0  0  0  0  0  0  0
   -1.3952   -0.9084    0.2428 N   0  0  0  0  0  0  0  0  0  0  0  0
   -2.1972   -0.3644   -0.0422 H   0  0  0  0  0  0  0  0  0  0  0  0
   -0.1122   -0.1994    0.2658 C   0  0  1  0  0  0  0  0  0  0  0  0
    0.6131   -0.7748   -0.3153 H   0  0  0  0  0  0  0  0  0  0  0  0
   -0.2973    1.1841   -0.3966 C   0  0  0  0  0  0  0  0  0  0  0  0
    0.6501    1.7213   -0.3729 H   0  0  0  0  0  0  0  0  0  0  0  0
   -0.5879    1.0480   -1.4372 H   0  0  0  0  0  0  0  0  0  0  0  0
   -1.3226    2.0683    0.2947 C   0  0  0  0  0  0  0  0  0  0  0  0
   -1.3727    2.2047    1.5048 O   0  0  0  0  0  0  0  0  0  0  0  0
   -2.1917    2.6997   -0.4565 N   0  0  0  0  0  0  0  0  0  0  0  0
   -2.8457    3.2902    0.0264 H   0  0  0  0  0  0  0  0  0  0  0  0
   -2.1596    2.6191   -1.4553 H   0  0  0  0  0  0  0  0  0  0  0  0
    0.4075   -0.0985    1.7169 C   0  0  0  0  0  0  0  0  0  0  0  0
    1.5860   -0.3526    1.9662 O   0  0  0  0  0  0  0  0  0  0  0  0
   -0.4625    0.2583    2.6666 N   0  0  0  0  0  0  0  0  0  0  0  0
   -1.4309    0.3754    2.3860 H   0  0  0  0  0  0  0  0  0  0  0  0
   -0.1275    0.4111    4.0813 C   0  0  0  0  0  0  0  0  0  0  0  0
    0.6862    1.1312    4.1910 H   0  0  0  0  0  0  0  0  0  0  0  0
   -0.9980    0.7641    4.6360 H   0  0  0  0  0  0  0  0  0  0  0  0
    0.1959   -0.5481    4.4891 H   0  0  0  0  0  0  0  0  0  0  0  0
  5  6  2  0  0  0  0
  5  7  1  0  0  0  0
  2  3  1  0  0  0  0
  2  4  1  0  0  0  0
  2  5  1  0  0  0  0
  1  2  1  0  0  0  0
 19 20  2  0  0  0  0
 19 21  1  0  0  0  0
 16 17  1  0  0  0  0
 16 18  1  0  0  0  0
 14 15  2  0  0  0  0
 14 16  1  0  0  0  0
 11 12  1  0  0  0  0
 11 13  1  0  0  0  0
 11 14  1  0  0  0  0
  9 10  1  0  0  0  0
  9 11  1  0  0  0  0
  9 19  1  0  0  0  0
  7  8  1  0  0  0  0
  7  9  1  0  0  0  0
 23 24  1  0  0  0  0
 23 25  1  0  0  0  0
 23 26  1  0  0  0  0
 21 22  1  0  0  0  0
 21 23  1  0  0  0  0
M  END
$$$$
default_name
  -OEChem-02102213163D

 26 25  0     1  0  0  0  0  0999 V2000
   -3.0232   -3.6924    1.0038 H   0  0  0  0  0  0  0  0  0  0  0  0
   -3.0082   -2.6684    0.6318 C   0  0  0  0  0  0  0  0  0  0  0  0
   -3.6332   -2.0414    1.2658 H   0  0  0  0  0  0  0  0  0  0  0  0
   -3.3762   -2.6444   -0.3912 H   0  0  0  0  0  0  0  0  0  0  0  0
   -1.5882   -2.1554    0.6658 C   0  0  0  0  0  0  0  0  0  0  0  0
   -0.6832   -2.8764    1.0638 O   0  0  0  0  0  0  0  0  0  0  0  0
   -1.3952   -0.9084    0.2428 N   0  0  0  0  0  0  0  0  0  0  0  0
   -2.1972   -0.3644   -0.0422 H   0  0  0  0  0  0  0  0  0  0  0  0
   -0.1122   -0.1994    0.2658 C   0  0  1  0  0  0  0  0  0  0  0  0
    0.6131   -0.7748   -0.3153 H   0  0  0  0  0  0  0  0  0  0  0  0
   -0.2973    1.1841   -0.3966 C   0  0  0  0  0  0  0  0  0  0  0  0
    0.6501    1.7213   -0.3729 H   0  0  0  0  0  0  0  0  0  0  0  0
   -0.5879    1.0480   -1.4372 H   0  0  0  0  0  0  0  0  0  0  0  0
   -1.3226    2.0683    0.2947 C   0  0  0  0  0  0  0  0  0  0  0  0
   -1.2202    2.4186    1.4575 O   0  0  0  0  0  0  0  0  0  0  0  0
   -2.3636    2.4569   -0.4008 N   0  0  0  0  0  0  0  0  0  0  0  0
   -3.0152    3.0545    0.0766 H   0  0  0  0  0  0  0  0  0  0  0  0
   -2.4614    2.1981   -1.3644 H   0  0  0  0  0  0  0  0  0  0  0  0
    0.4075   -0.0985    1.7169 C   0  0  0  0  0  0  0  0  0  0  0  0
    1.5860   -0.3526    1.9662 O   0  0  0  0  0  0  0  0  0  0  0  0
   -0.4625    0.2583    2.6666 N   0  0  0  0  0  0  0  0  0  0  0  0
   -1.4309    0.3754    2.3860 H   0  0  0  0  0  0  0  0  0  0  0  0
   -0.1275    0.4111    4.0813 C   0  0  0  0  0  0  0  0  0  0  0  0
    0.6862    1.1312    4.1910 H   0  0  0  0  0  0  0  0  0  0  0  0
   -0.9980    0.7641    4.6360 H   0  0  0  0  0  0  0  0  0  0  0  0
    0.1959   -0.5481    4.4891 H   0  0  0  0  0  0  0  0  0  0  0  0
  5  6  2  0  0  0  0
  5  7  1  0  0  0  0
  2  3  1  0  0  0  0
  2  4  1  0  0  0  0
  2  5  1  0  0  0  0
  1  2  1  0  0  0  0
 19 20  2  0  0  0  0
 19 21  1  0  0  0  0
 16 17  1  0  0  0  0
 16 18  1  0  0  0  0
 14 15  2  0  0  0  0
 14 16  1  0  0  0  0
 11 12  1  0  0  0  0
 11 13  1  0  0  0  0
 11 14  1  0  0  0  0
  9 10  1  0  0  0  0
  9 11  1  0  0  0  0
  9 19  1  0  0  0  0
  7  8  1  0  0  0  0
  7  9  1  0  0  0  0
 23 24  1  0  0  0  0
 23 25  1  0  0  0  0
 23 26  1  0  0  0  0
 21 22  1  0  0  0  0
 21 23  1  0  0  0  0
M  END
$$$$
default_name
  -OEChem-02102213163D

 26 25  0     1  0  0  0  0  0999 V2000
   -3.0232   -3.6924    1.0038 H   0  0  0  0  0  0  0  0  0  0  0  0
   -3.0082   -2.6684    0.6318 C   0  0  0  0  0  0  0  0  0  0  0  0
   -3.6332   -2.0414    1.2658 H   0  0  0  0  0  0  0  0  0  0  0  0
   -3.3762   -2.6444   -0.3912 H   0  0  0  0  0  0  0  0  0  0  0  0
   -1.5882   -2.1554    0.6658 C   0  0  0  0  0  0  0  0  0  0  0  0
   -0.6832   -2.8764    1.0638 O   0  0  0  0  0  0  0  0  0  0  0  0
   -1.3952   -0.9084    0.2428 N   0  0  0  0  0  0  0  0  0  0  0  0
   -2.1972   -0.3644   -0.0422 H   0  0  0  0  0  0  0  0  0  0  0  0
   -0.1122   -0.1994    0.2658 C   0  0  1  0  0  0  0  0  0  0  0  0
    0.6131   -0.7748   -0.3153 H   0  0  0  0  0  0  0  0  0  0  0  0
   -0.2973    1.1841   -0.3966 C   0  0  0  0  0  0  0  0  0  0  0  0
    0.6501    1.7213   -0.3729 H   0  0  0  0  0  0  0  0  0  0  0  0
   -0.5879    1.0480   -1.4372 H   0  0  0  0  0  0  0  0  0  0  0  0
   -1.3226    2.0683    0.2947 C   0  0  0  0  0  0  0  0  0  0  0  0
   -1.1051    2.6348    1.3516 O   0  0  0  0  0  0  0  0  0  0  0  0
   -2.4926    2.2118   -0.2788 N   0  0  0  0  0  0  0  0  0  0  0  0
   -3.1435    2.8156    0.1917 H   0  0  0  0  0  0  0  0  0  0  0  0
   -2.6897    1.7718   -1.1577 H   0  0  0  0  0  0  0  0  0  0  0  0
    0.4075   -0.0985    1.7169 C   0  0  0  0  0  0  0  0  0  0  0  0
    1.5860   -0.3526    1.9662 O   0  0  0  0  0  0  0  0  0  0  0  0
   -0.4625    0.2583    2.6666 N   0  0  0  0  0  0  0  0  0  0  0  0
   -1.4309    0.3754    2.3860 H   0  0  0  0  0  0  0  0  0  0  0  0
   -0.1275    0.4111    4.0813 C   0  0  0  0  0  0  0  0  0  0  0  0
    0.6862    1.1312    4.1910 H   0  0  0  0  0  0  0  0  0  0  0  0
   -0.9980    0.7641    4.6360 H   0  0  0  0  0  0  0  0  0  0  0  0
    0.1959   -0.5481    4.4891 H   0  0  0  0  0  0  0  0  0  0  0  0
  5  6  2  0  0  0  0
  5  7  1  0  0  0  0
  2  3  1  0  0  0  0
  2  4  1  0  0  0  0
  2  5  1  0  0  0  0
  1  2  1  0  0  0  0
 19 20  2  0  0  0  0
 19 21  1  0  0  0  0
 16 17  1  0  0  0  0
 16 18  1  0  0  0  0
 14 15  2  0  0  0  0
 14 16  1  0  0  0  0
 11 12  1  0  0  0  0
 11 13  1  0  0  0  0
 11 14  1  0  0  0  0
  9 10  1  0  0  0  0
  9 11  1  0  0  0  0
  9 19  1  0  0  0  0
  7  8  1  0  0  0  0
  7  9  1  0  0  0  0
 23 24  1  0  0  0  0
 23 25  1  0  0  0  0
 23 26  1  0  0  0  0
 21 22  1  0  0  0  0
 21 23  1  0  0  0  0
M  END
$$$$
default_name
  -OEChem-02102213163D

 26 25  0     1  0  0  0  0  0999 V2000
   -3.0232   -3.6924    1.0038 H   0  0  0  0  0  0  0  0  0  0  0  0
   -3.0082   -2.6684    0.6318 C   0  0  0  0  0  0  0  0  0  0  0  0
   -3.6332   -2.0414    1.2658 H   0  0  0  0  0  0  0  0  0  0  0  0
   -3.3762   -2.6444   -0.3912 H   0  0  0  0  0  0  0  0  0  0  0  0
   -1.5882   -2.1554    0.6658 C   0  0  0  0  0  0  0  0  0  0  0  0
   -0.6832   -2.8764    1.0638 O   0  0  0  0  0  0  0  0  0  0  0  0
   -1.3952   -0.9084    0.2428 N   0  0  0  0  0  0  0  0  0  0  0  0
   -2.1972   -0.3644   -0.0422 H   0  0  0  0  0  0  0  0  0  0  0  0
   -0.1122   -0.1994    0.2658 C   0  0  1  0  0  0  0  0  0  0  0  0
    0.6131   -0.7748   -0.3153 H   0  0  0  0  0  0  0  0  0  0  0  0
   -0.2973    1.1841   -0.3966 C   0  0  0  0  0  0  0  0  0  0  0  0
    0.6501    1.7213   -0.3729 H   0  0  0  0  0  0  0  0  0  0  0  0
   -0.5879    1.0480   -1.4372 H   0  0  0  0  0  0  0  0  0  0  0  0
   -1.3226    2.0683    0.2947 C   0  0  0  0  0  0  0  0  0  0  0  0
   -1.0353    2.8387    1.1943 O   0  0  0  0  0  0  0  0  0  0  0  0
   -2.5700    1.9812   -0.0987 N   0  0  0  0  0  0  0  0  0  0  0  0
   -3.2221    2.5899    0.3640 H   0  0  0  0  0  0  0  0  0  0  0  0
   -2.8289    1.3692   -0.8493 H   0  0  0  0  0  0  0  0  0  0  0  0
    0.4075   -0.0985    1.7169 C   0  0  0  0  0  0  0  0  0  0  0  0
    1.5860   -0.3526    1.9662 O   0  0  0  0  0  0  0  0  0  0  0  0
   -0.4625    0.2583    2.6666 N   0  0  0  0  0  0  0  0  0  0  0  0
   -1.4309    0.3754    2.3860 H   0  0  0  0  0  0  0  0  0  0  0  0
   -0.1275    0.4111    4.0813 C   0  0  0  0  0  0  0  0  0  0  0  0
    0.6862    1.1312    4.1910 H   0  0  0  0  0  0  0  0  0  0  0  0
   -0.9980    0.7641    4.6360 H   0  0  0  0  0  0  0  0  0  0  0  0
    0.1959   -0.5481    4.4891 H   0  0  0  0  0  0  0  0  0  0  0  0
  5  6  2  0  0  0  0
  5  7  1  0  0  0  0
  2  3  1  0  0  0  0
  2  4  1  0  0  0  0
  2  5  1  0  0  0  0
  1  2  1  0  0  0  0
 19 20  2  0  0  0  0
 19 21  1  0  0  0  0
 16 17  1  0  0  0  0
 16 18  1  0  0  0  0
 14 15  2  0  0  0  0
 14 16  1  0  0  0  0
 11 12  1  0  0  0  0
 11 13  1  0  0  0  0
 11 14  1  0  0  0  0
  9 10  1  0  0  0  0
  9 11  1  0  0  0  0
  9 19  1  0  0  0  0
  7  8  1  0  0  0  0
  7  9  1  0  0  0  0
 23 24  1  0  0  0  0
 23 25  1  0  0  0  0
 23 26  1  0  0  0  0
 21 22  1  0  0  0  0
 21 23  1  0  0  0  0
M  END
$$$$
default_name
  -OEChem-02102213163D

 26 25  0     1  0  0  0  0  0999 V2000
   -3.0232   -3.6924    1.0038 H   0  0  0  0  0  0  0  0  0  0  0  0
   -3.0082   -2.6684    0.6318 C   0  0  0  0  0  0  0  0  0  0  0  0
   -3.6332   -2.0414    1.2658 H   0  0  0  0  0  0  0  0  0  0  0  0
   -3.3762   -2.6444   -0.3912 H   0  0  0  0  0  0  0  0  0  0  0  0
   -1.5882   -2.1554    0.6658 C   0  0  0  0  0  0  0  0  0  0  0  0
   -0.6832   -2.8764    1.0638 O   0  0  0  0  0  0  0  0  0  0  0  0
   -1.3952   -0.9084    0.2428 N   0  0  0  0  0  0  0  0  0  0  0  0
   -2.1972   -0.3644   -0.0422 H   0  0  0  0  0  0  0  0  0  0  0  0
   -0.1122   -0.1994    0.2658 C   0  0  1  0  0  0  0  0  0  0  0  0
    0.6131   -0.7748   -0.3153 H   0  0  0  0  0  0  0  0  0  0  0  0
   -0.2973    1.1841   -0.3966 C   0  0  0  0  0  0  0  0  0  0  0  0
    0.6501    1.7213   -0.3729 H   0  0  0  0  0  0  0  0  0  0  0  0
   -0.5879    1.0480   -1.4372 H   0  0  0  0  0  0  0  0  0  0  0  0
   -1.3226    2.0683    0.2947 C   0  0  0  0  0  0  0  0  0  0  0  0
   -1.0156    3.0165    0.9962 O   0  0  0  0  0  0  0  0  0  0  0  0
   -2.5905    1.7808    0.1272 N   0  0  0  0  0  0  0  0  0  0  0  0
   -3.2455    2.3926    0.5815 H   0  0  0  0  0  0  0  0  0  0  0  0
   -2.8696    1.0178   -0.4602 H   0  0  0  0  0  0  0  0  0  0  0  0
    0.4075   -0.0985    1.7169 C   0  0  0  0  0  0  0  0  0  0  0  0
    1.5860   -0.3526    1.9662 O   0  0  0  0  0  0  0  0  0  0  0  0
   -0.4625    0.2583    2.6666 N   0  0  0  0  0  0  0  0  0  0  0  0
   -1.4309    0.3754    2.3860 H   0  0  0  0  0  0  0  0  0  0  0  0
   -0.1275    0.4111    4.0813 C   0  0  0  0  0  0  0  0  0  0  0  0
    0.6862    1.1312    4.1910 H   0  0  0  0  0  0  0  0  0  0  0  0
   -0.9980    0.7641    4.6360 H   0  0  0  0  0  0  0  0  0  0  0  0
    0.1959   -0.5481    4.4891 H   0  0  0  0  0  0  0  0  0  0  0  0
  5  6  2  0  0  0  0
  5  7  1  0  0  0  0
  2  3  1  0  0  0  0
  2  4  1  0  0  0  0
  2  5  1  0  0  0  0
  1  2  1  0  0  0  0
 19 20  2  0  0  0  0
 19 21  1  0  0  0  0
 16 17  1  0  0  0  0
 16 18  1  0  0  0  0
 14 15  2  0  0  0  0
 14 16  1  0  0  0  0
 11 12  1  0  0  0  0
 11 13  1  0  0  0  0
 11 14  1  0  0  0  0
  9 10  1  0  0  0  0
  9 11  1  0  0  0  0
  9 19  1  0  0  0  0
  7  8  1  0  0  0  0
  7  9  1  0  0  0  0
 23 24  1  0  0  0  0
 23 25  1  0  0  0  0
 23 26  1  0  0  0  0
 21 22  1  0  0  0  0
 21 23  1  0  0  0  0
M  END
$$$$
default_name
  -OEChem-02102213163D

 26 25  0     1  0  0  0  0  0999 V2000
   -3.0232   -3.6924    1.0038 H   0  0  0  0  0  0  0  0  0  0  0  0
   -3.0082   -2.6684    0.6318 C   0  0  0  0  0  0  0  0  0  0  0  0
   -3.6332   -2.0414    1.2658 H   0  0  0  0  0  0  0  0  0  0  0  0
   -3.3762   -2.6444   -0.3912 H   0  0  0  0  0  0  0  0  0  0  0  0
   -1.5882   -2.1554    0.6658 C   0  0  0  0  0  0  0  0  0  0  0  0
   -0.6832   -2.8764    1.0638 O   0  0  0  0  0  0  0  0  0  0  0  0
   -1.3952   -0.9084    0.2428 N   0  0  0  0  0  0  0  0  0  0  0  0
   -2.1972   -0.3644   -0.0422 H   0  0  0  0  0  0  0  0  0  0  0  0
   -0.1122   -0.1994    0.2658 C   0  0  1  0  0  0  0  0  0  0  0  0
    0.6131   -0.7748   -0.3153 H   0  0  0  0  0  0  0  0  0  0  0  0
   -0.2973    1.1841   -0.3966 C   0  0  0  0  0  0  0  0  0  0  0  0
    0.6501    1.7213   -0.3729 H   0  0  0  0  0  0  0  0  0  0  0  0
   -0.5879    1.0480   -1.4372 H   0  0  0  0  0  0  0  0  0  0  0  0
   -1.3226    2.0683    0.2947 C   0  0  0  0  0  0  0  0  0  0  0  0
   -1.0473    3.1559    0.7708 O   0  0  0  0  0  0  0  0  0  0  0  0
   -2.5528    1.6243    0.3834 N   0  0  0  0  0  0  0  0  0  0  0  0
   -3.2121    2.2373    0.8297 H   0  0  0  0  0  0  0  0  0  0  0  0
   -2.8089    0.7415   -0.0168 H   0  0  0  0  0  0  0  0  0  0  0  0
    0.4075   -0.0985    1.7169 C   0  0  0  0  0  0  0  0  0  0  0  0
    1.5860   -0.3526    1.9662 O   0  0  0  0  0  0  0  0  0  0  0  0
   -0.4625    0.2583    2.6666 N   0  0  0  0  0  0  0  0  0  0  0  0
   -1.4309    0.3754    2.3860 H   0  0  0  0  0  0  0  0  0  0  0  0
   -0.1275    0.4111    4.0813 C   0  0  0  0  0  0  0  0  0  0  0  0
    0.6862    1.1312    4.1910 H   0  0  0  0  0  0  0  0  0  0  0  0
   -0.9980    0.7641    4.6360 H   0  0  0  0  0  0  0  0  0  0  0  0
    0.1959   -0.5481    4.4891 H   0  0  0  0  0  0  0  0  0  0  0  0
  5  6  2  0  0  0  0
  5  7  1  0  0  0  0
  2  3  1  0  0  0  0
  2  4  1  0  0  0  0
  2  5  1  0  0  0  0
  1  2  1  0  0  0  0
 19 20  2  0  0  0  0
 19 21  1  0  0  0  0
 16 17  1  0  0  0  0
 16 18  1  0  0  0  0
 14 15  2  0  0  0  0
 14 16  1  0  0  0  0
 11 12  1  0  0  0  0
 11 13  1  0  0  0  0
 11 14  1  0  0  0  0
  9 10  1  0  0  0  0
  9 11  1  0  0  0  0
  9 19  1  0  0  0  0
  7  8  1  0  0  0  0
  7  9  1  0  0  0  0
 23 24  1  0  0  0  0
 23 25  1  0  0  0  0
 23 26  1  0  0  0  0
 21 22  1  0  0  0  0
 21 23  1  0  0  0  0
M  END
$$$$
default_name
  -OEChem-02102213163D

 26 25  0     1  0  0  0  0  0999 V2000
   -3.0232   -3.6924    1.0038 H   0  0  0  0  0  0  0  0  0  0  0  0
   -3.0082   -2.6684    0.6318 C   0  0  0  0  0  0  0  0  0  0  0  0
   -3.6332   -2.0414    1.2658 H   0  0  0  0  0  0  0  0  0  0  0  0
   -3.3762   -2.6444   -0.3912 H   0  0  0  0  0  0  0  0  0  0  0  0
   -1.5882   -2.1554    0.6658 C   0  0  0  0  0  0  0  0  0  0  0  0
   -0.6832   -2.8764    1.0638 O   0  0  0  0  0  0  0  0  0  0  0  0
   -1.3952   -0.9084    0.2428 N   0  0  0  0  0  0  0  0  0  0  0  0
   -2.1972   -0.3644   -0.0422 H   0  0  0  0  0  0  0  0  0  0  0  0
   -0.1122   -0.1994    0.2658 C   0  0  1  0  0  0  0  0  0  0  0  0
    0.6131   -0.7748   -0.3153 H   0  0  0  0  0  0  0  0  0  0  0  0
   -0.2973    1.1841   -0.3966 C   0  0  0  0  0  0  0  0  0  0  0  0
    0.6501    1.7213   -0.3729 H   0  0  0  0  0  0  0  0  0  0  0  0
   -0.5879    1.0480   -1.4372 H   0  0  0  0  0  0  0  0  0  0  0  0
   -1.3226    2.0683    0.2947 C   0  0  0  0  0  0  0  0  0  0  0  0
   -1.1283    3.2475    0.5336 O   0  0  0  0  0  0  0  0  0  0  0  0
   -2.4593    1.5222    0.6526 N   0  0  0  0  0  0  0  0  0  0  0  0
   -3.1242    2.1346    1.0914 H   0  0  0  0  0  0  0  0  0  0  0  0
   -2.6510    0.5592    0.4505 H   0  0  0  0  0  0  0  0  0  0  0  0
    0.4075   -0.0985    1.7169 C   0  0  0  0  0  0  0  0  0  0  0  0
    1.5860   -0.3526    1.9662 O   0  0  0  0  0  0  0  0  0  0  0  0
   -0.4625    0.2583    2.6666 N   0  0  0  0  0  0  0  0  0  0  0  0
   -1.4309    0.3754    2.3860 H   0  0  0  0  0  0  0  0  0  0  0  0
   -0.1275    0.4111    4.0813 C   0  0  0  0  0  0  0  0  0  0  0  0
    0.6862    1.1312    4.1910 H   0  0  0  0  0  0  0  0  0  0  0  0
   -0.9980    0.7641    4.6360 H   0  0  0  0  0  0  0  0  0  0  0  0
    0.1959   -0.5481    4.4891 H   0  0  0  0  0  0  0  0  0  0  0  0
  5  6  2  0  0  0  0
  5  7  1  0  0  0  0
  2  3  1  0  0  0  0
  2  4  1  0  0  0  0
  2  5  1  0  0  0  0
  1  2  1  0  0  0  0
 19 20  2  0  0  0  0
 19 21  1  0  0  0  0
 16 17  1  0  0  0  0
 16 18  1  0  0  0  0
 14 15  2  0  0  0  0
 14 16  1  0  0  0  0
 11 12  1  0  0  0  0
 11 13  1  0  0  0  0
 11 14  1  0  0  0  0
  9 10  1  0  0  0  0
  9 11  1  0  0  0  0
  9 19  1  0  0  0  0
  7  8  1  0  0  0  0
  7  9  1  0  0  0  0
 23 24  1  0  0  0  0
 23 25  1  0  0  0  0
 23 26  1  0  0  0  0
 21 22  1  0  0  0  0
 21 23  1  0  0  0  0
M  END
$$$$
default_name
  -OEChem-02102213163D

 26 25  0     1  0  0  0  0  0999 V2000
   -3.0232   -3.6924    1.0038 H   0  0  0  0  0  0  0  0  0  0  0  0
   -3.0082   -2.6684    0.6318 C   0  0  0  0  0  0  0  0  0  0  0  0
   -3.6332   -2.0414    1.2658 H   0  0  0  0  0  0  0  0  0  0  0  0
   -3.3762   -2.6444   -0.3912 H   0  0  0  0  0  0  0  0  0  0  0  0
   -1.5882   -2.1554    0.6658 C   0  0  0  0  0  0  0  0  0  0  0  0
   -0.6832   -2.8764    1.0638 O   0  0  0  0  0  0  0  0  0  0  0  0
   -1.3952   -0.9084    0.2428 N   0  0  0  0  0  0  0  0  0  0  0  0
   -2.1972   -0.3644   -0.0422 H   0  0  0  0  0  0  0  0  0  0  0  0
   -0.1122   -0.1994    0.2658 C   0  0  1  0  0  0  0  0  0  0  0  0
    0.6131   -0.7748   -0.3153 H   0  0  0  0  0  0  0  0  0  0  0  0
   -0.2973    1.1841   -0.3966 C   0  0  0  0  0  0  0  0  0  0  0  0
    0.6501    1.7213   -0.3729 H   0  0  0  0  0  0  0  0  0  0  0  0
   -0.5879    1.0480   -1.4372 H   0  0  0  0  0  0  0  0  0  0  0  0
   -1.3226    2.0683    0.2947 C   0  0  0  0  0  0  0  0  0  0  0  0
   -1.2530    3.2850    0.3006 O   0  0  0  0  0  0  0  0  0  0  0  0
   -2.3165    1.4816    0.9163 N   0  0  0  0  0  0  0  0  0  0  0  0
   -2.9878    2.0914    1.3490 H   0  0  0  0  0  0  0  0  0  0  0  0
   -2.4067    0.4832    0.9100 H   0  0  0  0  0  0  0  0  0  0  0  0
    0.4075   -0.0985    1.7169 C   0  0  0  0  0  0  0  0  0  0  0  0
    1.5860   -0.3526    1.9662 O   0  0  0  0  0  0  0  0  0  0  0  0
   -0.4625    0.2583    2.6666 N   0  0  0  0  0  0  0  0  0  0  0  0
   -1.4309    0.3754    2.3860 H   0  0  0  0  0  0  0  0  0  0  0  0
   -0.1275    0.4111    4.0813 C   0  0  0  0  0  0  0  0  0  0  0  0
    0.6862    1.1312    4.1910 H   0  0  0  0  0  0  0  0  0  0  0  0
   -0.9980    0.7641    4.6360 H   0  0  0  0  0  0  0  0  0  0  0  0
    0.1959   -0.5481    4.4891 H   0  0  0  0  0  0  0  0  0  0  0  0
  5  6  2  0  0  0  0
  5  7  1  0  0  0  0
  2  3  1  0  0  0  0
  2  4  1  0  0  0  0
  2  5  1  0  0  0  0
  1  2  1  0  0  0  0
 19 20  2  0  0  0  0
 19 21  1  0  0  0  0
 16 17  1  0  0  0  0
 16 18  1  0  0  0  0
 14 15  2  0  0  0  0
 14 16  1  0  0  0  0
 11 12  1  0  0  0  0
 11 13  1  0  0  0  0
 11 14  1  0  0  0  0
  9 10  1  0  0  0  0
  9 11  1  0  0  0  0
  9 19  1  0  0  0  0
  7  8  1  0  0  0  0
  7  9  1  0  0  0  0
 23 24  1  0  0  0  0
 23 25  1  0  0  0  0
 23 26  1  0  0  0  0
 21 22  1  0  0  0  0
 21 23  1  0  0  0  0
M  END
$$$$
default_name
  -OEChem-02102213163D

 26 25  0     1  0  0  0  0  0999 V2000
   -3.0232   -3.6924    1.0038 H   0  0  0  0  0  0  0  0  0  0  0  0
   -3.0082   -2.6684    0.6318 C   0  0  0  0  0  0  0  0  0  0  0  0
   -3.6332   -2.0414    1.2658 H   0  0  0  0  0  0  0  0  0  0  0  0
   -3.3762   -2.6444   -0.3912 H   0  0  0  0  0  0  0  0  0  0  0  0
   -1.5882   -2.1554    0.6658 C   0  0  0  0  0  0  0  0  0  0  0  0
   -0.6832   -2.8764    1.0638 O   0  0  0  0  0  0  0  0  0  0  0  0
   -1.3952   -0.9084    0.2428 N   0  0  0  0  0  0  0  0  0  0  0  0
   -2.1972   -0.3644   -0.0422 H   0  0  0  0  0  0  0  0  0  0  0  0
   -0.1122   -0.1994    0.2658 C   0  0  1  0  0  0  0  0  0  0  0  0
    0.6131   -0.7748   -0.3153 H   0  0  0  0  0  0  0  0  0  0  0  0
   -0.2973    1.1841   -0.3966 C   0  0  0  0  0  0  0  0  0  0  0  0
    0.6501    1.7213   -0.3729 H   0  0  0  0  0  0  0  0  0  0  0  0
   -0.5879    1.0480   -1.4372 H   0  0  0  0  0  0  0  0  0  0  0  0
   -1.3226    2.0683    0.2947 C   0  0  0  0  0  0  0  0  0  0  0  0
   -1.4129    3.2659    0.0878 O   0  0  0  0  0  0  0  0  0  0  0  0
   -2.1341    1.5053    1.1567 N   0  0  0  0  0  0  0  0  0  0  0  0
   -2.8122    2.1107    1.5847 H   0  0  0  0  0  0  0  0  0  0  0  0
   -2.0926    0.5188    1.3303 H   0  0  0  0  0  0  0  0  0  0  0  0
    0.4075   -0.0985    1.7169 C   0  0  0  0  0  0  0  0  0  0  0  0
    1.5860   -0.3526    1.9662 O   0  0  0  0  0  0  0  0  0  0  0  0
   -0.4625    0.2583    2.6666 N   0  0  0  0  0  0  0  0  0  0  0  0
   -1.4309    0.3754    2.3860 H   0  0  0  0  0  0  0  0  0  0  0  0
   -0.1275    0.4111    4.0813 C   0  0  0  0  0  0  0  0  0  0  0  0
    0.6862    1.1312    4.1910 H   0  0  0  0  0  0  0  0  0  0  0  0
   -0.9980    0.7641    4.6360 H   0  0  0  0  0  0  0  0  0  0  0  0
    0.1959   -0.5481    4.4891 H   0  0  0  0  0  0  0  0  0  0  0  0
  5  6  2  0  0  0  0
  5  7  1  0  0  0  0
  2  3  1  0  0  0  0
  2  4  1  0  0  0  0
  2  5  1  0  0  0  0
  1  2  1  0  0  0  0
 19 20  2  0  0  0  0
 19 21  1  0  0  0  0
 16 17  1  0  0  0  0
 16 18  1  0  0  0  0
 14 15  2  0  0  0  0
 14 16  1  0  0  0  0
 11 12  1  0  0  0  0
 11 13  1  0  0  0  0
 11 14  1  0  0  0  0
  9 10  1  0  0  0  0
  9 11  1  0  0  0  0
  9 19  1  0  0  0  0
  7  8  1  0  0  0  0
  7  9  1  0  0  0  0
 23 24  1  0  0  0  0
 23 25  1  0  0  0  0
 23 26  1  0  0  0  0
 21 22  1  0  0  0  0
 21 23  1  0  0  0  0
M  END
$$$$
default_name
  -OEChem-02102213163D

 26 25  0     1  0  0  0  0  0999 V2000
   -3.0232   -3.6924    1.0038 H   0  0  0  0  0  0  0  0  0  0  0  0
   -3.0082   -2.6684    0.6318 C   0  0  0  0  0  0  0  0  0  0  0  0
   -3.6332   -2.0414    1.2658 H   0  0  0  0  0  0  0  0  0  0  0  0
   -3.3762   -2.6444   -0.3912 H   0  0  0  0  0  0  0  0  0  0  0  0
   -1.5882   -2.1554    0.6658 C   0  0  0  0  0  0  0  0  0  0  0  0
   -0.6832   -2.8764    1.0638 O   0  0  0  0  0  0  0  0  0  0  0  0
   -1.3952   -0.9084    0.2428 N   0  0  0  0  0  0  0  0  0  0  0  0
   -2.1972   -0.3644   -0.0422 H   0  0  0  0  0  0  0  0  0  0  0  0
   -0.1122   -0.1994    0.2658 C   0  0  1  0  0  0  0  0  0  0  0  0
    0.6131   -0.7748   -0.3153 H   0  0  0  0  0  0  0  0  0  0  0  0
   -0.2973    1.1841   -0.3966 C   0  0  0  0  0  0  0  0  0  0  0  0
    0.6815    1.6095   -0.6152 H   0  0  0  0  0  0  0  0  0  0  0  0
   -0.8357    1.0636   -1.3354 H   0  0  0  0  0  0  0  0  0  0  0  0
   -1.0319    2.1923    0.4724 C   0  0  0  0  0  0  0  0  0  0  0  0
   -1.2666    3.3325    0.1116 O   0  0  0  0  0  0  0  0  0  0  0  0
   -1.4165    1.8067    1.6647 N   0  0  0  0  0  0  0  0  0  0  0  0
   -1.9148    2.4884    2.2095 H   0  0  0  0  0  0  0  0  0  0  0  0
   -1.2523    0.8685    1.9775 H   0  0  0  0  0  0  0  0  0  0  0  0
    0.4075   -0.0985    1.7169 C   0  0  0  0  0  0  0  0  0  0  0  0
    1.5860   -0.3526    1.9662 O   0  0  0  0  0  0  0  0  0  0  0  0
   -0.4625    0.2583    2.6666 N   0  0  0  0  0  0  0  0  0  0  0  0
   -1.4309    0.3754    2.3860 H   0  0  0  0  0  0  0  0  0  0  0  0
   -0.1275    0.4111    4.0813 C   0  0  0  0  0  0  0  0  0  0  0  0
    0.6862    1.1312    4.1910 H   0  0  0  0  0  0  0  0  0  0  0  0
   -0.9980    0.7641    4.6360 H   0  0  0  0  0  0  0  0  0  0  0  0
    0.1959   -0.5481    4.4891 H   0  0  0  0  0  0  0  0  0  0  0  0
  5  6  2  0  0  0  0
  5  7  1  0  0  0  0
  2  3  1  0  0  0  0
  2  4  1  0  0  0  0
  2  5  1  0  0  0  0
  1  2  1  0  0  0  0
 19 20  2  0  0  0  0
 19 21  1  0  0  0  0
 16 17  1  0  0  0  0
 16 18  1  0  0  0  0
 14 15  2  0  0  0  0
 14 16  1  0  0  0  0
 11 12  1  0  0  0  0
 11 13  1  0  0  0  0
 11 14  1  0  0  0  0
  9 10  1  0  0  0  0
  9 11  1  0  0  0  0
  9 19  1  0  0  0  0
  7  8  1  0  0  0  0
  7  9  1  0  0  0  0
 23 24  1  0  0  0  0
 23 25  1  0  0  0  0
 23 26  1  0  0  0  0
 21 22  1  0  0  0  0
 21 23  1  0  0  0  0
M  END
$$$$
default_name
  -OEChem-02102213163D

 26 25  0     1  0  0  0  0  0999 V2000
   -3.0232   -3.6924    1.0038 H   0  0  0  0  0  0  0  0  0  0  0  0
   -3.0082   -2.6684    0.6318 C   0  0  0  0  0  0  0  0  0  0  0  0
   -3.6332   -2.0414    1.2658 H   0  0  0  0  0  0  0  0  0  0  0  0
   -3.3762   -2.6444   -0.3912 H   0  0  0  0  0  0  0  0  0  0  0  0
   -1.5882   -2.1554    0.6658 C   0  0  0  0  0  0  0  0  0  0  0  0
   -0.6832   -2.8764    1.0638 O   0  0  0  0  0  0  0  0  0  0  0  0
   -1.3952   -0.9084    0.2428 N   0  0  0  0  0  0  0  0  0  0  0  0
   -2.1972   -0.3644   -0.0422 H   0  0  0  0  0  0  0  0  0  0  0  0
   -0.1122   -0.1994    0.2658 C   0  0  1  0  0  0  0  0  0  0  0  0
    0.6131   -0.7748   -0.3153 H   0  0  0  0  0  0  0  0  0  0  0  0
   -0.2973    1.1841   -0.3966 C   0  0  0  0  0  0  0  0  0  0  0  0
    0.6815    1.6095   -0.6152 H   0  0  0  0  0  0  0  0  0  0  0  0
   -0.8357    1.0636   -1.3354 H   0  0  0  0  0  0  0  0  0  0  0  0
   -1.0319    2.1923    0.4724 C   0  0  0  0  0  0  0  0  0  0  0  0
   -1.5001    3.2288    0.0346 O   0  0  0  0  0  0  0  0  0  0  0  0
   -1.1518    1.9259    1.7502 N   0  0  0  0  0  0  0  0  0  0  0  0
   -1.6570    2.6014    2.2963 H   0  0  0  0  0  0  0  0  0  0  0  0
   -0.7921    1.0713    2.1314 H   0  0  0  0  0  0  0  0  0  0  0  0
    0.4075   -0.0985    1.7169 C   0  0  0  0  0  0  0  0  0  0  0  0
    1.5860   -0.3526    1.9662 O   0  0  0  0  0  0  0  0  0  0  0  0
   -0.4625    0.2583    2.6666 N   0  0  0  0  0  0  0  0  0  0  0  0
   -1.4309    0.3754    2.3860 H   0  0  0  0  0  0  0  0  0  0  0  0
   -0.1275    0.4111    4.0813 C   0  0  0  0  0  0  0  0  0  0  0  0
    0.6862    1.1312    4.1910 H   0  0  0  0  0  0  0  0  0  0  0  0
   -0.9980    0.7641    4.6360 H   0  0  0  0  0  0  0  0  0  0  0  0
    0.1959   -0.5481    4.4891 H   0  0  0  0  0  0  0  0  0  0  0  0
  5  6  2  0  0  0  0
  5  7  1  0  0  0  0
  2  3  1  0  0  0  0
  2  4  1  0  0  0  0
  2  5  1  0  0  0  0
  1  2  1  0  0  0  0
 19 20  2  0  0  0  0
 19 21  1  0  0  0  0
 16 17  1  0  0  0  0
 16 18  1  0  0  0  0
 14 15  2  0  0  0  0
 14 16  1  0  0  0  0
 11 12  1  0  0  0  0
 11 13  1  0  0  0  0
 11 14  1  0  0  0  0
  9 10  1  0  0  0  0
  9 11  1  0  0  0  0
  9 19  1  0  0  0  0
  7  8  1  0  0  0  0
  7  9  1  0  0  0  0
 23 24  1  0  0  0  0
 23 25  1  0  0  0  0
 23 26  1  0  0  0  0
 21 22  1  0  0  0  0
 21 23  1  0  0  0  0
M  END
$$$$
default_name
  -OEChem-02102213163D

 26 25  0     1  0  0  0  0  0999 V2000
   -3.0232   -3.6924    1.0038 H   0  0  0  0  0  0  0  0  0  0  0  0
   -3.0082   -2.6684    0.6318 C   0  0  0  0  0  0  0  0  0  0  0  0
   -3.6332   -2.0414    1.2658 H   0  0  0  0  0  0  0  0  0  0  0  0
   -3.3762   -2.6444   -0.3912 H   0  0  0  0  0  0  0  0  0  0  0  0
   -1.5882   -2.1554    0.6658 C   0  0  0  0  0  0  0  0  0  0  0  0
   -0.6832   -2.8764    1.0638 O   0  0  0  0  0  0  0  0  0  0  0  0
   -1.3952   -0.9084    0.2428 N   0  0  0  0  0  0  0  0  0  0  0  0
   -2.1972   -0.3644   -0.0422 H   0  0  0  0  0  0  0  0  0  0  0  0
   -0.1122   -0.1994    0.2658 C   0  0  1  0  0  0  0  0  0  0  0  0
    0.6131   -0.7748   -0.3153 H   0  0  0  0  0  0  0  0  0  0  0  0
   -0.2973    1.1841   -0.3966 C   0  0  0  0  0  0  0  0  0  0  0  0
    0.6815    1.6095   -0.6152 H   0  0  0  0  0  0  0  0  0  0  0  0
   -0.8357    1.0636   -1.3354 H   0  0  0  0  0  0  0  0  0  0  0  0
   -1.0319    2.1923    0.4724 C   0  0  0  0  0  0  0  0  0  0  0  0
   -1.7236    3.0844    0.0131 O   0  0  0  0  0  0  0  0  0  0  0  0
   -0.8990    2.0909    1.7725 N   0  0  0  0  0  0  0  0  0  0  0  0
   -1.4097    2.7596    2.3217 H   0  0  0  0  0  0  0  0  0  0  0  0
   -0.3511    1.3544    2.1756 H   0  0  0  0  0  0  0  0  0  0  0  0
    0.4075   -0.0985    1.7169 C   0  0  0  0  0  0  0  0  0  0  0  0
    1.5860   -0.3526    1.9662 O   0  0  0  0  0  0  0  0  0  0  0  0
   -0.4625    0.2583    2.6666 N   0  0  0  0  0  0  0  0  0  0  0  0
   -1.4309    0.3754    2.3860 H   0  0  0  0  0  0  0  0  0  0  0  0
   -0.1275    0.4111    4.0813 C   0  0  0  0  0  0  0  0  0  0  0  0
    0.6862    1.1312    4.1910 H   0  0  0  0  0  0  0  0  0  0  0  0
   -0.9980    0.7641    4.6360 H   0  0  0  0  0  0  0  0  0  0  0  0
    0.1959   -0.5481    4.4891 H   0  0  0  0  0  0  0  0  0  0  0  0
  5  6  2  0  0  0  0
  5  7  1  0  0  0  0
  2  3  1  0  0  0  0
  2  4  1  0  0  0  0
  2  5  1  0  0  0  0
  1  2  1  0  0  0  0
 19 20  2  0  0  0  0
 19 21  1  0  0  0  0
 16 17  1  0  0  0  0
 16 18  1  0  0  0  0
 14 15  2  0  0  0  0
 14 16  1  0  0  0  0
 11 12  1  0  0  0  0
 11 13  1  0  0  0  0
 11 14  1  0  0  0  0
  9 10  1  0  0  0  0
  9 11  1  0  0  0  0
  9 19  1  0  0  0  0
  7  8  1  0  0  0  0
  7  9  1  0  0  0  0
 23 24  1  0  0  0  0
 23 25  1  0  0  0  0
 23 26  1  0  0  0  0
 21 22  1  0  0  0  0
 21 23  1  0  0  0  0
M  END
$$$$
default_name
  -OEChem-02102213163D

 26 25  0     1  0  0  0  0  0999 V2000
   -3.0232   -3.6924    1.0038 H   0  0  0  0  0  0  0  0  0  0  0  0
   -3.0082   -2.6684    0.6318 C   0  0  0  0  0  0  0  0  0  0  0  0
   -3.6332   -2.0414    1.2658 H   0  0  0  0  0  0  0  0  0  0  0  0
   -3.3762   -2.6444   -0.3912 H   0  0  0  0  0  0  0  0  0  0  0  0
   -1.5882   -2.1554    0.6658 C   0  0  0  0  0  0  0  0  0  0  0  0
   -0.6832   -2.8764    1.0638 O   0  0  0  0  0  0  0  0  0  0  0  0
   -1.3952   -0.9084    0.2428 N   0  0  0  0  0  0  0  0  0  0  0  0
   -2.1972   -0.3644   -0.0422 H   0  0  0  0  0  0  0  0  0  0  0  0
   -0.1122   -0.1994    0.2658 C   0  0  1  0  0  0  0  0  0  0  0  0
    0.6131   -0.7748   -0.3153 H   0  0  0  0  0  0  0  0  0  0  0  0
   -0.2973    1.1841   -0.3966 C   0  0  0  0  0  0  0  0  0  0  0  0
    0.6815    1.6095   -0.6152 H   0  0  0  0  0  0  0  0  0  0  0  0
   -0.8357    1.0636   -1.3354 H   0  0  0  0  0  0  0  0  0  0  0  0
   -1.0319    2.1923    0.4724 C   0  0  0  0  0  0  0  0  0  0  0  0
   -1.9217    2.9092    0.0489 O   0  0  0  0  0  0  0  0  0  0  0  0
   -0.6755    2.2904    1.7300 N   0  0  0  0  0  0  0  0  0  0  0  0
   -1.1900    2.9522    2.2841 H   0  0  0  0  0  0  0  0  0  0  0  0
    0.0405    1.6987    2.1072 H   0  0  0  0  0  0  0  0  0  0  0  0
    0.4075   -0.0985    1.7169 C   0  0  0  0  0  0  0  0  0  0  0  0
    1.5860   -0.3526    1.9662 O   0  0  0  0  0  0  0  0  0  0  0  0
   -0.4625    0.2583    2.6666 N   0  0  0  0  0  0  0  0  0  0  0  0
   -1.4309    0.3754    2.3860 H   0  0  0  0  0  0  0  0  0  0  0  0
   -0.1275    0.4111    4.0813 C   0  0  0  0  0  0  0  0  0  0  0  0
    0.6862    1.1312    4.1910 H   0  0  0  0  0  0  0  0  0  0  0  0
   -0.9980    0.7641    4.6360 H   0  0  0  0  0  0  0  0  0  0  0  0
    0.1959   -0.5481    4.4891 H   0  0  0  0  0  0  0  0  0  0  0  0
  5  6  2  0  0  0  0
  5  7  1  0  0  0  0
  2  3  1  0  0  0  0
  2  4  1  0  0  0  0
  2  5  1  0  0  0  0
  1  2  1  0  0  0  0
 19 20  2  0  0  0  0
 19 21  1  0  0  0  0
 16 17  1  0  0  0  0
 16 18  1  0  0  0  0
 14 15  2  0  0  0  0
 14 16  1  0  0  0  0
 11 12  1  0  0  0  0
 11 13  1  0  0  0  0
 11 14  1  0  0  0  0
  9 10  1  0  0  0  0
  9 11  1  0  0  0  0
  9 19  1  0  0  0  0
  7  8  1  0  0  0  0
  7  9  1  0  0  0  0
 23 24  1  0  0  0  0
 23 25  1  0  0  0  0
 23 26  1  0  0  0  0
 21 22  1  0  0  0  0
 21 23  1  0  0  0  0
M  END
$$$$
default_name
  -OEChem-02102213163D

 26 25  0     1  0  0  0  0  0999 V2000
   -3.0232   -3.6924    1.0038 H   0  0  0  0  0  0  0  0  0  0  0  0
   -3.0082   -2.6684    0.6318 C   0  0  0  0  0  0  0  0  0  0  0  0
   -3.6332   -2.0414    1.2658 H   0  0  0  0  0  0  0  0  0  0  0  0
   -3.3762   -2.6444   -0.3912 H   0  0  0  0  0  0  0  0  0  0  0  0
   -1.5882   -2.1554    0.6658 C   0  0  0  0  0  0  0  0  0  0  0  0
   -0.6832   -2.8764    1.0638 O   0  0  0  0  0  0  0  0  0  0  0  0
   -1.3952   -0.9084    0.2428 N   0  0  0  0  0  0  0  0  0  0  0  0
   -2.1972   -0.3644   -0.0422 H   0  0  0  0  0  0  0  0  0  0  0  0
   -0.1122   -0.1994    0.2658 C   0  0  1  0  0  0  0  0  0  0  0  0
    0.6131   -0.7748   -0.3153 H   0  0  0  0  0  0  0  0  0  0  0  0
   -0.2973    1.1841   -0.3966 C   0  0  0  0  0  0  0  0  0  0  0  0
    0.6815    1.6095   -0.6152 H   0  0  0  0  0  0  0  0  0  0  0  0
   -0.8357    1.0636   -1.3354 H   0  0  0  0  0  0  0  0  0  0  0  0
   -1.0319    2.1923    0.4724 C   0  0  0  0  0  0  0  0  0  0  0  0
   -2.0811    2.7152    0.1393 O   0  0  0  0  0  0  0  0  0  0  0  0
   -0.4963    2.5109    1.6256 N   0  0  0  0  0  0  0  0  0  0  0  0
   -1.0126    3.1660    2.1859 H   0  0  0  0  0  0  0  0  0  0  0  0
    0.3561    2.0806    1.9309 H   0  0  0  0  0  0  0  0  0  0  0  0
    0.4075   -0.0985    1.7169 C   0  0  0  0  0  0  0  0  0  0  0  0
    1.5860   -0.3526    1.9662 O   0  0  0  0  0  0  0  0  0  0  0  0
   -0.4625    0.2583    2.6666 N   0  0  0  0  0  0  0  0  0  0  0  0
   -1.4309    0.3754    2.3860 H   0  0  0  0  0  0  0  0  0  0  0  0
   -0.1275    0.4111    4.0813 C   0  0  0  0  0  0  0  0  0  0  0  0
    0.6862    1.1312    4.1910 H   0  0  0  0  0  0  0  0  0  0  0  0
   -0.9980    0.7641    4.6360 H   0  0  0  0  0  0  0  0  0  0  0  0
    0.1959   -0.5481    4.4891 H   0  0  0  0  0  0  0  0  0  0  0  0
  5  6  2  0  0  0  0
  5  7  1  0  0  0  0
  2  3  1  0  0  0  0
  2  4  1  0  0  0  0
  2  5  1  0  0  0  0
  1  2  1  0  0  0  0
 19 20  2  0  0  0  0
 19 21  1  0  0  0  0
 16 17  1  0  0  0  0
 16 18  1  0  0  0  0
 14 15  2  0  0  0  0
 14 16  1  0  0  0  0
 11 12  1  0  0  0  0
 11 13  1  0  0  0  0
 11 14  1  0  0  0  0
  9 10  1  0  0  0  0
  9 11  1  0  0  0  0
  9 19  1  0  0  0  0
  7  8  1  0  0  0  0
  7  9  1  0  0  0  0
 23 24  1  0  0  0  0
 23 25  1  0  0  0  0
 23 26  1  0  0  0  0
 21 22  1  0  0  0  0
 21 23  1  0  0  0  0
M  END
$$$$
default_name
  -OEChem-02102213163D

 26 25  0     1  0  0  0  0  0999 V2000
   -3.0232   -3.6924    1.0038 H   0  0  0  0  0  0  0  0  0  0  0  0
   -3.0082   -2.6684    0.6318 C   0  0  0  0  0  0  0  0  0  0  0  0
   -3.6332   -2.0414    1.2658 H   0  0  0  0  0  0  0  0  0  0  0  0
   -3.3762   -2.6444   -0.3912 H   0  0  0  0  0  0  0  0  0  0  0  0
   -1.5882   -2.1554    0.6658 C   0  0  0  0  0  0  0  0  0  0  0  0
   -0.6832   -2.8764    1.0638 O   0  0  0  0  0  0  0  0  0  0  0  0
   -1.3952   -0.9084    0.2428 N   0  0  0  0  0  0  0  0  0  0  0  0
   -2.1972   -0.3644   -0.0422 H   0  0  0  0  0  0  0  0  0  0  0  0
   -0.1122   -0.1994    0.2658 C   0  0  1  0  0  0  0  0  0  0  0  0
    0.6131   -0.7748   -0.3153 H   0  0  0  0  0  0  0  0  0  0  0  0
   -0.2973    1.1841   -0.3966 C   0  0  0  0  0  0  0  0  0  0  0  0
    0.6815    1.6095   -0.6152 H   0  0  0  0  0  0  0  0  0  0  0  0
   -0.8357    1.0636   -1.3354 H   0  0  0  0  0  0  0  0  0  0  0  0
   -1.0319    2.1923    0.4724 C   0  0  0  0  0  0  0  0  0  0  0  0
   -2.1908    2.5155    0.2783 O   0  0  0  0  0  0  0  0  0  0  0  0
   -0.3738    2.7373    1.4665 N   0  0  0  0  0  0  0  0  0  0  0  0
   -0.8898    3.3865    2.0339 H   0  0  0  0  0  0  0  0  0  0  0  0
    0.5742    2.4742    1.6587 H   0  0  0  0  0  0  0  0  0  0  0  0
    0.4075   -0.0985    1.7169 C   0  0  0  0  0  0  0  0  0  0  0  0
    1.5860   -0.3526    1.9662 O   0  0  0  0  0  0  0  0  0  0  0  0
   -0.4625    0.2583    2.6666 N   0  0  0  0  0  0  0  0  0  0  0  0
   -1.4309    0.3754    2.3860 H   0  0  0  0  0  0  0  0  0  0  0  0
   -0.1275    0.4111    4.0813 C   0  0  0  0  0  0  0  0  0  0  0  0
    0.6862    1.1312    4.1910 H   0  0  0  0  0  0  0  0  0  0  0  0
   -0.9980    0.7641    4.6360 H   0  0  0  0  0  0  0  0  0  0  0  0
    0.1959   -0.5481    4.4891 H   0  0  0  0  0  0  0  0  0  0  0  0
  5  6  2  0  0  0  0
  5  7  1  0  0  0  0
  2  3  1  0  0  0  0
  2  4  1  0  0  0  0
  2  5  1  0  0  0  0
  1  2  1  0  0  0  0
 19 20  2  0  0  0  0
 19 21  1  0  0  0  0
 16 17  1  0  0  0  0
 16 18  1  0  0  0  0
 14 15  2  0  0  0  0
 14 16  1  0  0  0  0
 11 12  1  0  0  0  0
 11 13  1  0  0  0  0
 11 14  1  0  0  0  0
  9 10  1  0  0  0  0
  9 11  1  0  0  0  0
  9 19  1  0  0  0  0
  7  8  1  0  0  0  0
  7  9  1  0  0  0  0
 23 24  1  0  0  0  0
 23 25  1  0  0  0  0
 23 26  1  0  0  0  0
 21 22  1  0  0  0  0
 21 23  1  0  0  0  0
M  END
$$$$
default_name
  -OEChem-02102213163D

 26 25  0     1  0  0  0  0  0999 V2000
   -3.0232   -3.6924    1.0038 H   0  0  0  0  0  0  0  0  0  0  0  0
   -3.0082   -2.6684    0.6318 C   0  0  0  0  0  0  0  0  0  0  0  0
   -3.6332   -2.0414    1.2658 H   0  0  0  0  0  0  0  0  0  0  0  0
   -3.3762   -2.6444   -0.3912 H   0  0  0  0  0  0  0  0  0  0  0  0
   -1.5882   -2.1554    0.6658 C   0  0  0  0  0  0  0  0  0  0  0  0
   -0.6832   -2.8764    1.0638 O   0  0  0  0  0  0  0  0  0  0  0  0
   -1.3952   -0.9084    0.2428 N   0  0  0  0  0  0  0  0  0  0  0  0
   -2.1972   -0.3644   -0.0422 H   0  0  0  0  0  0  0  0  0  0  0  0
   -0.1122   -0.1994    0.2658 C   0  0  1  0  0  0  0  0  0  0  0  0
    0.6131   -0.7748   -0.3153 H   0  0  0  0  0  0  0  0  0  0  0  0
   -0.2973    1.1841   -0.3966 C   0  0  0  0  0  0  0  0  0  0  0  0
    0.6815    1.6095   -0.6152 H   0  0  0  0  0  0  0  0  0  0  0  0
   -0.8357    1.0636   -1.3354 H   0  0  0  0  0  0  0  0  0  0  0  0
   -1.0319    2.1923    0.4724 C   0  0  0  0  0  0  0  0  0  0  0  0
   -2.2434    2.3238    0.4563 O   0  0  0  0  0  0  0  0  0  0  0  0
   -0.3163    2.9542    1.2634 N   0  0  0  0  0  0  0  0  0  0  0  0
   -0.8299    3.5986    1.8385 H   0  0  0  0  0  0  0  0  0  0  0  0
    0.6800    2.8526    1.3091 H   0  0  0  0  0  0  0  0  0  0  0  0
    0.4075   -0.0985    1.7169 C   0  0  0  0  0  0  0  0  0  0  0  0
    1.5860   -0.3526    1.9662 O   0  0  0  0  0  0  0  0  0  0  0  0
   -0.4625    0.2583    2.6666 N   0  0  0  0  0  0  0  0  0  0  0  0
   -1.4309    0.3754    2.3860 H   0  0  0  0  0  0  0  0  0  0  0  0
   -0.1275    0.4111    4.0813 C   0  0  0  0  0  0  0  0  0  0  0  0
    0.6862    1.1312    4.1910 H   0  0  0  0  0  0  0  0  0  0  0  0
   -0.9980    0.7641    4.6360 H   0  0  0  0  0  0  0  0  0  0  0  0
    0.1959   -0.5481    4.4891 H   0  0  0  0  0  0  0  0  0  0  0  0
  5  6  2  0  0  0  0
  5  7  1  0  0  0  0
  2  3  1  0  0  0  0
  2  4  1  0  0  0  0
  2  5  1  0  0  0  0
  1  2  1  0  0  0  0
 19 20  2  0  0  0  0
 19 21  1  0  0  0  0
 16 17  1  0  0  0  0
 16 18  1  0  0  0  0
 14 15  2  0  0  0  0
 14 16  1  0  0  0  0
 11 12  1  0  0  0  0
 11 13  1  0  0  0  0
 11 14  1  0  0  0  0
  9 10  1  0  0  0  0
  9 11  1  0  0  0  0
  9 19  1  0  0  0  0
  7  8  1  0  0  0  0
  7  9  1  0  0  0  0
 23 24  1  0  0  0  0
 23 25  1  0  0  0  0
 23 26  1  0  0  0  0
 21 22  1  0  0  0  0
 21 23  1  0  0  0  0
M  END
$$$$
default_name
  -OEChem-02102213163D

 26 25  0     1  0  0  0  0  0999 V2000
   -3.0232   -3.6924    1.0038 H   0  0  0  0  0  0  0  0  0  0  0  0
   -3.0082   -2.6684    0.6318 C   0  0  0  0  0  0  0  0  0  0  0  0
   -3.6332   -2.0414    1.2658 H   0  0  0  0  0  0  0  0  0  0  0  0
   -3.3762   -2.6444   -0.3912 H   0  0  0  0  0  0  0  0  0  0  0  0
   -1.5882   -2.1554    0.6658 C   0  0  0  0  0  0  0  0  0  0  0  0
   -0.6832   -2.8764    1.0638 O   0  0  0  0  0  0  0  0  0  0  0  0
   -1.3952   -0.9084    0.2428 N   0  0  0  0  0  0  0  0  0  0  0  0
   -2.1972   -0.3644   -0.0422 H   0  0  0  0  0  0  0  0  0  0  0  0
   -0.1122   -0.1994    0.2658 C   0  0  1  0  0  0  0  0  0  0  0  0
    0.6131   -0.7748   -0.3153 H   0  0  0  0  0  0  0  0  0  0  0  0
   -0.2973    1.1841   -0.3966 C   0  0  0  0  0  0  0  0  0  0  0  0
    0.6815    1.6095   -0.6152 H   0  0  0  0  0  0  0  0  0  0  0  0
   -0.8357    1.0636   -1.3354 H   0  0  0  0  0  0  0  0  0  0  0  0
   -1.0319    2.1923    0.4724 C   0  0  0  0  0  0  0  0  0  0  0  0
   -2.2352    2.1530    0.6613 O   0  0  0  0  0  0  0  0  0  0  0  0
   -0.3277    3.1469    1.0303 N   0  0  0  0  0  0  0  0  0  0  0  0
   -0.8370    3.7879    1.6128 H   0  0  0  0  0  0  0  0  0  0  0  0
    0.6661    3.1899    0.9059 H   0  0  0  0  0  0  0  0  0  0  0  0
    0.4075   -0.0985    1.7169 C   0  0  0  0  0  0  0  0  0  0  0  0
    1.5860   -0.3526    1.9662 O   0  0  0  0  0  0  0  0  0  0  0  0
   -0.4625    0.2583    2.6666 N   0  0  0  0  0  0  0  0  0  0  0  0
   -1.4309    0.3754    2.3860 H   0  0  0  0  0  0  0  0  0  0  0  0
   -0.1275    0.4111    4.0813 C   0  0  0  0  0  0  0  0  0  0  0  0
    0.6862    1.1312    4.1910 H   0  0  0  0  0  0  0  0  0  0  0  0
   -0.9980    0.7641    4.6360 H   0  0  0  0  0  0  0  0  0  0  0  0
    0.1959   -0.5481    4.4891 H   0  0  0  0  0  0  0  0  0  0  0  0
  5  6  2  0  0  0  0
  5  7  1  0  0  0  0
  2  3  1  0  0  0  0
  2  4  1  0  0  0  0
  2  5  1  0  0  0  0
  1  2  1  0  0  0  0
 19 20  2  0  0  0  0
 19 21  1  0  0  0  0
 16 17  1  0  0  0  0
 16 18  1  0  0  0  0
 14 15  2  0  0  0  0
 14 16  1  0  0  0  0
 11 12  1  0  0  0  0
 11 13  1  0  0  0  0
 11 14  1  0  0  0  0
  9 10  1  0  0  0  0
  9 11  1  0  0  0  0
  9 19  1  0  0  0  0
  7  8  1  0  0  0  0
  7  9  1  0  0  0  0
 23 24  1  0  0  0  0
 23 25  1  0  0  0  0
 23 26  1  0  0  0  0
 21 22  1  0  0  0  0
 21 23  1  0  0  0  0
M  END
$$$$
default_name
  -OEChem-02102213163D

 26 25  0     1  0  0  0  0  0999 V2000
   -3.0232   -3.6924    1.0038 H   0  0  0  0  0  0  0  0  0  0  0  0
   -3.0082   -2.6684    0.6318 C   0  0  0  0  0  0  0  0  0  0  0  0
   -3.6332   -2.0414    1.2658 H   0  0  0  0  0  0  0  0  0  0  0  0
   -3.3762   -2.6444   -0.3912 H   0  0  0  0  0  0  0  0  0  0  0  0
   -1.5882   -2.1554    0.6658 C   0  0  0  0  0  0  0  0  0  0  0  0
   -0.6832   -2.8764    1.0638 O   0  0  0  0  0  0  0  0  0  0  0  0
   -1.3952   -0.9084    0.2428 N   0  0  0  0  0  0  0  0  0  0  0  0
   -2.1972   -0.3644   -0.0422 H   0  0  0  0  0  0  0  0  0  0  0  0
   -0.1122   -0.1994    0.2658 C   0  0  1  0  0  0  0  0  0  0  0  0
    0.6131   -0.7748   -0.3153 H   0  0  0  0  0  0  0  0  0  0  0  0
   -0.2973    1.1841   -0.3966 C   0  0  0  0  0  0  0  0  0  0  0  0
    0.6815    1.6095   -0.6152 H   0  0  0  0  0  0  0  0  0  0  0  0
   -0.8357    1.0636   -1.3354 H   0  0  0  0  0  0  0  0  0  0  0  0
   -1.0319    2.1923    0.4724 C   0  0  0  0  0  0  0  0  0  0  0  0
   -2.1669    2.0150    0.8792 O   0  0  0  0  0  0  0  0  0  0  0  0
   -0.4073    3.3021    0.7829 N   0  0  0  0  0  0  0  0  0  0  0  0
   -0.9105    3.9415    1.3724 H   0  0  0  0  0  0  0  0  0  0  0  0
    0.5336    3.4634    0.4766 H   0  0  0  0  0  0  0  0  0  0  0  0
    0.4075   -0.0985    1.7169 C   0  0  0  0  0  0  0  0  0  0  0  0
    1.5860   -0.3526    1.9662 O   0  0  0  0  0  0  0  0  0  0  0  0
   -0.4625    0.2583    2.6666 N   0  0  0  0  0  0  0  0  0  0  0  0
   -1.4309    0.3754    2.3860 H   0  0  0  0  0  0  0  0  0  0  0  0
   -0.1275    0.4111    4.0813 C   0  0  0  0  0  0  0  0  0  0  0  0
    0.6862    1.1312    4.1910 H   0  0  0  0  0  0  0  0  0  0  0  0
   -0.9980    0.7641    4.6360 H   0  0  0  0  0  0  0  0  0  0  0  0
    0.1959   -0.5481    4.4891 H   0  0  0  0  0  0  0  0  0  0  0  0
  5  6  2  0  0  0  0
  5  7  1  0  0  0  0
  2  3  1  0  0  0  0
  2  4  1  0  0  0  0
  2  5  1  0  0  0  0
  1  2  1  0  0  0  0
 19 20  2  0  0  0  0
 19 21  1  0  0  0  0
 16 17  1  0  0  0  0
 16 18  1  0  0  0  0
 14 15  2  0  0  0  0
 14 16  1  0  0  0  0
 11 12  1  0  0  0  0
 11 13  1  0  0  0  0
 11 14  1  0  0  0  0
  9 10  1  0  0  0  0
  9 11  1  0  0  0  0
  9 19  1  0  0  0  0
  7  8  1  0  0  0  0
  7  9  1  0  0  0  0
 23 24  1  0  0  0  0
 23 25  1  0  0  0  0
 23 26  1  0  0  0  0
 21 22  1  0  0  0  0
 21 23  1  0  0  0  0
M  END
$$$$
default_name
  -OEChem-02102213163D

 26 25  0     1  0  0  0  0  0999 V2000
   -3.0232   -3.6924    1.0038 H   0  0  0  0  0  0  0  0  0  0  0  0
   -3.0082   -2.6684    0.6318 C   0  0  0  0  0  0  0  0  0  0  0  0
   -3.6332   -2.0414    1.2658 H   0  0  0  0  0  0  0  0  0  0  0  0
   -3.3762   -2.6444   -0.3912 H   0  0  0  0  0  0  0  0  0  0  0  0
   -1.5882   -2.1554    0.6658 C   0  0  0  0  0  0  0  0  0  0  0  0
   -0.6832   -2.8764    1.0638 O   0  0  0  0  0  0  0  0  0  0  0  0
   -1.3952   -0.9084    0.2428 N   0  0  0  0  0  0  0  0  0  0  0  0
   -2.1972   -0.3644   -0.0422 H   0  0  0  0  0  0  0  0  0  0  0  0
   -0.1122   -0.1994    0.2658 C   0  0  1  0  0  0  0  0  0  0  0  0
    0.6131   -0.7748   -0.3153 H   0  0  0  0  0  0  0  0  0  0  0  0
   -0.2973    1.1841   -0.3966 C   0  0  0  0  0  0  0  0  0  0  0  0
    0.6815    1.6095   -0.6152 H   0  0  0  0  0  0  0  0  0  0  0  0
   -0.8357    1.0636   -1.3354 H   0  0  0  0  0  0  0  0  0  0  0  0
   -1.0319    2.1923    0.4724 C   0  0  0  0  0  0  0  0  0  0  0  0
   -2.0431    1.9190    1.0953 O   0  0  0  0  0  0  0  0  0  0  0  0
   -0.5495    3.4094    0.5382 N   0  0  0  0  0  0  0  0  0  0  0  0
   -1.0455    4.0489    1.1337 H   0  0  0  0  0  0  0  0  0  0  0  0
    0.2915    3.6542    0.0505 H   0  0  0  0  0  0  0  0  0  0  0  0
    0.4075   -0.0985    1.7169 C   0  0  0  0  0  0  0  0  0  0  0  0
    1.5860   -0.3526    1.9662 O   0  0  0  0  0  0  0  0  0  0  0  0
   -0.4625    0.2583    2.6666 N   0  0  0  0  0  0  0  0  0  0  0  0
   -1.4309    0.3754    2.3860 H   0  0  0  0  0  0  0  0  0  0  0  0
   -0.1275    0.4111    4.0813 C   0  0  0  0  0  0  0  0  0  0  0  0
    0.6862    1.1312    4.1910 H   0  0  0  0  0  0  0  0  0  0  0  0
   -0.9980    0.7641    4.6360 H   0  0  0  0  0  0  0  0  0  0  0  0
    0.1959   -0.5481    4.4891 H   0  0  0  0  0  0  0  0  0  0  0  0
  5  6  2  0  0  0  0
  5  7  1  0  0  0  0
  2  3  1  0  0  0  0
  2  4  1  0  0  0  0
  2  5  1  0  0  0  0
  1  2  1  0  0  0  0
 19 20  2  0  0  0  0
 19 21  1  0  0  0  0
 16 17  1  0  0  0  0
 16 18  1  0  0  0  0
 14 15  2  0  0  0  0
 14 16  1  0  0  0  0
 11 12  1  0  0  0  0
 11 13  1  0  0  0  0
 11 14  1  0  0  0  0
  9 10  1  0  0  0  0
  9 11  1  0  0  0  0
  9 19  1  0  0  0  0
  7  8  1  0  0  0  0
  7  9  1  0  0  0  0
 23 24  1  0  0  0  0
 23 25  1  0  0  0  0
 23 26  1  0  0  0  0
 21 22  1  0  0  0  0
 21 23  1  0  0  0  0
M  END
$$$$
default_name
  -OEChem-02102213163D

 26 25  0     1  0  0  0  0  0999 V2000
   -3.0232   -3.6924    1.0038 H   0  0  0  0  0  0  0  0  0  0  0  0
   -3.0082   -2.6684    0.6318 C   0  0  0  0  0  0  0  0  0  0  0  0
   -3.6332   -2.0414    1.2658 H   0  0  0  0  0  0  0  0  0  0  0  0
   -3.3762   -2.6444   -0.3912 H   0  0  0  0  0  0  0  0  0  0  0  0
   -1.5882   -2.1554    0.6658 C   0  0  0  0  0  0  0  0  0  0  0  0
   -0.6832   -2.8764    1.0638 O   0  0  0  0  0  0  0  0  0  0  0  0
   -1.3952   -0.9084    0.2428 N   0  0  0  0  0  0  0  0  0  0  0  0
   -2.1972   -0.3644   -0.0422 H   0  0  0  0  0  0  0  0  0  0  0  0
   -0.1122   -0.1994    0.2658 C   0  0  1  0  0  0  0  0  0  0  0  0
    0.6131   -0.7748   -0.3153 H   0  0  0  0  0  0  0  0  0  0  0  0
   -0.2973    1.1841   -0.3966 C   0  0  0  0  0  0  0  0  0  0  0  0
    0.6815    1.6095   -0.6152 H   0  0  0  0  0  0  0  0  0  0  0  0
   -0.8357    1.0636   -1.3354 H   0  0  0  0  0  0  0  0  0  0  0  0
   -1.0319    2.1923    0.4724 C   0  0  0  0  0  0  0  0  0  0  0  0
   -1.8722    1.8716    1.2947 O   0  0  0  0  0  0  0  0  0  0  0  0
   -0.7447    3.4613    0.3129 N   0  0  0  0  0  0  0  0  0  0  0  0
   -1.2328    4.1029    0.9128 H   0  0  0  0  0  0  0  0  0  0  0  0
   -0.0438    3.7494   -0.3433 H   0  0  0  0  0  0  0  0  0  0  0  0
    0.4075   -0.0985    1.7169 C   0  0  0  0  0  0  0  0  0  0  0  0
    1.5860   -0.3526    1.9662 O   0  0  0  0  0  0  0  0  0  0  0  0
   -0.4625    0.2583    2.6666 N   0  0  0  0  0  0  0  0  0  0  0  0
   -1.4309    0.3754    2.3860 H   0  0  0  0  0  0  0  0  0  0  0  0
   -0.1275    0.4111    4.0813 C   0  0  0  0  0  0  0  0  0  0  0  0
    0.6862    1.1312    4.1910 H   0  0  0  0  0  0  0  0  0  0  0  0
   -0.9980    0.7641    4.6360 H   0  0  0  0  0  0  0  0  0  0  0  0
    0.1959   -0.5481    4.4891 H   0  0  0  0  0  0  0  0  0  0  0  0
  5  6  2  0  0  0  0
  5  7  1  0  0  0  0
  2  3  1  0  0  0  0
  2  4  1  0  0  0  0
  2  5  1  0  0  0  0
  1  2  1  0  0  0  0
 19 20  2  0  0  0  0
 19 21  1  0  0  0  0
 16 17  1  0  0  0  0
 16 18  1  0  0  0  0
 14 15  2  0  0  0  0
 14 16  1  0  0  0  0
 11 12  1  0  0  0  0
 11 13  1  0  0  0  0
 11 14  1  0  0  0  0
  9 10  1  0  0  0  0
  9 11  1  0  0  0  0
  9 19  1  0  0  0  0
  7  8  1  0  0  0  0
  7  9  1  0  0  0  0
 23 24  1  0  0  0  0
 23 25  1  0  0  0  0
 23 26  1  0  0  0  0
 21 22  1  0  0  0  0
 21 23  1  0  0  0  0
M  END
$$$$
default_name
  -OEChem-02102213163D

 26 25  0     1  0  0  0  0  0999 V2000
   -3.0232   -3.6924    1.0038 H   0  0  0  0  0  0  0  0  0  0  0  0
   -3.0082   -2.6684    0.6318 C   0  0  0  0  0  0  0  0  0  0  0  0
   -3.6332   -2.0414    1.2658 H   0  0  0  0  0  0  0  0  0  0  0  0
   -3.3762   -2.6444   -0.3912 H   0  0  0  0  0  0  0  0  0  0  0  0
   -1.5882   -2.1554    0.6658 C   0  0  0  0  0  0  0  0  0  0  0  0
   -0.6832   -2.8764    1.0638 O   0  0  0  0  0  0  0  0  0  0  0  0
   -1.3952   -0.9084    0.2428 N   0  0  0  0  0  0  0  0  0  0  0  0
   -2.1972   -0.3644   -0.0422 H   0  0  0  0  0  0  0  0  0  0  0  0
   -0.1122   -0.1994    0.2658 C   0  0  1  0  0  0  0  0  0  0  0  0
    0.6131   -0.7748   -0.3153 H   0  0  0  0  0  0  0  0  0  0  0  0
   -0.2973    1.1841   -0.3966 C   0  0  0  0  0  0  0  0  0  0  0  0
    0.6815    1.6095   -0.6152 H   0  0  0  0  0  0  0  0  0  0  0  0
   -0.8357    1.0636   -1.3354 H   0  0  0  0  0  0  0  0  0  0  0  0
   -1.0319    2.1923    0.4724 C   0  0  0  0  0  0  0  0  0  0  0  0
   -1.6659    1.8760    1.4639 O   0  0  0  0  0  0  0  0  0  0  0  0
   -0.9797    3.4544    0.1223 N   0  0  0  0  0  0  0  0  0  0  0  0
   -1.4597    4.0996    0.7248 H   0  0  0  0  0  0  0  0  0  0  0  0
   -0.4493    3.7426   -0.6781 H   0  0  0  0  0  0  0  0  0  0  0  0
    0.4075   -0.0985    1.7169 C   0  0  0  0  0  0  0  0  0  0  0  0
    1.5860   -0.3526    1.9662 O   0  0  0  0  0  0  0  0  0  0  0  0
   -0.4625    0.2583    2.6666 N   0  0  0  0  0  0  0  0  0  0  0  0
   -1.4309    0.3754    2.3860 H   0  0  0  0  0  0  0  0  0  0  0  0
   -0.1275    0.4111    4.0813 C   0  0  0  0  0  0  0  0  0  0  0  0
    0.6862    1.1312    4.1910 H   0  0  0  0  0  0  0  0  0  0  0  0
   -0.9980    0.7641    4.6360 H   0  0  0  0  0  0  0  0  0  0  0  0
    0.1959   -0.5481    4.4891 H   0  0  0  0  0  0  0  0  0  0  0  0
  5  6  2  0  0  0  0
  5  7  1  0  0  0  0
  2  3  1  0  0  0  0
  2  4  1  0  0  0  0
  2  5  1  0  0  0  0
  1  2  1  0  0  0  0
 19 20  2  0  0  0  0
 19 21  1  0  0  0  0
 16 17  1  0  0  0  0
 16 18  1  0  0  0  0
 14 15  2  0  0  0  0
 14 16  1  0  0  0  0
 11 12  1  0  0  0  0
 11 13  1  0  0  0  0
 11 14  1  0  0  0  0
  9 10  1  0  0  0  0
  9 11  1  0  0  0  0
  9 19  1  0  0  0  0
  7  8  1  0  0  0  0
  7  9  1  0  0  0  0
 23 24  1  0  0  0  0
 23 25  1  0  0  0  0
 23 26  1  0  0  0  0
 21 22  1  0  0  0  0
 21 23  1  0  0  0  0
M  END
$$$$
default_name
  -OEChem-02102213163D

 26 25  0     1  0  0  0  0  0999 V2000
   -3.0232   -3.6924    1.0038 H   0  0  0  0  0  0  0  0  0  0  0  0
   -3.0082   -2.6684    0.6318 C   0  0  0  0  0  0  0  0  0  0  0  0
   -3.6332   -2.0414    1.2658 H   0  0  0  0  0  0  0  0  0  0  0  0
   -3.3762   -2.6444   -0.3912 H   0  0  0  0  0  0  0  0  0  0  0  0
   -1.5882   -2.1554    0.6658 C   0  0  0  0  0  0  0  0  0  0  0  0
   -0.6832   -2.8764    1.0638 O   0  0  0  0  0  0  0  0  0  0  0  0
   -1.3952   -0.9084    0.2428 N   0  0  0  0  0  0  0  0  0  0  0  0
   -2.1972   -0.3644   -0.0422 H   0  0  0  0  0  0  0  0  0  0  0  0
   -0.1122   -0.1994    0.2658 C   0  0  1  0  0  0  0  0  0  0  0  0
    0.6131   -0.7748   -0.3153 H   0  0  0  0  0  0  0  0  0  0  0  0
   -0.2973    1.1841   -0.3966 C   0  0  0  0  0  0  0  0  0  0  0  0
    0.6815    1.6095   -0.6152 H   0  0  0  0  0  0  0  0  0  0  0  0
   -0.8357    1.0636   -1.3354 H   0  0  0  0  0  0  0  0  0  0  0  0
   -1.0319    2.1923    0.4724 C   0  0  0  0  0  0  0  0  0  0  0  0
   -1.4382    1.9320    1.5914 O   0  0  0  0  0  0  0  0  0  0  0  0
   -1.2384    3.3892   -0.0207 N   0  0  0  0  0  0  0  0  0  0  0  0
   -1.7105    4.0394    0.5825 H   0  0  0  0  0  0  0  0  0  0  0  0
   -0.8974    3.6341   -0.9311 H   0  0  0  0  0  0  0  0  0  0  0  0
    0.4075   -0.0985    1.7169 C   0  0  0  0  0  0  0  0  0  0  0  0
    1.5860   -0.3526    1.9662 O   0  0  0  0  0  0  0  0  0  0  0  0
   -0.4625    0.2583    2.6666 N   0  0  0  0  0  0  0  0  0  0  0  0
   -1.4309    0.3754    2.3860 H   0  0  0  0  0  0  0  0  0  0  0  0
   -0.1275    0.4111    4.0813 C   0  0  0  0  0  0  0  0  0  0  0  0
    0.6862    1.1312    4.1910 H   0  0  0  0  0  0  0  0  0  0  0  0
   -0.9980    0.7641    4.6360 H   0  0  0  0  0  0  0  0  0  0  0  0
    0.1959   -0.5481    4.4891 H   0  0  0  0  0  0  0  0  0  0  0  0
  5  6  2  0  0  0  0
  5  7  1  0  0  0  0
  2  3  1  0  0  0  0
  2  4  1  0  0  0  0
  2  5  1  0  0  0  0
  1  2  1  0  0  0  0
 19 20  2  0  0  0  0
 19 21  1  0  0  0  0
 16 17  1  0  0  0  0
 16 18  1  0  0  0  0
 14 15  2  0  0  0  0
 14 16  1  0  0  0  0
 11 12  1  0  0  0  0
 11 13  1  0  0  0  0
 11 14  1  0  0  0  0
  9 10  1  0  0  0  0
  9 11  1  0  0  0  0
  9 19  1  0  0  0  0
  7  8  1  0  0  0  0
  7  9  1  0  0  0  0
 23 24  1  0  0  0  0
 23 25  1  0  0  0  0
 23 26  1  0  0  0  0
 21 22  1  0  0  0  0
 21 23  1  0  0  0  0
M  END
$$$$
default_name
  -OEChem-02102213163D

 26 25  0     1  0  0  0  0  0999 V2000
   -3.0232   -3.6924    1.0038 H   0  0  0  0  0  0  0  0  0  0  0  0
   -3.0082   -2.6684    0.6318 C   0  0  0  0  0  0  0  0  0  0  0  0
   -3.6332   -2.0414    1.2658 H   0  0  0  0  0  0  0  0  0  0  0  0
   -3.3762   -2.6444   -0.3912 H   0  0  0  0  0  0  0  0  0  0  0  0
   -1.5882   -2.1554    0.6658 C   0  0  0  0  0  0  0  0  0  0  0  0
   -0.6832   -2.8764    1.0638 O   0  0  0  0  0  0  0  0  0  0  0  0
   -1.3952   -0.9084    0.2428 N   0  0  0  0  0  0  0  0  0  0  0  0
   -2.1972   -0.3644   -0.0422 H   0  0  0  0  0  0  0  0  0  0  0  0
   -0.1122   -0.1994    0.2658 C   0  0  1  0  0  0  0  0  0  0  0  0
    0.6131   -0.7748   -0.3153 H   0  0  0  0  0  0  0  0  0  0  0  0
   -0.2973    1.1841   -0.3966 C   0  0  0  0  0  0  0  0  0  0  0  0
    0.6815    1.6095   -0.6152 H   0  0  0  0  0  0  0  0  0  0  0  0
   -0.8357    1.0636   -1.3354 H   0  0  0  0  0  0  0  0  0  0  0  0
   -1.0319    2.1923    0.4724 C   0  0  0  0  0  0  0  0  0  0  0  0
   -1.2047    2.0357    1.6685 O   0  0  0  0  0  0  0  0  0  0  0  0
   -1.5031    3.2700   -0.1062 N   0  0  0  0  0  0  0  0  0  0  0  0
   -1.9684    3.9264    0.4957 H   0  0  0  0  0  0  0  0  0  0  0  0
   -1.3576    3.4313   -1.0849 H   0  0  0  0  0  0  0  0  0  0  0  0
    0.4075   -0.0985    1.7169 C   0  0  0  0  0  0  0  0  0  0  0  0
    1.5860   -0.3526    1.9662 O   0  0  0  0  0  0  0  0  0  0  0  0
   -0.4625    0.2583    2.6666 N   0  0  0  0  0  0  0  0  0  0  0  0
   -1.4309    0.3754    2.3860 H   0  0  0  0  0  0  0  0  0  0  0  0
   -0.1275    0.4111    4.0813 C   0  0  0  0  0  0  0  0  0  0  0  0
    0.6862    1.1312    4.1910 H   0  0  0  0  0  0  0  0  0  0  0  0
   -0.9980    0.7641    4.6360 H   0  0  0  0  0  0  0  0  0  0  0  0
    0.1959   -0.5481    4.4891 H   0  0  0  0  0  0  0  0  0  0  0  0
  5  6  2  0  0  0  0
  5  7  1  0  0  0  0
  2  3  1  0  0  0  0
  2  4  1  0  0  0  0
  2  5  1  0  0  0  0
  1  2  1  0  0  0  0
 19 20  2  0  0  0  0
 19 21  1  0  0  0  0
 16 17  1  0  0  0  0
 16 18  1  0  0  0  0
 14 15  2  0  0  0  0
 14 16  1  0  0  0  0
 11 12  1  0  0  0  0
 11 13  1  0  0  0  0
 11 14  1  0  0  0  0
  9 10  1  0  0  0  0
  9 11  1  0  0  0  0
  9 19  1  0  0  0  0
  7  8  1  0  0  0  0
  7  9  1  0  0  0  0
 23 24  1  0  0  0  0
 23 25  1  0  0  0  0
 23 26  1  0  0  0  0
 21 22  1  0  0  0  0
 21 23  1  0  0  0  0
M  END
$$$$
default_name
  -OEChem-02102213163D

 26 25  0     1  0  0  0  0  0999 V2000
   -3.0232   -3.6924    1.0038 H   0  0  0  0  0  0  0  0  0  0  0  0
   -3.0082   -2.6684    0.6318 C   0  0  0  0  0  0  0  0  0  0  0  0
   -3.6332   -2.0414    1.2658 H   0  0  0  0  0  0  0  0  0  0  0  0
   -3.3762   -2.6444   -0.3912 H   0  0  0  0  0  0  0  0  0  0  0  0
   -1.5882   -2.1554    0.6658 C   0  0  0  0  0  0  0  0  0  0  0  0
   -0.6832   -2.8764    1.0638 O   0  0  0  0  0  0  0  0  0  0  0  0
   -1.3952   -0.9084    0.2428 N   0  0  0  0  0  0  0  0  0  0  0  0
   -2.1972   -0.3644   -0.0422 H   0  0  0  0  0  0  0  0  0  0  0  0
   -0.1122   -0.1994    0.2658 C   0  0  1  0  0  0  0  0  0  0  0  0
    0.6131   -0.7748   -0.3153 H   0  0  0  0  0  0  0  0  0  0  0  0
   -0.2973    1.1841   -0.3966 C   0  0  0  0  0  0  0  0  0  0  0  0
    0.6815    1.6095   -0.6152 H   0  0  0  0  0  0  0  0  0  0  0  0
   -0.8357    1.0636   -1.3354 H   0  0  0  0  0  0  0  0  0  0  0  0
   -1.0319    2.1923    0.4724 C   0  0  0  0  0  0  0  0  0  0  0  0
   -0.9813    2.1800    1.6899 O   0  0  0  0  0  0  0  0  0  0  0  0
   -1.7559    3.1050   -0.1285 N   0  0  0  0  0  0  0  0  0  0  0  0
   -2.2156    3.7682    0.4703 H   0  0  0  0  0  0  0  0  0  0  0  0
   -1.7986    3.1482   -1.1292 H   0  0  0  0  0  0  0  0  0  0  0  0
    0.4075   -0.0985    1.7169 C   0  0  0  0  0  0  0  0  0  0  0  0
    1.5860   -0.3526    1.9662 O   0  0  0  0  0  0  0  0  0  0  0  0
   -0.4625    0.2583    2.6666 N   0  0  0  0  0  0  0  0  0  0  0  0
   -1.4309    0.3754    2.3860 H   0  0  0  0  0  0  0  0  0  0  0  0
   -0.1275    0.4111    4.0813 C   0  0  0  0  0  0  0  0  0  0  0  0
    0.6862    1.1312    4.1910 H   0  0  0  0  0  0  0  0  0  0  0  0
   -0.9980    0.7641    4.6360 H   0  0  0  0  0  0  0  0  0  0  0  0
    0.1959   -0.5481    4.4891 H   0  0  0  0  0  0  0  0  0  0  0  0
  5  6  2  0  0  0  0
  5  7  1  0  0  0  0
  2  3  1  0  0  0  0
  2  4  1  0  0  0  0
  2  5  1  0  0  0  0
  1  2  1  0  0  0  0
 19 20  2  0  0  0  0
 19 21  1  0  0  0  0
 16 17  1  0  0  0  0
 16 18  1  0  0  0  0
 14 15  2  0  0  0  0
 14 16  1  0  0  0  0
 11 12  1  0  0  0  0
 11 13  1  0  0  0  0
 11 14  1  0  0  0  0
  9 10  1  0  0  0  0
  9 11  1  0  0  0  0
  9 19  1  0  0  0  0
  7  8  1  0  0  0  0
  7  9  1  0  0  0  0
 23 24  1  0  0  0  0
 23 25  1  0  0  0  0
 23 26  1  0  0  0  0
 21 22  1  0  0  0  0
 21 23  1  0  0  0  0
M  END
$$$$
default_name
  -OEChem-02102213163D

 26 25  0     1  0  0  0  0  0999 V2000
   -3.0232   -3.6924    1.0038 H   0  0  0  0  0  0  0  0  0  0  0  0
   -3.0082   -2.6684    0.6318 C   0  0  0  0  0  0  0  0  0  0  0  0
   -3.6332   -2.0414    1.2658 H   0  0  0  0  0  0  0  0  0  0  0  0
   -3.3762   -2.6444   -0.3912 H   0  0  0  0  0  0  0  0  0  0  0  0
   -1.5882   -2.1554    0.6658 C   0  0  0  0  0  0  0  0  0  0  0  0
   -0.6832   -2.8764    1.0638 O   0  0  0  0  0  0  0  0  0  0  0  0
   -1.3952   -0.9084    0.2428 N   0  0  0  0  0  0  0  0  0  0  0  0
   -2.1972   -0.3644   -0.0422 H   0  0  0  0  0  0  0  0  0  0  0  0
   -0.1122   -0.1994    0.2658 C   0  0  1  0  0  0  0  0  0  0  0  0
    0.6131   -0.7748   -0.3153 H   0  0  0  0  0  0  0  0  0  0  0  0
   -0.2973    1.1841   -0.3966 C   0  0  0  0  0  0  0  0  0  0  0  0
    0.6815    1.6095   -0.6152 H   0  0  0  0  0  0  0  0  0  0  0  0
   -0.8357    1.0636   -1.3354 H   0  0  0  0  0  0  0  0  0  0  0  0
   -1.0319    2.1923    0.4724 C   0  0  0  0  0  0  0  0  0  0  0  0
   -0.7831    2.3552    1.6542 O   0  0  0  0  0  0  0  0  0  0  0  0
   -1.9794    2.9055   -0.0860 N   0  0  0  0  0  0  0  0  0  0  0  0
   -2.4354    3.5756    0.5079 H   0  0  0  0  0  0  0  0  0  0  0  0
   -2.1903    2.8039   -1.0608 H   0  0  0  0  0  0  0  0  0  0  0  0
    0.4075   -0.0985    1.7169 C   0  0  0  0  0  0  0  0  0  0  0  0
    1.5860   -0.3526    1.9662 O   0  0  0  0  0  0  0  0  0  0  0  0
   -0.4625    0.2583    2.6666 N   0  0  0  0  0  0  0  0  0  0  0  0
   -1.4309    0.3754    2.3860 H   0  0  0  0  0  0  0  0  0  0  0  0
   -0.1275    0.4111    4.0813 C   0  0  0  0  0  0  0  0  0  0  0  0
    0.6862    1.1312    4.1910 H   0  0  0  0  0  0  0  0  0  0  0  0
   -0.9980    0.7641    4.6360 H   0  0  0  0  0  0  0  0  0  0  0  0
    0.1959   -0.5481    4.4891 H   0  0  0  0  0  0  0  0  0  0  0  0
  5  6  2  0  0  0  0
  5  7  1  0  0  0  0
  2  3  1  0  0  0  0
  2  4  1  0  0  0  0
  2  5  1  0  0  0  0
  1  2  1  0  0  0  0
 19 20  2  0  0  0  0
 19 21  1  0  0  0  0
 16 17  1  0  0  0  0
 16 18  1  0  0  0  0
 14 15  2  0  0  0  0
 14 16  1  0  0  0  0
 11 12  1  0  0  0  0
 11 13  1  0  0  0  0
 11 14  1  0  0  0  0
  9 10  1  0  0  0  0
  9 11  1  0  0  0  0
  9 19  1  0  0  0  0
  7  8  1  0  0  0  0
  7  9  1  0  0  0  0
 23 24  1  0  0  0  0
 23 25  1  0  0  0  0
 23 26  1  0  0  0  0
 21 22  1  0  0  0  0
 21 23  1  0  0  0  0
M  END
$$$$
default_name
  -OEChem-02102213163D

 26 25  0     1  0  0  0  0  0999 V2000
   -3.0232   -3.6924    1.0038 H   0  0  0  0  0  0  0  0  0  0  0  0
   -3.0082   -2.6684    0.6318 C   0  0  0  0  0  0  0  0  0  0  0  0
   -3.6332   -2.0414    1.2658 H   0  0  0  0  0  0  0  0  0  0  0  0
   -3.3762   -2.6444   -0.3912 H   0  0  0  0  0  0  0  0  0  0  0  0
   -1.5882   -2.1554    0.6658 C   0  0  0  0  0  0  0  0  0  0  0  0
   -0.6832   -2.8764    1.0638 O   0  0  0  0  0  0  0  0  0  0  0  0
   -1.3952   -0.9084    0.2428 N   0  0  0  0  0  0  0  0  0  0  0  0
   -2.1972   -0.3644   -0.0422 H   0  0  0  0  0  0  0  0  0  0  0  0
   -0.1122   -0.1994    0.2658 C   0  0  1  0  0  0  0  0  0  0  0  0
    0.6131   -0.7748   -0.3153 H   0  0  0  0  0  0  0  0  0  0  0  0
   -0.2973    1.1841   -0.3966 C   0  0  0  0  0  0  0  0  0  0  0  0
    0.6815    1.6095   -0.6152 H   0  0  0  0  0  0  0  0  0  0  0  0
   -0.8357    1.0636   -1.3354 H   0  0  0  0  0  0  0  0  0  0  0  0
   -1.0319    2.1923    0.4724 C   0  0  0  0  0  0  0  0  0  0  0  0
   -0.6237    2.5492    1.5638 O   0  0  0  0  0  0  0  0  0  0  0  0
   -2.1586    2.6850    0.0184 N   0  0  0  0  0  0  0  0  0  0  0  0
   -2.6127    3.3618    0.6061 H   0  0  0  0  0  0  0  0  0  0  0  0
   -2.5059    2.4220   -0.8845 H   0  0  0  0  0  0  0  0  0  0  0  0
    0.4075   -0.0985    1.7169 C   0  0  0  0  0  0  0  0  0  0  0  0
    1.5860   -0.3526    1.9662 O   0  0  0  0  0  0  0  0  0  0  0  0
   -0.4625    0.2583    2.6666 N   0  0  0  0  0  0  0  0  0  0  0  0
   -1.4309    0.3754    2.3860 H   0  0  0  0  0  0  0  0  0  0  0  0
   -0.1275    0.4111    4.0813 C   0  0  0  0  0  0  0  0  0  0  0  0
    0.6862    1.1312    4.1910 H   0  0  0  0  0  0  0  0  0  0  0  0
   -0.9980    0.7641    4.6360 H   0  0  0  0  0  0  0  0  0  0  0  0
    0.1959   -0.5481    4.4891 H   0  0  0  0  0  0  0  0  0  0  0  0
  5  6  2  0  0  0  0
  5  7  1  0  0  0  0
  2  3  1  0  0  0  0
  2  4  1  0  0  0  0
  2  5  1  0  0  0  0
  1  2  1  0  0  0  0
 19 20  2  0  0  0  0
 19 21  1  0  0  0  0
 16 17  1  0  0  0  0
 16 18  1  0  0  0  0
 14 15  2  0  0  0  0
 14 16  1  0  0  0  0
 11 12  1  0  0  0  0
 11 13  1  0  0  0  0
 11 14  1  0  0  0  0
  9 10  1  0  0  0  0
  9 11  1  0  0  0  0
  9 19  1  0  0  0  0
  7  8  1  0  0  0  0
  7  9  1  0  0  0  0
 23 24  1  0  0  0  0
 23 25  1  0  0  0  0
 23 26  1  0  0  0  0
 21 22  1  0  0  0  0
 21 23  1  0  0  0  0
M  END
$$$$
default_name
  -OEChem-02102213163D

 26 25  0     1  0  0  0  0  0999 V2000
   -3.0232   -3.6924    1.0038 H   0  0  0  0  0  0  0  0  0  0  0  0
   -3.0082   -2.6684    0.6318 C   0  0  0  0  0  0  0  0  0  0  0  0
   -3.6332   -2.0414    1.2658 H   0  0  0  0  0  0  0  0  0  0  0  0
   -3.3762   -2.6444   -0.3912 H   0  0  0  0  0  0  0  0  0  0  0  0
   -1.5882   -2.1554    0.6658 C   0  0  0  0  0  0  0  0  0  0  0  0
   -0.6832   -2.8764    1.0638 O   0  0  0  0  0  0  0  0  0  0  0  0
   -1.3952   -0.9084    0.2428 N   0  0  0  0  0  0  0  0  0  0  0  0
   -2.1972   -0.3644   -0.0422 H   0  0  0  0  0  0  0  0  0  0  0  0
   -0.1122   -0.1994    0.2658 C   0  0  1  0  0  0  0  0  0  0  0  0
    0.6131   -0.7748   -0.3153 H   0  0  0  0  0  0  0  0  0  0  0  0
   -0.2973    1.1841   -0.3966 C   0  0  0  0  0  0  0  0  0  0  0  0
    0.6815    1.6095   -0.6152 H   0  0  0  0  0  0  0  0  0  0  0  0
   -0.8357    1.0636   -1.3354 H   0  0  0  0  0  0  0  0  0  0  0  0
   -1.0319    2.1923    0.4724 C   0  0  0  0  0  0  0  0  0  0  0  0
   -0.5141    2.7489    1.4248 O   0  0  0  0  0  0  0  0  0  0  0  0
   -2.2811    2.4586    0.1776 N   0  0  0  0  0  0  0  0  0  0  0  0
   -2.7355    3.1414    0.7581 H   0  0  0  0  0  0  0  0  0  0  0  0
   -2.7240    2.0284   -0.6122 H   0  0  0  0  0  0  0  0  0  0  0  0
    0.4075   -0.0985    1.7169 C   0  0  0  0  0  0  0  0  0  0  0  0
    1.5860   -0.3526    1.9662 O   0  0  0  0  0  0  0  0  0  0  0  0
   -0.4625    0.2583    2.6666 N   0  0  0  0  0  0  0  0  0  0  0  0
   -1.4309    0.3754    2.3860 H   0  0  0  0  0  0  0  0  0  0  0  0
   -0.1275    0.4111    4.0813 C   0  0  0  0  0  0  0  0  0  0  0  0
    0.6862    1.1312    4.1910 H   0  0  0  0  0  0  0  0  0  0  0  0
   -0.9980    0.7641    4.6360 H   0  0  0  0  0  0  0  0  0  0  0  0
    0.1959   -0.5481    4.4891 H   0  0  0  0  0  0  0  0  0  0  0  0
  5  6  2  0  0  0  0
  5  7  1  0  0  0  0
  2  3  1  0  0  0  0
  2  4  1  0  0  0  0
  2  5  1  0  0  0  0
  1  2  1  0  0  0  0
 19 20  2  0  0  0  0
 19 21  1  0  0  0  0
 16 17  1  0  0  0  0
 16 18  1  0  0  0  0
 14 15  2  0  0  0  0
 14 16  1  0  0  0  0
 11 12  1  0  0  0  0
 11 13  1  0  0  0  0
 11 14  1  0  0  0  0
  9 10  1  0  0  0  0
  9 11  1  0  0  0  0
  9 19  1  0  0  0  0
  7  8  1  0  0  0  0
  7  9  1  0  0  0  0
 23 24  1  0  0  0  0
 23 25  1  0  0  0  0
 23 26  1  0  0  0  0
 21 22  1  0  0  0  0
 21 23  1  0  0  0  0
M  END
$$$$
default_name
  -OEChem-02102213163D

 26 25  0     1  0  0  0  0  0999 V2000
   -3.0232   -3.6924    1.0038 H   0  0  0  0  0  0  0  0  0  0  0  0
   -3.0082   -2.6684    0.6318 C   0  0  0  0  0  0  0  0  0  0  0  0
   -3.6332   -2.0414    1.2658 H   0  0  0  0  0  0  0  0  0  0  0  0
   -3.3762   -2.6444   -0.3912 H   0  0  0  0  0  0  0  0  0  0  0  0
   -1.5882   -2.1554    0.6658 C   0  0  0  0  0  0  0  0  0  0  0  0
   -0.6832   -2.8764    1.0638 O   0  0  0  0  0  0  0  0  0  0  0  0
   -1.3952   -0.9084    0.2428 N   0  0  0  0  0  0  0  0  0  0  0  0
   -2.1972   -0.3644   -0.0422 H   0  0  0  0  0  0  0  0  0  0  0  0
   -0.1122   -0.1994    0.2658 C   0  0  1  0  0  0  0  0  0  0  0  0
    0.6131   -0.7748   -0.3153 H   0  0  0  0  0  0  0  0  0  0  0  0
   -0.2973    1.1841   -0.3966 C   0  0  0  0  0  0  0  0  0  0  0  0
    0.6815    1.6095   -0.6152 H   0  0  0  0  0  0  0  0  0  0  0  0
   -0.8357    1.0636   -1.3354 H   0  0  0  0  0  0  0  0  0  0  0  0
   -1.0319    2.1923    0.4724 C   0  0  0  0  0  0  0  0  0  0  0  0
   -0.4615    2.9407    1.2468 O   0  0  0  0  0  0  0  0  0  0  0  0
   -2.3386    2.2417    0.3806 N   0  0  0  0  0  0  0  0  0  0  0  0
   -2.7954    2.9292    0.9535 H   0  0  0  0  0  0  0  0  0  0  0  0
   -2.8297    1.6500   -0.2626 H   0  0  0  0  0  0  0  0  0  0  0  0
    0.4075   -0.0985    1.7169 C   0  0  0  0  0  0  0  0  0  0  0  0
    1.5860   -0.3526    1.9662 O   0  0  0  0  0  0  0  0  0  0  0  0
   -0.4625    0.2583    2.6666 N   0  0  0  0  0  0  0  0  0  0  0  0
   -1.4309    0.3754    2.3860 H   0  0  0  0  0  0  0  0  0  0  0  0
   -0.1275    0.4111    4.0813 C   0  0  0  0  0  0  0  0  0  0  0  0
    0.6862    1.1312    4.1910 H   0  0  0  0  0  0  0  0  0  0  0  0
   -0.9980    0.7641    4.6360 H   0  0  0  0  0  0  0  0  0  0  0  0
    0.1959   -0.5481    4.4891 H   0  0  0  0  0  0  0  0  0  0  0  0
  5  6  2  0  0  0  0
  5  7  1  0  0  0  0
  2  3  1  0  0  0  0
  2  4  1  0  0  0  0
  2  5  1  0  0  0  0
  1  2  1  0  0  0  0
 19 20  2  0  0  0  0
 19 21  1  0  0  0  0
 16 17  1  0  0  0  0
 16 18  1  0  0  0  0
 14 15  2  0  0  0  0
 14 16  1  0  0  0  0
 11 12  1  0  0  0  0
 11 13  1  0  0  0  0
 11 14  1  0  0  0  0
  9 10  1  0  0  0  0
  9 11  1  0  0  0  0
  9 19  1  0  0  0  0
  7  8  1  0  0  0  0
  7  9  1  0  0  0  0
 23 24  1  0  0  0  0
 23 25  1  0  0  0  0
 23 26  1  0  0  0  0
 21 22  1  0  0  0  0
 21 23  1  0  0  0  0
M  END
$$$$
default_name
  -OEChem-02102213163D

 26 25  0     1  0  0  0  0  0999 V2000
   -3.0232   -3.6924    1.0038 H   0  0  0  0  0  0  0  0  0  0  0  0
   -3.0082   -2.6684    0.6318 C   0  0  0  0  0  0  0  0  0  0  0  0
   -3.6332   -2.0414    1.2658 H   0  0  0  0  0  0  0  0  0  0  0  0
   -3.3762   -2.6444   -0.3912 H   0  0  0  0  0  0  0  0  0  0  0  0
   -1.5882   -2.1554    0.6658 C   0  0  0  0  0  0  0  0  0  0  0  0
   -0.6832   -2.8764    1.0638 O   0  0  0  0  0  0  0  0  0  0  0  0
   -1.3952   -0.9084    0.2428 N   0  0  0  0  0  0  0  0  0  0  0  0
   -2.1972   -0.3644   -0.0422 H   0  0  0  0  0  0  0  0  0  0  0  0
   -0.1122   -0.1994    0.2658 C   0  0  1  0  0  0  0  0  0  0  0  0
    0.6131   -0.7748   -0.3153 H   0  0  0  0  0  0  0  0  0  0  0  0
   -0.2973    1.1841   -0.3966 C   0  0  0  0  0  0  0  0  0  0  0  0
    0.6815    1.6095   -0.6152 H   0  0  0  0  0  0  0  0  0  0  0  0
   -0.8357    1.0636   -1.3354 H   0  0  0  0  0  0  0  0  0  0  0  0
   -1.0319    2.1923    0.4724 C   0  0  0  0  0  0  0  0  0  0  0  0
   -0.4696    3.1114    1.0418 O   0  0  0  0  0  0  0  0  0  0  0  0
   -2.3272    2.0490    0.6138 N   0  0  0  0  0  0  0  0  0  0  0  0
   -2.7884    2.7399    1.1792 H   0  0  0  0  0  0  0  0  0  0  0  0
   -2.8159    1.3126    0.1406 H   0  0  0  0  0  0  0  0  0  0  0  0
    0.4075   -0.0985    1.7169 C   0  0  0  0  0  0  0  0  0  0  0  0
    1.5860   -0.3526    1.9662 O   0  0  0  0  0  0  0  0  0  0  0  0
   -0.4625    0.2583    2.6666 N   0  0  0  0  0  0  0  0  0  0  0  0
   -1.4309    0.3754    2.3860 H   0  0  0  0  0  0  0  0  0  0  0  0
   -0.1275    0.4111    4.0813 C   0  0  0  0  0  0  0  0  0  0  0  0
    0.6862    1.1312    4.1910 H   0  0  0  0  0  0  0  0  0  0  0  0
   -0.9980    0.7641    4.6360 H   0  0  0  0  0  0  0  0  0  0  0  0
    0.1959   -0.5481    4.4891 H   0  0  0  0  0  0  0  0  0  0  0  0
  5  6  2  0  0  0  0
  5  7  1  0  0  0  0
  2  3  1  0  0  0  0
  2  4  1  0  0  0  0
  2  5  1  0  0  0  0
  1  2  1  0  0  0  0
 19 20  2  0  0  0  0
 19 21  1  0  0  0  0
 16 17  1  0  0  0  0
 16 18  1  0  0  0  0
 14 15  2  0  0  0  0
 14 16  1  0  0  0  0
 11 12  1  0  0  0  0
 11 13  1  0  0  0  0
 11 14  1  0  0  0  0
  9 10  1  0  0  0  0
  9 11  1  0  0  0  0
  9 19  1  0  0  0  0
  7  8  1  0  0  0  0
  7  9  1  0  0  0  0
 23 24  1  0  0  0  0
 23 25  1  0  0  0  0
 23 26  1  0  0  0  0
 21 22  1  0  0  0  0
 21 23  1  0  0  0  0
M  END
$$$$
default_name
  -OEChem-02102213163D

 26 25  0     1  0  0  0  0  0999 V2000
   -3.0232   -3.6924    1.0038 H   0  0  0  0  0  0  0  0  0  0  0  0
   -3.0082   -2.6684    0.6318 C   0  0  0  0  0  0  0  0  0  0  0  0
   -3.6332   -2.0414    1.2658 H   0  0  0  0  0  0  0  0  0  0  0  0
   -3.3762   -2.6444   -0.3912 H   0  0  0  0  0  0  0  0  0  0  0  0
   -1.5882   -2.1554    0.6658 C   0  0  0  0  0  0  0  0  0  0  0  0
   -0.6832   -2.8764    1.0638 O   0  0  0  0  0  0  0  0  0  0  0  0
   -1.3952   -0.9084    0.2428 N   0  0  0  0  0  0  0  0  0  0  0  0
   -2.1972   -0.3644   -0.0422 H   0  0  0  0  0  0  0  0  0  0  0  0
   -0.1122   -0.1994    0.2658 C   0  0  1  0  0  0  0  0  0  0  0  0
    0.6131   -0.7748   -0.3153 H   0  0  0  0  0  0  0  0  0  0  0  0
   -0.2973    1.1841   -0.3966 C   0  0  0  0  0  0  0  0  0  0  0  0
    0.6815    1.6095   -0.6152 H   0  0  0  0  0  0  0  0  0  0  0  0
   -0.8357    1.0636   -1.3354 H   0  0  0  0  0  0  0  0  0  0  0  0
   -1.0319    2.1923    0.4724 C   0  0  0  0  0  0  0  0  0  0  0  0
   -0.5379    3.2495    0.8239 O   0  0  0  0  0  0  0  0  0  0  0  0
   -2.2477    1.8938    0.8611 N   0  0  0  0  0  0  0  0  0  0  0  0
   -2.7148    2.5863    1.4195 H   0  0  0  0  0  0  0  0  0  0  0  0
   -2.6834    1.0392    0.5698 H   0  0  0  0  0  0  0  0  0  0  0  0
    0.4075   -0.0985    1.7169 C   0  0  0  0  0  0  0  0  0  0  0  0
    1.5860   -0.3526    1.9662 O   0  0  0  0  0  0  0  0  0  0  0  0
   -0.4625    0.2583    2.6666 N   0  0  0  0  0  0  0  0  0  0  0  0
   -1.4309    0.3754    2.3860 H   0  0  0  0  0  0  0  0  0  0  0  0
   -0.1275    0.4111    4.0813 C   0  0  0  0  0  0  0  0  0  0  0  0
    0.6862    1.1312    4.1910 H   0  0  0  0  0  0  0  0  0  0  0  0
   -0.9980    0.7641    4.6360 H   0  0  0  0  0  0  0  0  0  0  0  0
    0.1959   -0.5481    4.4891 H   0  0  0  0  0  0  0  0  0  0  0  0
  5  6  2  0  0  0  0
  5  7  1  0  0  0  0
  2  3  1  0  0  0  0
  2  4  1  0  0  0  0
  2  5  1  0  0  0  0
  1  2  1  0  0  0  0
 19 20  2  0  0  0  0
 19 21  1  0  0  0  0
 16 17  1  0  0  0  0
 16 18  1  0  0  0  0
 14 15  2  0  0  0  0
 14 16  1  0  0  0  0
 11 12  1  0  0  0  0
 11 13  1  0  0  0  0
 11 14  1  0  0  0  0
  9 10  1  0  0  0  0
  9 11  1  0  0  0  0
  9 19  1  0  0  0  0
  7  8  1  0  0  0  0
  7  9  1  0  0  0  0
 23 24  1  0  0  0  0
 23 25  1  0  0  0  0
 23 26  1  0  0  0  0
 21 22  1  0  0  0  0
 21 23  1  0  0  0  0
M  END
$$$$
default_name
  -OEChem-02102213163D

 26 25  0     1  0  0  0  0  0999 V2000
   -3.0232   -3.6924    1.0038 H   0  0  0  0  0  0  0  0  0  0  0  0
   -3.0082   -2.6684    0.6318 C   0  0  0  0  0  0  0  0  0  0  0  0
   -3.6332   -2.0414    1.2658 H   0  0  0  0  0  0  0  0  0  0  0  0
   -3.3762   -2.6444   -0.3912 H   0  0  0  0  0  0  0  0  0  0  0  0
   -1.5882   -2.1554    0.6658 C   0  0  0  0  0  0  0  0  0  0  0  0
   -0.6832   -2.8764    1.0638 O   0  0  0  0  0  0  0  0  0  0  0  0
   -1.3952   -0.9084    0.2428 N   0  0  0  0  0  0  0  0  0  0  0  0
   -2.1972   -0.3644   -0.0422 H   0  0  0  0  0  0  0  0  0  0  0  0
   -0.1122   -0.1994    0.2658 C   0  0  1  0  0  0  0  0  0  0  0  0
    0.6131   -0.7748   -0.3153 H   0  0  0  0  0  0  0  0  0  0  0  0
   -0.2973    1.1841   -0.3966 C   0  0  0  0  0  0  0  0  0  0  0  0
    0.6815    1.6095   -0.6152 H   0  0  0  0  0  0  0  0  0  0  0  0
   -0.8357    1.0636   -1.3354 H   0  0  0  0  0  0  0  0  0  0  0  0
   -1.0319    2.1923    0.4724 C   0  0  0  0  0  0  0  0  0  0  0  0
   -0.6618    3.3455    0.6078 O   0  0  0  0  0  0  0  0  0  0  0  0
   -2.1054    1.7866    1.1058 N   0  0  0  0  0  0  0  0  0  0  0  0
   -2.5798    2.4789    1.6583 H   0  0  0  0  0  0  0  0  0  0  0  0
   -2.4412    0.8484    0.9959 H   0  0  0  0  0  0  0  0  0  0  0  0
    0.4075   -0.0985    1.7169 C   0  0  0  0  0  0  0  0  0  0  0  0
    1.5860   -0.3526    1.9662 O   0  0  0  0  0  0  0  0  0  0  0  0
   -0.4625    0.2583    2.6666 N   0  0  0  0  0  0  0  0  0  0  0  0
   -1.4309    0.3754    2.3860 H   0  0  0  0  0  0  0  0  0  0  0  0
   -0.1275    0.4111    4.0813 C   0  0  0  0  0  0  0  0  0  0  0  0
    0.6862    1.1312    4.1910 H   0  0  0  0  0  0  0  0  0  0  0  0
   -0.9980    0.7641    4.6360 H   0  0  0  0  0  0  0  0  0  0  0  0
    0.1959   -0.5481    4.4891 H   0  0  0  0  0  0  0  0  0  0  0  0
  5  6  2  0  0  0  0
  5  7  1  0  0  0  0
  2  3  1  0  0  0  0
  2  4  1  0  0  0  0
  2  5  1  0  0  0  0
  1  2  1  0  0  0  0
 19 20  2  0  0  0  0
 19 21  1  0  0  0  0
 16 17  1  0  0  0  0
 16 18  1  0  0  0  0
 14 15  2  0  0  0  0
 14 16  1  0  0  0  0
 11 12  1  0  0  0  0
 11 13  1  0  0  0  0
 11 14  1  0  0  0  0
  9 10  1  0  0  0  0
  9 11  1  0  0  0  0
  9 19  1  0  0  0  0
  7  8  1  0  0  0  0
  7  9  1  0  0  0  0
 23 24  1  0  0  0  0
 23 25  1  0  0  0  0
 23 26  1  0  0  0  0
 21 22  1  0  0  0  0
 21 23  1  0  0  0  0
M  END
$$$$
default_name
  -OEChem-02102213163D

 26 25  0     1  0  0  0  0  0999 V2000
   -3.0232   -3.6924    1.0038 H   0  0  0  0  0  0  0  0  0  0  0  0
   -3.0082   -2.6684    0.6318 C   0  0  0  0  0  0  0  0  0  0  0  0
   -3.6332   -2.0414    1.2658 H   0  0  0  0  0  0  0  0  0  0  0  0
   -3.3762   -2.6444   -0.3912 H   0  0  0  0  0  0  0  0  0  0  0  0
   -1.5882   -2.1554    0.6658 C   0  0  0  0  0  0  0  0  0  0  0  0
   -0.6832   -2.8764    1.0638 O   0  0  0  0  0  0  0  0  0  0  0  0
   -1.3952   -0.9084    0.2428 N   0  0  0  0  0  0  0  0  0  0  0  0
   -2.1972   -0.3644   -0.0422 H   0  0  0  0  0  0  0  0  0  0  0  0
   -0.1122   -0.1994    0.2658 C   0  0  1  0  0  0  0  0  0  0  0  0
    0.6131   -0.7748   -0.3153 H   0  0  0  0  0  0  0  0  0  0  0  0
   -0.2973    1.1841   -0.3966 C   0  0  0  0  0  0  0  0  0  0  0  0
    0.6815    1.6095   -0.6152 H   0  0  0  0  0  0  0  0  0  0  0  0
   -0.8357    1.0636   -1.3354 H   0  0  0  0  0  0  0  0  0  0  0  0
   -1.0319    2.1923    0.4724 C   0  0  0  0  0  0  0  0  0  0  0  0
   -0.8326    3.3929    0.4084 O   0  0  0  0  0  0  0  0  0  0  0  0
   -1.9102    1.7346    1.3311 N   0  0  0  0  0  0  0  0  0  0  0  0
   -2.3925    2.4249    1.8792 H   0  0  0  0  0  0  0  0  0  0  0  0
   -2.1060    0.7531    1.3898 H   0  0  0  0  0  0  0  0  0  0  0  0
    0.4075   -0.0985    1.7169 C   0  0  0  0  0  0  0  0  0  0  0  0
    1.5860   -0.3526    1.9662 O   0  0  0  0  0  0  0  0  0  0  0  0
   -0.4625    0.2583    2.6666 N   0  0  0  0  0  0  0  0  0  0  0  0
   -1.4309    0.3754    2.3860 H   0  0  0  0  0  0  0  0  0  0  0  0
   -0.1275    0.4111    4.0813 C   0  0  0  0  0  0  0  0  0  0  0  0
    0.6862    1.1312    4.1910 H   0  0  0  0  0  0  0  0  0  0  0  0
   -0.9980    0.7641    4.6360 H   0  0  0  0  0  0  0  0  0  0  0  0
    0.1959   -0.5481    4.4891 H   0  0  0  0  0  0  0  0  0  0  0  0
  5  6  2  0  0  0  0
  5  7  1  0  0  0  0
  2  3  1  0  0  0  0
  2  4  1  0  0  0  0
  2  5  1  0  0  0  0
  1  2  1  0  0  0  0
 19 20  2  0  0  0  0
 19 21  1  0  0  0  0
 16 17  1  0  0  0  0
 16 18  1  0  0  0  0
 14 15  2  0  0  0  0
 14 16  1  0  0  0  0
 11 12  1  0  0  0  0
 11 13  1  0  0  0  0
 11 14  1  0  0  0  0
  9 10  1  0  0  0  0
  9 11  1  0  0  0  0
  9 19  1  0  0  0  0
  7  8  1  0  0  0  0
  7  9  1  0  0  0  0
 23 24  1  0  0  0  0
 23 25  1  0  0  0  0
 23 26  1  0  0  0  0
 21 22  1  0  0  0  0
 21 23  1  0  0  0  0
M  END
$$$$
default_name
  -OEChem-02102213163D

 26 25  0     1  0  0  0  0  0999 V2000
   -3.0232   -3.6924    1.0038 H   0  0  0  0  0  0  0  0  0  0  0  0
   -3.0082   -2.6684    0.6318 C   0  0  0  0  0  0  0  0  0  0  0  0
   -3.6332   -2.0414    1.2658 H   0  0  0  0  0  0  0  0  0  0  0  0
   -3.3762   -2.6444   -0.3912 H   0  0  0  0  0  0  0  0  0  0  0  0
   -1.5882   -2.1554    0.6658 C   0  0  0  0  0  0  0  0  0  0  0  0
   -0.6832   -2.8764    1.0638 O   0  0  0  0  0  0  0  0  0  0  0  0
   -1.3952   -0.9084    0.2428 N   0  0  0  0  0  0  0  0  0  0  0  0
   -2.1972   -0.3644   -0.0422 H   0  0  0  0  0  0  0  0  0  0  0  0
   -0.1122   -0.1994    0.2658 C   0  0  1  0  0  0  0  0  0  0  0  0
    0.6131   -0.7748   -0.3153 H   0  0  0  0  0  0  0  0  0  0  0  0
   -0.2973    1.1841   -0.3966 C   0  0  0  0  0  0  0  0  0  0  0  0
    0.6815    1.6095   -0.6152 H   0  0  0  0  0  0  0  0  0  0  0  0
   -0.8357    1.0636   -1.3354 H   0  0  0  0  0  0  0  0  0  0  0  0
   -1.0319    2.1923    0.4724 C   0  0  0  0  0  0  0  0  0  0  0  0
   -1.0390    3.3884    0.2392 O   0  0  0  0  0  0  0  0  0  0  0  0
   -1.6752    1.7415    1.5218 N   0  0  0  0  0  0  0  0  0  0  0  0
   -2.1657    2.4282    2.0672 H   0  0  0  0  0  0  0  0  0  0  0  0
   -1.7005    0.7600    1.7246 H   0  0  0  0  0  0  0  0  0  0  0  0
    0.4075   -0.0985    1.7169 C   0  0  0  0  0  0  0  0  0  0  0  0
    1.5860   -0.3526    1.9662 O   0  0  0  0  0  0  0  0  0  0  0  0
   -0.4625    0.2583    2.6666 N   0  0  0  0  0  0  0  0  0  0  0  0
   -1.4309    0.3754    2.3860 H   0  0  0  0  0  0  0  0  0  0  0  0
   -0.1275    0.4111    4.0813 C   0  0  0  0  0  0  0  0  0  0  0  0
    0.6862    1.1312    4.1910 H   0  0  0  0  0  0  0  0  0  0  0  0
   -0.9980    0.7641    4.6360 H   0  0  0  0  0  0  0  0  0  0  0  0
    0.1959   -0.5481    4.4891 H   0  0  0  0  0  0  0  0  0  0  0  0
  5  6  2  0  0  0  0
  5  7  1  0  0  0  0
  2  3  1  0  0  0  0
  2  4  1  0  0  0  0
  2  5  1  0  0  0  0
  1  2  1  0  0  0  0
 19 20  2  0  0  0  0
 19 21  1  0  0  0  0
 16 17  1  0  0  0  0
 16 18  1  0  0  0  0
 14 15  2  0  0  0  0
 14 16  1  0  0  0  0
 11 12  1  0  0  0  0
 11 13  1  0  0  0  0
 11 14  1  0  0  0  0
  9 10  1  0  0  0  0
  9 11  1  0  0  0  0
  9 19  1  0  0  0  0
  7  8  1  0  0  0  0
  7  9  1  0  0  0  0
 23 24  1  0  0  0  0
 23 25  1  0  0  0  0
 23 26  1  0  0  0  0
 21 22  1  0  0  0  0
 21 23  1  0  0  0  0
M  END
$$$$
default_name
  -OEChem-02102213163D

 26 25  0     1  0  0  0  0  0999 V2000
   -3.0232   -3.6924    1.0038 H   0  0  0  0  0  0  0  0  0  0  0  0
   -3.0082   -2.6684    0.6318 C   0  0  0  0  0  0  0  0  0  0  0  0
   -3.6332   -2.0414    1.2658 H   0  0  0  0  0  0  0  0  0  0  0  0
   -3.3762   -2.6444   -0.3912 H   0  0  0  0  0  0  0  0  0  0  0  0
   -1.5882   -2.1554    0.6658 C   0  0  0  0  0  0  0  0  0  0  0  0
   -0.6832   -2.8764    1.0638 O   0  0  0  0  0  0  0  0  0  0  0  0
   -1.3952   -0.9084    0.2428 N   0  0  0  0  0  0  0  0  0  0  0  0
   -2.1972   -0.3644   -0.0422 H   0  0  0  0  0  0  0  0  0  0  0  0
   -0.1122   -0.1994    0.2658 C   0  0  1  0  0  0  0  0  0  0  0  0
    0.6131   -0.7748   -0.3153 H   0  0  0  0  0  0  0  0  0  0  0  0
   -0.2973    1.1841   -0.3966 C   0  0  0  0  0  0  0  0  0  0  0  0
    0.6432    1.4905   -0.8530 H   0  0  0  0  0  0  0  0  0  0  0  0
   -1.0498    1.1093   -1.1802 H   0  0  0  0  0  0  0  0  0  0  0  0
   -0.6961    2.2852    0.5727 C   0  0  0  0  0  0  0  0  0  0  0  0
   -0.8849    3.4382    0.2257 O   0  0  0  0  0  0  0  0  0  0  0  0
   -0.8308    1.9678    1.8374 N   0  0  0  0  0  0  0  0  0  0  0  0
   -1.1120    2.7117    2.4515 H   0  0  0  0  0  0  0  0  0  0  0  0
   -0.6998    1.0227    2.1451 H   0  0  0  0  0  0  0  0  0  0  0  0
    0.4075   -0.0985    1.7169 C   0  0  0  0  0  0  0  0  0  0  0  0
    1.5860   -0.3526    1.9662 O   0  0  0  0  0  0  0  0  0  0  0  0
   -0.4625    0.2583    2.6666 N   0  0  0  0  0  0  0  0  0  0  0  0
   -1.4309    0.3754    2.3860 H   0  0  0  0  0  0  0  0  0  0  0  0
   -0.1275    0.4111    4.0813 C   0  0  0  0  0  0  0  0  0  0  0  0
    0.6862    1.1312    4.1910 H   0  0  0  0  0  0  0  0  0  0  0  0
   -0.9980    0.7641    4.6360 H   0  0  0  0  0  0  0  0  0  0  0  0
    0.1959   -0.5481    4.4891 H   0  0  0  0  0  0  0  0  0  0  0  0
  5  6  2  0  0  0  0
  5  7  1  0  0  0  0
  2  3  1  0  0  0  0
  2  4  1  0  0  0  0
  2  5  1  0  0  0  0
  1  2  1  0  0  0  0
 19 20  2  0  0  0  0
 19 21  1  0  0  0  0
 16 17  1  0  0  0  0
 16 18  1  0  0  0  0
 14 15  2  0  0  0  0
 14 16  1  0  0  0  0
 11 12  1  0  0  0  0
 11 13  1  0  0  0  0
 11 14  1  0  0  0  0
  9 10  1  0  0  0  0
  9 11  1  0  0  0  0
  9 19  1  0  0  0  0
  7  8  1  0  0  0  0
  7  9  1  0  0  0  0
 23 24  1  0  0  0  0
 23 25  1  0  0  0  0
 23 26  1  0  0  0  0
 21 22  1  0  0  0  0
 21 23  1  0  0  0  0
M  END
$$$$
default_name
  -OEChem-02102213163D

 26 25  0     1  0  0  0  0  0999 V2000
   -3.0232   -3.6924    1.0038 H   0  0  0  0  0  0  0  0  0  0  0  0
   -3.0082   -2.6684    0.6318 C   0  0  0  0  0  0  0  0  0  0  0  0
   -3.6332   -2.0414    1.2658 H   0  0  0  0  0  0  0  0  0  0  0  0
   -3.3762   -2.6444   -0.3912 H   0  0  0  0  0  0  0  0  0  0  0  0
   -1.5882   -2.1554    0.6658 C   0  0  0  0  0  0  0  0  0  0  0  0
   -0.6832   -2.8764    1.0638 O   0  0  0  0  0  0  0  0  0  0  0  0
   -1.3952   -0.9084    0.2428 N   0  0  0  0  0  0  0  0  0  0  0  0
   -2.1972   -0.3644   -0.0422 H   0  0  0  0  0  0  0  0  0  0  0  0
   -0.1122   -0.1994    0.2658 C   0  0  1  0  0  0  0  0  0  0  0  0
    0.6131   -0.7748   -0.3153 H   0  0  0  0  0  0  0  0  0  0  0  0
   -0.2973    1.1841   -0.3966 C   0  0  0  0  0  0  0  0  0  0  0  0
    0.6432    1.4905   -0.8530 H   0  0  0  0  0  0  0  0  0  0  0  0
   -1.0498    1.1093   -1.1802 H   0  0  0  0  0  0  0  0  0  0  0  0
   -0.6961    2.2852    0.5727 C   0  0  0  0  0  0  0  0  0  0  0  0
   -1.1397    3.3605    0.2091 O   0  0  0  0  0  0  0  0  0  0  0  0
   -0.5422    2.0573    1.8544 N   0  0  0  0  0  0  0  0  0  0  0  0
   -0.8304    2.7960    2.4716 H   0  0  0  0  0  0  0  0  0  0  0  0
   -0.1973    1.1741    2.1798 H   0  0  0  0  0  0  0  0  0  0  0  0
    0.4075   -0.0985    1.7169 C   0  0  0  0  0  0  0  0  0  0  0  0
    1.5860   -0.3526    1.9662 O   0  0  0  0  0  0  0  0  0  0  0  0
   -0.4625    0.2583    2.6666 N   0  0  0  0  0  0  0  0  0  0  0  0
   -1.4309    0.3754    2.3860 H   0  0  0  0  0  0  0  0  0  0  0  0
   -0.1275    0.4111    4.0813 C   0  0  0  0  0  0  0  0  0  0  0  0
    0.6862    1.1312    4.1910 H   0  0  0  0  0  0  0  0  0  0  0  0
   -0.9980    0.7641    4.6360 H   0  0  0  0  0  0  0  0  0  0  0  0
    0.1959   -0.5481    4.4891 H   0  0  0  0  0  0  0  0  0  0  0  0
  5  6  2  0  0  0  0
  5  7  1  0  0  0  0
  2  3  1  0  0  0  0
  2  4  1  0  0  0  0
  2  5  1  0  0  0  0
  1  2  1  0  0  0  0
 19 20  2  0  0  0  0
 19 21  1  0  0  0  0
 16 17  1  0  0  0  0
 16 18  1  0  0  0  0
 14 15  2  0  0  0  0
 14 16  1  0  0  0  0
 11 12  1  0  0  0  0
 11 13  1  0  0  0  0
 11 14  1  0  0  0  0
  9 10  1  0  0  0  0
  9 11  1  0  0  0  0
  9 19  1  0  0  0  0
  7  8  1  0  0  0  0
  7  9  1  0  0  0  0
 23 24  1  0  0  0  0
 23 25  1  0  0  0  0
 23 26  1  0  0  0  0
 21 22  1  0  0  0  0
 21 23  1  0  0  0  0
M  END
$$$$
default_name
  -OEChem-02102213163D

 26 25  0     1  0  0  0  0  0999 V2000
   -3.0232   -3.6924    1.0038 H   0  0  0  0  0  0  0  0  0  0  0  0
   -3.0082   -2.6684    0.6318 C   0  0  0  0  0  0  0  0  0  0  0  0
   -3.6332   -2.0414    1.2658 H   0  0  0  0  0  0  0  0  0  0  0  0
   -3.3762   -2.6444   -0.3912 H   0  0  0  0  0  0  0  0  0  0  0  0
   -1.5882   -2.1554    0.6658 C   0  0  0  0  0  0  0  0  0  0  0  0
   -0.6832   -2.8764    1.0638 O   0  0  0  0  0  0  0  0  0  0  0  0
   -1.3952   -0.9084    0.2428 N   0  0  0  0  0  0  0  0  0  0  0  0
   -2.1972   -0.3644   -0.0422 H   0  0  0  0  0  0  0  0  0  0  0  0
   -0.1122   -0.1994    0.2658 C   0  0  1  0  0  0  0  0  0  0  0  0
    0.6131   -0.7748   -0.3153 H   0  0  0  0  0  0  0  0  0  0  0  0
   -0.2973    1.1841   -0.3966 C   0  0  0  0  0  0  0  0  0  0  0  0
    0.6432    1.4905   -0.8530 H   0  0  0  0  0  0  0  0  0  0  0  0
   -1.0498    1.1093   -1.1802 H   0  0  0  0  0  0  0  0  0  0  0  0
   -0.6961    2.2852    0.5727 C   0  0  0  0  0  0  0  0  0  0  0  0
   -1.3761    3.2424    0.2460 O   0  0  0  0  0  0  0  0  0  0  0  0
   -0.2750    2.1926    1.8106 N   0  0  0  0  0  0  0  0  0  0  0  0
   -0.5686    2.9252    2.4325 H   0  0  0  0  0  0  0  0  0  0  0  0
    0.2696    1.4056    2.1089 H   0  0  0  0  0  0  0  0  0  0  0  0
    0.4075   -0.0985    1.7169 C   0  0  0  0  0  0  0  0  0  0  0  0
    1.5860   -0.3526    1.9662 O   0  0  0  0  0  0  0  0  0  0  0  0
   -0.4625    0.2583    2.6666 N   0  0  0  0  0  0  0  0  0  0  0  0
   -1.4309    0.3754    2.3860 H   0  0  0  0  0  0  0  0  0  0  0  0
   -0.1275    0.4111    4.0813 C   0  0  0  0  0  0  0  0  0  0  0  0
    0.6862    1.1312    4.1910 H   0  0  0  0  0  0  0  0  0  0  0  0
   -0.9980    0.7641    4.6360 H   0  0  0  0  0  0  0  0  0  0  0  0
    0.1959   -0.5481    4.4891 H   0  0  0  0  0  0  0  0  0  0  0  0
  5  6  2  0  0  0  0
  5  7  1  0  0  0  0
  2  3  1  0  0  0  0
  2  4  1  0  0  0  0
  2  5  1  0  0  0  0
  1  2  1  0  0  0  0
 19 20  2  0  0  0  0
 19 21  1  0  0  0  0
 16 17  1  0  0  0  0
 16 18  1  0  0  0  0
 14 15  2  0  0  0  0
 14 16  1  0  0  0  0
 11 12  1  0  0  0  0
 11 13  1  0  0  0  0
 11 14  1  0  0  0  0
  9 10  1  0  0  0  0
  9 11  1  0  0  0  0
  9 19  1  0  0  0  0
  7  8  1  0  0  0  0
  7  9  1  0  0  0  0
 23 24  1  0  0  0  0
 23 25  1  0  0  0  0
 23 26  1  0  0  0  0
 21 22  1  0  0  0  0
 21 23  1  0  0  0  0
M  END
$$$$
default_name
  -OEChem-02102213163D

 26 25  0     1  0  0  0  0  0999 V2000
   -3.0232   -3.6924    1.0038 H   0  0  0  0  0  0  0  0  0  0  0  0
   -3.0082   -2.6684    0.6318 C   0  0  0  0  0  0  0  0  0  0  0  0
   -3.6332   -2.0414    1.2658 H   0  0  0  0  0  0  0  0  0  0  0  0
   -3.3762   -2.6444   -0.3912 H   0  0  0  0  0  0  0  0  0  0  0  0
   -1.5882   -2.1554    0.6658 C   0  0  0  0  0  0  0  0  0  0  0  0
   -0.6832   -2.8764    1.0638 O   0  0  0  0  0  0  0  0  0  0  0  0
   -1.3952   -0.9084    0.2428 N   0  0  0  0  0  0  0  0  0  0  0  0
   -2.1972   -0.3644   -0.0422 H   0  0  0  0  0  0  0  0  0  0  0  0
   -0.1122   -0.1994    0.2658 C   0  0  1  0  0  0  0  0  0  0  0  0
    0.6131   -0.7748   -0.3153 H   0  0  0  0  0  0  0  0  0  0  0  0
   -0.2973    1.1841   -0.3966 C   0  0  0  0  0  0  0  0  0  0  0  0
    0.6432    1.4905   -0.8530 H   0  0  0  0  0  0  0  0  0  0  0  0
   -1.0498    1.1093   -1.1802 H   0  0  0  0  0  0  0  0  0  0  0  0
   -0.6961    2.2852    0.5727 C   0  0  0  0  0  0  0  0  0  0  0  0
   -1.5780    3.0918    0.3340 O   0  0  0  0  0  0  0  0  0  0  0  0
   -0.0475    2.3644    1.7091 N   0  0  0  0  0  0  0  0  0  0  0  0
   -0.3443    3.0906    2.3369 H   0  0  0  0  0  0  0  0  0  0  0  0
    0.6690    1.7014    1.9372 H   0  0  0  0  0  0  0  0  0  0  0  0
    0.4075   -0.0985    1.7169 C   0  0  0  0  0  0  0  0  0  0  0  0
    1.5860   -0.3526    1.9662 O   0  0  0  0  0  0  0  0  0  0  0  0
   -0.4625    0.2583    2.6666 N   0  0  0  0  0  0  0  0  0  0  0  0
   -1.4309    0.3754    2.3860 H   0  0  0  0  0  0  0  0  0  0  0  0
   -0.1275    0.4111    4.0813 C   0  0  0  0  0  0  0  0  0  0  0  0
    0.6862    1.1312    4.1910 H   0  0  0  0  0  0  0  0  0  0  0  0
   -0.9980    0.7641    4.6360 H   0  0  0  0  0  0  0  0  0  0  0  0
    0.1959   -0.5481    4.4891 H   0  0  0  0  0  0  0  0  0  0  0  0
  5  6  2  0  0  0  0
  5  7  1  0  0  0  0
  2  3  1  0  0  0  0
  2  4  1  0  0  0  0
  2  5  1  0  0  0  0
  1  2  1  0  0  0  0
 19 20  2  0  0  0  0
 19 21  1  0  0  0  0
 16 17  1  0  0  0  0
 16 18  1  0  0  0  0
 14 15  2  0  0  0  0
 14 16  1  0  0  0  0
 11 12  1  0  0  0  0
 11 13  1  0  0  0  0
 11 14  1  0  0  0  0
  9 10  1  0  0  0  0
  9 11  1  0  0  0  0
  9 19  1  0  0  0  0
  7  8  1  0  0  0  0
  7  9  1  0  0  0  0
 23 24  1  0  0  0  0
 23 25  1  0  0  0  0
 23 26  1  0  0  0  0
 21 22  1  0  0  0  0
 21 23  1  0  0  0  0
M  END
$$$$
default_name
  -OEChem-02102213163D

 26 25  0     1  0  0  0  0  0999 V2000
   -3.0232   -3.6924    1.0038 H   0  0  0  0  0  0  0  0  0  0  0  0
   -3.0082   -2.6684    0.6318 C   0  0  0  0  0  0  0  0  0  0  0  0
   -3.6332   -2.0414    1.2658 H   0  0  0  0  0  0  0  0  0  0  0  0
   -3.3762   -2.6444   -0.3912 H   0  0  0  0  0  0  0  0  0  0  0  0
   -1.5882   -2.1554    0.6658 C   0  0  0  0  0  0  0  0  0  0  0  0
   -0.6832   -2.8764    1.0638 O   0  0  0  0  0  0  0  0  0  0  0  0
   -1.3952   -0.9084    0.2428 N   0  0  0  0  0  0  0  0  0  0  0  0
   -2.1972   -0.3644   -0.0422 H   0  0  0  0  0  0  0  0  0  0  0  0
   -0.1122   -0.1994    0.2658 C   0  0  1  0  0  0  0  0  0  0  0  0
    0.6131   -0.7748   -0.3153 H   0  0  0  0  0  0  0  0  0  0  0  0
   -0.2973    1.1841   -0.3966 C   0  0  0  0  0  0  0  0  0  0  0  0
    0.6432    1.4905   -0.8530 H   0  0  0  0  0  0  0  0  0  0  0  0
   -1.0498    1.1093   -1.1802 H   0  0  0  0  0  0  0  0  0  0  0  0
   -0.6961    2.2852    0.5727 C   0  0  0  0  0  0  0  0  0  0  0  0
   -1.7318    2.9189    0.4672 O   0  0  0  0  0  0  0  0  0  0  0  0
    0.1249    2.5610    1.5566 N   0  0  0  0  0  0  0  0  0  0  0  0
   -0.1729    3.2809    2.1912 H   0  0  0  0  0  0  0  0  0  0  0  0
    0.9739    2.0414    1.6764 H   0  0  0  0  0  0  0  0  0  0  0  0
    0.4075   -0.0985    1.7169 C   0  0  0  0  0  0  0  0  0  0  0  0
    1.5860   -0.3526    1.9662 O   0  0  0  0  0  0  0  0  0  0  0  0
   -0.4625    0.2583    2.6666 N   0  0  0  0  0  0  0  0  0  0  0  0
   -1.4309    0.3754    2.3860 H   0  0  0  0  0  0  0  0  0  0  0  0
   -0.1275    0.4111    4.0813 C   0  0  0  0  0  0  0  0  0  0  0  0
    0.6862    1.1312    4.1910 H   0  0  0  0  0  0  0  0  0  0  0  0
   -0.9980    0.7641    4.6360 H   0  0  0  0  0  0  0  0  0  0  0  0
    0.1959   -0.5481    4.4891 H   0  0  0  0  0  0  0  0  0  0  0  0
  5  6  2  0  0  0  0
  5  7  1  0  0  0  0
  2  3  1  0  0  0  0
  2  4  1  0  0  0  0
  2  5  1  0  0  0  0
  1  2  1  0  0  0  0
 19 20  2  0  0  0  0
 19 21  1  0  0  0  0
 16 17  1  0  0  0  0
 16 18  1  0  0  0  0
 14 15  2  0  0  0  0
 14 16  1  0  0  0  0
 11 12  1  0  0  0  0
 11 13  1  0  0  0  0
 11 14  1  0  0  0  0
  9 10  1  0  0  0  0
  9 11  1  0  0  0  0
  9 19  1  0  0  0  0
  7  8  1  0  0  0  0
  7  9  1  0  0  0  0
 23 24  1  0  0  0  0
 23 25  1  0  0  0  0
 23 26  1  0  0  0  0
 21 22  1  0  0  0  0
 21 23  1  0  0  0  0
M  END
$$$$
default_name
  -OEChem-02102213163D

 26 25  0     1  0  0  0  0  0999 V2000
   -3.0232   -3.6924    1.0038 H   0  0  0  0  0  0  0  0  0  0  0  0
   -3.0082   -2.6684    0.6318 C   0  0  0  0  0  0  0  0  0  0  0  0
   -3.6332   -2.0414    1.2658 H   0  0  0  0  0  0  0  0  0  0  0  0
   -3.3762   -2.6444   -0.3912 H   0  0  0  0  0  0  0  0  0  0  0  0
   -1.5882   -2.1554    0.6658 C   0  0  0  0  0  0  0  0  0  0  0  0
   -0.6832   -2.8764    1.0638 O   0  0  0  0  0  0  0  0  0  0  0  0
   -1.3952   -0.9084    0.2428 N   0  0  0  0  0  0  0  0  0  0  0  0
   -2.1972   -0.3644   -0.0422 H   0  0  0  0  0  0  0  0  0  0  0  0
   -0.1122   -0.1994    0.2658 C   0  0  1  0  0  0  0  0  0  0  0  0
    0.6131   -0.7748   -0.3153 H   0  0  0  0  0  0  0  0  0  0  0  0
   -0.2973    1.1841   -0.3966 C   0  0  0  0  0  0  0  0  0  0  0  0
    0.6432    1.4905   -0.8530 H   0  0  0  0  0  0  0  0  0  0  0  0
   -1.0498    1.1093   -1.1802 H   0  0  0  0  0  0  0  0  0  0  0  0
   -0.6961    2.2852    0.5727 C   0  0  0  0  0  0  0  0  0  0  0  0
   -1.8268    2.7356    0.6363 O   0  0  0  0  0  0  0  0  0  0  0  0
    0.2304    2.7690    1.3638 N   0  0  0  0  0  0  0  0  0  0  0  0
   -0.0661    3.4831    2.0055 H   0  0  0  0  0  0  0  0  0  0  0  0
    1.1633    2.4024    1.3442 H   0  0  0  0  0  0  0  0  0  0  0  0
    0.4075   -0.0985    1.7169 C   0  0  0  0  0  0  0  0  0  0  0  0
    1.5860   -0.3526    1.9662 O   0  0  0  0  0  0  0  0  0  0  0  0
   -0.4625    0.2583    2.6666 N   0  0  0  0  0  0  0  0  0  0  0  0
   -1.4309    0.3754    2.3860 H   0  0  0  0  0  0  0  0  0  0  0  0
   -0.1275    0.4111    4.0813 C   0  0  0  0  0  0  0  0  0  0  0  0
    0.6862    1.1312    4.1910 H   0  0  0  0  0  0  0  0  0  0  0  0
   -0.9980    0.7641    4.6360 H   0  0  0  0  0  0  0  0  0  0  0  0
    0.1959   -0.5481    4.4891 H   0  0  0  0  0  0  0  0  0  0  0  0
  5  6  2  0  0  0  0
  5  7  1  0  0  0  0
  2  3  1  0  0  0  0
  2  4  1  0  0  0  0
  2  5  1  0  0  0  0
  1  2  1  0  0  0  0
 19 20  2  0  0  0  0
 19 21  1  0  0  0  0
 16 17  1  0  0  0  0
 16 18  1  0  0  0  0
 14 15  2  0  0  0  0
 14 16  1  0  0  0  0
 11 12  1  0  0  0  0
 11 13  1  0  0  0  0
 11 14  1  0  0  0  0
  9 10  1  0  0  0  0
  9 11  1  0  0  0  0
  9 19  1  0  0  0  0
  7  8  1  0  0  0  0
  7  9  1  0  0  0  0
 23 24  1  0  0  0  0
 23 25  1  0  0  0  0
 23 26  1  0  0  0  0
 21 22  1  0  0  0  0
 21 23  1  0  0  0  0
M  END
$$$$
default_name
  -OEChem-02102213163D

 26 25  0     1  0  0  0  0  0999 V2000
   -3.0232   -3.6924    1.0038 H   0  0  0  0  0  0  0  0  0  0  0  0
   -3.0082   -2.6684    0.6318 C   0  0  0  0  0  0  0  0  0  0  0  0
   -3.6332   -2.0414    1.2658 H   0  0  0  0  0  0  0  0  0  0  0  0
   -3.3762   -2.6444   -0.3912 H   0  0  0  0  0  0  0  0  0  0  0  0
   -1.5882   -2.1554    0.6658 C   0  0  0  0  0  0  0  0  0  0  0  0
   -0.6832   -2.8764    1.0638 O   0  0  0  0  0  0  0  0  0  0  0  0
   -1.3952   -0.9084    0.2428 N   0  0  0  0  0  0  0  0  0  0  0  0
   -2.1972   -0.3644   -0.0422 H   0  0  0  0  0  0  0  0  0  0  0  0
   -0.1122   -0.1994    0.2658 C   0  0  1  0  0  0  0  0  0  0  0  0
    0.6131   -0.7748   -0.3153 H   0  0  0  0  0  0  0  0  0  0  0  0
   -0.2973    1.1841   -0.3966 C   0  0  0  0  0  0  0  0  0  0  0  0
    0.6432    1.4905   -0.8530 H   0  0  0  0  0  0  0  0  0  0  0  0
   -1.0498    1.1093   -1.1802 H   0  0  0  0  0  0  0  0  0  0  0  0
   -0.6961    2.2852    0.5727 C   0  0  0  0  0  0  0  0  0  0  0  0
   -1.8566    2.5544    0.8299 O   0  0  0  0  0  0  0  0  0  0  0  0
    0.2619    2.9742    1.1436 N   0  0  0  0  0  0  0  0  0  0  0  0
   -0.0310    3.6834    1.7923 H   0  0  0  0  0  0  0  0  0  0  0  0
    1.2245    2.7599    0.9633 H   0  0  0  0  0  0  0  0  0  0  0  0
    0.4075   -0.0985    1.7169 C   0  0  0  0  0  0  0  0  0  0  0  0
    1.5860   -0.3526    1.9662 O   0  0  0  0  0  0  0  0  0  0  0  0
   -0.4625    0.2583    2.6666 N   0  0  0  0  0  0  0  0  0  0  0  0
   -1.4309    0.3754    2.3860 H   0  0  0  0  0  0  0  0  0  0  0  0
   -0.1275    0.4111    4.0813 C   0  0  0  0  0  0  0  0  0  0  0  0
    0.6862    1.1312    4.1910 H   0  0  0  0  0  0  0  0  0  0  0  0
   -0.9980    0.7641    4.6360 H   0  0  0  0  0  0  0  0  0  0  0  0
    0.1959   -0.5481    4.4891 H   0  0  0  0  0  0  0  0  0  0  0  0
  5  6  2  0  0  0  0
  5  7  1  0  0  0  0
  2  3  1  0  0  0  0
  2  4  1  0  0  0  0
  2  5  1  0  0  0  0
  1  2  1  0  0  0  0
 19 20  2  0  0  0  0
 19 21  1  0  0  0  0
 16 17  1  0  0  0  0
 16 18  1  0  0  0  0
 14 15  2  0  0  0  0
 14 16  1  0  0  0  0
 11 12  1  0  0  0  0
 11 13  1  0  0  0  0
 11 14  1  0  0  0  0
  9 10  1  0  0  0  0
  9 11  1  0  0  0  0
  9 19  1  0  0  0  0
  7  8  1  0  0  0  0
  7  9  1  0  0  0  0
 23 24  1  0  0  0  0
 23 25  1  0  0  0  0
 23 26  1  0  0  0  0
 21 22  1  0  0  0  0
 21 23  1  0  0  0  0
M  END
$$$$
default_name
  -OEChem-02102213163D

 26 25  0     1  0  0  0  0  0999 V2000
   -3.0232   -3.6924    1.0038 H   0  0  0  0  0  0  0  0  0  0  0  0
   -3.0082   -2.6684    0.6318 C   0  0  0  0  0  0  0  0  0  0  0  0
   -3.6332   -2.0414    1.2658 H   0  0  0  0  0  0  0  0  0  0  0  0
   -3.3762   -2.6444   -0.3912 H   0  0  0  0  0  0  0  0  0  0  0  0
   -1.5882   -2.1554    0.6658 C   0  0  0  0  0  0  0  0  0  0  0  0
   -0.6832   -2.8764    1.0638 O   0  0  0  0  0  0  0  0  0  0  0  0
   -1.3952   -0.9084    0.2428 N   0  0  0  0  0  0  0  0  0  0  0  0
   -2.1972   -0.3644   -0.0422 H   0  0  0  0  0  0  0  0  0  0  0  0
   -0.1122   -0.1994    0.2658 C   0  0  1  0  0  0  0  0  0  0  0  0
    0.6131   -0.7748   -0.3153 H   0  0  0  0  0  0  0  0  0  0  0  0
   -0.2973    1.1841   -0.3966 C   0  0  0  0  0  0  0  0  0  0  0  0
    0.6432    1.4905   -0.8530 H   0  0  0  0  0  0  0  0  0  0  0  0
   -1.0498    1.1093   -1.1802 H   0  0  0  0  0  0  0  0  0  0  0  0
   -0.6961    2.2852    0.5727 C   0  0  0  0  0  0  0  0  0  0  0  0
   -1.8191    2.3876    1.0349 O   0  0  0  0  0  0  0  0  0  0  0  0
    0.2171    3.1627    0.9110 N   0  0  0  0  0  0  0  0  0  0  0  0
   -0.0702    3.8682    1.5663 H   0  0  0  0  0  0  0  0  0  0  0  0
    1.1531    3.0893    0.5596 H   0  0  0  0  0  0  0  0  0  0  0  0
    0.4075   -0.0985    1.7169 C   0  0  0  0  0  0  0  0  0  0  0  0
    1.5860   -0.3526    1.9662 O   0  0  0  0  0  0  0  0  0  0  0  0
   -0.4625    0.2583    2.6666 N   0  0  0  0  0  0  0  0  0  0  0  0
   -1.4309    0.3754    2.3860 H   0  0  0  0  0  0  0  0  0  0  0  0
   -0.1275    0.4111    4.0813 C   0  0  0  0  0  0  0  0  0  0  0  0
    0.6862    1.1312    4.1910 H   0  0  0  0  0  0  0  0  0  0  0  0
   -0.9980    0.7641    4.6360 H   0  0  0  0  0  0  0  0  0  0  0  0
    0.1959   -0.5481    4.4891 H   0  0  0  0  0  0  0  0  0  0  0  0
  5  6  2  0  0  0  0
  5  7  1  0  0  0  0
  2  3  1  0  0  0  0
  2  4  1  0  0  0  0
  2  5  1  0  0  0  0
  1  2  1  0  0  0  0
 19 20  2  0  0  0  0
 19 21  1  0  0  0  0
 16 17  1  0  0  0  0
 16 18  1  0  0  0  0
 14 15  2  0  0  0  0
 14 16  1  0  0  0  0
 11 12  1  0  0  0  0
 11 13  1  0  0  0  0
 11 14  1  0  0  0  0
  9 10  1  0  0  0  0
  9 11  1  0  0  0  0
  9 19  1  0  0  0  0
  7  8  1  0  0  0  0
  7  9  1  0  0  0  0
 23 24  1  0  0  0  0
 23 25  1  0  0  0  0
 23 26  1  0  0  0  0
 21 22  1  0  0  0  0
 21 23  1  0  0  0  0
M  END
$$$$
default_name
  -OEChem-02102213163D

 26 25  0     1  0  0  0  0  0999 V2000
   -3.0232   -3.6924    1.0038 H   0  0  0  0  0  0  0  0  0  0  0  0
   -3.0082   -2.6684    0.6318 C   0  0  0  0  0  0  0  0  0  0  0  0
   -3.6332   -2.0414    1.2658 H   0  0  0  0  0  0  0  0  0  0  0  0
   -3.3762   -2.6444   -0.3912 H   0  0  0  0  0  0  0  0  0  0  0  0
   -1.5882   -2.1554    0.6658 C   0  0  0  0  0  0  0  0  0  0  0  0
   -0.6832   -2.8764    1.0638 O   0  0  0  0  0  0  0  0  0  0  0  0
   -1.3952   -0.9084    0.2428 N   0  0  0  0  0  0  0  0  0  0  0  0
   -2.1972   -0.3644   -0.0422 H   0  0  0  0  0  0  0  0  0  0  0  0
   -0.1122   -0.1994    0.2658 C   0  0  1  0  0  0  0  0  0  0  0  0
    0.6131   -0.7748   -0.3153 H   0  0  0  0  0  0  0  0  0  0  0  0
   -0.2973    1.1841   -0.3966 C   0  0  0  0  0  0  0  0  0  0  0  0
    0.6432    1.4905   -0.8530 H   0  0  0  0  0  0  0  0  0  0  0  0
   -1.0498    1.1093   -1.1802 H   0  0  0  0  0  0  0  0  0  0  0  0
   -0.6961    2.2852    0.5727 C   0  0  0  0  0  0  0  0  0  0  0  0
   -1.7170    2.2465    1.2371 O   0  0  0  0  0  0  0  0  0  0  0  0
    0.0991    3.3216    0.6820 N   0  0  0  0  0  0  0  0  0  0  0  0
   -0.1809    4.0249    1.3427 H   0  0  0  0  0  0  0  0  0  0  0  0
    0.9542    3.3684    0.1607 H   0  0  0  0  0  0  0  0  0  0  0  0
    0.4075   -0.0985    1.7169 C   0  0  0  0  0  0  0  0  0  0  0  0
    1.5860   -0.3526    1.9662 O   0  0  0  0  0  0  0  0  0  0  0  0
   -0.4625    0.2583    2.6666 N   0  0  0  0  0  0  0  0  0  0  0  0
   -1.4309    0.3754    2.3860 H   0  0  0  0  0  0  0  0  0  0  0  0
   -0.1275    0.4111    4.0813 C   0  0  0  0  0  0  0  0  0  0  0  0
    0.6862    1.1312    4.1910 H   0  0  0  0  0  0  0  0  0  0  0  0
   -0.9980    0.7641    4.6360 H   0  0  0  0  0  0  0  0  0  0  0  0
    0.1959   -0.5481    4.4891 H   0  0  0  0  0  0  0  0  0  0  0  0
  5  6  2  0  0  0  0
  5  7  1  0  0  0  0
  2  3  1  0  0  0  0
  2  4  1  0  0  0  0
  2  5  1  0  0  0  0
  1  2  1  0  0  0  0
 19 20  2  0  0  0  0
 19 21  1  0  0  0  0
 16 17  1  0  0  0  0
 16 18  1  0  0  0  0
 14 15  2  0  0  0  0
 14 16  1  0  0  0  0
 11 12  1  0  0  0  0
 11 13  1  0  0  0  0
 11 14  1  0  0  0  0
  9 10  1  0  0  0  0
  9 11  1  0  0  0  0
  9 19  1  0  0  0  0
  7  8  1  0  0  0  0
  7  9  1  0  0  0  0
 23 24  1  0  0  0  0
 23 25  1  0  0  0  0
 23 26  1  0  0  0  0
 21 22  1  0  0  0  0
 21 23  1  0  0  0  0
M  END
$$$$
default_name
  -OEChem-02102213163D

 26 25  0     1  0  0  0  0  0999 V2000
   -3.0232   -3.6924    1.0038 H   0  0  0  0  0  0  0  0  0  0  0  0
   -3.0082   -2.6684    0.6318 C   0  0  0  0  0  0  0  0  0  0  0  0
   -3.6332   -2.0414    1.2658 H   0  0  0  0  0  0  0  0  0  0  0  0
   -3.3762   -2.6444   -0.3912 H   0  0  0  0  0  0  0  0  0  0  0  0
   -1.5882   -2.1554    0.6658 C   0  0  0  0  0  0  0  0  0  0  0  0
   -0.6832   -2.8764    1.0638 O   0  0  0  0  0  0  0  0  0  0  0  0
   -1.3952   -0.9084    0.2428 N   0  0  0  0  0  0  0  0  0  0  0  0
   -2.1972   -0.3644   -0.0422 H   0  0  0  0  0  0  0  0  0  0  0  0
   -0.1122   -0.1994    0.2658 C   0  0  1  0  0  0  0  0  0  0  0  0
    0.6131   -0.7748   -0.3153 H   0  0  0  0  0  0  0  0  0  0  0  0
   -0.2973    1.1841   -0.3966 C   0  0  0  0  0  0  0  0  0  0  0  0
    0.6432    1.4905   -0.8530 H   0  0  0  0  0  0  0  0  0  0  0  0
   -1.0498    1.1093   -1.1802 H   0  0  0  0  0  0  0  0  0  0  0  0
   -0.6961    2.2852    0.5727 C   0  0  0  0  0  0  0  0  0  0  0  0
   -1.5572    2.1409    1.4229 O   0  0  0  0  0  0  0  0  0  0  0  0
   -0.0839    3.4400    0.4721 N   0  0  0  0  0  0  0  0  0  0  0  0
   -0.3557    4.1428    1.1369 H   0  0  0  0  0  0  0  0  0  0  0  0
    0.6412    3.5781   -0.2063 H   0  0  0  0  0  0  0  0  0  0  0  0
    0.4075   -0.0985    1.7169 C   0  0  0  0  0  0  0  0  0  0  0  0
    1.5860   -0.3526    1.9662 O   0  0  0  0  0  0  0  0  0  0  0  0
   -0.4625    0.2583    2.6666 N   0  0  0  0  0  0  0  0  0  0  0  0
   -1.4309    0.3754    2.3860 H   0  0  0  0  0  0  0  0  0  0  0  0
   -0.1275    0.4111    4.0813 C   0  0  0  0  0  0  0  0  0  0  0  0
    0.6862    1.1312    4.1910 H   0  0  0  0  0  0  0  0  0  0  0  0
   -0.9980    0.7641    4.6360 H   0  0  0  0  0  0  0  0  0  0  0  0
    0.1959   -0.5481    4.4891 H   0  0  0  0  0  0  0  0  0  0  0  0
  5  6  2  0  0  0  0
  5  7  1  0  0  0  0
  2  3  1  0  0  0  0
  2  4  1  0  0  0  0
  2  5  1  0  0  0  0
  1  2  1  0  0  0  0
 19 20  2  0  0  0  0
 19 21  1  0  0  0  0
 16 17  1  0  0  0  0
 16 18  1  0  0  0  0
 14 15  2  0  0  0  0
 14 16  1  0  0  0  0
 11 12  1  0  0  0  0
 11 13  1  0  0  0  0
 11 14  1  0  0  0  0
  9 10  1  0  0  0  0
  9 11  1  0  0  0  0
  9 19  1  0  0  0  0
  7  8  1  0  0  0  0
  7  9  1  0  0  0  0
 23 24  1  0  0  0  0
 23 25  1  0  0  0  0
 23 26  1  0  0  0  0
 21 22  1  0  0  0  0
 21 23  1  0  0  0  0
M  END
$$$$
default_name
  -OEChem-02102213163D

 26 25  0     1  0  0  0  0  0999 V2000
   -3.0232   -3.6924    1.0038 H   0  0  0  0  0  0  0  0  0  0  0  0
   -3.0082   -2.6684    0.6318 C   0  0  0  0  0  0  0  0  0  0  0  0
   -3.6332   -2.0414    1.2658 H   0  0  0  0  0  0  0  0  0  0  0  0
   -3.3762   -2.6444   -0.3912 H   0  0  0  0  0  0  0  0  0  0  0  0
   -1.5882   -2.1554    0.6658 C   0  0  0  0  0  0  0  0  0  0  0  0
   -0.6832   -2.8764    1.0638 O   0  0  0  0  0  0  0  0  0  0  0  0
   -1.3952   -0.9084    0.2428 N   0  0  0  0  0  0  0  0  0  0  0  0
   -2.1972   -0.3644   -0.0422 H   0  0  0  0  0  0  0  0  0  0  0  0
   -0.1122   -0.1994    0.2658 C   0  0  1  0  0  0  0  0  0  0  0  0
    0.6131   -0.7748   -0.3153 H   0  0  0  0  0  0  0  0  0  0  0  0
   -0.2973    1.1841   -0.3966 C   0  0  0  0  0  0  0  0  0  0  0  0
    0.6432    1.4905   -0.8530 H   0  0  0  0  0  0  0  0  0  0  0  0
   -1.0498    1.1093   -1.1802 H   0  0  0  0  0  0  0  0  0  0  0  0
   -0.6961    2.2852    0.5727 C   0  0  0  0  0  0  0  0  0  0  0  0
   -1.3506    2.0778    1.5796 O   0  0  0  0  0  0  0  0  0  0  0  0
   -0.3197    3.5099    0.2957 N   0  0  0  0  0  0  0  0  0  0  0  0
   -0.5825    4.2139    0.9628 H   0  0  0  0  0  0  0  0  0  0  0  0
    0.2354    3.7040   -0.5163 H   0  0  0  0  0  0  0  0  0  0  0  0
    0.4075   -0.0985    1.7169 C   0  0  0  0  0  0  0  0  0  0  0  0
    1.5860   -0.3526    1.9662 O   0  0  0  0  0  0  0  0  0  0  0  0
   -0.4625    0.2583    2.6666 N   0  0  0  0  0  0  0  0  0  0  0  0
   -1.4309    0.3754    2.3860 H   0  0  0  0  0  0  0  0  0  0  0  0
   -0.1275    0.4111    4.0813 C   0  0  0  0  0  0  0  0  0  0  0  0
    0.6862    1.1312    4.1910 H   0  0  0  0  0  0  0  0  0  0  0  0
   -0.9980    0.7641    4.6360 H   0  0  0  0  0  0  0  0  0  0  0  0
    0.1959   -0.5481    4.4891 H   0  0  0  0  0  0  0  0  0  0  0  0
  5  6  2  0  0  0  0
  5  7  1  0  0  0  0
  2  3  1  0  0  0  0
  2  4  1  0  0  0  0
  2  5  1  0  0  0  0
  1  2  1  0  0  0  0
 19 20  2  0  0  0  0
 19 21  1  0  0  0  0
 16 17  1  0  0  0  0
 16 18  1  0  0  0  0
 14 15  2  0  0  0  0
 14 16  1  0  0  0  0
 11 12  1  0  0  0  0
 11 13  1  0  0  0  0
 11 14  1  0  0  0  0
  9 10  1  0  0  0  0
  9 11  1  0  0  0  0
  9 19  1  0  0  0  0
  7  8  1  0  0  0  0
  7  9  1  0  0  0  0
 23 24  1  0  0  0  0
 23 25  1  0  0  0  0
 23 26  1  0  0  0  0
 21 22  1  0  0  0  0
 21 23  1  0  0  0  0
M  END
$$$$
default_name
  -OEChem-02102213163D

 26 25  0     1  0  0  0  0  0999 V2000
   -3.0232   -3.6924    1.0038 H   0  0  0  0  0  0  0  0  0  0  0  0
   -3.0082   -2.6684    0.6318 C   0  0  0  0  0  0  0  0  0  0  0  0
   -3.6332   -2.0414    1.2658 H   0  0  0  0  0  0  0  0  0  0  0  0
   -3.3762   -2.6444   -0.3912 H   0  0  0  0  0  0  0  0  0  0  0  0
   -1.5882   -2.1554    0.6658 C   0  0  0  0  0  0  0  0  0  0  0  0
   -0.6832   -2.8764    1.0638 O   0  0  0  0  0  0  0  0  0  0  0  0
   -1.3952   -0.9084    0.2428 N   0  0  0  0  0  0  0  0  0  0  0  0
   -2.1972   -0.3644   -0.0422 H   0  0  0  0  0  0  0  0  0  0  0  0
   -0.1122   -0.1994    0.2658 C   0  0  1  0  0  0  0  0  0  0  0  0
    0.6131   -0.7748   -0.3153 H   0  0  0  0  0  0  0  0  0  0  0  0
   -0.2973    1.1841   -0.3966 C   0  0  0  0  0  0  0  0  0  0  0  0
    0.6432    1.4905   -0.8530 H   0  0  0  0  0  0  0  0  0  0  0  0
   -1.0498    1.1093   -1.1802 H   0  0  0  0  0  0  0  0  0  0  0  0
   -0.6961    2.2852    0.5727 C   0  0  0  0  0  0  0  0  0  0  0  0
   -1.1112    2.0616    1.6965 O   0  0  0  0  0  0  0  0  0  0  0  0
   -0.5920    3.5266    0.1647 N   0  0  0  0  0  0  0  0  0  0  0  0
   -0.8459    4.2333    0.8324 H   0  0  0  0  0  0  0  0  0  0  0  0
   -0.2354    3.7376   -0.7482 H   0  0  0  0  0  0  0  0  0  0  0  0
    0.4075   -0.0985    1.7169 C   0  0  0  0  0  0  0  0  0  0  0  0
    1.5860   -0.3526    1.9662 O   0  0  0  0  0  0  0  0  0  0  0  0
   -0.4625    0.2583    2.6666 N   0  0  0  0  0  0  0  0  0  0  0  0
   -1.4309    0.3754    2.3860 H   0  0  0  0  0  0  0  0  0  0  0  0
   -0.1275    0.4111    4.0813 C   0  0  0  0  0  0  0  0  0  0  0  0
    0.6862    1.1312    4.1910 H   0  0  0  0  0  0  0  0  0  0  0  0
   -0.9980    0.7641    4.6360 H   0  0  0  0  0  0  0  0  0  0  0  0
    0.1959   -0.5481    4.4891 H   0  0  0  0  0  0  0  0  0  0  0  0
  5  6  2  0  0  0  0
  5  7  1  0  0  0  0
  2  3  1  0  0  0  0
  2  4  1  0  0  0  0
  2  5  1  0  0  0  0
  1  2  1  0  0  0  0
 19 20  2  0  0  0  0
 19 21  1  0  0  0  0
 16 17  1  0  0  0  0
 16 18  1  0  0  0  0
 14 15  2  0  0  0  0
 14 16  1  0  0  0  0
 11 12  1  0  0  0  0
 11 13  1  0  0  0  0
 11 14  1  0  0  0  0
  9 10  1  0  0  0  0
  9 11  1  0  0  0  0
  9 19  1  0  0  0  0
  7  8  1  0  0  0  0
  7  9  1  0  0  0  0
 23 24  1  0  0  0  0
 23 25  1  0  0  0  0
 23 26  1  0  0  0  0
 21 22  1  0  0  0  0
 21 23  1  0  0  0  0
M  END
$$$$
default_name
  -OEChem-02102213163D

 26 25  0     1  0  0  0  0  0999 V2000
   -3.0232   -3.6924    1.0038 H   0  0  0  0  0  0  0  0  0  0  0  0
   -3.0082   -2.6684    0.6318 C   0  0  0  0  0  0  0  0  0  0  0  0
   -3.6332   -2.0414    1.2658 H   0  0  0  0  0  0  0  0  0  0  0  0
   -3.3762   -2.6444   -0.3912 H   0  0  0  0  0  0  0  0  0  0  0  0
   -1.5882   -2.1554    0.6658 C   0  0  0  0  0  0  0  0  0  0  0  0
   -0.6832   -2.8764    1.0638 O   0  0  0  0  0  0  0  0  0  0  0  0
   -1.3952   -0.9084    0.2428 N   0  0  0  0  0  0  0  0  0  0  0  0
   -2.1972   -0.3644   -0.0422 H   0  0  0  0  0  0  0  0  0  0  0  0
   -0.1122   -0.1994    0.2658 C   0  0  1  0  0  0  0  0  0  0  0  0
    0.6131   -0.7748   -0.3153 H   0  0  0  0  0  0  0  0  0  0  0  0
   -0.2973    1.1841   -0.3966 C   0  0  0  0  0  0  0  0  0  0  0  0
    0.6432    1.4905   -0.8530 H   0  0  0  0  0  0  0  0  0  0  0  0
   -1.0498    1.1093   -1.1802 H   0  0  0  0  0  0  0  0  0  0  0  0
   -0.6961    2.2852    0.5727 C   0  0  0  0  0  0  0  0  0  0  0  0
   -0.8554    2.0934    1.7656 O   0  0  0  0  0  0  0  0  0  0  0  0
   -0.8824    3.4889    0.0881 N   0  0  0  0  0  0  0  0  0  0  0  0
   -1.1280    4.1997    0.7544 H   0  0  0  0  0  0  0  0  0  0  0  0
   -0.7392    3.6767   -0.8862 H   0  0  0  0  0  0  0  0  0  0  0  0
    0.4075   -0.0985    1.7169 C   0  0  0  0  0  0  0  0  0  0  0  0
    1.5860   -0.3526    1.9662 O   0  0  0  0  0  0  0  0  0  0  0  0
   -0.4625    0.2583    2.6666 N   0  0  0  0  0  0  0  0  0  0  0  0
   -1.4309    0.3754    2.3860 H   0  0  0  0  0  0  0  0  0  0  0  0
   -0.1275    0.4111    4.0813 C   0  0  0  0  0  0  0  0  0  0  0  0
    0.6862    1.1312    4.1910 H   0  0  0  0  0  0  0  0  0  0  0  0
   -0.9980    0.7641    4.6360 H   0  0  0  0  0  0  0  0  0  0  0  0
    0.1959   -0.5481    4.4891 H   0  0  0  0  0  0  0  0  0  0  0  0
  5  6  2  0  0  0  0
  5  7  1  0  0  0  0
  2  3  1  0  0  0  0
  2  4  1  0  0  0  0
  2  5  1  0  0  0  0
  1  2  1  0  0  0  0
 19 20  2  0  0  0  0
 19 21  1  0  0  0  0
 16 17  1  0  0  0  0
 16 18  1  0  0  0  0
 14 15  2  0  0  0  0
 14 16  1  0  0  0  0
 11 12  1  0  0  0  0
 11 13  1  0  0  0  0
 11 14  1  0  0  0  0
  9 10  1  0  0  0  0
  9 11  1  0  0  0  0
  9 19  1  0  0  0  0
  7  8  1  0  0  0  0
  7  9  1  0  0  0  0
 23 24  1  0  0  0  0
 23 25  1  0  0  0  0
 23 26  1  0  0  0  0
 21 22  1  0  0  0  0
 21 23  1  0  0  0  0
M  END
$$$$
default_name
  -OEChem-02102213163D

 26 25  0     1  0  0  0  0  0999 V2000
   -3.0232   -3.6924    1.0038 H   0  0  0  0  0  0  0  0  0  0  0  0
   -3.0082   -2.6684    0.6318 C   0  0  0  0  0  0  0  0  0  0  0  0
   -3.6332   -2.0414    1.2658 H   0  0  0  0  0  0  0  0  0  0  0  0
   -3.3762   -2.6444   -0.3912 H   0  0  0  0  0  0  0  0  0  0  0  0
   -1.5882   -2.1554    0.6658 C   0  0  0  0  0  0  0  0  0  0  0  0
   -0.6832   -2.8764    1.0638 O   0  0  0  0  0  0  0  0  0  0  0  0
   -1.3952   -0.9084    0.2428 N   0  0  0  0  0  0  0  0  0  0  0  0
   -2.1972   -0.3644   -0.0422 H   0  0  0  0  0  0  0  0  0  0  0  0
   -0.1122   -0.1994    0.2658 C   0  0  1  0  0  0  0  0  0  0  0  0
    0.6131   -0.7748   -0.3153 H   0  0  0  0  0  0  0  0  0  0  0  0
   -0.2973    1.1841   -0.3966 C   0  0  0  0  0  0  0  0  0  0  0  0
    0.6432    1.4905   -0.8530 H   0  0  0  0  0  0  0  0  0  0  0  0
   -1.0498    1.1093   -1.1802 H   0  0  0  0  0  0  0  0  0  0  0  0
   -0.6961    2.2852    0.5727 C   0  0  0  0  0  0  0  0  0  0  0  0
   -0.6006    2.1710    1.7823 O   0  0  0  0  0  0  0  0  0  0  0  0
   -1.1710    3.3993    0.0711 N   0  0  0  0  0  0  0  0  0  0  0  0
   -1.4096    4.1154    0.7344 H   0  0  0  0  0  0  0  0  0  0  0  0
   -1.2416    3.5253   -0.9210 H   0  0  0  0  0  0  0  0  0  0  0  0
    0.4075   -0.0985    1.7169 C   0  0  0  0  0  0  0  0  0  0  0  0
    1.5860   -0.3526    1.9662 O   0  0  0  0  0  0  0  0  0  0  0  0
   -0.4625    0.2583    2.6666 N   0  0  0  0  0  0  0  0  0  0  0  0
   -1.4309    0.3754    2.3860 H   0  0  0  0  0  0  0  0  0  0  0  0
   -0.1275    0.4111    4.0813 C   0  0  0  0  0  0  0  0  0  0  0  0
    0.6862    1.1312    4.1910 H   0  0  0  0  0  0  0  0  0  0  0  0
   -0.9980    0.7641    4.6360 H   0  0  0  0  0  0  0  0  0  0  0  0
    0.1959   -0.5481    4.4891 H   0  0  0  0  0  0  0  0  0  0  0  0
  5  6  2  0  0  0  0
  5  7  1  0  0  0  0
  2  3  1  0  0  0  0
  2  4  1  0  0  0  0
  2  5  1  0  0  0  0
  1  2  1  0  0  0  0
 19 20  2  0  0  0  0
 19 21  1  0  0  0  0
 16 17  1  0  0  0  0
 16 18  1  0  0  0  0
 14 15  2  0  0  0  0
 14 16  1  0  0  0  0
 11 12  1  0  0  0  0
 11 13  1  0  0  0  0
 11 14  1  0  0  0  0
  9 10  1  0  0  0  0
  9 11  1  0  0  0  0
  9 19  1  0  0  0  0
  7  8  1  0  0  0  0
  7  9  1  0  0  0  0
 23 24  1  0  0  0  0
 23 25  1  0  0  0  0
 23 26  1  0  0  0  0
 21 22  1  0  0  0  0
 21 23  1  0  0  0  0
M  END
$$$$
default_name
  -OEChem-02102213163D

 26 25  0     1  0  0  0  0  0999 V2000
   -3.0232   -3.6924    1.0038 H   0  0  0  0  0  0  0  0  0  0  0  0
   -3.0082   -2.6684    0.6318 C   0  0  0  0  0  0  0  0  0  0  0  0
   -3.6332   -2.0414    1.2658 H   0  0  0  0  0  0  0  0  0  0  0  0
   -3.3762   -2.6444   -0.3912 H   0  0  0  0  0  0  0  0  0  0  0  0
   -1.5882   -2.1554    0.6658 C   0  0  0  0  0  0  0  0  0  0  0  0
   -0.6832   -2.8764    1.0638 O   0  0  0  0  0  0  0  0  0  0  0  0
   -1.3952   -0.9084    0.2428 N   0  0  0  0  0  0  0  0  0  0  0  0
   -2.1972   -0.3644   -0.0422 H   0  0  0  0  0  0  0  0  0  0  0  0
   -0.1122   -0.1994    0.2658 C   0  0  1  0  0  0  0  0  0  0  0  0
    0.6131   -0.7748   -0.3153 H   0  0  0  0  0  0  0  0  0  0  0  0
   -0.2973    1.1841   -0.3966 C   0  0  0  0  0  0  0  0  0  0  0  0
    0.6432    1.4905   -0.8530 H   0  0  0  0  0  0  0  0  0  0  0  0
   -1.0498    1.1093   -1.1802 H   0  0  0  0  0  0  0  0  0  0  0  0
   -0.6961    2.2852    0.5727 C   0  0  0  0  0  0  0  0  0  0  0  0
   -0.3642    2.2891    1.7453 O   0  0  0  0  0  0  0  0  0  0  0  0
   -1.4382    3.2641    0.1148 N   0  0  0  0  0  0  0  0  0  0  0  0
   -1.6715    3.9862    0.7735 H   0  0  0  0  0  0  0  0  0  0  0  0
   -1.7085    3.2938   -0.8501 H   0  0  0  0  0  0  0  0  0  0  0  0
    0.4075   -0.0985    1.7169 C   0  0  0  0  0  0  0  0  0  0  0  0
    1.5860   -0.3526    1.9662 O   0  0  0  0  0  0  0  0  0  0  0  0
   -0.4625    0.2583    2.6666 N   0  0  0  0  0  0  0  0  0  0  0  0
   -1.4309    0.3754    2.3860 H   0  0  0  0  0  0  0  0  0  0  0  0
   -0.1275    0.4111    4.0813 C   0  0  0  0  0  0  0  0  0  0  0  0
    0.6862    1.1312    4.1910 H   0  0  0  0  0  0  0  0  0  0  0  0
   -0.9980    0.7641    4.6360 H   0  0  0  0  0  0  0  0  0  0  0  0
    0.1959   -0.5481    4.4891 H   0  0  0  0  0  0  0  0  0  0  0  0
  5  6  2  0  0  0  0
  5  7  1  0  0  0  0
  2  3  1  0  0  0  0
  2  4  1  0  0  0  0
  2  5  1  0  0  0  0
  1  2  1  0  0  0  0
 19 20  2  0  0  0  0
 19 21  1  0  0  0  0
 16 17  1  0  0  0  0
 16 18  1  0  0  0  0
 14 15  2  0  0  0  0
 14 16  1  0  0  0  0
 11 12  1  0  0  0  0
 11 13  1  0  0  0  0
 11 14  1  0  0  0  0
  9 10  1  0  0  0  0
  9 11  1  0  0  0  0
  9 19  1  0  0  0  0
  7  8  1  0  0  0  0
  7  9  1  0  0  0  0
 23 24  1  0  0  0  0
 23 25  1  0  0  0  0
 23 26  1  0  0  0  0
 21 22  1  0  0  0  0
 21 23  1  0  0  0  0
M  END
$$$$
default_name
  -OEChem-02102213163D

 26 25  0     1  0  0  0  0  0999 V2000
   -3.0232   -3.6924    1.0038 H   0  0  0  0  0  0  0  0  0  0  0  0
   -3.0082   -2.6684    0.6318 C   0  0  0  0  0  0  0  0  0  0  0  0
   -3.6332   -2.0414    1.2658 H   0  0  0  0  0  0  0  0  0  0  0  0
   -3.3762   -2.6444   -0.3912 H   0  0  0  0  0  0  0  0  0  0  0  0
   -1.5882   -2.1554    0.6658 C   0  0  0  0  0  0  0  0  0  0  0  0
   -0.6832   -2.8764    1.0638 O   0  0  0  0  0  0  0  0  0  0  0  0
   -1.3952   -0.9084    0.2428 N   0  0  0  0  0  0  0  0  0  0  0  0
   -2.1972   -0.3644   -0.0422 H   0  0  0  0  0  0  0  0  0  0  0  0
   -0.1122   -0.1994    0.2658 C   0  0  1  0  0  0  0  0  0  0  0  0
    0.6131   -0.7748   -0.3153 H   0  0  0  0  0  0  0  0  0  0  0  0
   -0.2973    1.1841   -0.3966 C   0  0  0  0  0  0  0  0  0  0  0  0
    0.6432    1.4905   -0.8530 H   0  0  0  0  0  0  0  0  0  0  0  0
   -1.0498    1.1093   -1.1802 H   0  0  0  0  0  0  0  0  0  0  0  0
   -0.6961    2.2852    0.5727 C   0  0  0  0  0  0  0  0  0  0  0  0
   -0.1622    2.4397    1.6573 O   0  0  0  0  0  0  0  0  0  0  0  0
   -1.6657    3.0923    0.2164 N   0  0  0  0  0  0  0  0  0  0  0  0
   -1.8957    3.8208    0.8691 H   0  0  0  0  0  0  0  0  0  0  0  0
   -2.1080    2.9980   -0.6784 H   0  0  0  0  0  0  0  0  0  0  0  0
    0.4075   -0.0985    1.7169 C   0  0  0  0  0  0  0  0  0  0  0  0
    1.5860   -0.3526    1.9662 O   0  0  0  0  0  0  0  0  0  0  0  0
   -0.4625    0.2583    2.6666 N   0  0  0  0  0  0  0  0  0  0  0  0
   -1.4309    0.3754    2.3860 H   0  0  0  0  0  0  0  0  0  0  0  0
   -0.1275    0.4111    4.0813 C   0  0  0  0  0  0  0  0  0  0  0  0
    0.6862    1.1312    4.1910 H   0  0  0  0  0  0  0  0  0  0  0  0
   -0.9980    0.7641    4.6360 H   0  0  0  0  0  0  0  0  0  0  0  0
    0.1959   -0.5481    4.4891 H   0  0  0  0  0  0  0  0  0  0  0  0
  5  6  2  0  0  0  0
  5  7  1  0  0  0  0
  2  3  1  0  0  0  0
  2  4  1  0  0  0  0
  2  5  1  0  0  0  0
  1  2  1  0  0  0  0
 19 20  2  0  0  0  0
 19 21  1  0  0  0  0
 16 17  1  0  0  0  0
 16 18  1  0  0  0  0
 14 15  2  0  0  0  0
 14 16  1  0  0  0  0
 11 12  1  0  0  0  0
 11 13  1  0  0  0  0
 11 14  1  0  0  0  0
  9 10  1  0  0  0  0
  9 11  1  0  0  0  0
  9 19  1  0  0  0  0
  7  8  1  0  0  0  0
  7  9  1  0  0  0  0
 23 24  1  0  0  0  0
 23 25  1  0  0  0  0
 23 26  1  0  0  0  0
 21 22  1  0  0  0  0
 21 23  1  0  0  0  0
M  END
$$$$
default_name
  -OEChem-02102213163D

 26 25  0     1  0  0  0  0  0999 V2000
   -3.0232   -3.6924    1.0038 H   0  0  0  0  0  0  0  0  0  0  0  0
   -3.0082   -2.6684    0.6318 C   0  0  0  0  0  0  0  0  0  0  0  0
   -3.6332   -2.0414    1.2658 H   0  0  0  0  0  0  0  0  0  0  0  0
   -3.3762   -2.6444   -0.3912 H   0  0  0  0  0  0  0  0  0  0  0  0
   -1.5882   -2.1554    0.6658 C   0  0  0  0  0  0  0  0  0  0  0  0
   -0.6832   -2.8764    1.0638 O   0  0  0  0  0  0  0  0  0  0  0  0
   -1.3952   -0.9084    0.2428 N   0  0  0  0  0  0  0  0  0  0  0  0
   -2.1972   -0.3644   -0.0422 H   0  0  0  0  0  0  0  0  0  0  0  0
   -0.1122   -0.1994    0.2658 C   0  0  1  0  0  0  0  0  0  0  0  0
    0.6131   -0.7748   -0.3153 H   0  0  0  0  0  0  0  0  0  0  0  0
   -0.2973    1.1841   -0.3966 C   0  0  0  0  0  0  0  0  0  0  0  0
    0.6432    1.4905   -0.8530 H   0  0  0  0  0  0  0  0  0  0  0  0
   -1.0498    1.1093   -1.1802 H   0  0  0  0  0  0  0  0  0  0  0  0
   -0.6961    2.2852    0.5727 C   0  0  0  0  0  0  0  0  0  0  0  0
   -0.0085    2.6126    1.5242 O   0  0  0  0  0  0  0  0  0  0  0  0
   -1.8381    2.8957    0.3688 N   0  0  0  0  0  0  0  0  0  0  0  0
   -2.0671    3.6305    1.0147 H   0  0  0  0  0  0  0  0  0  0  0  0
   -2.4128    2.6580   -0.4175 H   0  0  0  0  0  0  0  0  0  0  0  0
    0.4075   -0.0985    1.7169 C   0  0  0  0  0  0  0  0  0  0  0  0
    1.5860   -0.3526    1.9662 O   0  0  0  0  0  0  0  0  0  0  0  0
   -0.4625    0.2583    2.6666 N   0  0  0  0  0  0  0  0  0  0  0  0
   -1.4309    0.3754    2.3860 H   0  0  0  0  0  0  0  0  0  0  0  0
   -0.1275    0.4111    4.0813 C   0  0  0  0  0  0  0  0  0  0  0  0
    0.6862    1.1312    4.1910 H   0  0  0  0  0  0  0  0  0  0  0  0
   -0.9980    0.7641    4.6360 H   0  0  0  0  0  0  0  0  0  0  0  0
    0.1959   -0.5481    4.4891 H   0  0  0  0  0  0  0  0  0  0  0  0
  5  6  2  0  0  0  0
  5  7  1  0  0  0  0
  2  3  1  0  0  0  0
  2  4  1  0  0  0  0
  2  5  1  0  0  0  0
  1  2  1  0  0  0  0
 19 20  2  0  0  0  0
 19 21  1  0  0  0  0
 16 17  1  0  0  0  0
 16 18  1  0  0  0  0
 14 15  2  0  0  0  0
 14 16  1  0  0  0  0
 11 12  1  0  0  0  0
 11 13  1  0  0  0  0
 11 14  1  0  0  0  0
  9 10  1  0  0  0  0
  9 11  1  0  0  0  0
  9 19  1  0  0  0  0
  7  8  1  0  0  0  0
  7  9  1  0  0  0  0
 23 24  1  0  0  0  0
 23 25  1  0  0  0  0
 23 26  1  0  0  0  0
 21 22  1  0  0  0  0
 21 23  1  0  0  0  0
M  END
$$$$
default_name
  -OEChem-02102213163D

 26 25  0     1  0  0  0  0  0999 V2000
   -3.0232   -3.6924    1.0038 H   0  0  0  0  0  0  0  0  0  0  0  0
   -3.0082   -2.6684    0.6318 C   0  0  0  0  0  0  0  0  0  0  0  0
   -3.6332   -2.0414    1.2658 H   0  0  0  0  0  0  0  0  0  0  0  0
   -3.3762   -2.6444   -0.3912 H   0  0  0  0  0  0  0  0  0  0  0  0
   -1.5882   -2.1554    0.6658 C   0  0  0  0  0  0  0  0  0  0  0  0
   -0.6832   -2.8764    1.0638 O   0  0  0  0  0  0  0  0  0  0  0  0
   -1.3952   -0.9084    0.2428 N   0  0  0  0  0  0  0  0  0  0  0  0
   -2.1972   -0.3644   -0.0422 H   0  0  0  0  0  0  0  0  0  0  0  0
   -0.1122   -0.1994    0.2658 C   0  0  1  0  0  0  0  0  0  0  0  0
    0.6131   -0.7748   -0.3153 H   0  0  0  0  0  0  0  0  0  0  0  0
   -0.2973    1.1841   -0.3966 C   0  0  0  0  0  0  0  0  0  0  0  0
    0.6432    1.4905   -0.8530 H   0  0  0  0  0  0  0  0  0  0  0  0
   -1.0498    1.1093   -1.1802 H   0  0  0  0  0  0  0  0  0  0  0  0
   -0.6961    2.2852    0.5727 C   0  0  0  0  0  0  0  0  0  0  0  0
    0.0865    2.7959    1.3550 O   0  0  0  0  0  0  0  0  0  0  0  0
   -1.9436    2.6877    0.5617 N   0  0  0  0  0  0  0  0  0  0  0  0
   -2.1740    3.4283    1.2005 H   0  0  0  0  0  0  0  0  0  0  0  0
   -2.6023    2.2970   -0.0853 H   0  0  0  0  0  0  0  0  0  0  0  0
    0.4075   -0.0985    1.7169 C   0  0  0  0  0  0  0  0  0  0  0  0
    1.5860   -0.3526    1.9662 O   0  0  0  0  0  0  0  0  0  0  0  0
   -0.4625    0.2583    2.6666 N   0  0  0  0  0  0  0  0  0  0  0  0
   -1.4309    0.3754    2.3860 H   0  0  0  0  0  0  0  0  0  0  0  0
   -0.1275    0.4111    4.0813 C   0  0  0  0  0  0  0  0  0  0  0  0
    0.6862    1.1312    4.1910 H   0  0  0  0  0  0  0  0  0  0  0  0
   -0.9980    0.7641    4.6360 H   0  0  0  0  0  0  0  0  0  0  0  0
    0.1959   -0.5481    4.4891 H   0  0  0  0  0  0  0  0  0  0  0  0
  5  6  2  0  0  0  0
  5  7  1  0  0  0  0
  2  3  1  0  0  0  0
  2  4  1  0  0  0  0
  2  5  1  0  0  0  0
  1  2  1  0  0  0  0
 19 20  2  0  0  0  0
 19 21  1  0  0  0  0
 16 17  1  0  0  0  0
 16 18  1  0  0  0  0
 14 15  2  0  0  0  0
 14 16  1  0  0  0  0
 11 12  1  0  0  0  0
 11 13  1  0  0  0  0
 11 14  1  0  0  0  0
  9 10  1  0  0  0  0
  9 11  1  0  0  0  0
  9 19  1  0  0  0  0
  7  8  1  0  0  0  0
  7  9  1  0  0  0  0
 23 24  1  0  0  0  0
 23 25  1  0  0  0  0
 23 26  1  0  0  0  0
 21 22  1  0  0  0  0
 21 23  1  0  0  0  0
M  END
$$$$
default_name
  -OEChem-02102213163D

 26 25  0     1  0  0  0  0  0999 V2000
   -3.0232   -3.6924    1.0038 H   0  0  0  0  0  0  0  0  0  0  0  0
   -3.0082   -2.6684    0.6318 C   0  0  0  0  0  0  0  0  0  0  0  0
   -3.6332   -2.0414    1.2658 H   0  0  0  0  0  0  0  0  0  0  0  0
   -3.3762   -2.6444   -0.3912 H   0  0  0  0  0  0  0  0  0  0  0  0
   -1.5882   -2.1554    0.6658 C   0  0  0  0  0  0  0  0  0  0  0  0
   -0.6832   -2.8764    1.0638 O   0  0  0  0  0  0  0  0  0  0  0  0
   -1.3952   -0.9084    0.2428 N   0  0  0  0  0  0  0  0  0  0  0  0
   -2.1972   -0.3644   -0.0422 H   0  0  0  0  0  0  0  0  0  0  0  0
   -0.1122   -0.1994    0.2658 C   0  0  1  0  0  0  0  0  0  0  0  0
    0.6131   -0.7748   -0.3153 H   0  0  0  0  0  0  0  0  0  0  0  0
   -0.2973    1.1841   -0.3966 C   0  0  0  0  0  0  0  0  0  0  0  0
    0.6432    1.4905   -0.8530 H   0  0  0  0  0  0  0  0  0  0  0  0
   -1.0498    1.1093   -1.1802 H   0  0  0  0  0  0  0  0  0  0  0  0
   -0.6961    2.2852    0.5727 C   0  0  0  0  0  0  0  0  0  0  0  0
    0.1163    2.9771    1.1614 O   0  0  0  0  0  0  0  0  0  0  0  0
   -1.9751    2.4825    0.7819 N   0  0  0  0  0  0  0  0  0  0  0  0
   -2.2090    3.2280    1.4136 H   0  0  0  0  0  0  0  0  0  0  0  0
   -2.6634    1.9395    0.2956 H   0  0  0  0  0  0  0  0  0  0  0  0
    0.4075   -0.0985    1.7169 C   0  0  0  0  0  0  0  0  0  0  0  0
    1.5860   -0.3526    1.9662 O   0  0  0  0  0  0  0  0  0  0  0  0
   -0.4625    0.2583    2.6666 N   0  0  0  0  0  0  0  0  0  0  0  0
   -1.4309    0.3754    2.3860 H   0  0  0  0  0  0  0  0  0  0  0  0
   -0.1275    0.4111    4.0813 C   0  0  0  0  0  0  0  0  0  0  0  0
    0.6862    1.1312    4.1910 H   0  0  0  0  0  0  0  0  0  0  0  0
   -0.9980    0.7641    4.6360 H   0  0  0  0  0  0  0  0  0  0  0  0
    0.1959   -0.5481    4.4891 H   0  0  0  0  0  0  0  0  0  0  0  0
  5  6  2  0  0  0  0
  5  7  1  0  0  0  0
  2  3  1  0  0  0  0
  2  4  1  0  0  0  0
  2  5  1  0  0  0  0
  1  2  1  0  0  0  0
 19 20  2  0  0  0  0
 19 21  1  0  0  0  0
 16 17  1  0  0  0  0
 16 18  1  0  0  0  0
 14 15  2  0  0  0  0
 14 16  1  0  0  0  0
 11 12  1  0  0  0  0
 11 13  1  0  0  0  0
 11 14  1  0  0  0  0
  9 10  1  0  0  0  0
  9 11  1  0  0  0  0
  9 19  1  0  0  0  0
  7  8  1  0  0  0  0
  7  9  1  0  0  0  0
 23 24  1  0  0  0  0
 23 25  1  0  0  0  0
 23 26  1  0  0  0  0
 21 22  1  0  0  0  0
 21 23  1  0  0  0  0
M  END
$$$$
default_name
  -OEChem-02102213163D

 26 25  0     1  0  0  0  0  0999 V2000
   -3.0232   -3.6924    1.0038 H   0  0  0  0  0  0  0  0  0  0  0  0
   -3.0082   -2.6684    0.6318 C   0  0  0  0  0  0  0  0  0  0  0  0
   -3.6332   -2.0414    1.2658 H   0  0  0  0  0  0  0  0  0  0  0  0
   -3.3762   -2.6444   -0.3912 H   0  0  0  0  0  0  0  0  0  0  0  0
   -1.5882   -2.1554    0.6658 C   0  0  0  0  0  0  0  0  0  0  0  0
   -0.6832   -2.8764    1.0638 O   0  0  0  0  0  0  0  0  0  0  0  0
   -1.3952   -0.9084    0.2428 N   0  0  0  0  0  0  0  0  0  0  0  0
   -2.1972   -0.3644   -0.0422 H   0  0  0  0  0  0  0  0  0  0  0  0
   -0.1122   -0.1994    0.2658 C   0  0  1  0  0  0  0  0  0  0  0  0
    0.6131   -0.7748   -0.3153 H   0  0  0  0  0  0  0  0  0  0  0  0
   -0.2973    1.1841   -0.3966 C   0  0  0  0  0  0  0  0  0  0  0  0
    0.6432    1.4905   -0.8530 H   0  0  0  0  0  0  0  0  0  0  0  0
   -1.0498    1.1093   -1.1802 H   0  0  0  0  0  0  0  0  0  0  0  0
   -0.6961    2.2852    0.5727 C   0  0  0  0  0  0  0  0  0  0  0  0
    0.0788    3.1439    0.9565 O   0  0  0  0  0  0  0  0  0  0  0  0
   -1.9303    2.2940    1.0144 N   0  0  0  0  0  0  0  0  0  0  0  0
   -2.1698    3.0432    1.6397 H   0  0  0  0  0  0  0  0  0  0  0  0
   -2.5921    1.6101    0.6993 H   0  0  0  0  0  0  0  0  0  0  0  0
    0.4075   -0.0985    1.7169 C   0  0  0  0  0  0  0  0  0  0  0  0
    1.5860   -0.3526    1.9662 O   0  0  0  0  0  0  0  0  0  0  0  0
   -0.4625    0.2583    2.6666 N   0  0  0  0  0  0  0  0  0  0  0  0
   -1.4309    0.3754    2.3860 H   0  0  0  0  0  0  0  0  0  0  0  0
   -0.1275    0.4111    4.0813 C   0  0  0  0  0  0  0  0  0  0  0  0
    0.6862    1.1312    4.1910 H   0  0  0  0  0  0  0  0  0  0  0  0
   -0.9980    0.7641    4.6360 H   0  0  0  0  0  0  0  0  0  0  0  0
    0.1959   -0.5481    4.4891 H   0  0  0  0  0  0  0  0  0  0  0  0
  5  6  2  0  0  0  0
  5  7  1  0  0  0  0
  2  3  1  0  0  0  0
  2  4  1  0  0  0  0
  2  5  1  0  0  0  0
  1  2  1  0  0  0  0
 19 20  2  0  0  0  0
 19 21  1  0  0  0  0
 16 17  1  0  0  0  0
 16 18  1  0  0  0  0
 14 15  2  0  0  0  0
 14 16  1  0  0  0  0
 11 12  1  0  0  0  0
 11 13  1  0  0  0  0
 11 14  1  0  0  0  0
  9 10  1  0  0  0  0
  9 11  1  0  0  0  0
  9 19  1  0  0  0  0
  7  8  1  0  0  0  0
  7  9  1  0  0  0  0
 23 24  1  0  0  0  0
 23 25  1  0  0  0  0
 23 26  1  0  0  0  0
 21 22  1  0  0  0  0
 21 23  1  0  0  0  0
M  END
$$$$
default_name
  -OEChem-02102213163D

 26 25  0     1  0  0  0  0  0999 V2000
   -3.0232   -3.6924    1.0038 H   0  0  0  0  0  0  0  0  0  0  0  0
   -3.0082   -2.6684    0.6318 C   0  0  0  0  0  0  0  0  0  0  0  0
   -3.6332   -2.0414    1.2658 H   0  0  0  0  0  0  0  0  0  0  0  0
   -3.3762   -2.6444   -0.3912 H   0  0  0  0  0  0  0  0  0  0  0  0
   -1.5882   -2.1554    0.6658 C   0  0  0  0  0  0  0  0  0  0  0  0
   -0.6832   -2.8764    1.0638 O   0  0  0  0  0  0  0  0  0  0  0  0
   -1.3952   -0.9084    0.2428 N   0  0  0  0  0  0  0  0  0  0  0  0
   -2.1972   -0.3644   -0.0422 H   0  0  0  0  0  0  0  0  0  0  0  0
   -0.1122   -0.1994    0.2658 C   0  0  1  0  0  0  0  0  0  0  0  0
    0.6131   -0.7748   -0.3153 H   0  0  0  0  0  0  0  0  0  0  0  0
   -0.2973    1.1841   -0.3966 C   0  0  0  0  0  0  0  0  0  0  0  0
    0.6432    1.4905   -0.8530 H   0  0  0  0  0  0  0  0  0  0  0  0
   -1.0498    1.1093   -1.1802 H   0  0  0  0  0  0  0  0  0  0  0  0
   -0.6961    2.2852    0.5727 C   0  0  0  0  0  0  0  0  0  0  0  0
   -0.0232    3.2850    0.7542 O   0  0  0  0  0  0  0  0  0  0  0  0
   -1.8123    2.1351    1.2434 N   0  0  0  0  0  0  0  0  0  0  0  0
   -2.0591    2.8865    1.8633 H   0  0  0  0  0  0  0  0  0  0  0  0
   -2.3931    1.3310    1.0981 H   0  0  0  0  0  0  0  0  0  0  0  0
    0.4075   -0.0985    1.7169 C   0  0  0  0  0  0  0  0  0  0  0  0
    1.5860   -0.3526    1.9662 O   0  0  0  0  0  0  0  0  0  0  0  0
   -0.4625    0.2583    2.6666 N   0  0  0  0  0  0  0  0  0  0  0  0
   -1.4309    0.3754    2.3860 H   0  0  0  0  0  0  0  0  0  0  0  0
   -0.1275    0.4111    4.0813 C   0  0  0  0  0  0  0  0  0  0  0  0
    0.6862    1.1312    4.1910 H   0  0  0  0  0  0  0  0  0  0  0  0
   -0.9980    0.7641    4.6360 H   0  0  0  0  0  0  0  0  0  0  0  0
    0.1959   -0.5481    4.4891 H   0  0  0  0  0  0  0  0  0  0  0  0
  5  6  2  0  0  0  0
  5  7  1  0  0  0  0
  2  3  1  0  0  0  0
  2  4  1  0  0  0  0
  2  5  1  0  0  0  0
  1  2  1  0  0  0  0
 19 20  2  0  0  0  0
 19 21  1  0  0  0  0
 16 17  1  0  0  0  0
 16 18  1  0  0  0  0
 14 15  2  0  0  0  0
 14 16  1  0  0  0  0
 11 12  1  0  0  0  0
 11 13  1  0  0  0  0
 11 14  1  0  0  0  0
  9 10  1  0  0  0  0
  9 11  1  0  0  0  0
  9 19  1  0  0  0  0
  7  8  1  0  0  0  0
  7  9  1  0  0  0  0
 23 24  1  0  0  0  0
 23 25  1  0  0  0  0
 23 26  1  0  0  0  0
 21 22  1  0  0  0  0
 21 23  1  0  0  0  0
M  END
$$$$
default_name
  -OEChem-02102213163D

 26 25  0     1  0  0  0  0  0999 V2000
   -3.0232   -3.6924    1.0038 H   0  0  0  0  0  0  0  0  0  0  0  0
   -3.0082   -2.6684    0.6318 C   0  0  0  0  0  0  0  0  0  0  0  0
   -3.6332   -2.0414    1.2658 H   0  0  0  0  0  0  0  0  0  0  0  0
   -3.3762   -2.6444   -0.3912 H   0  0  0  0  0  0  0  0  0  0  0  0
   -1.5882   -2.1554    0.6658 C   0  0  0  0  0  0  0  0  0  0  0  0
   -0.6832   -2.8764    1.0638 O   0  0  0  0  0  0  0  0  0  0  0  0
   -1.3952   -0.9084    0.2428 N   0  0  0  0  0  0  0  0  0  0  0  0
   -2.1972   -0.3644   -0.0422 H   0  0  0  0  0  0  0  0  0  0  0  0
   -0.1122   -0.1994    0.2658 C   0  0  1  0  0  0  0  0  0  0  0  0
    0.6131   -0.7748   -0.3153 H   0  0  0  0  0  0  0  0  0  0  0  0
   -0.2973    1.1841   -0.3966 C   0  0  0  0  0  0  0  0  0  0  0  0
    0.6432    1.4905   -0.8530 H   0  0  0  0  0  0  0  0  0  0  0  0
   -1.0498    1.1093   -1.1802 H   0  0  0  0  0  0  0  0  0  0  0  0
   -0.6961    2.2852    0.5727 C   0  0  0  0  0  0  0  0  0  0  0  0
   -0.1830    3.3907    0.5684 O   0  0  0  0  0  0  0  0  0  0  0  0
   -1.6292    2.0167    1.4533 N   0  0  0  0  0  0  0  0  0  0  0  0
   -1.8844    2.7686    2.0691 H   0  0  0  0  0  0  0  0  0  0  0  0
   -2.0801    1.1213    1.4651 H   0  0  0  0  0  0  0  0  0  0  0  0
    0.4075   -0.0985    1.7169 C   0  0  0  0  0  0  0  0  0  0  0  0
    1.5860   -0.3526    1.9662 O   0  0  0  0  0  0  0  0  0  0  0  0
   -0.4625    0.2583    2.6666 N   0  0  0  0  0  0  0  0  0  0  0  0
   -1.4309    0.3754    2.3860 H   0  0  0  0  0  0  0  0  0  0  0  0
   -0.1275    0.4111    4.0813 C   0  0  0  0  0  0  0  0  0  0  0  0
    0.6862    1.1312    4.1910 H   0  0  0  0  0  0  0  0  0  0  0  0
   -0.9980    0.7641    4.6360 H   0  0  0  0  0  0  0  0  0  0  0  0
    0.1959   -0.5481    4.4891 H   0  0  0  0  0  0  0  0  0  0  0  0
  5  6  2  0  0  0  0
  5  7  1  0  0  0  0
  2  3  1  0  0  0  0
  2  4  1  0  0  0  0
  2  5  1  0  0  0  0
  1  2  1  0  0  0  0
 19 20  2  0  0  0  0
 19 21  1  0  0  0  0
 16 17  1  0  0  0  0
 16 18  1  0  0  0  0
 14 15  2  0  0  0  0
 14 16  1  0  0  0  0
 11 12  1  0  0  0  0
 11 13  1  0  0  0  0
 11 14  1  0  0  0  0
  9 10  1  0  0  0  0
  9 11  1  0  0  0  0
  9 19  1  0  0  0  0
  7  8  1  0  0  0  0
  7  9  1  0  0  0  0
 23 24  1  0  0  0  0
 23 25  1  0  0  0  0
 23 26  1  0  0  0  0
 21 22  1  0  0  0  0
 21 23  1  0  0  0  0
M  END
$$$$
default_name
  -OEChem-02102213163D

 26 25  0     1  0  0  0  0  0999 V2000
   -3.0232   -3.6924    1.0038 H   0  0  0  0  0  0  0  0  0  0  0  0
   -3.0082   -2.6684    0.6318 C   0  0  0  0  0  0  0  0  0  0  0  0
   -3.6332   -2.0414    1.2658 H   0  0  0  0  0  0  0  0  0  0  0  0
   -3.3762   -2.6444   -0.3912 H   0  0  0  0  0  0  0  0  0  0  0  0
   -1.5882   -2.1554    0.6658 C   0  0  0  0  0  0  0  0  0  0  0  0
   -0.6832   -2.8764    1.0638 O   0  0  0  0  0  0  0  0  0  0  0  0
   -1.3952   -0.9084    0.2428 N   0  0  0  0  0  0  0  0  0  0  0  0
   -2.1972   -0.3644   -0.0422 H   0  0  0  0  0  0  0  0  0  0  0  0
   -0.1122   -0.1994    0.2658 C   0  0  1  0  0  0  0  0  0  0  0  0
    0.6131   -0.7748   -0.3153 H   0  0  0  0  0  0  0  0  0  0  0  0
   -0.2973    1.1841   -0.3966 C   0  0  0  0  0  0  0  0  0  0  0  0
    0.6432    1.4905   -0.8530 H   0  0  0  0  0  0  0  0  0  0  0  0
   -1.0498    1.1093   -1.1802 H   0  0  0  0  0  0  0  0  0  0  0  0
   -0.6961    2.2852    0.5727 C   0  0  0  0  0  0  0  0  0  0  0  0
   -0.3897    3.4538    0.4117 O   0  0  0  0  0  0  0  0  0  0  0  0
   -1.3935    1.9467    1.6298 N   0  0  0  0  0  0  0  0  0  0  0  0
   -1.6576    2.6975    2.2431 H   0  0  0  0  0  0  0  0  0  0  0  0
   -1.6744    0.9954    1.7751 H   0  0  0  0  0  0  0  0  0  0  0  0
    0.4075   -0.0985    1.7169 C   0  0  0  0  0  0  0  0  0  0  0  0
    1.5860   -0.3526    1.9662 O   0  0  0  0  0  0  0  0  0  0  0  0
   -0.4625    0.2583    2.6666 N   0  0  0  0  0  0  0  0  0  0  0  0
   -1.4309    0.3754    2.3860 H   0  0  0  0  0  0  0  0  0  0  0  0
   -0.1275    0.4111    4.0813 C   0  0  0  0  0  0  0  0  0  0  0  0
    0.6862    1.1312    4.1910 H   0  0  0  0  0  0  0  0  0  0  0  0
   -0.9980    0.7641    4.6360 H   0  0  0  0  0  0  0  0  0  0  0  0
    0.1959   -0.5481    4.4891 H   0  0  0  0  0  0  0  0  0  0  0  0
  5  6  2  0  0  0  0
  5  7  1  0  0  0  0
  2  3  1  0  0  0  0
  2  4  1  0  0  0  0
  2  5  1  0  0  0  0
  1  2  1  0  0  0  0
 19 20  2  0  0  0  0
 19 21  1  0  0  0  0
 16 17  1  0  0  0  0
 16 18  1  0  0  0  0
 14 15  2  0  0  0  0
 14 16  1  0  0  0  0
 11 12  1  0  0  0  0
 11 13  1  0  0  0  0
 11 14  1  0  0  0  0
  9 10  1  0  0  0  0
  9 11  1  0  0  0  0
  9 19  1  0  0  0  0
  7  8  1  0  0  0  0
  7  9  1  0  0  0  0
 23 24  1  0  0  0  0
 23 25  1  0  0  0  0
 23 26  1  0  0  0  0
 21 22  1  0  0  0  0
 21 23  1  0  0  0  0
M  END
$$$$
default_name
  -OEChem-02102213163D

 26 25  0     1  0  0  0  0  0999 V2000
   -3.0232   -3.6924    1.0038 H   0  0  0  0  0  0  0  0  0  0  0  0
   -3.0082   -2.6684    0.6318 C   0  0  0  0  0  0  0  0  0  0  0  0
   -3.6332   -2.0414    1.2658 H   0  0  0  0  0  0  0  0  0  0  0  0
   -3.3762   -2.6444   -0.3912 H   0  0  0  0  0  0  0  0  0  0  0  0
   -1.5882   -2.1554    0.6658 C   0  0  0  0  0  0  0  0  0  0  0  0
   -0.6832   -2.8764    1.0638 O   0  0  0  0  0  0  0  0  0  0  0  0
   -1.3952   -0.9084    0.2428 N   0  0  0  0  0  0  0  0  0  0  0  0
   -2.1972   -0.3644   -0.0422 H   0  0  0  0  0  0  0  0  0  0  0  0
   -0.1122   -0.1994    0.2658 C   0  0  1  0  0  0  0  0  0  0  0  0
    0.6131   -0.7748   -0.3153 H   0  0  0  0  0  0  0  0  0  0  0  0
   -0.2973    1.1841   -0.3966 C   0  0  0  0  0  0  0  0  0  0  0  0
    0.6432    1.4905   -0.8530 H   0  0  0  0  0  0  0  0  0  0  0  0
   -1.0498    1.1093   -1.1802 H   0  0  0  0  0  0  0  0  0  0  0  0
   -0.6961    2.2852    0.5727 C   0  0  0  0  0  0  0  0  0  0  0  0
   -0.6291    3.4700    0.2949 O   0  0  0  0  0  0  0  0  0  0  0  0
   -1.1212    1.9300    1.7608 N   0  0  0  0  0  0  0  0  0  0  0  0
   -1.3941    2.6781    2.3736 H   0  0  0  0  0  0  0  0  0  0  0  0
   -1.2036    0.9618    2.0070 H   0  0  0  0  0  0  0  0  0  0  0  0
    0.4075   -0.0985    1.7169 C   0  0  0  0  0  0  0  0  0  0  0  0
    1.5860   -0.3526    1.9662 O   0  0  0  0  0  0  0  0  0  0  0  0
   -0.4625    0.2583    2.6666 N   0  0  0  0  0  0  0  0  0  0  0  0
   -1.4309    0.3754    2.3860 H   0  0  0  0  0  0  0  0  0  0  0  0
   -0.1275    0.4111    4.0813 C   0  0  0  0  0  0  0  0  0  0  0  0
    0.6862    1.1312    4.1910 H   0  0  0  0  0  0  0  0  0  0  0  0
   -0.9980    0.7641    4.6360 H   0  0  0  0  0  0  0  0  0  0  0  0
    0.1959   -0.5481    4.4891 H   0  0  0  0  0  0  0  0  0  0  0  0
  5  6  2  0  0  0  0
  5  7  1  0  0  0  0
  2  3  1  0  0  0  0
  2  4  1  0  0  0  0
  2  5  1  0  0  0  0
  1  2  1  0  0  0  0
 19 20  2  0  0  0  0
 19 21  1  0  0  0  0
 16 17  1  0  0  0  0
 16 18  1  0  0  0  0
 14 15  2  0  0  0  0
 14 16  1  0  0  0  0
 11 12  1  0  0  0  0
 11 13  1  0  0  0  0
 11 14  1  0  0  0  0
  9 10  1  0  0  0  0
  9 11  1  0  0  0  0
  9 19  1  0  0  0  0
  7  8  1  0  0  0  0
  7  9  1  0  0  0  0
 23 24  1  0  0  0  0
 23 25  1  0  0  0  0
 23 26  1  0  0  0  0
 21 22  1  0  0  0  0
 21 23  1  0  0  0  0
M  END
$$$$
default_name
  -OEChem-02102213163D

 26 25  0     1  0  0  0  0  0999 V2000
   -3.0232   -3.6924    1.0038 H   0  0  0  0  0  0  0  0  0  0  0  0
   -3.0082   -2.6684    0.6318 C   0  0  0  0  0  0  0  0  0  0  0  0
   -3.6332   -2.0414    1.2658 H   0  0  0  0  0  0  0  0  0  0  0  0
   -3.3762   -2.6444   -0.3912 H   0  0  0  0  0  0  0  0  0  0  0  0
   -1.5882   -2.1554    0.6658 C   0  0  0  0  0  0  0  0  0  0  0  0
   -0.6832   -2.8764    1.0638 O   0  0  0  0  0  0  0  0  0  0  0  0
   -1.3952   -0.9084    0.2428 N   0  0  0  0  0  0  0  0  0  0  0  0
   -2.1972   -0.3644   -0.0422 H   0  0  0  0  0  0  0  0  0  0  0  0
   -0.1122   -0.1994    0.2658 C   0  0  1  0  0  0  0  0  0  0  0  0
    0.6131   -0.7748   -0.3153 H   0  0  0  0  0  0  0  0  0  0  0  0
   -0.2973    1.1841   -0.3966 C   0  0  0  0  0  0  0  0  0  0  0  0
    0.5379    1.3725   -1.0702 H   0  0  0  0  0  0  0  0  0  0  0  0
   -1.2155    1.1820   -0.9820 H   0  0  0  0  0  0  0  0  0  0  0  0
   -0.3382    2.3409    0.5889 C   0  0  0  0  0  0  0  0  0  0  0  0
   -0.4779    3.5014    0.2442 O   0  0  0  0  0  0  0  0  0  0  0  0
   -0.2071    2.0637    1.8634 N   0  0  0  0  0  0  0  0  0  0  0  0
   -0.2556    2.8458    2.4923 H   0  0  0  0  0  0  0  0  0  0  0  0
   -0.1101    1.1155    2.1741 H   0  0  0  0  0  0  0  0  0  0  0  0
    0.4075   -0.0985    1.7169 C   0  0  0  0  0  0  0  0  0  0  0  0
    1.5860   -0.3526    1.9662 O   0  0  0  0  0  0  0  0  0  0  0  0
   -0.4625    0.2583    2.6666 N   0  0  0  0  0  0  0  0  0  0  0  0
   -1.4309    0.3754    2.3860 H   0  0  0  0  0  0  0  0  0  0  0  0
   -0.1275    0.4111    4.0813 C   0  0  0  0  0  0  0  0  0  0  0  0
    0.6862    1.1312    4.1910 H   0  0  0  0  0  0  0  0  0  0  0  0
   -0.9980    0.7641    4.6360 H   0  0  0  0  0  0  0  0  0  0  0  0
    0.1959   -0.5481    4.4891 H   0  0  0  0  0  0  0  0  0  0  0  0
  5  6  2  0  0  0  0
  5  7  1  0  0  0  0
  2  3  1  0  0  0  0
  2  4  1  0  0  0  0
  2  5  1  0  0  0  0
  1  2  1  0  0  0  0
 19 20  2  0  0  0  0
 19 21  1  0  0  0  0
 16 17  1  0  0  0  0
 16 18  1  0  0  0  0
 14 15  2  0  0  0  0
 14 16  1  0  0  0  0
 11 12  1  0  0  0  0
 11 13  1  0  0  0  0
 11 14  1  0  0  0  0
  9 10  1  0  0  0  0
  9 11  1  0  0  0  0
  9 19  1  0  0  0  0
  7  8  1  0  0  0  0
  7  9  1  0  0  0  0
 23 24  1  0  0  0  0
 23 25  1  0  0  0  0
 23 26  1  0  0  0  0
 21 22  1  0  0  0  0
 21 23  1  0  0  0  0
M  END
$$$$
default_name
  -OEChem-02102213163D

 26 25  0     1  0  0  0  0  0999 V2000
   -3.0232   -3.6924    1.0038 H   0  0  0  0  0  0  0  0  0  0  0  0
   -3.0082   -2.6684    0.6318 C   0  0  0  0  0  0  0  0  0  0  0  0
   -3.6332   -2.0414    1.2658 H   0  0  0  0  0  0  0  0  0  0  0  0
   -3.3762   -2.6444   -0.3912 H   0  0  0  0  0  0  0  0  0  0  0  0
   -1.5882   -2.1554    0.6658 C   0  0  0  0  0  0  0  0  0  0  0  0
   -0.6832   -2.8764    1.0638 O   0  0  0  0  0  0  0  0  0  0  0  0
   -1.3952   -0.9084    0.2428 N   0  0  0  0  0  0  0  0  0  0  0  0
   -2.1972   -0.3644   -0.0422 H   0  0  0  0  0  0  0  0  0  0  0  0
   -0.1122   -0.1994    0.2658 C   0  0  1  0  0  0  0  0  0  0  0  0
    0.6131   -0.7748   -0.3153 H   0  0  0  0  0  0  0  0  0  0  0  0
   -0.2973    1.1841   -0.3966 C   0  0  0  0  0  0  0  0  0  0  0  0
    0.5379    1.3725   -1.0702 H   0  0  0  0  0  0  0  0  0  0  0  0
   -1.2155    1.1820   -0.9820 H   0  0  0  0  0  0  0  0  0  0  0  0
   -0.3382    2.3409    0.5889 C   0  0  0  0  0  0  0  0  0  0  0  0
   -0.7364    3.4533    0.2900 O   0  0  0  0  0  0  0  0  0  0  0  0
    0.0853    2.1199    1.8096 N   0  0  0  0  0  0  0  0  0  0  0  0
    0.0302    2.8976    2.4434 H   0  0  0  0  0  0  0  0  0  0  0  0
    0.3999    1.2089    2.0856 H   0  0  0  0  0  0  0  0  0  0  0  0
    0.4075   -0.0985    1.7169 C   0  0  0  0  0  0  0  0  0  0  0  0
    1.5860   -0.3526    1.9662 O   0  0  0  0  0  0  0  0  0  0  0  0
   -0.4625    0.2583    2.6666 N   0  0  0  0  0  0  0  0  0  0  0  0
   -1.4309    0.3754    2.3860 H   0  0  0  0  0  0  0  0  0  0  0  0
   -0.1275    0.4111    4.0813 C   0  0  0  0  0  0  0  0  0  0  0  0
    0.6862    1.1312    4.1910 H   0  0  0  0  0  0  0  0  0  0  0  0
   -0.9980    0.7641    4.6360 H   0  0  0  0  0  0  0  0  0  0  0  0
    0.1959   -0.5481    4.4891 H   0  0  0  0  0  0  0  0  0  0  0  0
  5  6  2  0  0  0  0
  5  7  1  0  0  0  0
  2  3  1  0  0  0  0
  2  4  1  0  0  0  0
  2  5  1  0  0  0  0
  1  2  1  0  0  0  0
 19 20  2  0  0  0  0
 19 21  1  0  0  0  0
 16 17  1  0  0  0  0
 16 18  1  0  0  0  0
 14 15  2  0  0  0  0
 14 16  1  0  0  0  0
 11 12  1  0  0  0  0
 11 13  1  0  0  0  0
 11 14  1  0  0  0  0
  9 10  1  0  0  0  0
  9 11  1  0  0  0  0
  9 19  1  0  0  0  0
  7  8  1  0  0  0  0
  7  9  1  0  0  0  0
 23 24  1  0  0  0  0
 23 25  1  0  0  0  0
 23 26  1  0  0  0  0
 21 22  1  0  0  0  0
 21 23  1  0  0  0  0
M  END
$$$$
default_name
  -OEChem-02102213163D

 26 25  0     1  0  0  0  0  0999 V2000
   -3.0232   -3.6924    1.0038 H   0  0  0  0  0  0  0  0  0  0  0  0
   -3.0082   -2.6684    0.6318 C   0  0  0  0  0  0  0  0  0  0  0  0
   -3.6332   -2.0414    1.2658 H   0  0  0  0  0  0  0  0  0  0  0  0
   -3.3762   -2.6444   -0.3912 H   0  0  0  0  0  0  0  0  0  0  0  0
   -1.5882   -2.1554    0.6658 C   0  0  0  0  0  0  0  0  0  0  0  0
   -0.6832   -2.8764    1.0638 O   0  0  0  0  0  0  0  0  0  0  0  0
   -1.3952   -0.9084    0.2428 N   0  0  0  0  0  0  0  0  0  0  0  0
   -2.1972   -0.3644   -0.0422 H   0  0  0  0  0  0  0  0  0  0  0  0
   -0.1122   -0.1994    0.2658 C   0  0  1  0  0  0  0  0  0  0  0  0
    0.6131   -0.7748   -0.3153 H   0  0  0  0  0  0  0  0  0  0  0  0
   -0.2973    1.1841   -0.3966 C   0  0  0  0  0  0  0  0  0  0  0  0
    0.5379    1.3725   -1.0702 H   0  0  0  0  0  0  0  0  0  0  0  0
   -1.2155    1.1820   -0.9820 H   0  0  0  0  0  0  0  0  0  0  0  0
   -0.3382    2.3409    0.5889 C   0  0  0  0  0  0  0  0  0  0  0  0
   -0.9689    3.3637    0.3855 O   0  0  0  0  0  0  0  0  0  0  0  0
    0.3478    2.2228    1.6996 N   0  0  0  0  0  0  0  0  0  0  0  0
    0.2880    2.9953    2.3394 H   0  0  0  0  0  0  0  0  0  0  0  0
    0.8594    1.3840    1.8991 H   0  0  0  0  0  0  0  0  0  0  0  0
    0.4075   -0.0985    1.7169 C   0  0  0  0  0  0  0  0  0  0  0  0
    1.5860   -0.3526    1.9662 O   0  0  0  0  0  0  0  0  0  0  0  0
   -0.4625    0.2583    2.6666 N   0  0  0  0  0  0  0  0  0  0  0  0
   -1.4309    0.3754    2.3860 H   0  0  0  0  0  0  0  0  0  0  0  0
   -0.1275    0.4111    4.0813 C   0  0  0  0  0  0  0  0  0  0  0  0
    0.6862    1.1312    4.1910 H   0  0  0  0  0  0  0  0  0  0  0  0
   -0.9980    0.7641    4.6360 H   0  0  0  0  0  0  0  0  0  0  0  0
    0.1959   -0.5481    4.4891 H   0  0  0  0  0  0  0  0  0  0  0  0
  5  6  2  0  0  0  0
  5  7  1  0  0  0  0
  2  3  1  0  0  0  0
  2  4  1  0  0  0  0
  2  5  1  0  0  0  0
  1  2  1  0  0  0  0
 19 20  2  0  0  0  0
 19 21  1  0  0  0  0
 16 17  1  0  0  0  0
 16 18  1  0  0  0  0
 14 15  2  0  0  0  0
 14 16  1  0  0  0  0
 11 12  1  0  0  0  0
 11 13  1  0  0  0  0
 11 14  1  0  0  0  0
  9 10  1  0  0  0  0
  9 11  1  0  0  0  0
  9 19  1  0  0  0  0
  7  8  1  0  0  0  0
  7  9  1  0  0  0  0
 23 24  1  0  0  0  0
 23 25  1  0  0  0  0
 23 26  1  0  0  0  0
 21 22  1  0  0  0  0
 21 23  1  0  0  0  0
M  END
$$$$
default_name
  -OEChem-02102213163D

 26 25  0     1  0  0  0  0  0999 V2000
   -3.0232   -3.6924    1.0038 H   0  0  0  0  0  0  0  0  0  0  0  0
   -3.0082   -2.6684    0.6318 C   0  0  0  0  0  0  0  0  0  0  0  0
   -3.6332   -2.0414    1.2658 H   0  0  0  0  0  0  0  0  0  0  0  0
   -3.3762   -2.6444   -0.3912 H   0  0  0  0  0  0  0  0  0  0  0  0
   -1.5882   -2.1554    0.6658 C   0  0  0  0  0  0  0  0  0  0  0  0
   -0.6832   -2.8764    1.0638 O   0  0  0  0  0  0  0  0  0  0  0  0
   -1.3952   -0.9084    0.2428 N   0  0  0  0  0  0  0  0  0  0  0  0
   -2.1972   -0.3644   -0.0422 H   0  0  0  0  0  0  0  0  0  0  0  0
   -0.1122   -0.1994    0.2658 C   0  0  1  0  0  0  0  0  0  0  0  0
    0.6131   -0.7748   -0.3153 H   0  0  0  0  0  0  0  0  0  0  0  0
   -0.2973    1.1841   -0.3966 C   0  0  0  0  0  0  0  0  0  0  0  0
    0.5379    1.3725   -1.0702 H   0  0  0  0  0  0  0  0  0  0  0  0
   -1.2155    1.1820   -0.9820 H   0  0  0  0  0  0  0  0  0  0  0  0
   -0.3382    2.3409    0.5889 C   0  0  0  0  0  0  0  0  0  0  0  0
   -1.1597    3.2388    0.5242 O   0  0  0  0  0  0  0  0  0  0  0  0
    0.5625    2.3656    1.5410 N   0  0  0  0  0  0  0  0  0  0  0  0
    0.5001    3.1322    2.1876 H   0  0  0  0  0  0  0  0  0  0  0  0
    1.2371    1.6290    1.6272 H   0  0  0  0  0  0  0  0  0  0  0  0
    0.4075   -0.0985    1.7169 C   0  0  0  0  0  0  0  0  0  0  0  0
    1.5860   -0.3526    1.9662 O   0  0  0  0  0  0  0  0  0  0  0  0
   -0.4625    0.2583    2.6666 N   0  0  0  0  0  0  0  0  0  0  0  0
   -1.4309    0.3754    2.3860 H   0  0  0  0  0  0  0  0  0  0  0  0
   -0.1275    0.4111    4.0813 C   0  0  0  0  0  0  0  0  0  0  0  0
    0.6862    1.1312    4.1910 H   0  0  0  0  0  0  0  0  0  0  0  0
   -0.9980    0.7641    4.6360 H   0  0  0  0  0  0  0  0  0  0  0  0
    0.1959   -0.5481    4.4891 H   0  0  0  0  0  0  0  0  0  0  0  0
  5  6  2  0  0  0  0
  5  7  1  0  0  0  0
  2  3  1  0  0  0  0
  2  4  1  0  0  0  0
  2  5  1  0  0  0  0
  1  2  1  0  0  0  0
 19 20  2  0  0  0  0
 19 21  1  0  0  0  0
 16 17  1  0  0  0  0
 16 18  1  0  0  0  0
 14 15  2  0  0  0  0
 14 16  1  0  0  0  0
 11 12  1  0  0  0  0
 11 13  1  0  0  0  0
 11 14  1  0  0  0  0
  9 10  1  0  0  0  0
  9 11  1  0  0  0  0
  9 19  1  0  0  0  0
  7  8  1  0  0  0  0
  7  9  1  0  0  0  0
 23 24  1  0  0  0  0
 23 25  1  0  0  0  0
 23 26  1  0  0  0  0
 21 22  1  0  0  0  0
 21 23  1  0  0  0  0
M  END
$$$$
default_name
  -OEChem-02102213163D

 26 25  0     1  0  0  0  0  0999 V2000
   -3.0232   -3.6924    1.0038 H   0  0  0  0  0  0  0  0  0  0  0  0
   -3.0082   -2.6684    0.6318 C   0  0  0  0  0  0  0  0  0  0  0  0
   -3.6332   -2.0414    1.2658 H   0  0  0  0  0  0  0  0  0  0  0  0
   -3.3762   -2.6444   -0.3912 H   0  0  0  0  0  0  0  0  0  0  0  0
   -1.5882   -2.1554    0.6658 C   0  0  0  0  0  0  0  0  0  0  0  0
   -0.6832   -2.8764    1.0638 O   0  0  0  0  0  0  0  0  0  0  0  0
   -1.3952   -0.9084    0.2428 N   0  0  0  0  0  0  0  0  0  0  0  0
   -2.1972   -0.3644   -0.0422 H   0  0  0  0  0  0  0  0  0  0  0  0
   -0.1122   -0.1994    0.2658 C   0  0  1  0  0  0  0  0  0  0  0  0
    0.6131   -0.7748   -0.3153 H   0  0  0  0  0  0  0  0  0  0  0  0
   -0.2973    1.1841   -0.3966 C   0  0  0  0  0  0  0  0  0  0  0  0
    0.5379    1.3725   -1.0702 H   0  0  0  0  0  0  0  0  0  0  0  0
   -1.2155    1.1820   -0.9820 H   0  0  0  0  0  0  0  0  0  0  0  0
   -0.3382    2.3409    0.5889 C   0  0  0  0  0  0  0  0  0  0  0  0
   -1.2957    3.0871    0.6966 O   0  0  0  0  0  0  0  0  0  0  0  0
    0.7146    2.5383    1.3445 N   0  0  0  0  0  0  0  0  0  0  0  0
    0.6522    3.2989    1.9982 H   0  0  0  0  0  0  0  0  0  0  0  0
    1.5072    1.9271    1.2885 H   0  0  0  0  0  0  0  0  0  0  0  0
    0.4075   -0.0985    1.7169 C   0  0  0  0  0  0  0  0  0  0  0  0
    1.5860   -0.3526    1.9662 O   0  0  0  0  0  0  0  0  0  0  0  0
   -0.4625    0.2583    2.6666 N   0  0  0  0  0  0  0  0  0  0  0  0
   -1.4309    0.3754    2.3860 H   0  0  0  0  0  0  0  0  0  0  0  0
   -0.1275    0.4111    4.0813 C   0  0  0  0  0  0  0  0  0  0  0  0
    0.6862    1.1312    4.1910 H   0  0  0  0  0  0  0  0  0  0  0  0
   -0.9980    0.7641    4.6360 H   0  0  0  0  0  0  0  0  0  0  0  0
    0.1959   -0.5481    4.4891 H   0  0  0  0  0  0  0  0  0  0  0  0
  5  6  2  0  0  0  0
  5  7  1  0  0  0  0
  2  3  1  0  0  0  0
  2  4  1  0  0  0  0
  2  5  1  0  0  0  0
  1  2  1  0  0  0  0
 19 20  2  0  0  0  0
 19 21  1  0  0  0  0
 16 17  1  0  0  0  0
 16 18  1  0  0  0  0
 14 15  2  0  0  0  0
 14 16  1  0  0  0  0
 11 12  1  0  0  0  0
 11 13  1  0  0  0  0
 11 14  1  0  0  0  0
  9 10  1  0  0  0  0
  9 11  1  0  0  0  0
  9 19  1  0  0  0  0
  7  8  1  0  0  0  0
  7  9  1  0  0  0  0
 23 24  1  0  0  0  0
 23 25  1  0  0  0  0
 23 26  1  0  0  0  0
 21 22  1  0  0  0  0
 21 23  1  0  0  0  0
M  END
$$$$
default_name
  -OEChem-02102213163D

 26 25  0     1  0  0  0  0  0999 V2000
   -3.0232   -3.6924    1.0038 H   0  0  0  0  0  0  0  0  0  0  0  0
   -3.0082   -2.6684    0.6318 C   0  0  0  0  0  0  0  0  0  0  0  0
   -3.6332   -2.0414    1.2658 H   0  0  0  0  0  0  0  0  0  0  0  0
   -3.3762   -2.6444   -0.3912 H   0  0  0  0  0  0  0  0  0  0  0  0
   -1.5882   -2.1554    0.6658 C   0  0  0  0  0  0  0  0  0  0  0  0
   -0.6832   -2.8764    1.0638 O   0  0  0  0  0  0  0  0  0  0  0  0
   -1.3952   -0.9084    0.2428 N   0  0  0  0  0  0  0  0  0  0  0  0
   -2.1972   -0.3644   -0.0422 H   0  0  0  0  0  0  0  0  0  0  0  0
   -0.1122   -0.1994    0.2658 C   0  0  1  0  0  0  0  0  0  0  0  0
    0.6131   -0.7748   -0.3153 H   0  0  0  0  0  0  0  0  0  0  0  0
   -0.2973    1.1841   -0.3966 C   0  0  0  0  0  0  0  0  0  0  0  0
    0.5379    1.3725   -1.0702 H   0  0  0  0  0  0  0  0  0  0  0  0
   -1.2155    1.1820   -0.9820 H   0  0  0  0  0  0  0  0  0  0  0  0
   -0.3382    2.3409    0.5889 C   0  0  0  0  0  0  0  0  0  0  0  0
   -1.3677    2.9190    0.8909 O   0  0  0  0  0  0  0  0  0  0  0  0
    0.7938    2.7294    1.1235 N   0  0  0  0  0  0  0  0  0  0  0  0
    0.7338    3.4841    1.7841 H   0  0  0  0  0  0  0  0  0  0  0  0
    1.6515    2.2580    0.9061 H   0  0  0  0  0  0  0  0  0  0  0  0
    0.4075   -0.0985    1.7169 C   0  0  0  0  0  0  0  0  0  0  0  0
    1.5860   -0.3526    1.9662 O   0  0  0  0  0  0  0  0  0  0  0  0
   -0.4625    0.2583    2.6666 N   0  0  0  0  0  0  0  0  0  0  0  0
   -1.4309    0.3754    2.3860 H   0  0  0  0  0  0  0  0  0  0  0  0
   -0.1275    0.4111    4.0813 C   0  0  0  0  0  0  0  0  0  0  0  0
    0.6862    1.1312    4.1910 H   0  0  0  0  0  0  0  0  0  0  0  0
   -0.9980    0.7641    4.6360 H   0  0  0  0  0  0  0  0  0  0  0  0
    0.1959   -0.5481    4.4891 H   0  0  0  0  0  0  0  0  0  0  0  0
  5  6  2  0  0  0  0
  5  7  1  0  0  0  0
  2  3  1  0  0  0  0
  2  4  1  0  0  0  0
  2  5  1  0  0  0  0
  1  2  1  0  0  0  0
 19 20  2  0  0  0  0
 19 21  1  0  0  0  0
 16 17  1  0  0  0  0
 16 18  1  0  0  0  0
 14 15  2  0  0  0  0
 14 16  1  0  0  0  0
 11 12  1  0  0  0  0
 11 13  1  0  0  0  0
 11 14  1  0  0  0  0
  9 10  1  0  0  0  0
  9 11  1  0  0  0  0
  9 19  1  0  0  0  0
  7  8  1  0  0  0  0
  7  9  1  0  0  0  0
 23 24  1  0  0  0  0
 23 25  1  0  0  0  0
 23 26  1  0  0  0  0
 21 22  1  0  0  0  0
 21 23  1  0  0  0  0
M  END
$$$$
default_name
  -OEChem-02102213163D

 26 25  0     1  0  0  0  0  0999 V2000
   -3.0232   -3.6924    1.0038 H   0  0  0  0  0  0  0  0  0  0  0  0
   -3.0082   -2.6684    0.6318 C   0  0  0  0  0  0  0  0  0  0  0  0
   -3.6332   -2.0414    1.2658 H   0  0  0  0  0  0  0  0  0  0  0  0
   -3.3762   -2.6444   -0.3912 H   0  0  0  0  0  0  0  0  0  0  0  0
   -1.5882   -2.1554    0.6658 C   0  0  0  0  0  0  0  0  0  0  0  0
   -0.6832   -2.8764    1.0638 O   0  0  0  0  0  0  0  0  0  0  0  0
   -1.3952   -0.9084    0.2428 N   0  0  0  0  0  0  0  0  0  0  0  0
   -2.1972   -0.3644   -0.0422 H   0  0  0  0  0  0  0  0  0  0  0  0
   -0.1122   -0.1994    0.2658 C   0  0  1  0  0  0  0  0  0  0  0  0
    0.6131   -0.7748   -0.3153 H   0  0  0  0  0  0  0  0  0  0  0  0
   -0.2973    1.1841   -0.3966 C   0  0  0  0  0  0  0  0  0  0  0  0
    0.5379    1.3725   -1.0702 H   0  0  0  0  0  0  0  0  0  0  0  0
   -1.2155    1.1820   -0.9820 H   0  0  0  0  0  0  0  0  0  0  0  0
   -0.3382    2.3409    0.5889 C   0  0  0  0  0  0  0  0  0  0  0  0
   -1.3707    2.7459    1.0940 O   0  0  0  0  0  0  0  0  0  0  0  0
    0.7948    2.9257    0.8932 N   0  0  0  0  0  0  0  0  0  0  0  0
    0.7394    3.6753    1.5600 H   0  0  0  0  0  0  0  0  0  0  0  0
    1.6600    2.5992    0.5059 H   0  0  0  0  0  0  0  0  0  0  0  0
    0.4075   -0.0985    1.7169 C   0  0  0  0  0  0  0  0  0  0  0  0
    1.5860   -0.3526    1.9662 O   0  0  0  0  0  0  0  0  0  0  0  0
   -0.4625    0.2583    2.6666 N   0  0  0  0  0  0  0  0  0  0  0  0
   -1.4309    0.3754    2.3860 H   0  0  0  0  0  0  0  0  0  0  0  0
   -0.1275    0.4111    4.0813 C   0  0  0  0  0  0  0  0  0  0  0  0
    0.6862    1.1312    4.1910 H   0  0  0  0  0  0  0  0  0  0  0  0
   -0.9980    0.7641    4.6360 H   0  0  0  0  0  0  0  0  0  0  0  0
    0.1959   -0.5481    4.4891 H   0  0  0  0  0  0  0  0  0  0  0  0
  5  6  2  0  0  0  0
  5  7  1  0  0  0  0
  2  3  1  0  0  0  0
  2  4  1  0  0  0  0
  2  5  1  0  0  0  0
  1  2  1  0  0  0  0
 19 20  2  0  0  0  0
 19 21  1  0  0  0  0
 16 17  1  0  0  0  0
 16 18  1  0  0  0  0
 14 15  2  0  0  0  0
 14 16  1  0  0  0  0
 11 12  1  0  0  0  0
 11 13  1  0  0  0  0
 11 14  1  0  0  0  0
  9 10  1  0  0  0  0
  9 11  1  0  0  0  0
  9 19  1  0  0  0  0
  7  8  1  0  0  0  0
  7  9  1  0  0  0  0
 23 24  1  0  0  0  0
 23 25  1  0  0  0  0
 23 26  1  0  0  0  0
 21 22  1  0  0  0  0
 21 23  1  0  0  0  0
M  END
$$$$
default_name
  -OEChem-02102213163D

 26 25  0     1  0  0  0  0  0999 V2000
   -3.0232   -3.6924    1.0038 H   0  0  0  0  0  0  0  0  0  0  0  0
   -3.0082   -2.6684    0.6318 C   0  0  0  0  0  0  0  0  0  0  0  0
   -3.6332   -2.0414    1.2658 H   0  0  0  0  0  0  0  0  0  0  0  0
   -3.3762   -2.6444   -0.3912 H   0  0  0  0  0  0  0  0  0  0  0  0
   -1.5882   -2.1554    0.6658 C   0  0  0  0  0  0  0  0  0  0  0  0
   -0.6832   -2.8764    1.0638 O   0  0  0  0  0  0  0  0  0  0  0  0
   -1.3952   -0.9084    0.2428 N   0  0  0  0  0  0  0  0  0  0  0  0
   -2.1972   -0.3644   -0.0422 H   0  0  0  0  0  0  0  0  0  0  0  0
   -0.1122   -0.1994    0.2658 C   0  0  1  0  0  0  0  0  0  0  0  0
    0.6131   -0.7748   -0.3153 H   0  0  0  0  0  0  0  0  0  0  0  0
   -0.2973    1.1841   -0.3966 C   0  0  0  0  0  0  0  0  0  0  0  0
    0.5379    1.3725   -1.0702 H   0  0  0  0  0  0  0  0  0  0  0  0
   -1.2155    1.1820   -0.9820 H   0  0  0  0  0  0  0  0  0  0  0  0
   -0.3382    2.3409    0.5889 C   0  0  0  0  0  0  0  0  0  0  0  0
   -1.3046    2.5795    1.2920 O   0  0  0  0  0  0  0  0  0  0  0  0
    0.7175    3.1138    0.6691 N   0  0  0  0  0  0  0  0  0  0  0  0
    0.6685    3.8593    1.3411 H   0  0  0  0  0  0  0  0  0  0  0  0
    1.5321    2.9274    0.1154 H   0  0  0  0  0  0  0  0  0  0  0  0
    0.4075   -0.0985    1.7169 C   0  0  0  0  0  0  0  0  0  0  0  0
    1.5860   -0.3526    1.9662 O   0  0  0  0  0  0  0  0  0  0  0  0
   -0.4625    0.2583    2.6666 N   0  0  0  0  0  0  0  0  0  0  0  0
   -1.4309    0.3754    2.3860 H   0  0  0  0  0  0  0  0  0  0  0  0
   -0.1275    0.4111    4.0813 C   0  0  0  0  0  0  0  0  0  0  0  0
    0.6862    1.1312    4.1910 H   0  0  0  0  0  0  0  0  0  0  0  0
   -0.9980    0.7641    4.6360 H   0  0  0  0  0  0  0  0  0  0  0  0
    0.1959   -0.5481    4.4891 H   0  0  0  0  0  0  0  0  0  0  0  0
  5  6  2  0  0  0  0
  5  7  1  0  0  0  0
  2  3  1  0  0  0  0
  2  4  1  0  0  0  0
  2  5  1  0  0  0  0
  1  2  1  0  0  0  0
 19 20  2  0  0  0  0
 19 21  1  0  0  0  0
 16 17  1  0  0  0  0
 16 18  1  0  0  0  0
 14 15  2  0  0  0  0
 14 16  1  0  0  0  0
 11 12  1  0  0  0  0
 11 13  1  0  0  0  0
 11 14  1  0  0  0  0
  9 10  1  0  0  0  0
  9 11  1  0  0  0  0
  9 19  1  0  0  0  0
  7  8  1  0  0  0  0
  7  9  1  0  0  0  0
 23 24  1  0  0  0  0
 23 25  1  0  0  0  0
 23 26  1  0  0  0  0
 21 22  1  0  0  0  0
 21 23  1  0  0  0  0
M  END
$$$$
default_name
  -OEChem-02102213163D

 26 25  0     1  0  0  0  0  0999 V2000
   -3.0232   -3.6924    1.0038 H   0  0  0  0  0  0  0  0  0  0  0  0
   -3.0082   -2.6684    0.6318 C   0  0  0  0  0  0  0  0  0  0  0  0
   -3.6332   -2.0414    1.2658 H   0  0  0  0  0  0  0  0  0  0  0  0
   -3.3762   -2.6444   -0.3912 H   0  0  0  0  0  0  0  0  0  0  0  0
   -1.5882   -2.1554    0.6658 C   0  0  0  0  0  0  0  0  0  0  0  0
   -0.6832   -2.8764    1.0638 O   0  0  0  0  0  0  0  0  0  0  0  0
   -1.3952   -0.9084    0.2428 N   0  0  0  0  0  0  0  0  0  0  0  0
   -2.1972   -0.3644   -0.0422 H   0  0  0  0  0  0  0  0  0  0  0  0
   -0.1122   -0.1994    0.2658 C   0  0  1  0  0  0  0  0  0  0  0  0
    0.6131   -0.7748   -0.3153 H   0  0  0  0  0  0  0  0  0  0  0  0
   -0.2973    1.1841   -0.3966 C   0  0  0  0  0  0  0  0  0  0  0  0
    0.5379    1.3725   -1.0702 H   0  0  0  0  0  0  0  0  0  0  0  0
   -1.2155    1.1820   -0.9820 H   0  0  0  0  0  0  0  0  0  0  0  0
   -0.3382    2.3409    0.5889 C   0  0  0  0  0  0  0  0  0  0  0  0
   -1.1739    2.4314    1.4714 O   0  0  0  0  0  0  0  0  0  0  0  0
    0.5670    3.2810    0.4666 N   0  0  0  0  0  0  0  0  0  0  0  0
    0.5261    4.0236    1.1423 H   0  0  0  0  0  0  0  0  0  0  0  0
    1.2767    3.2202   -0.2390 H   0  0  0  0  0  0  0  0  0  0  0  0
    0.4075   -0.0985    1.7169 C   0  0  0  0  0  0  0  0  0  0  0  0
    1.5860   -0.3526    1.9662 O   0  0  0  0  0  0  0  0  0  0  0  0
   -0.4625    0.2583    2.6666 N   0  0  0  0  0  0  0  0  0  0  0  0
   -1.4309    0.3754    2.3860 H   0  0  0  0  0  0  0  0  0  0  0  0
   -0.1275    0.4111    4.0813 C   0  0  0  0  0  0  0  0  0  0  0  0
    0.6862    1.1312    4.1910 H   0  0  0  0  0  0  0  0  0  0  0  0
   -0.9980    0.7641    4.6360 H   0  0  0  0  0  0  0  0  0  0  0  0
    0.1959   -0.5481    4.4891 H   0  0  0  0  0  0  0  0  0  0  0  0
  5  6  2  0  0  0  0
  5  7  1  0  0  0  0
  2  3  1  0  0  0  0
  2  4  1  0  0  0  0
  2  5  1  0  0  0  0
  1  2  1  0  0  0  0
 19 20  2  0  0  0  0
 19 21  1  0  0  0  0
 16 17  1  0  0  0  0
 16 18  1  0  0  0  0
 14 15  2  0  0  0  0
 14 16  1  0  0  0  0
 11 12  1  0  0  0  0
 11 13  1  0  0  0  0
 11 14  1  0  0  0  0
  9 10  1  0  0  0  0
  9 11  1  0  0  0  0
  9 19  1  0  0  0  0
  7  8  1  0  0  0  0
  7  9  1  0  0  0  0
 23 24  1  0  0  0  0
 23 25  1  0  0  0  0
 23 26  1  0  0  0  0
 21 22  1  0  0  0  0
 21 23  1  0  0  0  0
M  END
$$$$
default_name
  -OEChem-02102213163D

 26 25  0     1  0  0  0  0  0999 V2000
   -3.0232   -3.6924    1.0038 H   0  0  0  0  0  0  0  0  0  0  0  0
   -3.0082   -2.6684    0.6318 C   0  0  0  0  0  0  0  0  0  0  0  0
   -3.6332   -2.0414    1.2658 H   0  0  0  0  0  0  0  0  0  0  0  0
   -3.3762   -2.6444   -0.3912 H   0  0  0  0  0  0  0  0  0  0  0  0
   -1.5882   -2.1554    0.6658 C   0  0  0  0  0  0  0  0  0  0  0  0
   -0.6832   -2.8764    1.0638 O   0  0  0  0  0  0  0  0  0  0  0  0
   -1.3952   -0.9084    0.2428 N   0  0  0  0  0  0  0  0  0  0  0  0
   -2.1972   -0.3644   -0.0422 H   0  0  0  0  0  0  0  0  0  0  0  0
   -0.1122   -0.1994    0.2658 C   0  0  1  0  0  0  0  0  0  0  0  0
    0.6131   -0.7748   -0.3153 H   0  0  0  0  0  0  0  0  0  0  0  0
   -0.2973    1.1841   -0.3966 C   0  0  0  0  0  0  0  0  0  0  0  0
    0.5379    1.3725   -1.0702 H   0  0  0  0  0  0  0  0  0  0  0  0
   -1.2155    1.1820   -0.9820 H   0  0  0  0  0  0  0  0  0  0  0  0
   -0.3382    2.3409    0.5889 C   0  0  0  0  0  0  0  0  0  0  0  0
   -0.9874    2.3114    1.6199 O   0  0  0  0  0  0  0  0  0  0  0  0
    0.3538    3.4159    0.2994 N   0  0  0  0  0  0  0  0  0  0  0  0
    0.3219    4.1570    0.9772 H   0  0  0  0  0  0  0  0  0  0  0  0
    0.9110    3.4577   -0.5330 H   0  0  0  0  0  0  0  0  0  0  0  0
    0.4075   -0.0985    1.7169 C   0  0  0  0  0  0  0  0  0  0  0  0
    1.5860   -0.3526    1.9662 O   0  0  0  0  0  0  0  0  0  0  0  0
   -0.4625    0.2583    2.6666 N   0  0  0  0  0  0  0  0  0  0  0  0
   -1.4309    0.3754    2.3860 H   0  0  0  0  0  0  0  0  0  0  0  0
   -0.1275    0.4111    4.0813 C   0  0  0  0  0  0  0  0  0  0  0  0
    0.6862    1.1312    4.1910 H   0  0  0  0  0  0  0  0  0  0  0  0
   -0.9980    0.7641    4.6360 H   0  0  0  0  0  0  0  0  0  0  0  0
    0.1959   -0.5481    4.4891 H   0  0  0  0  0  0  0  0  0  0  0  0
  5  6  2  0  0  0  0
  5  7  1  0  0  0  0
  2  3  1  0  0  0  0
  2  4  1  0  0  0  0
  2  5  1  0  0  0  0
  1  2  1  0  0  0  0
 19 20  2  0  0  0  0
 19 21  1  0  0  0  0
 16 17  1  0  0  0  0
 16 18  1  0  0  0  0
 14 15  2  0  0  0  0
 14 16  1  0  0  0  0
 11 12  1  0  0  0  0
 11 13  1  0  0  0  0
 11 14  1  0  0  0  0
  9 10  1  0  0  0  0
  9 11  1  0  0  0  0
  9 19  1  0  0  0  0
  7  8  1  0  0  0  0
  7  9  1  0  0  0  0
 23 24  1  0  0  0  0
 23 25  1  0  0  0  0
 23 26  1  0  0  0  0
 21 22  1  0  0  0  0
 21 23  1  0  0  0  0
M  END
$$$$
default_name
  -OEChem-02102213163D

 26 25  0     1  0  0  0  0  0999 V2000
   -3.0232   -3.6924    1.0038 H   0  0  0  0  0  0  0  0  0  0  0  0
   -3.0082   -2.6684    0.6318 C   0  0  0  0  0  0  0  0  0  0  0  0
   -3.6332   -2.0414    1.2658 H   0  0  0  0  0  0  0  0  0  0  0  0
   -3.3762   -2.6444   -0.3912 H   0  0  0  0  0  0  0  0  0  0  0  0
   -1.5882   -2.1554    0.6658 C   0  0  0  0  0  0  0  0  0  0  0  0
   -0.6832   -2.8764    1.0638 O   0  0  0  0  0  0  0  0  0  0  0  0
   -1.3952   -0.9084    0.2428 N   0  0  0  0  0  0  0  0  0  0  0  0
   -2.1972   -0.3644   -0.0422 H   0  0  0  0  0  0  0  0  0  0  0  0
   -0.1122   -0.1994    0.2658 C   0  0  1  0  0  0  0  0  0  0  0  0
    0.6131   -0.7748   -0.3153 H   0  0  0  0  0  0  0  0  0  0  0  0
   -0.2973    1.1841   -0.3966 C   0  0  0  0  0  0  0  0  0  0  0  0
    0.5379    1.3725   -1.0702 H   0  0  0  0  0  0  0  0  0  0  0  0
   -1.2155    1.1820   -0.9820 H   0  0  0  0  0  0  0  0  0  0  0  0
   -0.3382    2.3409    0.5889 C   0  0  0  0  0  0  0  0  0  0  0  0
   -0.7579    2.2279    1.7275 O   0  0  0  0  0  0  0  0  0  0  0  0
    0.0923    3.5092    0.1790 N   0  0  0  0  0  0  0  0  0  0  0  0
    0.0697    4.2505    0.8570 H   0  0  0  0  0  0  0  0  0  0  0  0
    0.4600    3.6238   -0.7466 H   0  0  0  0  0  0  0  0  0  0  0  0
    0.4075   -0.0985    1.7169 C   0  0  0  0  0  0  0  0  0  0  0  0
    1.5860   -0.3526    1.9662 O   0  0  0  0  0  0  0  0  0  0  0  0
   -0.4625    0.2583    2.6666 N   0  0  0  0  0  0  0  0  0  0  0  0
   -1.4309    0.3754    2.3860 H   0  0  0  0  0  0  0  0  0  0  0  0
   -0.1275    0.4111    4.0813 C   0  0  0  0  0  0  0  0  0  0  0  0
    0.6862    1.1312    4.1910 H   0  0  0  0  0  0  0  0  0  0  0  0
   -0.9980    0.7641    4.6360 H   0  0  0  0  0  0  0  0  0  0  0  0
    0.1959   -0.5481    4.4891 H   0  0  0  0  0  0  0  0  0  0  0  0
  5  6  2  0  0  0  0
  5  7  1  0  0  0  0
  2  3  1  0  0  0  0
  2  4  1  0  0  0  0
  2  5  1  0  0  0  0
  1  2  1  0  0  0  0
 19 20  2  0  0  0  0
 19 21  1  0  0  0  0
 16 17  1  0  0  0  0
 16 18  1  0  0  0  0
 14 15  2  0  0  0  0
 14 16  1  0  0  0  0
 11 12  1  0  0  0  0
 11 13  1  0  0  0  0
 11 14  1  0  0  0  0
  9 10  1  0  0  0  0
  9 11  1  0  0  0  0
  9 19  1  0  0  0  0
  7  8  1  0  0  0  0
  7  9  1  0  0  0  0
 23 24  1  0  0  0  0
 23 25  1  0  0  0  0
 23 26  1  0  0  0  0
 21 22  1  0  0  0  0
 21 23  1  0  0  0  0
M  END
$$$$
default_name
  -OEChem-02102213163D

 26 25  0     1  0  0  0  0  0999 V2000
   -3.0232   -3.6924    1.0038 H   0  0  0  0  0  0  0  0  0  0  0  0
   -3.0082   -2.6684    0.6318 C   0  0  0  0  0  0  0  0  0  0  0  0
   -3.6332   -2.0414    1.2658 H   0  0  0  0  0  0  0  0  0  0  0  0
   -3.3762   -2.6444   -0.3912 H   0  0  0  0  0  0  0  0  0  0  0  0
   -1.5882   -2.1554    0.6658 C   0  0  0  0  0  0  0  0  0  0  0  0
   -0.6832   -2.8764    1.0638 O   0  0  0  0  0  0  0  0  0  0  0  0
   -1.3952   -0.9084    0.2428 N   0  0  0  0  0  0  0  0  0  0  0  0
   -2.1972   -0.3644   -0.0422 H   0  0  0  0  0  0  0  0  0  0  0  0
   -0.1122   -0.1994    0.2658 C   0  0  1  0  0  0  0  0  0  0  0  0
    0.6131   -0.7748   -0.3153 H   0  0  0  0  0  0  0  0  0  0  0  0
   -0.2973    1.1841   -0.3966 C   0  0  0  0  0  0  0  0  0  0  0  0
    0.5379    1.3725   -1.0702 H   0  0  0  0  0  0  0  0  0  0  0  0
   -1.2155    1.1820   -0.9820 H   0  0  0  0  0  0  0  0  0  0  0  0
   -0.3382    2.3409    0.5889 C   0  0  0  0  0  0  0  0  0  0  0  0
   -0.5010    2.1865    1.7868 O   0  0  0  0  0  0  0  0  0  0  0  0
   -0.1997    3.5546    0.1135 N   0  0  0  0  0  0  0  0  0  0  0  0
   -0.2133    4.2976    0.7899 H   0  0  0  0  0  0  0  0  0  0  0  0
   -0.0455    3.7070   -0.8653 H   0  0  0  0  0  0  0  0  0  0  0  0
    0.4075   -0.0985    1.7169 C   0  0  0  0  0  0  0  0  0  0  0  0
    1.5860   -0.3526    1.9662 O   0  0  0  0  0  0  0  0  0  0  0  0
   -0.4625    0.2583    2.6666 N   0  0  0  0  0  0  0  0  0  0  0  0
   -1.4309    0.3754    2.3860 H   0  0  0  0  0  0  0  0  0  0  0  0
   -0.1275    0.4111    4.0813 C   0  0  0  0  0  0  0  0  0  0  0  0
    0.6862    1.1312    4.1910 H   0  0  0  0  0  0  0  0  0  0  0  0
   -0.9980    0.7641    4.6360 H   0  0  0  0  0  0  0  0  0  0  0  0
    0.1959   -0.5481    4.4891 H   0  0  0  0  0  0  0  0  0  0  0  0
  5  6  2  0  0  0  0
  5  7  1  0  0  0  0
  2  3  1  0  0  0  0
  2  4  1  0  0  0  0
  2  5  1  0  0  0  0
  1  2  1  0  0  0  0
 19 20  2  0  0  0  0
 19 21  1  0  0  0  0
 16 17  1  0  0  0  0
 16 18  1  0  0  0  0
 14 15  2  0  0  0  0
 14 16  1  0  0  0  0
 11 12  1  0  0  0  0
 11 13  1  0  0  0  0
 11 14  1  0  0  0  0
  9 10  1  0  0  0  0
  9 11  1  0  0  0  0
  9 19  1  0  0  0  0
  7  8  1  0  0  0  0
  7  9  1  0  0  0  0
 23 24  1  0  0  0  0
 23 25  1  0  0  0  0
 23 26  1  0  0  0  0
 21 22  1  0  0  0  0
 21 23  1  0  0  0  0
M  END
$$$$
default_name
  -OEChem-02102213163D

 26 25  0     1  0  0  0  0  0999 V2000
   -3.0232   -3.6924    1.0038 H   0  0  0  0  0  0  0  0  0  0  0  0
   -3.0082   -2.6684    0.6318 C   0  0  0  0  0  0  0  0  0  0  0  0
   -3.6332   -2.0414    1.2658 H   0  0  0  0  0  0  0  0  0  0  0  0
   -3.3762   -2.6444   -0.3912 H   0  0  0  0  0  0  0  0  0  0  0  0
   -1.5882   -2.1554    0.6658 C   0  0  0  0  0  0  0  0  0  0  0  0
   -0.6832   -2.8764    1.0638 O   0  0  0  0  0  0  0  0  0  0  0  0
   -1.3952   -0.9084    0.2428 N   0  0  0  0  0  0  0  0  0  0  0  0
   -2.1972   -0.3644   -0.0422 H   0  0  0  0  0  0  0  0  0  0  0  0
   -0.1122   -0.1994    0.2658 C   0  0  1  0  0  0  0  0  0  0  0  0
    0.6131   -0.7748   -0.3153 H   0  0  0  0  0  0  0  0  0  0  0  0
   -0.2973    1.1841   -0.3966 C   0  0  0  0  0  0  0  0  0  0  0  0
    0.5379    1.3725   -1.0702 H   0  0  0  0  0  0  0  0  0  0  0  0
   -1.2155    1.1820   -0.9820 H   0  0  0  0  0  0  0  0  0  0  0  0
   -0.3382    2.3409    0.5889 C   0  0  0  0  0  0  0  0  0  0  0  0
   -0.2342    2.1900    1.7937 O   0  0  0  0  0  0  0  0  0  0  0  0
   -0.5022    3.5491    0.1075 N   0  0  0  0  0  0  0  0  0  0  0  0
   -0.5078    4.2952    0.7805 H   0  0  0  0  0  0  0  0  0  0  0  0
   -0.5712    3.7017   -0.8809 H   0  0  0  0  0  0  0  0  0  0  0  0
    0.4075   -0.0985    1.7169 C   0  0  0  0  0  0  0  0  0  0  0  0
    1.5860   -0.3526    1.9662 O   0  0  0  0  0  0  0  0  0  0  0  0
   -0.4625    0.2583    2.6666 N   0  0  0  0  0  0  0  0  0  0  0  0
   -1.4309    0.3754    2.3860 H   0  0  0  0  0  0  0  0  0  0  0  0
   -0.1275    0.4111    4.0813 C   0  0  0  0  0  0  0  0  0  0  0  0
    0.6862    1.1312    4.1910 H   0  0  0  0  0  0  0  0  0  0  0  0
   -0.9980    0.7641    4.6360 H   0  0  0  0  0  0  0  0  0  0  0  0
    0.1959   -0.5481    4.4891 H   0  0  0  0  0  0  0  0  0  0  0  0
  5  6  2  0  0  0  0
  5  7  1  0  0  0  0
  2  3  1  0  0  0  0
  2  4  1  0  0  0  0
  2  5  1  0  0  0  0
  1  2  1  0  0  0  0
 19 20  2  0  0  0  0
 19 21  1  0  0  0  0
 16 17  1  0  0  0  0
 16 18  1  0  0  0  0
 14 15  2  0  0  0  0
 14 16  1  0  0  0  0
 11 12  1  0  0  0  0
 11 13  1  0  0  0  0
 11 14  1  0  0  0  0
  9 10  1  0  0  0  0
  9 11  1  0  0  0  0
  9 19  1  0  0  0  0
  7  8  1  0  0  0  0
  7  9  1  0  0  0  0
 23 24  1  0  0  0  0
 23 25  1  0  0  0  0
 23 26  1  0  0  0  0
 21 22  1  0  0  0  0
 21 23  1  0  0  0  0
M  END
$$$$
default_name
  -OEChem-02102213163D

 26 25  0     1  0  0  0  0  0999 V2000
   -3.0232   -3.6924    1.0038 H   0  0  0  0  0  0  0  0  0  0  0  0
   -3.0082   -2.6684    0.6318 C   0  0  0  0  0  0  0  0  0  0  0  0
   -3.6332   -2.0414    1.2658 H   0  0  0  0  0  0  0  0  0  0  0  0
   -3.3762   -2.6444   -0.3912 H   0  0  0  0  0  0  0  0  0  0  0  0
   -1.5882   -2.1554    0.6658 C   0  0  0  0  0  0  0  0  0  0  0  0
   -0.6832   -2.8764    1.0638 O   0  0  0  0  0  0  0  0  0  0  0  0
   -1.3952   -0.9084    0.2428 N   0  0  0  0  0  0  0  0  0  0  0  0
   -2.1972   -0.3644   -0.0422 H   0  0  0  0  0  0  0  0  0  0  0  0
   -0.1122   -0.1994    0.2658 C   0  0  1  0  0  0  0  0  0  0  0  0
    0.6131   -0.7748   -0.3153 H   0  0  0  0  0  0  0  0  0  0  0  0
   -0.2973    1.1841   -0.3966 C   0  0  0  0  0  0  0  0  0  0  0  0
    0.5379    1.3725   -1.0702 H   0  0  0  0  0  0  0  0  0  0  0  0
   -1.2155    1.1820   -0.9820 H   0  0  0  0  0  0  0  0  0  0  0  0
   -0.3382    2.3409    0.5889 C   0  0  0  0  0  0  0  0  0  0  0  0
    0.0242    2.2381    1.7479 O   0  0  0  0  0  0  0  0  0  0  0  0
   -0.7947    3.4929    0.1613 N   0  0  0  0  0  0  0  0  0  0  0  0
   -0.7936    4.2434    0.8295 H   0  0  0  0  0  0  0  0  0  0  0  0
   -1.0811    3.6084   -0.7924 H   0  0  0  0  0  0  0  0  0  0  0  0
    0.4075   -0.0985    1.7169 C   0  0  0  0  0  0  0  0  0  0  0  0
    1.5860   -0.3526    1.9662 O   0  0  0  0  0  0  0  0  0  0  0  0
   -0.4625    0.2583    2.6666 N   0  0  0  0  0  0  0  0  0  0  0  0
   -1.4309    0.3754    2.3860 H   0  0  0  0  0  0  0  0  0  0  0  0
   -0.1275    0.4111    4.0813 C   0  0  0  0  0  0  0  0  0  0  0  0
    0.6862    1.1312    4.1910 H   0  0  0  0  0  0  0  0  0  0  0  0
   -0.9980    0.7641    4.6360 H   0  0  0  0  0  0  0  0  0  0  0  0
    0.1959   -0.5481    4.4891 H   0  0  0  0  0  0  0  0  0  0  0  0
  5  6  2  0  0  0  0
  5  7  1  0  0  0  0
  2  3  1  0  0  0  0
  2  4  1  0  0  0  0
  2  5  1  0  0  0  0
  1  2  1  0  0  0  0
 19 20  2  0  0  0  0
 19 21  1  0  0  0  0
 16 17  1  0  0  0  0
 16 18  1  0  0  0  0
 14 15  2  0  0  0  0
 14 16  1  0  0  0  0
 11 12  1  0  0  0  0
 11 13  1  0  0  0  0
 11 14  1  0  0  0  0
  9 10  1  0  0  0  0
  9 11  1  0  0  0  0
  9 19  1  0  0  0  0
  7  8  1  0  0  0  0
  7  9  1  0  0  0  0
 23 24  1  0  0  0  0
 23 25  1  0  0  0  0
 23 26  1  0  0  0  0
 21 22  1  0  0  0  0
 21 23  1  0  0  0  0
M  END
$$$$
default_name
  -OEChem-02102213163D

 26 25  0     1  0  0  0  0  0999 V2000
   -3.0232   -3.6924    1.0038 H   0  0  0  0  0  0  0  0  0  0  0  0
   -3.0082   -2.6684    0.6318 C   0  0  0  0  0  0  0  0  0  0  0  0
   -3.6332   -2.0414    1.2658 H   0  0  0  0  0  0  0  0  0  0  0  0
   -3.3762   -2.6444   -0.3912 H   0  0  0  0  0  0  0  0  0  0  0  0
   -1.5882   -2.1554    0.6658 C   0  0  0  0  0  0  0  0  0  0  0  0
   -0.6832   -2.8764    1.0638 O   0  0  0  0  0  0  0  0  0  0  0  0
   -1.3952   -0.9084    0.2428 N   0  0  0  0  0  0  0  0  0  0  0  0
   -2.1972   -0.3644   -0.0422 H   0  0  0  0  0  0  0  0  0  0  0  0
   -0.1122   -0.1994    0.2658 C   0  0  1  0  0  0  0  0  0  0  0  0
    0.6131   -0.7748   -0.3153 H   0  0  0  0  0  0  0  0  0  0  0  0
   -0.2973    1.1841   -0.3966 C   0  0  0  0  0  0  0  0  0  0  0  0
    0.5379    1.3725   -1.0702 H   0  0  0  0  0  0  0  0  0  0  0  0
   -1.2155    1.1820   -0.9820 H   0  0  0  0  0  0  0  0  0  0  0  0
   -0.3382    2.3409    0.5889 C   0  0  0  0  0  0  0  0  0  0  0  0
    0.2568    2.3277    1.6524 O   0  0  0  0  0  0  0  0  0  0  0  0
   -1.0572    3.3899    0.2713 N   0  0  0  0  0  0  0  0  0  0  0  0
   -1.0514    4.1457    0.9334 H   0  0  0  0  0  0  0  0  0  0  0  0
   -1.5406    3.4332   -0.6059 H   0  0  0  0  0  0  0  0  0  0  0  0
    0.4075   -0.0985    1.7169 C   0  0  0  0  0  0  0  0  0  0  0  0
    1.5860   -0.3526    1.9662 O   0  0  0  0  0  0  0  0  0  0  0  0
   -0.4625    0.2583    2.6666 N   0  0  0  0  0  0  0  0  0  0  0  0
   -1.4309    0.3754    2.3860 H   0  0  0  0  0  0  0  0  0  0  0  0
   -0.1275    0.4111    4.0813 C   0  0  0  0  0  0  0  0  0  0  0  0
    0.6862    1.1312    4.1910 H   0  0  0  0  0  0  0  0  0  0  0  0
   -0.9980    0.7641    4.6360 H   0  0  0  0  0  0  0  0  0  0  0  0
    0.1959   -0.5481    4.4891 H   0  0  0  0  0  0  0  0  0  0  0  0
  5  6  2  0  0  0  0
  5  7  1  0  0  0  0
  2  3  1  0  0  0  0
  2  4  1  0  0  0  0
  2  5  1  0  0  0  0
  1  2  1  0  0  0  0
 19 20  2  0  0  0  0
 19 21  1  0  0  0  0
 16 17  1  0  0  0  0
 16 18  1  0  0  0  0
 14 15  2  0  0  0  0
 14 16  1  0  0  0  0
 11 12  1  0  0  0  0
 11 13  1  0  0  0  0
 11 14  1  0  0  0  0
  9 10  1  0  0  0  0
  9 11  1  0  0  0  0
  9 19  1  0  0  0  0
  7  8  1  0  0  0  0
  7  9  1  0  0  0  0
 23 24  1  0  0  0  0
 23 25  1  0  0  0  0
 23 26  1  0  0  0  0
 21 22  1  0  0  0  0
 21 23  1  0  0  0  0
M  END
$$$$
default_name
  -OEChem-02102213163D

 26 25  0     1  0  0  0  0  0999 V2000
   -3.0232   -3.6924    1.0038 H   0  0  0  0  0  0  0  0  0  0  0  0
   -3.0082   -2.6684    0.6318 C   0  0  0  0  0  0  0  0  0  0  0  0
   -3.6332   -2.0414    1.2658 H   0  0  0  0  0  0  0  0  0  0  0  0
   -3.3762   -2.6444   -0.3912 H   0  0  0  0  0  0  0  0  0  0  0  0
   -1.5882   -2.1554    0.6658 C   0  0  0  0  0  0  0  0  0  0  0  0
   -0.6832   -2.8764    1.0638 O   0  0  0  0  0  0  0  0  0  0  0  0
   -1.3952   -0.9084    0.2428 N   0  0  0  0  0  0  0  0  0  0  0  0
   -2.1972   -0.3644   -0.0422 H   0  0  0  0  0  0  0  0  0  0  0  0
   -0.1122   -0.1994    0.2658 C   0  0  1  0  0  0  0  0  0  0  0  0
    0.6131   -0.7748   -0.3153 H   0  0  0  0  0  0  0  0  0  0  0  0
   -0.2973    1.1841   -0.3966 C   0  0  0  0  0  0  0  0  0  0  0  0
    0.5379    1.3725   -1.0702 H   0  0  0  0  0  0  0  0  0  0  0  0
   -1.2155    1.1820   -0.9820 H   0  0  0  0  0  0  0  0  0  0  0  0
   -0.3382    2.3409    0.5889 C   0  0  0  0  0  0  0  0  0  0  0  0
    0.4476    2.4526    1.5137 O   0  0  0  0  0  0  0  0  0  0  0  0
   -1.2718    3.2472    0.4299 N   0  0  0  0  0  0  0  0  0  0  0  0
   -1.2636    4.0089    1.0853 H   0  0  0  0  0  0  0  0  0  0  0  0
   -1.9183    3.1882   -0.3340 H   0  0  0  0  0  0  0  0  0  0  0  0
    0.4075   -0.0985    1.7169 C   0  0  0  0  0  0  0  0  0  0  0  0
    1.5860   -0.3526    1.9662 O   0  0  0  0  0  0  0  0  0  0  0  0
   -0.4625    0.2583    2.6666 N   0  0  0  0  0  0  0  0  0  0  0  0
   -1.4309    0.3754    2.3860 H   0  0  0  0  0  0  0  0  0  0  0  0
   -0.1275    0.4111    4.0813 C   0  0  0  0  0  0  0  0  0  0  0  0
    0.6862    1.1312    4.1910 H   0  0  0  0  0  0  0  0  0  0  0  0
   -0.9980    0.7641    4.6360 H   0  0  0  0  0  0  0  0  0  0  0  0
    0.1959   -0.5481    4.4891 H   0  0  0  0  0  0  0  0  0  0  0  0
  5  6  2  0  0  0  0
  5  7  1  0  0  0  0
  2  3  1  0  0  0  0
  2  4  1  0  0  0  0
  2  5  1  0  0  0  0
  1  2  1  0  0  0  0
 19 20  2  0  0  0  0
 19 21  1  0  0  0  0
 16 17  1  0  0  0  0
 16 18  1  0  0  0  0
 14 15  2  0  0  0  0
 14 16  1  0  0  0  0
 11 12  1  0  0  0  0
 11 13  1  0  0  0  0
 11 14  1  0  0  0  0
  9 10  1  0  0  0  0
  9 11  1  0  0  0  0
  9 19  1  0  0  0  0
  7  8  1  0  0  0  0
  7  9  1  0  0  0  0
 23 24  1  0  0  0  0
 23 25  1  0  0  0  0
 23 26  1  0  0  0  0
 21 22  1  0  0  0  0
 21 23  1  0  0  0  0
M  END
$$$$
default_name
  -OEChem-02102213163D

 26 25  0     1  0  0  0  0  0999 V2000
   -3.0232   -3.6924    1.0038 H   0  0  0  0  0  0  0  0  0  0  0  0
   -3.0082   -2.6684    0.6318 C   0  0  0  0  0  0  0  0  0  0  0  0
   -3.6332   -2.0414    1.2658 H   0  0  0  0  0  0  0  0  0  0  0  0
   -3.3762   -2.6444   -0.3912 H   0  0  0  0  0  0  0  0  0  0  0  0
   -1.5882   -2.1554    0.6658 C   0  0  0  0  0  0  0  0  0  0  0  0
   -0.6832   -2.8764    1.0638 O   0  0  0  0  0  0  0  0  0  0  0  0
   -1.3952   -0.9084    0.2428 N   0  0  0  0  0  0  0  0  0  0  0  0
   -2.1972   -0.3644   -0.0422 H   0  0  0  0  0  0  0  0  0  0  0  0
   -0.1122   -0.1994    0.2658 C   0  0  1  0  0  0  0  0  0  0  0  0
    0.6131   -0.7748   -0.3153 H   0  0  0  0  0  0  0  0  0  0  0  0
   -0.2973    1.1841   -0.3966 C   0  0  0  0  0  0  0  0  0  0  0  0
    0.5379    1.3725   -1.0702 H   0  0  0  0  0  0  0  0  0  0  0  0
   -1.2155    1.1820   -0.9820 H   0  0  0  0  0  0  0  0  0  0  0  0
   -0.3382    2.3409    0.5889 C   0  0  0  0  0  0  0  0  0  0  0  0
    0.5836    2.6043    1.3413 O   0  0  0  0  0  0  0  0  0  0  0  0
   -1.4240    3.0744    0.6264 N   0  0  0  0  0  0  0  0  0  0  0  0
   -1.4156    3.8421    1.2747 H   0  0  0  0  0  0  0  0  0  0  0  0
   -2.1885    2.8901    0.0047 H   0  0  0  0  0  0  0  0  0  0  0  0
    0.4075   -0.0985    1.7169 C   0  0  0  0  0  0  0  0  0  0  0  0
    1.5860   -0.3526    1.9662 O   0  0  0  0  0  0  0  0  0  0  0  0
   -0.4625    0.2583    2.6666 N   0  0  0  0  0  0  0  0  0  0  0  0
   -1.4309    0.3754    2.3860 H   0  0  0  0  0  0  0  0  0  0  0  0
   -0.1275    0.4111    4.0813 C   0  0  0  0  0  0  0  0  0  0  0  0
    0.6862    1.1312    4.1910 H   0  0  0  0  0  0  0  0  0  0  0  0
   -0.9980    0.7641    4.6360 H   0  0  0  0  0  0  0  0  0  0  0  0
    0.1959   -0.5481    4.4891 H   0  0  0  0  0  0  0  0  0  0  0  0
  5  6  2  0  0  0  0
  5  7  1  0  0  0  0
  2  3  1  0  0  0  0
  2  4  1  0  0  0  0
  2  5  1  0  0  0  0
  1  2  1  0  0  0  0
 19 20  2  0  0  0  0
 19 21  1  0  0  0  0
 16 17  1  0  0  0  0
 16 18  1  0  0  0  0
 14 15  2  0  0  0  0
 14 16  1  0  0  0  0
 11 12  1  0  0  0  0
 11 13  1  0  0  0  0
 11 14  1  0  0  0  0
  9 10  1  0  0  0  0
  9 11  1  0  0  0  0
  9 19  1  0  0  0  0
  7  8  1  0  0  0  0
  7  9  1  0  0  0  0
 23 24  1  0  0  0  0
 23 25  1  0  0  0  0
 23 26  1  0  0  0  0
 21 22  1  0  0  0  0
 21 23  1  0  0  0  0
M  END
$$$$
default_name
  -OEChem-02102213163D

 26 25  0     1  0  0  0  0  0999 V2000
   -3.0232   -3.6924    1.0038 H   0  0  0  0  0  0  0  0  0  0  0  0
   -3.0082   -2.6684    0.6318 C   0  0  0  0  0  0  0  0  0  0  0  0
   -3.6332   -2.0414    1.2658 H   0  0  0  0  0  0  0  0  0  0  0  0
   -3.3762   -2.6444   -0.3912 H   0  0  0  0  0  0  0  0  0  0  0  0
   -1.5882   -2.1554    0.6658 C   0  0  0  0  0  0  0  0  0  0  0  0
   -0.6832   -2.8764    1.0638 O   0  0  0  0  0  0  0  0  0  0  0  0
   -1.3952   -0.9084    0.2428 N   0  0  0  0  0  0  0  0  0  0  0  0
   -2.1972   -0.3644   -0.0422 H   0  0  0  0  0  0  0  0  0  0  0  0
   -0.1122   -0.1994    0.2658 C   0  0  1  0  0  0  0  0  0  0  0  0
    0.6131   -0.7748   -0.3153 H   0  0  0  0  0  0  0  0  0  0  0  0
   -0.2973    1.1841   -0.3966 C   0  0  0  0  0  0  0  0  0  0  0  0
    0.5379    1.3725   -1.0702 H   0  0  0  0  0  0  0  0  0  0  0  0
   -1.2155    1.1820   -0.9820 H   0  0  0  0  0  0  0  0  0  0  0  0
   -0.3382    2.3409    0.5889 C   0  0  0  0  0  0  0  0  0  0  0  0
    0.6555    2.7724    1.1470 O   0  0  0  0  0  0  0  0  0  0  0  0
   -1.5032    2.8834    0.8474 N   0  0  0  0  0  0  0  0  0  0  0  0
   -1.4972    3.6569    1.4887 H   0  0  0  0  0  0  0  0  0  0  0  0
   -2.3327    2.5592    0.3871 H   0  0  0  0  0  0  0  0  0  0  0  0
    0.4075   -0.0985    1.7169 C   0  0  0  0  0  0  0  0  0  0  0  0
    1.5860   -0.3526    1.9662 O   0  0  0  0  0  0  0  0  0  0  0  0
   -0.4625    0.2583    2.6666 N   0  0  0  0  0  0  0  0  0  0  0  0
   -1.4309    0.3754    2.3860 H   0  0  0  0  0  0  0  0  0  0  0  0
   -0.1275    0.4111    4.0813 C   0  0  0  0  0  0  0  0  0  0  0  0
    0.6862    1.1312    4.1910 H   0  0  0  0  0  0  0  0  0  0  0  0
   -0.9980    0.7641    4.6360 H   0  0  0  0  0  0  0  0  0  0  0  0
    0.1959   -0.5481    4.4891 H   0  0  0  0  0  0  0  0  0  0  0  0
  5  6  2  0  0  0  0
  5  7  1  0  0  0  0
  2  3  1  0  0  0  0
  2  4  1  0  0  0  0
  2  5  1  0  0  0  0
  1  2  1  0  0  0  0
 19 20  2  0  0  0  0
 19 21  1  0  0  0  0
 16 17  1  0  0  0  0
 16 18  1  0  0  0  0
 14 15  2  0  0  0  0
 14 16  1  0  0  0  0
 11 12  1  0  0  0  0
 11 13  1  0  0  0  0
 11 14  1  0  0  0  0
  9 10  1  0  0  0  0
  9 11  1  0  0  0  0
  9 19  1  0  0  0  0
  7  8  1  0  0  0  0
  7  9  1  0  0  0  0
 23 24  1  0  0  0  0
 23 25  1  0  0  0  0
 23 26  1  0  0  0  0
 21 22  1  0  0  0  0
 21 23  1  0  0  0  0
M  END
$$$$
default_name
  -OEChem-02102213163D

 26 25  0     1  0  0  0  0  0999 V2000
   -3.0232   -3.6924    1.0038 H   0  0  0  0  0  0  0  0  0  0  0  0
   -3.0082   -2.6684    0.6318 C   0  0  0  0  0  0  0  0  0  0  0  0
   -3.6332   -2.0414    1.2658 H   0  0  0  0  0  0  0  0  0  0  0  0
   -3.3762   -2.6444   -0.3912 H   0  0  0  0  0  0  0  0  0  0  0  0
   -1.5882   -2.1554    0.6658 C   0  0  0  0  0  0  0  0  0  0  0  0
   -0.6832   -2.8764    1.0638 O   0  0  0  0  0  0  0  0  0  0  0  0
   -1.3952   -0.9084    0.2428 N   0  0  0  0  0  0  0  0  0  0  0  0
   -2.1972   -0.3644   -0.0422 H   0  0  0  0  0  0  0  0  0  0  0  0
   -0.1122   -0.1994    0.2658 C   0  0  1  0  0  0  0  0  0  0  0  0
    0.6131   -0.7748   -0.3153 H   0  0  0  0  0  0  0  0  0  0  0  0
   -0.2973    1.1841   -0.3966 C   0  0  0  0  0  0  0  0  0  0  0  0
    0.5379    1.3725   -1.0702 H   0  0  0  0  0  0  0  0  0  0  0  0
   -1.2155    1.1820   -0.9820 H   0  0  0  0  0  0  0  0  0  0  0  0
   -0.3382    2.3409    0.5889 C   0  0  0  0  0  0  0  0  0  0  0  0
    0.6586    2.9455    0.9439 O   0  0  0  0  0  0  0  0  0  0  0  0
   -1.5042    2.6871    1.0777 N   0  0  0  0  0  0  0  0  0  0  0  0
   -1.5028    3.4658    1.7128 H   0  0  0  0  0  0  0  0  0  0  0  0
   -2.3412    2.2181    0.7872 H   0  0  0  0  0  0  0  0  0  0  0  0
    0.4075   -0.0985    1.7169 C   0  0  0  0  0  0  0  0  0  0  0  0
    1.5860   -0.3526    1.9662 O   0  0  0  0  0  0  0  0  0  0  0  0
   -0.4625    0.2583    2.6666 N   0  0  0  0  0  0  0  0  0  0  0  0
   -1.4309    0.3754    2.3860 H   0  0  0  0  0  0  0  0  0  0  0  0
   -0.1275    0.4111    4.0813 C   0  0  0  0  0  0  0  0  0  0  0  0
    0.6862    1.1312    4.1910 H   0  0  0  0  0  0  0  0  0  0  0  0
   -0.9980    0.7641    4.6360 H   0  0  0  0  0  0  0  0  0  0  0  0
    0.1959   -0.5481    4.4891 H   0  0  0  0  0  0  0  0  0  0  0  0
  5  6  2  0  0  0  0
  5  7  1  0  0  0  0
  2  3  1  0  0  0  0
  2  4  1  0  0  0  0
  2  5  1  0  0  0  0
  1  2  1  0  0  0  0
 19 20  2  0  0  0  0
 19 21  1  0  0  0  0
 16 17  1  0  0  0  0
 16 18  1  0  0  0  0
 14 15  2  0  0  0  0
 14 16  1  0  0  0  0
 11 12  1  0  0  0  0
 11 13  1  0  0  0  0
 11 14  1  0  0  0  0
  9 10  1  0  0  0  0
  9 11  1  0  0  0  0
  9 19  1  0  0  0  0
  7  8  1  0  0  0  0
  7  9  1  0  0  0  0
 23 24  1  0  0  0  0
 23 25  1  0  0  0  0
 23 26  1  0  0  0  0
 21 22  1  0  0  0  0
 21 23  1  0  0  0  0
M  END
$$$$
default_name
  -OEChem-02102213163D

 26 25  0     1  0  0  0  0  0999 V2000
   -3.0232   -3.6924    1.0038 H   0  0  0  0  0  0  0  0  0  0  0  0
   -3.0082   -2.6684    0.6318 C   0  0  0  0  0  0  0  0  0  0  0  0
   -3.6332   -2.0414    1.2658 H   0  0  0  0  0  0  0  0  0  0  0  0
   -3.3762   -2.6444   -0.3912 H   0  0  0  0  0  0  0  0  0  0  0  0
   -1.5882   -2.1554    0.6658 C   0  0  0  0  0  0  0  0  0  0  0  0
   -0.6832   -2.8764    1.0638 O   0  0  0  0  0  0  0  0  0  0  0  0
   -1.3952   -0.9084    0.2428 N   0  0  0  0  0  0  0  0  0  0  0  0
   -2.1972   -0.3644   -0.0422 H   0  0  0  0  0  0  0  0  0  0  0  0
   -0.1122   -0.1994    0.2658 C   0  0  1  0  0  0  0  0  0  0  0  0
    0.6131   -0.7748   -0.3153 H   0  0  0  0  0  0  0  0  0  0  0  0
   -0.2973    1.1841   -0.3966 C   0  0  0  0  0  0  0  0  0  0  0  0
    0.5379    1.3725   -1.0702 H   0  0  0  0  0  0  0  0  0  0  0  0
   -1.2155    1.1820   -0.9820 H   0  0  0  0  0  0  0  0  0  0  0  0
   -0.3382    2.3409    0.5889 C   0  0  0  0  0  0  0  0  0  0  0  0
    0.5925    3.1119    0.7459 O   0  0  0  0  0  0  0  0  0  0  0  0
   -1.4268    2.4990    1.3018 N   0  0  0  0  0  0  0  0  0  0  0  0
   -1.4319    3.2818    1.9318 H   0  0  0  0  0  0  0  0  0  0  0  0
   -2.2134    1.8899    1.1778 H   0  0  0  0  0  0  0  0  0  0  0  0
    0.4075   -0.0985    1.7169 C   0  0  0  0  0  0  0  0  0  0  0  0
    1.5860   -0.3526    1.9662 O   0  0  0  0  0  0  0  0  0  0  0  0
   -0.4625    0.2583    2.6666 N   0  0  0  0  0  0  0  0  0  0  0  0
   -1.4309    0.3754    2.3860 H   0  0  0  0  0  0  0  0  0  0  0  0
   -0.1275    0.4111    4.0813 C   0  0  0  0  0  0  0  0  0  0  0  0
    0.6862    1.1312    4.1910 H   0  0  0  0  0  0  0  0  0  0  0  0
   -0.9980    0.7641    4.6360 H   0  0  0  0  0  0  0  0  0  0  0  0
    0.1959   -0.5481    4.4891 H   0  0  0  0  0  0  0  0  0  0  0  0
  5  6  2  0  0  0  0
  5  7  1  0  0  0  0
  2  3  1  0  0  0  0
  2  4  1  0  0  0  0
  2  5  1  0  0  0  0
  1  2  1  0  0  0  0
 19 20  2  0  0  0  0
 19 21  1  0  0  0  0
 16 17  1  0  0  0  0
 16 18  1  0  0  0  0
 14 15  2  0  0  0  0
 14 16  1  0  0  0  0
 11 12  1  0  0  0  0
 11 13  1  0  0  0  0
 11 14  1  0  0  0  0
  9 10  1  0  0  0  0
  9 11  1  0  0  0  0
  9 19  1  0  0  0  0
  7  8  1  0  0  0  0
  7  9  1  0  0  0  0
 23 24  1  0  0  0  0
 23 25  1  0  0  0  0
 23 26  1  0  0  0  0
 21 22  1  0  0  0  0
 21 23  1  0  0  0  0
M  END
$$$$
default_name
  -OEChem-02102213163D

 26 25  0     1  0  0  0  0  0999 V2000
   -3.0232   -3.6924    1.0038 H   0  0  0  0  0  0  0  0  0  0  0  0
   -3.0082   -2.6684    0.6318 C   0  0  0  0  0  0  0  0  0  0  0  0
   -3.6332   -2.0414    1.2658 H   0  0  0  0  0  0  0  0  0  0  0  0
   -3.3762   -2.6444   -0.3912 H   0  0  0  0  0  0  0  0  0  0  0  0
   -1.5882   -2.1554    0.6658 C   0  0  0  0  0  0  0  0  0  0  0  0
   -0.6832   -2.8764    1.0638 O   0  0  0  0  0  0  0  0  0  0  0  0
   -1.3952   -0.9084    0.2428 N   0  0  0  0  0  0  0  0  0  0  0  0
   -2.1972   -0.3644   -0.0422 H   0  0  0  0  0  0  0  0  0  0  0  0
   -0.1122   -0.1994    0.2658 C   0  0  1  0  0  0  0  0  0  0  0  0
    0.6131   -0.7748   -0.3153 H   0  0  0  0  0  0  0  0  0  0  0  0
   -0.2973    1.1841   -0.3966 C   0  0  0  0  0  0  0  0  0  0  0  0
    0.5379    1.3725   -1.0702 H   0  0  0  0  0  0  0  0  0  0  0  0
   -1.2155    1.1820   -0.9820 H   0  0  0  0  0  0  0  0  0  0  0  0
   -0.3382    2.3409    0.5889 C   0  0  0  0  0  0  0  0  0  0  0  0
    0.4617    3.2600    0.5665 O   0  0  0  0  0  0  0  0  0  0  0  0
   -1.2764    2.3317    1.5043 N   0  0  0  0  0  0  0  0  0  0  0  0
   -1.2895    3.1175    2.1306 H   0  0  0  0  0  0  0  0  0  0  0  0
   -1.9579    1.5970    1.5321 H   0  0  0  0  0  0  0  0  0  0  0  0
    0.4075   -0.0985    1.7169 C   0  0  0  0  0  0  0  0  0  0  0  0
    1.5860   -0.3526    1.9662 O   0  0  0  0  0  0  0  0  0  0  0  0
   -0.4625    0.2583    2.6666 N   0  0  0  0  0  0  0  0  0  0  0  0
   -1.4309    0.3754    2.3860 H   0  0  0  0  0  0  0  0  0  0  0  0
   -0.1275    0.4111    4.0813 C   0  0  0  0  0  0  0  0  0  0  0  0
    0.6862    1.1312    4.1910 H   0  0  0  0  0  0  0  0  0  0  0  0
   -0.9980    0.7641    4.6360 H   0  0  0  0  0  0  0  0  0  0  0  0
    0.1959   -0.5481    4.4891 H   0  0  0  0  0  0  0  0  0  0  0  0
  5  6  2  0  0  0  0
  5  7  1  0  0  0  0
  2  3  1  0  0  0  0
  2  4  1  0  0  0  0
  2  5  1  0  0  0  0
  1  2  1  0  0  0  0
 19 20  2  0  0  0  0
 19 21  1  0  0  0  0
 16 17  1  0  0  0  0
 16 18  1  0  0  0  0
 14 15  2  0  0  0  0
 14 16  1  0  0  0  0
 11 12  1  0  0  0  0
 11 13  1  0  0  0  0
 11 14  1  0  0  0  0
  9 10  1  0  0  0  0
  9 11  1  0  0  0  0
  9 19  1  0  0  0  0
  7  8  1  0  0  0  0
  7  9  1  0  0  0  0
 23 24  1  0  0  0  0
 23 25  1  0  0  0  0
 23 26  1  0  0  0  0
 21 22  1  0  0  0  0
 21 23  1  0  0  0  0
M  END
$$$$
default_name
  -OEChem-02102213163D

 26 25  0     1  0  0  0  0  0999 V2000
   -3.0232   -3.6924    1.0038 H   0  0  0  0  0  0  0  0  0  0  0  0
   -3.0082   -2.6684    0.6318 C   0  0  0  0  0  0  0  0  0  0  0  0
   -3.6332   -2.0414    1.2658 H   0  0  0  0  0  0  0  0  0  0  0  0
   -3.3762   -2.6444   -0.3912 H   0  0  0  0  0  0  0  0  0  0  0  0
   -1.5882   -2.1554    0.6658 C   0  0  0  0  0  0  0  0  0  0  0  0
   -0.6832   -2.8764    1.0638 O   0  0  0  0  0  0  0  0  0  0  0  0
   -1.3952   -0.9084    0.2428 N   0  0  0  0  0  0  0  0  0  0  0  0
   -2.1972   -0.3644   -0.0422 H   0  0  0  0  0  0  0  0  0  0  0  0
   -0.1122   -0.1994    0.2658 C   0  0  1  0  0  0  0  0  0  0  0  0
    0.6131   -0.7748   -0.3153 H   0  0  0  0  0  0  0  0  0  0  0  0
   -0.2973    1.1841   -0.3966 C   0  0  0  0  0  0  0  0  0  0  0  0
    0.5379    1.3725   -1.0702 H   0  0  0  0  0  0  0  0  0  0  0  0
   -1.2155    1.1820   -0.9820 H   0  0  0  0  0  0  0  0  0  0  0  0
   -0.3382    2.3409    0.5889 C   0  0  0  0  0  0  0  0  0  0  0  0
    0.2752    3.3800    0.4180 O   0  0  0  0  0  0  0  0  0  0  0  0
   -1.0632    2.1969    1.6715 N   0  0  0  0  0  0  0  0  0  0  0  0
   -1.0853    2.9840    2.2957 H   0  0  0  0  0  0  0  0  0  0  0  0
   -1.5922    1.3595    1.8261 H   0  0  0  0  0  0  0  0  0  0  0  0
    0.4075   -0.0985    1.7169 C   0  0  0  0  0  0  0  0  0  0  0  0
    1.5860   -0.3526    1.9662 O   0  0  0  0  0  0  0  0  0  0  0  0
   -0.4625    0.2583    2.6666 N   0  0  0  0  0  0  0  0  0  0  0  0
   -1.4309    0.3754    2.3860 H   0  0  0  0  0  0  0  0  0  0  0  0
   -0.1275    0.4111    4.0813 C   0  0  0  0  0  0  0  0  0  0  0  0
    0.6862    1.1312    4.1910 H   0  0  0  0  0  0  0  0  0  0  0  0
   -0.9980    0.7641    4.6360 H   0  0  0  0  0  0  0  0  0  0  0  0
    0.1959   -0.5481    4.4891 H   0  0  0  0  0  0  0  0  0  0  0  0
  5  6  2  0  0  0  0
  5  7  1  0  0  0  0
  2  3  1  0  0  0  0
  2  4  1  0  0  0  0
  2  5  1  0  0  0  0
  1  2  1  0  0  0  0
 19 20  2  0  0  0  0
 19 21  1  0  0  0  0
 16 17  1  0  0  0  0
 16 18  1  0  0  0  0
 14 15  2  0  0  0  0
 14 16  1  0  0  0  0
 11 12  1  0  0  0  0
 11 13  1  0  0  0  0
 11 14  1  0  0  0  0
  9 10  1  0  0  0  0
  9 11  1  0  0  0  0
  9 19  1  0  0  0  0
  7  8  1  0  0  0  0
  7  9  1  0  0  0  0
 23 24  1  0  0  0  0
 23 25  1  0  0  0  0
 23 26  1  0  0  0  0
 21 22  1  0  0  0  0
 21 23  1  0  0  0  0
M  END
$$$$
default_name
  -OEChem-02102213163D

 26 25  0     1  0  0  0  0  0999 V2000
   -3.0232   -3.6924    1.0038 H   0  0  0  0  0  0  0  0  0  0  0  0
   -3.0082   -2.6684    0.6318 C   0  0  0  0  0  0  0  0  0  0  0  0
   -3.6332   -2.0414    1.2658 H   0  0  0  0  0  0  0  0  0  0  0  0
   -3.3762   -2.6444   -0.3912 H   0  0  0  0  0  0  0  0  0  0  0  0
   -1.5882   -2.1554    0.6658 C   0  0  0  0  0  0  0  0  0  0  0  0
   -0.6832   -2.8764    1.0638 O   0  0  0  0  0  0  0  0  0  0  0  0
   -1.3952   -0.9084    0.2428 N   0  0  0  0  0  0  0  0  0  0  0  0
   -2.1972   -0.3644   -0.0422 H   0  0  0  0  0  0  0  0  0  0  0  0
   -0.1122   -0.1994    0.2658 C   0  0  1  0  0  0  0  0  0  0  0  0
    0.6131   -0.7748   -0.3153 H   0  0  0  0  0  0  0  0  0  0  0  0
   -0.2973    1.1841   -0.3966 C   0  0  0  0  0  0  0  0  0  0  0  0
    0.5379    1.3725   -1.0702 H   0  0  0  0  0  0  0  0  0  0  0  0
   -1.2155    1.1820   -0.9820 H   0  0  0  0  0  0  0  0  0  0  0  0
   -0.3382    2.3409    0.5889 C   0  0  0  0  0  0  0  0  0  0  0  0
    0.0457    3.4635    0.3104 O   0  0  0  0  0  0  0  0  0  0  0  0
   -0.8017    2.1036    1.7919 N   0  0  0  0  0  0  0  0  0  0  0  0
   -0.8331    2.8906    2.4159 H   0  0  0  0  0  0  0  0  0  0  0  0
   -1.1413    1.1935    2.0398 H   0  0  0  0  0  0  0  0  0  0  0  0
    0.4075   -0.0985    1.7169 C   0  0  0  0  0  0  0  0  0  0  0  0
    1.5860   -0.3526    1.9662 O   0  0  0  0  0  0  0  0  0  0  0  0
   -0.4625    0.2583    2.6666 N   0  0  0  0  0  0  0  0  0  0  0  0
   -1.4309    0.3754    2.3860 H   0  0  0  0  0  0  0  0  0  0  0  0
   -0.1275    0.4111    4.0813 C   0  0  0  0  0  0  0  0  0  0  0  0
    0.6862    1.1312    4.1910 H   0  0  0  0  0  0  0  0  0  0  0  0
   -0.9980    0.7641    4.6360 H   0  0  0  0  0  0  0  0  0  0  0  0
    0.1959   -0.5481    4.4891 H   0  0  0  0  0  0  0  0  0  0  0  0
  5  6  2  0  0  0  0
  5  7  1  0  0  0  0
  2  3  1  0  0  0  0
  2  4  1  0  0  0  0
  2  5  1  0  0  0  0
  1  2  1  0  0  0  0
 19 20  2  0  0  0  0
 19 21  1  0  0  0  0
 16 17  1  0  0  0  0
 16 18  1  0  0  0  0
 14 15  2  0  0  0  0
 14 16  1  0  0  0  0
 11 12  1  0  0  0  0
 11 13  1  0  0  0  0
 11 14  1  0  0  0  0
  9 10  1  0  0  0  0
  9 11  1  0  0  0  0
  9 19  1  0  0  0  0
  7  8  1  0  0  0  0
  7  9  1  0  0  0  0
 23 24  1  0  0  0  0
 23 25  1  0  0  0  0
 23 26  1  0  0  0  0
 21 22  1  0  0  0  0
 21 23  1  0  0  0  0
M  END
$$$$
default_name
  -OEChem-02102213163D

 26 25  0     1  0  0  0  0  0999 V2000
   -3.0232   -3.6924    1.0038 H   0  0  0  0  0  0  0  0  0  0  0  0
   -3.0082   -2.6684    0.6318 C   0  0  0  0  0  0  0  0  0  0  0  0
   -3.6332   -2.0414    1.2658 H   0  0  0  0  0  0  0  0  0  0  0  0
   -3.3762   -2.6444   -0.3912 H   0  0  0  0  0  0  0  0  0  0  0  0
   -1.5882   -2.1554    0.6658 C   0  0  0  0  0  0  0  0  0  0  0  0
   -0.6832   -2.8764    1.0638 O   0  0  0  0  0  0  0  0  0  0  0  0
   -1.3952   -0.9084    0.2428 N   0  0  0  0  0  0  0  0  0  0  0  0
   -2.1972   -0.3644   -0.0422 H   0  0  0  0  0  0  0  0  0  0  0  0
   -0.1122   -0.1994    0.2658 C   0  0  1  0  0  0  0  0  0  0  0  0
    0.6131   -0.7748   -0.3153 H   0  0  0  0  0  0  0  0  0  0  0  0
   -0.2973    1.1841   -0.3966 C   0  0  0  0  0  0  0  0  0  0  0  0
    0.5379    1.3725   -1.0702 H   0  0  0  0  0  0  0  0  0  0  0  0
   -1.2155    1.1820   -0.9820 H   0  0  0  0  0  0  0  0  0  0  0  0
   -0.3382    2.3409    0.5889 C   0  0  0  0  0  0  0  0  0  0  0  0
   -0.2112    3.5049    0.2511 O   0  0  0  0  0  0  0  0  0  0  0  0
   -0.5097    2.0581    1.8574 N   0  0  0  0  0  0  0  0  0  0  0  0
   -0.5501    2.8434    2.4829 H   0  0  0  0  0  0  0  0  0  0  0  0
   -0.6357    1.1102    2.1584 H   0  0  0  0  0  0  0  0  0  0  0  0
    0.4075   -0.0985    1.7169 C   0  0  0  0  0  0  0  0  0  0  0  0
    1.5860   -0.3526    1.9662 O   0  0  0  0  0  0  0  0  0  0  0  0
   -0.4625    0.2583    2.6666 N   0  0  0  0  0  0  0  0  0  0  0  0
   -1.4309    0.3754    2.3860 H   0  0  0  0  0  0  0  0  0  0  0  0
   -0.1275    0.4111    4.0813 C   0  0  0  0  0  0  0  0  0  0  0  0
    0.6862    1.1312    4.1910 H   0  0  0  0  0  0  0  0  0  0  0  0
   -0.9980    0.7641    4.6360 H   0  0  0  0  0  0  0  0  0  0  0  0
    0.1959   -0.5481    4.4891 H   0  0  0  0  0  0  0  0  0  0  0  0
  5  6  2  0  0  0  0
  5  7  1  0  0  0  0
  2  3  1  0  0  0  0
  2  4  1  0  0  0  0
  2  5  1  0  0  0  0
  1  2  1  0  0  0  0
 19 20  2  0  0  0  0
 19 21  1  0  0  0  0
 16 17  1  0  0  0  0
 16 18  1  0  0  0  0
 14 15  2  0  0  0  0
 14 16  1  0  0  0  0
 11 12  1  0  0  0  0
 11 13  1  0  0  0  0
 11 14  1  0  0  0  0
  9 10  1  0  0  0  0
  9 11  1  0  0  0  0
  9 19  1  0  0  0  0
  7  8  1  0  0  0  0
  7  9  1  0  0  0  0
 23 24  1  0  0  0  0
 23 25  1  0  0  0  0
 23 26  1  0  0  0  0
 21 22  1  0  0  0  0
 21 23  1  0  0  0  0
M  END
$$$$
default_name
  -OEChem-02102213163D

 26 25  0     1  0  0  0  0  0999 V2000
   -3.0232   -3.6924    1.0038 H   0  0  0  0  0  0  0  0  0  0  0  0
   -3.0082   -2.6684    0.6318 C   0  0  0  0  0  0  0  0  0  0  0  0
   -3.6332   -2.0414    1.2658 H   0  0  0  0  0  0  0  0  0  0  0  0
   -3.3762   -2.6444   -0.3912 H   0  0  0  0  0  0  0  0  0  0  0  0
   -1.5882   -2.1554    0.6658 C   0  0  0  0  0  0  0  0  0  0  0  0
   -0.6832   -2.8764    1.0638 O   0  0  0  0  0  0  0  0  0  0  0  0
   -1.3952   -0.9084    0.2428 N   0  0  0  0  0  0  0  0  0  0  0  0
   -2.1972   -0.3644   -0.0422 H   0  0  0  0  0  0  0  0  0  0  0  0
   -0.1122   -0.1994    0.2658 C   0  0  1  0  0  0  0  0  0  0  0  0
    0.6131   -0.7748   -0.3153 H   0  0  0  0  0  0  0  0  0  0  0  0
   -0.2973    1.1841   -0.3966 C   0  0  0  0  0  0  0  0  0  0  0  0
    0.3728    1.2634   -1.2519 H   0  0  0  0  0  0  0  0  0  0  0  0
   -1.3216    1.2767   -0.7544 H   0  0  0  0  0  0  0  0  0  0  0  0
    0.0174    2.3554    0.5199 C   0  0  0  0  0  0  0  0  0  0  0  0
   -0.0736    3.5180    0.1657 O   0  0  0  0  0  0  0  0  0  0  0  0
    0.4119    2.0879    1.7410 N   0  0  0  0  0  0  0  0  0  0  0  0
    0.5959    2.8816    2.3291 H   0  0  0  0  0  0  0  0  0  0  0  0
    0.4766    1.1406    2.0625 H   0  0  0  0  0  0  0  0  0  0  0  0
    0.4075   -0.0985    1.7169 C   0  0  0  0  0  0  0  0  0  0  0  0
    1.5860   -0.3526    1.9662 O   0  0  0  0  0  0  0  0  0  0  0  0
   -0.4625    0.2583    2.6666 N   0  0  0  0  0  0  0  0  0  0  0  0
   -1.4309    0.3754    2.3860 H   0  0  0  0  0  0  0  0  0  0  0  0
   -0.1275    0.4111    4.0813 C   0  0  0  0  0  0  0  0  0  0  0  0
    0.6862    1.1312    4.1910 H   0  0  0  0  0  0  0  0  0  0  0  0
   -0.9980    0.7641    4.6360 H   0  0  0  0  0  0  0  0  0  0  0  0
    0.1959   -0.5481    4.4891 H   0  0  0  0  0  0  0  0  0  0  0  0
  5  6  2  0  0  0  0
  5  7  1  0  0  0  0
  2  3  1  0  0  0  0
  2  4  1  0  0  0  0
  2  5  1  0  0  0  0
  1  2  1  0  0  0  0
 19 20  2  0  0  0  0
 19 21  1  0  0  0  0
 16 17  1  0  0  0  0
 16 18  1  0  0  0  0
 14 15  2  0  0  0  0
 14 16  1  0  0  0  0
 11 12  1  0  0  0  0
 11 13  1  0  0  0  0
 11 14  1  0  0  0  0
  9 10  1  0  0  0  0
  9 11  1  0  0  0  0
  9 19  1  0  0  0  0
  7  8  1  0  0  0  0
  7  9  1  0  0  0  0
 23 24  1  0  0  0  0
 23 25  1  0  0  0  0
 23 26  1  0  0  0  0
 21 22  1  0  0  0  0
 21 23  1  0  0  0  0
M  END
$$$$
default_name
  -OEChem-02102213163D

 26 25  0     1  0  0  0  0  0999 V2000
   -3.0232   -3.6924    1.0038 H   0  0  0  0  0  0  0  0  0  0  0  0
   -3.0082   -2.6684    0.6318 C   0  0  0  0  0  0  0  0  0  0  0  0
   -3.6332   -2.0414    1.2658 H   0  0  0  0  0  0  0  0  0  0  0  0
   -3.3762   -2.6444   -0.3912 H   0  0  0  0  0  0  0  0  0  0  0  0
   -1.5882   -2.1554    0.6658 C   0  0  0  0  0  0  0  0  0  0  0  0
   -0.6832   -2.8764    1.0638 O   0  0  0  0  0  0  0  0  0  0  0  0
   -1.3952   -0.9084    0.2428 N   0  0  0  0  0  0  0  0  0  0  0  0
   -2.1972   -0.3644   -0.0422 H   0  0  0  0  0  0  0  0  0  0  0  0
   -0.1122   -0.1994    0.2658 C   0  0  1  0  0  0  0  0  0  0  0  0
    0.6131   -0.7748   -0.3153 H   0  0  0  0  0  0  0  0  0  0  0  0
   -0.2973    1.1841   -0.3966 C   0  0  0  0  0  0  0  0  0  0  0  0
    0.3728    1.2634   -1.2519 H   0  0  0  0  0  0  0  0  0  0  0  0
   -1.3216    1.2767   -0.7544 H   0  0  0  0  0  0  0  0  0  0  0  0
    0.0174    2.3554    0.5199 C   0  0  0  0  0  0  0  0  0  0  0  0
   -0.3178    3.5006    0.2718 O   0  0  0  0  0  0  0  0  0  0  0  0
    0.6881    2.1092    1.6189 N   0  0  0  0  0  0  0  0  0  0  0  0
    0.8662    2.8995    2.2135 H   0  0  0  0  0  0  0  0  0  0  0  0
    0.9587    1.1733    1.8551 H   0  0  0  0  0  0  0  0  0  0  0  0
    0.4075   -0.0985    1.7169 C   0  0  0  0  0  0  0  0  0  0  0  0
    1.5860   -0.3526    1.9662 O   0  0  0  0  0  0  0  0  0  0  0  0
   -0.4625    0.2583    2.6666 N   0  0  0  0  0  0  0  0  0  0  0  0
   -1.4309    0.3754    2.3860 H   0  0  0  0  0  0  0  0  0  0  0  0
   -0.1275    0.4111    4.0813 C   0  0  0  0  0  0  0  0  0  0  0  0
    0.6862    1.1312    4.1910 H   0  0  0  0  0  0  0  0  0  0  0  0
   -0.9980    0.7641    4.6360 H   0  0  0  0  0  0  0  0  0  0  0  0
    0.1959   -0.5481    4.4891 H   0  0  0  0  0  0  0  0  0  0  0  0
  5  6  2  0  0  0  0
  5  7  1  0  0  0  0
  2  3  1  0  0  0  0
  2  4  1  0  0  0  0
  2  5  1  0  0  0  0
  1  2  1  0  0  0  0
 19 20  2  0  0  0  0
 19 21  1  0  0  0  0
 16 17  1  0  0  0  0
 16 18  1  0  0  0  0
 14 15  2  0  0  0  0
 14 16  1  0  0  0  0
 11 12  1  0  0  0  0
 11 13  1  0  0  0  0
 11 14  1  0  0  0  0
  9 10  1  0  0  0  0
  9 11  1  0  0  0  0
  9 19  1  0  0  0  0
  7  8  1  0  0  0  0
  7  9  1  0  0  0  0
 23 24  1  0  0  0  0
 23 25  1  0  0  0  0
 23 26  1  0  0  0  0
 21 22  1  0  0  0  0
 21 23  1  0  0  0  0
M  END
$$$$
default_name
  -OEChem-02102213163D

 26 25  0     1  0  0  0  0  0999 V2000
   -3.0232   -3.6924    1.0038 H   0  0  0  0  0  0  0  0  0  0  0  0
   -3.0082   -2.6684    0.6318 C   0  0  0  0  0  0  0  0  0  0  0  0
   -3.6332   -2.0414    1.2658 H   0  0  0  0  0  0  0  0  0  0  0  0
   -3.3762   -2.6444   -0.3912 H   0  0  0  0  0  0  0  0  0  0  0  0
   -1.5882   -2.1554    0.6658 C   0  0  0  0  0  0  0  0  0  0  0  0
   -0.6832   -2.8764    1.0638 O   0  0  0  0  0  0  0  0  0  0  0  0
   -1.3952   -0.9084    0.2428 N   0  0  0  0  0  0  0  0  0  0  0  0
   -2.1972   -0.3644   -0.0422 H   0  0  0  0  0  0  0  0  0  0  0  0
   -0.1122   -0.1994    0.2658 C   0  0  1  0  0  0  0  0  0  0  0  0
    0.6131   -0.7748   -0.3153 H   0  0  0  0  0  0  0  0  0  0  0  0
   -0.2973    1.1841   -0.3966 C   0  0  0  0  0  0  0  0  0  0  0  0
    0.3728    1.2634   -1.2519 H   0  0  0  0  0  0  0  0  0  0  0  0
   -1.3216    1.2767   -0.7544 H   0  0  0  0  0  0  0  0  0  0  0  0
    0.0174    2.3554    0.5199 C   0  0  0  0  0  0  0  0  0  0  0  0
   -0.5299    3.4400    0.4221 O   0  0  0  0  0  0  0  0  0  0  0  0
    0.9271    2.1795    1.4471 N   0  0  0  0  0  0  0  0  0  0  0  0
    1.1016    2.9650    2.0488 H   0  0  0  0  0  0  0  0  0  0  0  0
    1.3780    1.2913    1.5604 H   0  0  0  0  0  0  0  0  0  0  0  0
    0.4075   -0.0985    1.7169 C   0  0  0  0  0  0  0  0  0  0  0  0
    1.5860   -0.3526    1.9662 O   0  0  0  0  0  0  0  0  0  0  0  0
   -0.4625    0.2583    2.6666 N   0  0  0  0  0  0  0  0  0  0  0  0
   -1.4309    0.3754    2.3860 H   0  0  0  0  0  0  0  0  0  0  0  0
   -0.1275    0.4111    4.0813 C   0  0  0  0  0  0  0  0  0  0  0  0
    0.6862    1.1312    4.1910 H   0  0  0  0  0  0  0  0  0  0  0  0
   -0.9980    0.7641    4.6360 H   0  0  0  0  0  0  0  0  0  0  0  0
    0.1959   -0.5481    4.4891 H   0  0  0  0  0  0  0  0  0  0  0  0
  5  6  2  0  0  0  0
  5  7  1  0  0  0  0
  2  3  1  0  0  0  0
  2  4  1  0  0  0  0
  2  5  1  0  0  0  0
  1  2  1  0  0  0  0
 19 20  2  0  0  0  0
 19 21  1  0  0  0  0
 16 17  1  0  0  0  0
 16 18  1  0  0  0  0
 14 15  2  0  0  0  0
 14 16  1  0  0  0  0
 11 12  1  0  0  0  0
 11 13  1  0  0  0  0
 11 14  1  0  0  0  0
  9 10  1  0  0  0  0
  9 11  1  0  0  0  0
  9 19  1  0  0  0  0
  7  8  1  0  0  0  0
  7  9  1  0  0  0  0
 23 24  1  0  0  0  0
 23 25  1  0  0  0  0
 23 26  1  0  0  0  0
 21 22  1  0  0  0  0
 21 23  1  0  0  0  0
M  END
$$$$
default_name
  -OEChem-02102213163D

 26 25  0     1  0  0  0  0  0999 V2000
   -3.0232   -3.6924    1.0038 H   0  0  0  0  0  0  0  0  0  0  0  0
   -3.0082   -2.6684    0.6318 C   0  0  0  0  0  0  0  0  0  0  0  0
   -3.6332   -2.0414    1.2658 H   0  0  0  0  0  0  0  0  0  0  0  0
   -3.3762   -2.6444   -0.3912 H   0  0  0  0  0  0  0  0  0  0  0  0
   -1.5882   -2.1554    0.6658 C   0  0  0  0  0  0  0  0  0  0  0  0
   -0.6832   -2.8764    1.0638 O   0  0  0  0  0  0  0  0  0  0  0  0
   -1.3952   -0.9084    0.2428 N   0  0  0  0  0  0  0  0  0  0  0  0
   -2.1972   -0.3644   -0.0422 H   0  0  0  0  0  0  0  0  0  0  0  0
   -0.1122   -0.1994    0.2658 C   0  0  1  0  0  0  0  0  0  0  0  0
    0.6131   -0.7748   -0.3153 H   0  0  0  0  0  0  0  0  0  0  0  0
   -0.2973    1.1841   -0.3966 C   0  0  0  0  0  0  0  0  0  0  0  0
    0.3728    1.2634   -1.2519 H   0  0  0  0  0  0  0  0  0  0  0  0
   -1.3216    1.2767   -0.7544 H   0  0  0  0  0  0  0  0  0  0  0  0
    0.0174    2.3554    0.5199 C   0  0  0  0  0  0  0  0  0  0  0  0
   -0.6953    3.3403    0.6063 O   0  0  0  0  0  0  0  0  0  0  0  0
    1.1128    2.2938    1.2372 N   0  0  0  0  0  0  0  0  0  0  0  0
    1.2858    3.0739    1.8464 H   0  0  0  0  0  0  0  0  0  0  0  0
    1.7058    1.4864    1.1984 H   0  0  0  0  0  0  0  0  0  0  0  0
    0.4075   -0.0985    1.7169 C   0  0  0  0  0  0  0  0  0  0  0  0
    1.5860   -0.3526    1.9662 O   0  0  0  0  0  0  0  0  0  0  0  0
   -0.4625    0.2583    2.6666 N   0  0  0  0  0  0  0  0  0  0  0  0
   -1.4309    0.3754    2.3860 H   0  0  0  0  0  0  0  0  0  0  0  0
   -0.1275    0.4111    4.0813 C   0  0  0  0  0  0  0  0  0  0  0  0
    0.6862    1.1312    4.1910 H   0  0  0  0  0  0  0  0  0  0  0  0
   -0.9980    0.7641    4.6360 H   0  0  0  0  0  0  0  0  0  0  0  0
    0.1959   -0.5481    4.4891 H   0  0  0  0  0  0  0  0  0  0  0  0
  5  6  2  0  0  0  0
  5  7  1  0  0  0  0
  2  3  1  0  0  0  0
  2  4  1  0  0  0  0
  2  5  1  0  0  0  0
  1  2  1  0  0  0  0
 19 20  2  0  0  0  0
 19 21  1  0  0  0  0
 16 17  1  0  0  0  0
 16 18  1  0  0  0  0
 14 15  2  0  0  0  0
 14 16  1  0  0  0  0
 11 12  1  0  0  0  0
 11 13  1  0  0  0  0
 11 14  1  0  0  0  0
  9 10  1  0  0  0  0
  9 11  1  0  0  0  0
  9 19  1  0  0  0  0
  7  8  1  0  0  0  0
  7  9  1  0  0  0  0
 23 24  1  0  0  0  0
 23 25  1  0  0  0  0
 23 26  1  0  0  0  0
 21 22  1  0  0  0  0
 21 23  1  0  0  0  0
M  END
$$$$
default_name
  -OEChem-02102213163D

 26 25  0     1  0  0  0  0  0999 V2000
   -3.0232   -3.6924    1.0038 H   0  0  0  0  0  0  0  0  0  0  0  0
   -3.0082   -2.6684    0.6318 C   0  0  0  0  0  0  0  0  0  0  0  0
   -3.6332   -2.0414    1.2658 H   0  0  0  0  0  0  0  0  0  0  0  0
   -3.3762   -2.6444   -0.3912 H   0  0  0  0  0  0  0  0  0  0  0  0
   -1.5882   -2.1554    0.6658 C   0  0  0  0  0  0  0  0  0  0  0  0
   -0.6832   -2.8764    1.0638 O   0  0  0  0  0  0  0  0  0  0  0  0
   -1.3952   -0.9084    0.2428 N   0  0  0  0  0  0  0  0  0  0  0  0
   -2.1972   -0.3644   -0.0422 H   0  0  0  0  0  0  0  0  0  0  0  0
   -0.1122   -0.1994    0.2658 C   0  0  1  0  0  0  0  0  0  0  0  0
    0.6131   -0.7748   -0.3153 H   0  0  0  0  0  0  0  0  0  0  0  0
   -0.2973    1.1841   -0.3966 C   0  0  0  0  0  0  0  0  0  0  0  0
    0.3728    1.2634   -1.2519 H   0  0  0  0  0  0  0  0  0  0  0  0
   -1.3216    1.2767   -0.7544 H   0  0  0  0  0  0  0  0  0  0  0  0
    0.0174    2.3554    0.5199 C   0  0  0  0  0  0  0  0  0  0  0  0
   -0.8027    3.2083    0.8119 O   0  0  0  0  0  0  0  0  0  0  0  0
    1.2325    2.4444    1.0036 N   0  0  0  0  0  0  0  0  0  0  0  0
    1.4064    3.2187    1.6199 H   0  0  0  0  0  0  0  0  0  0  0  0
    1.9198    1.7454    0.7938 H   0  0  0  0  0  0  0  0  0  0  0  0
    0.4075   -0.0985    1.7169 C   0  0  0  0  0  0  0  0  0  0  0  0
    1.5860   -0.3526    1.9662 O   0  0  0  0  0  0  0  0  0  0  0  0
   -0.4625    0.2583    2.6666 N   0  0  0  0  0  0  0  0  0  0  0  0
   -1.4309    0.3754    2.3860 H   0  0  0  0  0  0  0  0  0  0  0  0
   -0.1275    0.4111    4.0813 C   0  0  0  0  0  0  0  0  0  0  0  0
    0.6862    1.1312    4.1910 H   0  0  0  0  0  0  0  0  0  0  0  0
   -0.9980    0.7641    4.6360 H   0  0  0  0  0  0  0  0  0  0  0  0
    0.1959   -0.5481    4.4891 H   0  0  0  0  0  0  0  0  0  0  0  0
  5  6  2  0  0  0  0
  5  7  1  0  0  0  0
  2  3  1  0  0  0  0
  2  4  1  0  0  0  0
  2  5  1  0  0  0  0
  1  2  1  0  0  0  0
 19 20  2  0  0  0  0
 19 21  1  0  0  0  0
 16 17  1  0  0  0  0
 16 18  1  0  0  0  0
 14 15  2  0  0  0  0
 14 16  1  0  0  0  0
 11 12  1  0  0  0  0
 11 13  1  0  0  0  0
 11 14  1  0  0  0  0
  9 10  1  0  0  0  0
  9 11  1  0  0  0  0
  9 19  1  0  0  0  0
  7  8  1  0  0  0  0
  7  9  1  0  0  0  0
 23 24  1  0  0  0  0
 23 25  1  0  0  0  0
 23 26  1  0  0  0  0
 21 22  1  0  0  0  0
 21 23  1  0  0  0  0
M  END
$$$$
default_name
  -OEChem-02102213163D

 26 25  0     1  0  0  0  0  0999 V2000
   -3.0232   -3.6924    1.0038 H   0  0  0  0  0  0  0  0  0  0  0  0
   -3.0082   -2.6684    0.6318 C   0  0  0  0  0  0  0  0  0  0  0  0
   -3.6332   -2.0414    1.2658 H   0  0  0  0  0  0  0  0  0  0  0  0
   -3.3762   -2.6444   -0.3912 H   0  0  0  0  0  0  0  0  0  0  0  0
   -1.5882   -2.1554    0.6658 C   0  0  0  0  0  0  0  0  0  0  0  0
   -0.6832   -2.8764    1.0638 O   0  0  0  0  0  0  0  0  0  0  0  0
   -1.3952   -0.9084    0.2428 N   0  0  0  0  0  0  0  0  0  0  0  0
   -2.1972   -0.3644   -0.0422 H   0  0  0  0  0  0  0  0  0  0  0  0
   -0.1122   -0.1994    0.2658 C   0  0  1  0  0  0  0  0  0  0  0  0
    0.6131   -0.7748   -0.3153 H   0  0  0  0  0  0  0  0  0  0  0  0
   -0.2973    1.1841   -0.3966 C   0  0  0  0  0  0  0  0  0  0  0  0
    0.3728    1.2634   -1.2519 H   0  0  0  0  0  0  0  0  0  0  0  0
   -1.3216    1.2767   -0.7544 H   0  0  0  0  0  0  0  0  0  0  0  0
    0.0174    2.3554    0.5199 C   0  0  0  0  0  0  0  0  0  0  0  0
   -0.8449    3.0530    1.0248 O   0  0  0  0  0  0  0  0  0  0  0  0
    1.2780    2.6211    0.7621 N   0  0  0  0  0  0  0  0  0  0  0  0
    1.4552    3.3895    1.3849 H   0  0  0  0  0  0  0  0  0  0  0  0
    2.0055    2.0507    0.3742 H   0  0  0  0  0  0  0  0  0  0  0  0
    0.4075   -0.0985    1.7169 C   0  0  0  0  0  0  0  0  0  0  0  0
    1.5860   -0.3526    1.9662 O   0  0  0  0  0  0  0  0  0  0  0  0
   -0.4625    0.2583    2.6666 N   0  0  0  0  0  0  0  0  0  0  0  0
   -1.4309    0.3754    2.3860 H   0  0  0  0  0  0  0  0  0  0  0  0
   -0.1275    0.4111    4.0813 C   0  0  0  0  0  0  0  0  0  0  0  0
    0.6862    1.1312    4.1910 H   0  0  0  0  0  0  0  0  0  0  0  0
   -0.9980    0.7641    4.6360 H   0  0  0  0  0  0  0  0  0  0  0  0
    0.1959   -0.5481    4.4891 H   0  0  0  0  0  0  0  0  0  0  0  0
  5  6  2  0  0  0  0
  5  7  1  0  0  0  0
  2  3  1  0  0  0  0
  2  4  1  0  0  0  0
  2  5  1  0  0  0  0
  1  2  1  0  0  0  0
 19 20  2  0  0  0  0
 19 21  1  0  0  0  0
 16 17  1  0  0  0  0
 16 18  1  0  0  0  0
 14 15  2  0  0  0  0
 14 16  1  0  0  0  0
 11 12  1  0  0  0  0
 11 13  1  0  0  0  0
 11 14  1  0  0  0  0
  9 10  1  0  0  0  0
  9 11  1  0  0  0  0
  9 19  1  0  0  0  0
  7  8  1  0  0  0  0
  7  9  1  0  0  0  0
 23 24  1  0  0  0  0
 23 25  1  0  0  0  0
 23 26  1  0  0  0  0
 21 22  1  0  0  0  0
 21 23  1  0  0  0  0
M  END
$$$$
default_name
  -OEChem-02102213163D

 26 25  0     1  0  0  0  0  0999 V2000
   -3.0232   -3.6924    1.0038 H   0  0  0  0  0  0  0  0  0  0  0  0
   -3.0082   -2.6684    0.6318 C   0  0  0  0  0  0  0  0  0  0  0  0
   -3.6332   -2.0414    1.2658 H   0  0  0  0  0  0  0  0  0  0  0  0
   -3.3762   -2.6444   -0.3912 H   0  0  0  0  0  0  0  0  0  0  0  0
   -1.5882   -2.1554    0.6658 C   0  0  0  0  0  0  0  0  0  0  0  0
   -0.6832   -2.8764    1.0638 O   0  0  0  0  0  0  0  0  0  0  0  0
   -1.3952   -0.9084    0.2428 N   0  0  0  0  0  0  0  0  0  0  0  0
   -2.1972   -0.3644   -0.0422 H   0  0  0  0  0  0  0  0  0  0  0  0
   -0.1122   -0.1994    0.2658 C   0  0  1  0  0  0  0  0  0  0  0  0
    0.6131   -0.7748   -0.3153 H   0  0  0  0  0  0  0  0  0  0  0  0
   -0.2973    1.1841   -0.3966 C   0  0  0  0  0  0  0  0  0  0  0  0
    0.3728    1.2634   -1.2519 H   0  0  0  0  0  0  0  0  0  0  0  0
   -1.3216    1.2767   -0.7544 H   0  0  0  0  0  0  0  0  0  0  0  0
    0.0174    2.3554    0.5199 C   0  0  0  0  0  0  0  0  0  0  0  0
   -0.8190    2.8851    1.2306 O   0  0  0  0  0  0  0  0  0  0  0  0
    1.2462    2.8118    0.5293 N   0  0  0  0  0  0  0  0  0  0  0  0
    1.4287    3.5747    1.1573 H   0  0  0  0  0  0  0  0  0  0  0  0
    1.9568    2.3815   -0.0318 H   0  0  0  0  0  0  0  0  0  0  0  0
    0.4075   -0.0985    1.7169 C   0  0  0  0  0  0  0  0  0  0  0  0
    1.5860   -0.3526    1.9662 O   0  0  0  0  0  0  0  0  0  0  0  0
   -0.4625    0.2583    2.6666 N   0  0  0  0  0  0  0  0  0  0  0  0
   -1.4309    0.3754    2.3860 H   0  0  0  0  0  0  0  0  0  0  0  0
   -0.1275    0.4111    4.0813 C   0  0  0  0  0  0  0  0  0  0  0  0
    0.6862    1.1312    4.1910 H   0  0  0  0  0  0  0  0  0  0  0  0
   -0.9980    0.7641    4.6360 H   0  0  0  0  0  0  0  0  0  0  0  0
    0.1959   -0.5481    4.4891 H   0  0  0  0  0  0  0  0  0  0  0  0
  5  6  2  0  0  0  0
  5  7  1  0  0  0  0
  2  3  1  0  0  0  0
  2  4  1  0  0  0  0
  2  5  1  0  0  0  0
  1  2  1  0  0  0  0
 19 20  2  0  0  0  0
 19 21  1  0  0  0  0
 16 17  1  0  0  0  0
 16 18  1  0  0  0  0
 14 15  2  0  0  0  0
 14 16  1  0  0  0  0
 11 12  1  0  0  0  0
 11 13  1  0  0  0  0
 11 14  1  0  0  0  0
  9 10  1  0  0  0  0
  9 11  1  0  0  0  0
  9 19  1  0  0  0  0
  7  8  1  0  0  0  0
  7  9  1  0  0  0  0
 23 24  1  0  0  0  0
 23 25  1  0  0  0  0
 23 26  1  0  0  0  0
 21 22  1  0  0  0  0
 21 23  1  0  0  0  0
M  END
$$$$
default_name
  -OEChem-02102213163D

 26 25  0     1  0  0  0  0  0999 V2000
   -3.0232   -3.6924    1.0038 H   0  0  0  0  0  0  0  0  0  0  0  0
   -3.0082   -2.6684    0.6318 C   0  0  0  0  0  0  0  0  0  0  0  0
   -3.6332   -2.0414    1.2658 H   0  0  0  0  0  0  0  0  0  0  0  0
   -3.3762   -2.6444   -0.3912 H   0  0  0  0  0  0  0  0  0  0  0  0
   -1.5882   -2.1554    0.6658 C   0  0  0  0  0  0  0  0  0  0  0  0
   -0.6832   -2.8764    1.0638 O   0  0  0  0  0  0  0  0  0  0  0  0
   -1.3952   -0.9084    0.2428 N   0  0  0  0  0  0  0  0  0  0  0  0
   -2.1972   -0.3644   -0.0422 H   0  0  0  0  0  0  0  0  0  0  0  0
   -0.1122   -0.1994    0.2658 C   0  0  1  0  0  0  0  0  0  0  0  0
    0.6131   -0.7748   -0.3153 H   0  0  0  0  0  0  0  0  0  0  0  0
   -0.2973    1.1841   -0.3966 C   0  0  0  0  0  0  0  0  0  0  0  0
    0.3728    1.2634   -1.2519 H   0  0  0  0  0  0  0  0  0  0  0  0
   -1.3216    1.2767   -0.7544 H   0  0  0  0  0  0  0  0  0  0  0  0
    0.0174    2.3554    0.5199 C   0  0  0  0  0  0  0  0  0  0  0  0
   -0.7268    2.7159    1.4152 O   0  0  0  0  0  0  0  0  0  0  0  0
    1.1393    3.0036    0.3209 N   0  0  0  0  0  0  0  0  0  0  0  0
    1.3289    3.7616    0.9526 H   0  0  0  0  0  0  0  0  0  0  0  0
    1.7773    2.7151   -0.3965 H   0  0  0  0  0  0  0  0  0  0  0  0
    0.4075   -0.0985    1.7169 C   0  0  0  0  0  0  0  0  0  0  0  0
    1.5860   -0.3526    1.9662 O   0  0  0  0  0  0  0  0  0  0  0  0
   -0.4625    0.2583    2.6666 N   0  0  0  0  0  0  0  0  0  0  0  0
   -1.4309    0.3754    2.3860 H   0  0  0  0  0  0  0  0  0  0  0  0
   -0.1275    0.4111    4.0813 C   0  0  0  0  0  0  0  0  0  0  0  0
    0.6862    1.1312    4.1910 H   0  0  0  0  0  0  0  0  0  0  0  0
   -0.9980    0.7641    4.6360 H   0  0  0  0  0  0  0  0  0  0  0  0
    0.1959   -0.5481    4.4891 H   0  0  0  0  0  0  0  0  0  0  0  0
  5  6  2  0  0  0  0
  5  7  1  0  0  0  0
  2  3  1  0  0  0  0
  2  4  1  0  0  0  0
  2  5  1  0  0  0  0
  1  2  1  0  0  0  0
 19 20  2  0  0  0  0
 19 21  1  0  0  0  0
 16 17  1  0  0  0  0
 16 18  1  0  0  0  0
 14 15  2  0  0  0  0
 14 16  1  0  0  0  0
 11 12  1  0  0  0  0
 11 13  1  0  0  0  0
 11 14  1  0  0  0  0
  9 10  1  0  0  0  0
  9 11  1  0  0  0  0
  9 19  1  0  0  0  0
  7  8  1  0  0  0  0
  7  9  1  0  0  0  0
 23 24  1  0  0  0  0
 23 25  1  0  0  0  0
 23 26  1  0  0  0  0
 21 22  1  0  0  0  0
 21 23  1  0  0  0  0
M  END
$$$$
default_name
  -OEChem-02102213163D

 26 25  0     1  0  0  0  0  0999 V2000
   -3.0232   -3.6924    1.0038 H   0  0  0  0  0  0  0  0  0  0  0  0
   -3.0082   -2.6684    0.6318 C   0  0  0  0  0  0  0  0  0  0  0  0
   -3.6332   -2.0414    1.2658 H   0  0  0  0  0  0  0  0  0  0  0  0
   -3.3762   -2.6444   -0.3912 H   0  0  0  0  0  0  0  0  0  0  0  0
   -1.5882   -2.1554    0.6658 C   0  0  0  0  0  0  0  0  0  0  0  0
   -0.6832   -2.8764    1.0638 O   0  0  0  0  0  0  0  0  0  0  0  0
   -1.3952   -0.9084    0.2428 N   0  0  0  0  0  0  0  0  0  0  0  0
   -2.1972   -0.3644   -0.0422 H   0  0  0  0  0  0  0  0  0  0  0  0
   -0.1122   -0.1994    0.2658 C   0  0  1  0  0  0  0  0  0  0  0  0
    0.6131   -0.7748   -0.3153 H   0  0  0  0  0  0  0  0  0  0  0  0
   -0.2973    1.1841   -0.3966 C   0  0  0  0  0  0  0  0  0  0  0  0
    0.3728    1.2634   -1.2519 H   0  0  0  0  0  0  0  0  0  0  0  0
   -1.3216    1.2767   -0.7544 H   0  0  0  0  0  0  0  0  0  0  0  0
    0.0174    2.3554    0.5199 C   0  0  0  0  0  0  0  0  0  0  0  0
   -0.5744    2.5569    1.5660 O   0  0  0  0  0  0  0  0  0  0  0  0
    0.9646    3.1833    0.1513 N   0  0  0  0  0  0  0  0  0  0  0  0
    1.1625    3.9376    0.7849 H   0  0  0  0  0  0  0  0  0  0  0  0
    1.4791    3.0289   -0.6952 H   0  0  0  0  0  0  0  0  0  0  0  0
    0.4075   -0.0985    1.7169 C   0  0  0  0  0  0  0  0  0  0  0  0
    1.5860   -0.3526    1.9662 O   0  0  0  0  0  0  0  0  0  0  0  0
   -0.4625    0.2583    2.6666 N   0  0  0  0  0  0  0  0  0  0  0  0
   -1.4309    0.3754    2.3860 H   0  0  0  0  0  0  0  0  0  0  0  0
   -0.1275    0.4111    4.0813 C   0  0  0  0  0  0  0  0  0  0  0  0
    0.6862    1.1312    4.1910 H   0  0  0  0  0  0  0  0  0  0  0  0
   -0.9980    0.7641    4.6360 H   0  0  0  0  0  0  0  0  0  0  0  0
    0.1959   -0.5481    4.4891 H   0  0  0  0  0  0  0  0  0  0  0  0
  5  6  2  0  0  0  0
  5  7  1  0  0  0  0
  2  3  1  0  0  0  0
  2  4  1  0  0  0  0
  2  5  1  0  0  0  0
  1  2  1  0  0  0  0
 19 20  2  0  0  0  0
 19 21  1  0  0  0  0
 16 17  1  0  0  0  0
 16 18  1  0  0  0  0
 14 15  2  0  0  0  0
 14 16  1  0  0  0  0
 11 12  1  0  0  0  0
 11 13  1  0  0  0  0
 11 14  1  0  0  0  0
  9 10  1  0  0  0  0
  9 11  1  0  0  0  0
  9 19  1  0  0  0  0
  7  8  1  0  0  0  0
  7  9  1  0  0  0  0
 23 24  1  0  0  0  0
 23 25  1  0  0  0  0
 23 26  1  0  0  0  0
 21 22  1  0  0  0  0
 21 23  1  0  0  0  0
M  END
$$$$
default_name
  -OEChem-02102213163D

 26 25  0     1  0  0  0  0  0999 V2000
   -3.0232   -3.6924    1.0038 H   0  0  0  0  0  0  0  0  0  0  0  0
   -3.0082   -2.6684    0.6318 C   0  0  0  0  0  0  0  0  0  0  0  0
   -3.6332   -2.0414    1.2658 H   0  0  0  0  0  0  0  0  0  0  0  0
   -3.3762   -2.6444   -0.3912 H   0  0  0  0  0  0  0  0  0  0  0  0
   -1.5882   -2.1554    0.6658 C   0  0  0  0  0  0  0  0  0  0  0  0
   -0.6832   -2.8764    1.0638 O   0  0  0  0  0  0  0  0  0  0  0  0
   -1.3952   -0.9084    0.2428 N   0  0  0  0  0  0  0  0  0  0  0  0
   -2.1972   -0.3644   -0.0422 H   0  0  0  0  0  0  0  0  0  0  0  0
   -0.1122   -0.1994    0.2658 C   0  0  1  0  0  0  0  0  0  0  0  0
    0.6131   -0.7748   -0.3153 H   0  0  0  0  0  0  0  0  0  0  0  0
   -0.2973    1.1841   -0.3966 C   0  0  0  0  0  0  0  0  0  0  0  0
    0.3728    1.2634   -1.2519 H   0  0  0  0  0  0  0  0  0  0  0  0
   -1.3216    1.2767   -0.7544 H   0  0  0  0  0  0  0  0  0  0  0  0
    0.0174    2.3554    0.5199 C   0  0  0  0  0  0  0  0  0  0  0  0
   -0.3724    2.4191    1.6728 O   0  0  0  0  0  0  0  0  0  0  0  0
    0.7339    3.3387    0.0319 N   0  0  0  0  0  0  0  0  0  0  0  0
    0.9409    4.0906    0.6654 H   0  0  0  0  0  0  0  0  0  0  0  0
    1.0825    3.3014   -0.9074 H   0  0  0  0  0  0  0  0  0  0  0  0
    0.4075   -0.0985    1.7169 C   0  0  0  0  0  0  0  0  0  0  0  0
    1.5860   -0.3526    1.9662 O   0  0  0  0  0  0  0  0  0  0  0  0
   -0.4625    0.2583    2.6666 N   0  0  0  0  0  0  0  0  0  0  0  0
   -1.4309    0.3754    2.3860 H   0  0  0  0  0  0  0  0  0  0  0  0
   -0.1275    0.4111    4.0813 C   0  0  0  0  0  0  0  0  0  0  0  0
    0.6862    1.1312    4.1910 H   0  0  0  0  0  0  0  0  0  0  0  0
   -0.9980    0.7641    4.6360 H   0  0  0  0  0  0  0  0  0  0  0  0
    0.1959   -0.5481    4.4891 H   0  0  0  0  0  0  0  0  0  0  0  0
  5  6  2  0  0  0  0
  5  7  1  0  0  0  0
  2  3  1  0  0  0  0
  2  4  1  0  0  0  0
  2  5  1  0  0  0  0
  1  2  1  0  0  0  0
 19 20  2  0  0  0  0
 19 21  1  0  0  0  0
 16 17  1  0  0  0  0
 16 18  1  0  0  0  0
 14 15  2  0  0  0  0
 14 16  1  0  0  0  0
 11 12  1  0  0  0  0
 11 13  1  0  0  0  0
 11 14  1  0  0  0  0
  9 10  1  0  0  0  0
  9 11  1  0  0  0  0
  9 19  1  0  0  0  0
  7  8  1  0  0  0  0
  7  9  1  0  0  0  0
 23 24  1  0  0  0  0
 23 25  1  0  0  0  0
 23 26  1  0  0  0  0
 21 22  1  0  0  0  0
 21 23  1  0  0  0  0
M  END
$$$$
default_name
  -OEChem-02102213163D

 26 25  0     1  0  0  0  0  0999 V2000
   -3.0232   -3.6924    1.0038 H   0  0  0  0  0  0  0  0  0  0  0  0
   -3.0082   -2.6684    0.6318 C   0  0  0  0  0  0  0  0  0  0  0  0
   -3.6332   -2.0414    1.2658 H   0  0  0  0  0  0  0  0  0  0  0  0
   -3.3762   -2.6444   -0.3912 H   0  0  0  0  0  0  0  0  0  0  0  0
   -1.5882   -2.1554    0.6658 C   0  0  0  0  0  0  0  0  0  0  0  0
   -0.6832   -2.8764    1.0638 O   0  0  0  0  0  0  0  0  0  0  0  0
   -1.3952   -0.9084    0.2428 N   0  0  0  0  0  0  0  0  0  0  0  0
   -2.1972   -0.3644   -0.0422 H   0  0  0  0  0  0  0  0  0  0  0  0
   -0.1122   -0.1994    0.2658 C   0  0  1  0  0  0  0  0  0  0  0  0
    0.6131   -0.7748   -0.3153 H   0  0  0  0  0  0  0  0  0  0  0  0
   -0.2973    1.1841   -0.3966 C   0  0  0  0  0  0  0  0  0  0  0  0
    0.3728    1.2634   -1.2519 H   0  0  0  0  0  0  0  0  0  0  0  0
   -1.3216    1.2767   -0.7544 H   0  0  0  0  0  0  0  0  0  0  0  0
    0.0174    2.3554    0.5199 C   0  0  0  0  0  0  0  0  0  0  0  0
   -0.1344    2.3117    1.7283 O   0  0  0  0  0  0  0  0  0  0  0  0
    0.4631    3.4592   -0.0292 N   0  0  0  0  0  0  0  0  0  0  0  0
    0.6791    4.2102    0.6025 H   0  0  0  0  0  0  0  0  0  0  0  0
    0.6146    3.5142   -1.0186 H   0  0  0  0  0  0  0  0  0  0  0  0
    0.4075   -0.0985    1.7169 C   0  0  0  0  0  0  0  0  0  0  0  0
    1.5860   -0.3526    1.9662 O   0  0  0  0  0  0  0  0  0  0  0  0
   -0.4625    0.2583    2.6666 N   0  0  0  0  0  0  0  0  0  0  0  0
   -1.4309    0.3754    2.3860 H   0  0  0  0  0  0  0  0  0  0  0  0
   -0.1275    0.4111    4.0813 C   0  0  0  0  0  0  0  0  0  0  0  0
    0.6862    1.1312    4.1910 H   0  0  0  0  0  0  0  0  0  0  0  0
   -0.9980    0.7641    4.6360 H   0  0  0  0  0  0  0  0  0  0  0  0
    0.1959   -0.5481    4.4891 H   0  0  0  0  0  0  0  0  0  0  0  0
  5  6  2  0  0  0  0
  5  7  1  0  0  0  0
  2  3  1  0  0  0  0
  2  4  1  0  0  0  0
  2  5  1  0  0  0  0
  1  2  1  0  0  0  0
 19 20  2  0  0  0  0
 19 21  1  0  0  0  0
 16 17  1  0  0  0  0
 16 18  1  0  0  0  0
 14 15  2  0  0  0  0
 14 16  1  0  0  0  0
 11 12  1  0  0  0  0
 11 13  1  0  0  0  0
 11 14  1  0  0  0  0
  9 10  1  0  0  0  0
  9 11  1  0  0  0  0
  9 19  1  0  0  0  0
  7  8  1  0  0  0  0
  7  9  1  0  0  0  0
 23 24  1  0  0  0  0
 23 25  1  0  0  0  0
 23 26  1  0  0  0  0
 21 22  1  0  0  0  0
 21 23  1  0  0  0  0
M  END
$$$$
default_name
  -OEChem-02102213163D

 26 25  0     1  0  0  0  0  0999 V2000
   -3.0232   -3.6924    1.0038 H   0  0  0  0  0  0  0  0  0  0  0  0
   -3.0082   -2.6684    0.6318 C   0  0  0  0  0  0  0  0  0  0  0  0
   -3.6332   -2.0414    1.2658 H   0  0  0  0  0  0  0  0  0  0  0  0
   -3.3762   -2.6444   -0.3912 H   0  0  0  0  0  0  0  0  0  0  0  0
   -1.5882   -2.1554    0.6658 C   0  0  0  0  0  0  0  0  0  0  0  0
   -0.6832   -2.8764    1.0638 O   0  0  0  0  0  0  0  0  0  0  0  0
   -1.3952   -0.9084    0.2428 N   0  0  0  0  0  0  0  0  0  0  0  0
   -2.1972   -0.3644   -0.0422 H   0  0  0  0  0  0  0  0  0  0  0  0
   -0.1122   -0.1994    0.2658 C   0  0  1  0  0  0  0  0  0  0  0  0
    0.6131   -0.7748   -0.3153 H   0  0  0  0  0  0  0  0  0  0  0  0
   -0.2973    1.1841   -0.3966 C   0  0  0  0  0  0  0  0  0  0  0  0
    0.3728    1.2634   -1.2519 H   0  0  0  0  0  0  0  0  0  0  0  0
   -1.3216    1.2767   -0.7544 H   0  0  0  0  0  0  0  0  0  0  0  0
    0.0174    2.3554    0.5199 C   0  0  0  0  0  0  0  0  0  0  0  0
    0.1232    2.2422    1.7287 O   0  0  0  0  0  0  0  0  0  0  0  0
    0.1705    3.5366   -0.0276 N   0  0  0  0  0  0  0  0  0  0  0  0
    0.3950    4.2882    0.6003 H   0  0  0  0  0  0  0  0  0  0  0  0
    0.1073    3.6527   -1.0214 H   0  0  0  0  0  0  0  0  0  0  0  0
    0.4075   -0.0985    1.7169 C   0  0  0  0  0  0  0  0  0  0  0  0
    1.5860   -0.3526    1.9662 O   0  0  0  0  0  0  0  0  0  0  0  0
   -0.4625    0.2583    2.6666 N   0  0  0  0  0  0  0  0  0  0  0  0
   -1.4309    0.3754    2.3860 H   0  0  0  0  0  0  0  0  0  0  0  0
   -0.1275    0.4111    4.0813 C   0  0  0  0  0  0  0  0  0  0  0  0
    0.6862    1.1312    4.1910 H   0  0  0  0  0  0  0  0  0  0  0  0
   -0.9980    0.7641    4.6360 H   0  0  0  0  0  0  0  0  0  0  0  0
    0.1959   -0.5481    4.4891 H   0  0  0  0  0  0  0  0  0  0  0  0
  5  6  2  0  0  0  0
  5  7  1  0  0  0  0
  2  3  1  0  0  0  0
  2  4  1  0  0  0  0
  2  5  1  0  0  0  0
  1  2  1  0  0  0  0
 19 20  2  0  0  0  0
 19 21  1  0  0  0  0
 16 17  1  0  0  0  0
 16 18  1  0  0  0  0
 14 15  2  0  0  0  0
 14 16  1  0  0  0  0
 11 12  1  0  0  0  0
 11 13  1  0  0  0  0
 11 14  1  0  0  0  0
  9 10  1  0  0  0  0
  9 11  1  0  0  0  0
  9 19  1  0  0  0  0
  7  8  1  0  0  0  0
  7  9  1  0  0  0  0
 23 24  1  0  0  0  0
 23 25  1  0  0  0  0
 23 26  1  0  0  0  0
 21 22  1  0  0  0  0
 21 23  1  0  0  0  0
M  END
$$$$
default_name
  -OEChem-02102213163D

 26 25  0     1  0  0  0  0  0999 V2000
   -3.0232   -3.6924    1.0038 H   0  0  0  0  0  0  0  0  0  0  0  0
   -3.0082   -2.6684    0.6318 C   0  0  0  0  0  0  0  0  0  0  0  0
   -3.6332   -2.0414    1.2658 H   0  0  0  0  0  0  0  0  0  0  0  0
   -3.3762   -2.6444   -0.3912 H   0  0  0  0  0  0  0  0  0  0  0  0
   -1.5882   -2.1554    0.6658 C   0  0  0  0  0  0  0  0  0  0  0  0
   -0.6832   -2.8764    1.0638 O   0  0  0  0  0  0  0  0  0  0  0  0
   -1.3952   -0.9084    0.2428 N   0  0  0  0  0  0  0  0  0  0  0  0
   -2.1972   -0.3644   -0.0422 H   0  0  0  0  0  0  0  0  0  0  0  0
   -0.1122   -0.1994    0.2658 C   0  0  1  0  0  0  0  0  0  0  0  0
    0.6131   -0.7748   -0.3153 H   0  0  0  0  0  0  0  0  0  0  0  0
   -0.2973    1.1841   -0.3966 C   0  0  0  0  0  0  0  0  0  0  0  0
    0.3728    1.2634   -1.2519 H   0  0  0  0  0  0  0  0  0  0  0  0
   -1.3216    1.2767   -0.7544 H   0  0  0  0  0  0  0  0  0  0  0  0
    0.0174    2.3554    0.5199 C   0  0  0  0  0  0  0  0  0  0  0  0
    0.3831    2.2152    1.6739 O   0  0  0  0  0  0  0  0  0  0  0  0
   -0.1239    3.5656    0.0363 N   0  0  0  0  0  0  0  0  0  0  0  0
    0.1080    4.3194    0.6590 H   0  0  0  0  0  0  0  0  0  0  0  0
   -0.4049    3.7074   -0.9155 H   0  0  0  0  0  0  0  0  0  0  0  0
    0.4075   -0.0985    1.7169 C   0  0  0  0  0  0  0  0  0  0  0  0
    1.5860   -0.3526    1.9662 O   0  0  0  0  0  0  0  0  0  0  0  0
   -0.4625    0.2583    2.6666 N   0  0  0  0  0  0  0  0  0  0  0  0
   -1.4309    0.3754    2.3860 H   0  0  0  0  0  0  0  0  0  0  0  0
   -0.1275    0.4111    4.0813 C   0  0  0  0  0  0  0  0  0  0  0  0
    0.6862    1.1312    4.1910 H   0  0  0  0  0  0  0  0  0  0  0  0
   -0.9980    0.7641    4.6360 H   0  0  0  0  0  0  0  0  0  0  0  0
    0.1959   -0.5481    4.4891 H   0  0  0  0  0  0  0  0  0  0  0  0
  5  6  2  0  0  0  0
  5  7  1  0  0  0  0
  2  3  1  0  0  0  0
  2  4  1  0  0  0  0
  2  5  1  0  0  0  0
  1  2  1  0  0  0  0
 19 20  2  0  0  0  0
 19 21  1  0  0  0  0
 16 17  1  0  0  0  0
 16 18  1  0  0  0  0
 14 15  2  0  0  0  0
 14 16  1  0  0  0  0
 11 12  1  0  0  0  0
 11 13  1  0  0  0  0
 11 14  1  0  0  0  0
  9 10  1  0  0  0  0
  9 11  1  0  0  0  0
  9 19  1  0  0  0  0
  7  8  1  0  0  0  0
  7  9  1  0  0  0  0
 23 24  1  0  0  0  0
 23 25  1  0  0  0  0
 23 26  1  0  0  0  0
 21 22  1  0  0  0  0
 21 23  1  0  0  0  0
M  END
$$$$
default_name
  -OEChem-02102213163D

 26 25  0     1  0  0  0  0  0999 V2000
   -3.0232   -3.6924    1.0038 H   0  0  0  0  0  0  0  0  0  0  0  0
   -3.0082   -2.6684    0.6318 C   0  0  0  0  0  0  0  0  0  0  0  0
   -3.6332   -2.0414    1.2658 H   0  0  0  0  0  0  0  0  0  0  0  0
   -3.3762   -2.6444   -0.3912 H   0  0  0  0  0  0  0  0  0  0  0  0
   -1.5882   -2.1554    0.6658 C   0  0  0  0  0  0  0  0  0  0  0  0
   -0.6832   -2.8764    1.0638 O   0  0  0  0  0  0  0  0  0  0  0  0
   -1.3952   -0.9084    0.2428 N   0  0  0  0  0  0  0  0  0  0  0  0
   -2.1972   -0.3644   -0.0422 H   0  0  0  0  0  0  0  0  0  0  0  0
   -0.1122   -0.1994    0.2658 C   0  0  1  0  0  0  0  0  0  0  0  0
    0.6131   -0.7748   -0.3153 H   0  0  0  0  0  0  0  0  0  0  0  0
   -0.2973    1.1841   -0.3966 C   0  0  0  0  0  0  0  0  0  0  0  0
    0.3728    1.2634   -1.2519 H   0  0  0  0  0  0  0  0  0  0  0  0
   -1.3216    1.2767   -0.7544 H   0  0  0  0  0  0  0  0  0  0  0  0
    0.0174    2.3554    0.5199 C   0  0  0  0  0  0  0  0  0  0  0  0
    0.6273    2.2326    1.5678 O   0  0  0  0  0  0  0  0  0  0  0  0
   -0.4000    3.5443    0.1584 N   0  0  0  0  0  0  0  0  0  0  0  0
   -0.1624    4.3016    0.7746 H   0  0  0  0  0  0  0  0  0  0  0  0
   -0.8871    3.6747   -0.7081 H   0  0  0  0  0  0  0  0  0  0  0  0
    0.4075   -0.0985    1.7169 C   0  0  0  0  0  0  0  0  0  0  0  0
    1.5860   -0.3526    1.9662 O   0  0  0  0  0  0  0  0  0  0  0  0
   -0.4625    0.2583    2.6666 N   0  0  0  0  0  0  0  0  0  0  0  0
   -1.4309    0.3754    2.3860 H   0  0  0  0  0  0  0  0  0  0  0  0
   -0.1275    0.4111    4.0813 C   0  0  0  0  0  0  0  0  0  0  0  0
    0.6862    1.1312    4.1910 H   0  0  0  0  0  0  0  0  0  0  0  0
   -0.9980    0.7641    4.6360 H   0  0  0  0  0  0  0  0  0  0  0  0
    0.1959   -0.5481    4.4891 H   0  0  0  0  0  0  0  0  0  0  0  0
  5  6  2  0  0  0  0
  5  7  1  0  0  0  0
  2  3  1  0  0  0  0
  2  4  1  0  0  0  0
  2  5  1  0  0  0  0
  1  2  1  0  0  0  0
 19 20  2  0  0  0  0
 19 21  1  0  0  0  0
 16 17  1  0  0  0  0
 16 18  1  0  0  0  0
 14 15  2  0  0  0  0
 14 16  1  0  0  0  0
 11 12  1  0  0  0  0
 11 13  1  0  0  0  0
 11 14  1  0  0  0  0
  9 10  1  0  0  0  0
  9 11  1  0  0  0  0
  9 19  1  0  0  0  0
  7  8  1  0  0  0  0
  7  9  1  0  0  0  0
 23 24  1  0  0  0  0
 23 25  1  0  0  0  0
 23 26  1  0  0  0  0
 21 22  1  0  0  0  0
 21 23  1  0  0  0  0
M  END
$$$$
default_name
  -OEChem-02102213163D

 26 25  0     1  0  0  0  0  0999 V2000
   -3.0232   -3.6924    1.0038 H   0  0  0  0  0  0  0  0  0  0  0  0
   -3.0082   -2.6684    0.6318 C   0  0  0  0  0  0  0  0  0  0  0  0
   -3.6332   -2.0414    1.2658 H   0  0  0  0  0  0  0  0  0  0  0  0
   -3.3762   -2.6444   -0.3912 H   0  0  0  0  0  0  0  0  0  0  0  0
   -1.5882   -2.1554    0.6658 C   0  0  0  0  0  0  0  0  0  0  0  0
   -0.6832   -2.8764    1.0638 O   0  0  0  0  0  0  0  0  0  0  0  0
   -1.3952   -0.9084    0.2428 N   0  0  0  0  0  0  0  0  0  0  0  0
   -2.1972   -0.3644   -0.0422 H   0  0  0  0  0  0  0  0  0  0  0  0
   -0.1122   -0.1994    0.2658 C   0  0  1  0  0  0  0  0  0  0  0  0
    0.6131   -0.7748   -0.3153 H   0  0  0  0  0  0  0  0  0  0  0  0
   -0.2973    1.1841   -0.3966 C   0  0  0  0  0  0  0  0  0  0  0  0
    0.3728    1.2634   -1.2519 H   0  0  0  0  0  0  0  0  0  0  0  0
   -1.3216    1.2767   -0.7544 H   0  0  0  0  0  0  0  0  0  0  0  0
    0.0174    2.3554    0.5199 C   0  0  0  0  0  0  0  0  0  0  0  0
    0.8393    2.2932    1.4175 O   0  0  0  0  0  0  0  0  0  0  0  0
   -0.6390    3.4741    0.3302 N   0  0  0  0  0  0  0  0  0  0  0  0
   -0.3977    4.2360    0.9393 H   0  0  0  0  0  0  0  0  0  0  0  0
   -1.3064    3.5568   -0.4133 H   0  0  0  0  0  0  0  0  0  0  0  0
    0.4075   -0.0985    1.7169 C   0  0  0  0  0  0  0  0  0  0  0  0
    1.5860   -0.3526    1.9662 O   0  0  0  0  0  0  0  0  0  0  0  0
   -0.4625    0.2583    2.6666 N   0  0  0  0  0  0  0  0  0  0  0  0
   -1.4309    0.3754    2.3860 H   0  0  0  0  0  0  0  0  0  0  0  0
   -0.1275    0.4111    4.0813 C   0  0  0  0  0  0  0  0  0  0  0  0
    0.6862    1.1312    4.1910 H   0  0  0  0  0  0  0  0  0  0  0  0
   -0.9980    0.7641    4.6360 H   0  0  0  0  0  0  0  0  0  0  0  0
    0.1959   -0.5481    4.4891 H   0  0  0  0  0  0  0  0  0  0  0  0
  5  6  2  0  0  0  0
  5  7  1  0  0  0  0
  2  3  1  0  0  0  0
  2  4  1  0  0  0  0
  2  5  1  0  0  0  0
  1  2  1  0  0  0  0
 19 20  2  0  0  0  0
 19 21  1  0  0  0  0
 16 17  1  0  0  0  0
 16 18  1  0  0  0  0
 14 15  2  0  0  0  0
 14 16  1  0  0  0  0
 11 12  1  0  0  0  0
 11 13  1  0  0  0  0
 11 14  1  0  0  0  0
  9 10  1  0  0  0  0
  9 11  1  0  0  0  0
  9 19  1  0  0  0  0
  7  8  1  0  0  0  0
  7  9  1  0  0  0  0
 23 24  1  0  0  0  0
 23 25  1  0  0  0  0
 23 26  1  0  0  0  0
 21 22  1  0  0  0  0
 21 23  1  0  0  0  0
M  END
$$$$
default_name
  -OEChem-02102213163D

 26 25  0     1  0  0  0  0  0999 V2000
   -3.0232   -3.6924    1.0038 H   0  0  0  0  0  0  0  0  0  0  0  0
   -3.0082   -2.6684    0.6318 C   0  0  0  0  0  0  0  0  0  0  0  0
   -3.6332   -2.0414    1.2658 H   0  0  0  0  0  0  0  0  0  0  0  0
   -3.3762   -2.6444   -0.3912 H   0  0  0  0  0  0  0  0  0  0  0  0
   -1.5882   -2.1554    0.6658 C   0  0  0  0  0  0  0  0  0  0  0  0
   -0.6832   -2.8764    1.0638 O   0  0  0  0  0  0  0  0  0  0  0  0
   -1.3952   -0.9084    0.2428 N   0  0  0  0  0  0  0  0  0  0  0  0
   -2.1972   -0.3644   -0.0422 H   0  0  0  0  0  0  0  0  0  0  0  0
   -0.1122   -0.1994    0.2658 C   0  0  1  0  0  0  0  0  0  0  0  0
    0.6131   -0.7748   -0.3153 H   0  0  0  0  0  0  0  0  0  0  0  0
   -0.2973    1.1841   -0.3966 C   0  0  0  0  0  0  0  0  0  0  0  0
    0.3728    1.2634   -1.2519 H   0  0  0  0  0  0  0  0  0  0  0  0
   -1.3216    1.2767   -0.7544 H   0  0  0  0  0  0  0  0  0  0  0  0
    0.0174    2.3554    0.5199 C   0  0  0  0  0  0  0  0  0  0  0  0
    1.0047    2.3929    1.2333 O   0  0  0  0  0  0  0  0  0  0  0  0
   -0.8247    3.3598    0.5401 N   0  0  0  0  0  0  0  0  0  0  0  0
   -0.5820    4.1271    1.1417 H   0  0  0  0  0  0  0  0  0  0  0  0
   -1.6342    3.3616   -0.0513 H   0  0  0  0  0  0  0  0  0  0  0  0
    0.4075   -0.0985    1.7169 C   0  0  0  0  0  0  0  0  0  0  0  0
    1.5860   -0.3526    1.9662 O   0  0  0  0  0  0  0  0  0  0  0  0
   -0.4625    0.2583    2.6666 N   0  0  0  0  0  0  0  0  0  0  0  0
   -1.4309    0.3754    2.3860 H   0  0  0  0  0  0  0  0  0  0  0  0
   -0.1275    0.4111    4.0813 C   0  0  0  0  0  0  0  0  0  0  0  0
    0.6862    1.1312    4.1910 H   0  0  0  0  0  0  0  0  0  0  0  0
   -0.9980    0.7641    4.6360 H   0  0  0  0  0  0  0  0  0  0  0  0
    0.1959   -0.5481    4.4891 H   0  0  0  0  0  0  0  0  0  0  0  0
  5  6  2  0  0  0  0
  5  7  1  0  0  0  0
  2  3  1  0  0  0  0
  2  4  1  0  0  0  0
  2  5  1  0  0  0  0
  1  2  1  0  0  0  0
 19 20  2  0  0  0  0
 19 21  1  0  0  0  0
 16 17  1  0  0  0  0
 16 18  1  0  0  0  0
 14 15  2  0  0  0  0
 14 16  1  0  0  0  0
 11 12  1  0  0  0  0
 11 13  1  0  0  0  0
 11 14  1  0  0  0  0
  9 10  1  0  0  0  0
  9 11  1  0  0  0  0
  9 19  1  0  0  0  0
  7  8  1  0  0  0  0
  7  9  1  0  0  0  0
 23 24  1  0  0  0  0
 23 25  1  0  0  0  0
 23 26  1  0  0  0  0
 21 22  1  0  0  0  0
 21 23  1  0  0  0  0
M  END
$$$$
default_name
  -OEChem-02102213163D

 26 25  0     1  0  0  0  0  0999 V2000
   -3.0232   -3.6924    1.0038 H   0  0  0  0  0  0  0  0  0  0  0  0
   -3.0082   -2.6684    0.6318 C   0  0  0  0  0  0  0  0  0  0  0  0
   -3.6332   -2.0414    1.2658 H   0  0  0  0  0  0  0  0  0  0  0  0
   -3.3762   -2.6444   -0.3912 H   0  0  0  0  0  0  0  0  0  0  0  0
   -1.5882   -2.1554    0.6658 C   0  0  0  0  0  0  0  0  0  0  0  0
   -0.6832   -2.8764    1.0638 O   0  0  0  0  0  0  0  0  0  0  0  0
   -1.3952   -0.9084    0.2428 N   0  0  0  0  0  0  0  0  0  0  0  0
   -2.1972   -0.3644   -0.0422 H   0  0  0  0  0  0  0  0  0  0  0  0
   -0.1122   -0.1994    0.2658 C   0  0  1  0  0  0  0  0  0  0  0  0
    0.6131   -0.7748   -0.3153 H   0  0  0  0  0  0  0  0  0  0  0  0
   -0.2973    1.1841   -0.3966 C   0  0  0  0  0  0  0  0  0  0  0  0
    0.3728    1.2634   -1.2519 H   0  0  0  0  0  0  0  0  0  0  0  0
   -1.3216    1.2767   -0.7544 H   0  0  0  0  0  0  0  0  0  0  0  0
    0.0174    2.3554    0.5199 C   0  0  0  0  0  0  0  0  0  0  0  0
    1.1122    2.5249    1.0277 O   0  0  0  0  0  0  0  0  0  0  0  0
   -0.9444    3.2092    0.7737 N   0  0  0  0  0  0  0  0  0  0  0  0
   -0.7026    3.9823    1.3682 H   0  0  0  0  0  0  0  0  0  0  0  0
   -1.8482    3.1026    0.3533 H   0  0  0  0  0  0  0  0  0  0  0  0
    0.4075   -0.0985    1.7169 C   0  0  0  0  0  0  0  0  0  0  0  0
    1.5860   -0.3526    1.9662 O   0  0  0  0  0  0  0  0  0  0  0  0
   -0.4625    0.2583    2.6666 N   0  0  0  0  0  0  0  0  0  0  0  0
   -1.4309    0.3754    2.3860 H   0  0  0  0  0  0  0  0  0  0  0  0
   -0.1275    0.4111    4.0813 C   0  0  0  0  0  0  0  0  0  0  0  0
    0.6862    1.1312    4.1910 H   0  0  0  0  0  0  0  0  0  0  0  0
   -0.9980    0.7641    4.6360 H   0  0  0  0  0  0  0  0  0  0  0  0
    0.1959   -0.5481    4.4891 H   0  0  0  0  0  0  0  0  0  0  0  0
  5  6  2  0  0  0  0
  5  7  1  0  0  0  0
  2  3  1  0  0  0  0
  2  4  1  0  0  0  0
  2  5  1  0  0  0  0
  1  2  1  0  0  0  0
 19 20  2  0  0  0  0
 19 21  1  0  0  0  0
 16 17  1  0  0  0  0
 16 18  1  0  0  0  0
 14 15  2  0  0  0  0
 14 16  1  0  0  0  0
 11 12  1  0  0  0  0
 11 13  1  0  0  0  0
 11 14  1  0  0  0  0
  9 10  1  0  0  0  0
  9 11  1  0  0  0  0
  9 19  1  0  0  0  0
  7  8  1  0  0  0  0
  7  9  1  0  0  0  0
 23 24  1  0  0  0  0
 23 25  1  0  0  0  0
 23 26  1  0  0  0  0
 21 22  1  0  0  0  0
 21 23  1  0  0  0  0
M  END
$$$$
default_name
  -OEChem-02102213163D

 26 25  0     1  0  0  0  0  0999 V2000
   -3.0232   -3.6924    1.0038 H   0  0  0  0  0  0  0  0  0  0  0  0
   -3.0082   -2.6684    0.6318 C   0  0  0  0  0  0  0  0  0  0  0  0
   -3.6332   -2.0414    1.2658 H   0  0  0  0  0  0  0  0  0  0  0  0
   -3.3762   -2.6444   -0.3912 H   0  0  0  0  0  0  0  0  0  0  0  0
   -1.5882   -2.1554    0.6658 C   0  0  0  0  0  0  0  0  0  0  0  0
   -0.6832   -2.8764    1.0638 O   0  0  0  0  0  0  0  0  0  0  0  0
   -1.3952   -0.9084    0.2428 N   0  0  0  0  0  0  0  0  0  0  0  0
   -2.1972   -0.3644   -0.0422 H   0  0  0  0  0  0  0  0  0  0  0  0
   -0.1122   -0.1994    0.2658 C   0  0  1  0  0  0  0  0  0  0  0  0
    0.6131   -0.7748   -0.3153 H   0  0  0  0  0  0  0  0  0  0  0  0
   -0.2973    1.1841   -0.3966 C   0  0  0  0  0  0  0  0  0  0  0  0
    0.3728    1.2634   -1.2519 H   0  0  0  0  0  0  0  0  0  0  0  0
   -1.3216    1.2767   -0.7544 H   0  0  0  0  0  0  0  0  0  0  0  0
    0.0174    2.3554    0.5199 C   0  0  0  0  0  0  0  0  0  0  0  0
    1.1544    2.6802    0.8148 O   0  0  0  0  0  0  0  0  0  0  0  0
   -0.9899    3.0325    1.0152 N   0  0  0  0  0  0  0  0  0  0  0  0
   -0.7513    3.8115    1.6032 H   0  0  0  0  0  0  0  0  0  0  0  0
   -1.9338    2.7973    0.7728 H   0  0  0  0  0  0  0  0  0  0  0  0
    0.4075   -0.0985    1.7169 C   0  0  0  0  0  0  0  0  0  0  0  0
    1.5860   -0.3526    1.9662 O   0  0  0  0  0  0  0  0  0  0  0  0
   -0.4625    0.2583    2.6666 N   0  0  0  0  0  0  0  0  0  0  0  0
   -1.4309    0.3754    2.3860 H   0  0  0  0  0  0  0  0  0  0  0  0
   -0.1275    0.4111    4.0813 C   0  0  0  0  0  0  0  0  0  0  0  0
    0.6862    1.1312    4.1910 H   0  0  0  0  0  0  0  0  0  0  0  0
   -0.9980    0.7641    4.6360 H   0  0  0  0  0  0  0  0  0  0  0  0
    0.1959   -0.5481    4.4891 H   0  0  0  0  0  0  0  0  0  0  0  0
  5  6  2  0  0  0  0
  5  7  1  0  0  0  0
  2  3  1  0  0  0  0
  2  4  1  0  0  0  0
  2  5  1  0  0  0  0
  1  2  1  0  0  0  0
 19 20  2  0  0  0  0
 19 21  1  0  0  0  0
 16 17  1  0  0  0  0
 16 18  1  0  0  0  0
 14 15  2  0  0  0  0
 14 16  1  0  0  0  0
 11 12  1  0  0  0  0
 11 13  1  0  0  0  0
 11 14  1  0  0  0  0
  9 10  1  0  0  0  0
  9 11  1  0  0  0  0
  9 19  1  0  0  0  0
  7  8  1  0  0  0  0
  7  9  1  0  0  0  0
 23 24  1  0  0  0  0
 23 25  1  0  0  0  0
 23 26  1  0  0  0  0
 21 22  1  0  0  0  0
 21 23  1  0  0  0  0
M  END
$$$$
default_name
  -OEChem-02102213163D

 26 25  0     1  0  0  0  0  0999 V2000
   -3.0232   -3.6924    1.0038 H   0  0  0  0  0  0  0  0  0  0  0  0
   -3.0082   -2.6684    0.6318 C   0  0  0  0  0  0  0  0  0  0  0  0
   -3.6332   -2.0414    1.2658 H   0  0  0  0  0  0  0  0  0  0  0  0
   -3.3762   -2.6444   -0.3912 H   0  0  0  0  0  0  0  0  0  0  0  0
   -1.5882   -2.1554    0.6658 C   0  0  0  0  0  0  0  0  0  0  0  0
   -0.6832   -2.8764    1.0638 O   0  0  0  0  0  0  0  0  0  0  0  0
   -1.3952   -0.9084    0.2428 N   0  0  0  0  0  0  0  0  0  0  0  0
   -2.1972   -0.3644   -0.0422 H   0  0  0  0  0  0  0  0  0  0  0  0
   -0.1122   -0.1994    0.2658 C   0  0  1  0  0  0  0  0  0  0  0  0
    0.6131   -0.7748   -0.3153 H   0  0  0  0  0  0  0  0  0  0  0  0
   -0.2973    1.1841   -0.3966 C   0  0  0  0  0  0  0  0  0  0  0  0
    0.3728    1.2634   -1.2519 H   0  0  0  0  0  0  0  0  0  0  0  0
   -1.3216    1.2767   -0.7544 H   0  0  0  0  0  0  0  0  0  0  0  0
    0.0174    2.3554    0.5199 C   0  0  0  0  0  0  0  0  0  0  0  0
    1.1285    2.8481    0.6090 O   0  0  0  0  0  0  0  0  0  0  0  0
   -0.9581    2.8417    1.2481 N   0  0  0  0  0  0  0  0  0  0  0  0
   -0.7249    3.6264    1.8308 H   0  0  0  0  0  0  0  0  0  0  0  0
   -1.8852    2.4666    1.1788 H   0  0  0  0  0  0  0  0  0  0  0  0
    0.4075   -0.0985    1.7169 C   0  0  0  0  0  0  0  0  0  0  0  0
    1.5860   -0.3526    1.9662 O   0  0  0  0  0  0  0  0  0  0  0  0
   -0.4625    0.2583    2.6666 N   0  0  0  0  0  0  0  0  0  0  0  0
   -1.4309    0.3754    2.3860 H   0  0  0  0  0  0  0  0  0  0  0  0
   -0.1275    0.4111    4.0813 C   0  0  0  0  0  0  0  0  0  0  0  0
    0.6862    1.1312    4.1910 H   0  0  0  0  0  0  0  0  0  0  0  0
   -0.9980    0.7641    4.6360 H   0  0  0  0  0  0  0  0  0  0  0  0
    0.1959   -0.5481    4.4891 H   0  0  0  0  0  0  0  0  0  0  0  0
  5  6  2  0  0  0  0
  5  7  1  0  0  0  0
  2  3  1  0  0  0  0
  2  4  1  0  0  0  0
  2  5  1  0  0  0  0
  1  2  1  0  0  0  0
 19 20  2  0  0  0  0
 19 21  1  0  0  0  0
 16 17  1  0  0  0  0
 16 18  1  0  0  0  0
 14 15  2  0  0  0  0
 14 16  1  0  0  0  0
 11 12  1  0  0  0  0
 11 13  1  0  0  0  0
 11 14  1  0  0  0  0
  9 10  1  0  0  0  0
  9 11  1  0  0  0  0
  9 19  1  0  0  0  0
  7  8  1  0  0  0  0
  7  9  1  0  0  0  0
 23 24  1  0  0  0  0
 23 25  1  0  0  0  0
 23 26  1  0  0  0  0
 21 22  1  0  0  0  0
 21 23  1  0  0  0  0
M  END
$$$$
default_name
  -OEChem-02102213163D

 26 25  0     1  0  0  0  0  0999 V2000
   -3.0232   -3.6924    1.0038 H   0  0  0  0  0  0  0  0  0  0  0  0
   -3.0082   -2.6684    0.6318 C   0  0  0  0  0  0  0  0  0  0  0  0
   -3.6332   -2.0414    1.2658 H   0  0  0  0  0  0  0  0  0  0  0  0
   -3.3762   -2.6444   -0.3912 H   0  0  0  0  0  0  0  0  0  0  0  0
   -1.5882   -2.1554    0.6658 C   0  0  0  0  0  0  0  0  0  0  0  0
   -0.6832   -2.8764    1.0638 O   0  0  0  0  0  0  0  0  0  0  0  0
   -1.3952   -0.9084    0.2428 N   0  0  0  0  0  0  0  0  0  0  0  0
   -2.1972   -0.3644   -0.0422 H   0  0  0  0  0  0  0  0  0  0  0  0
   -0.1122   -0.1994    0.2658 C   0  0  1  0  0  0  0  0  0  0  0  0
    0.6131   -0.7748   -0.3153 H   0  0  0  0  0  0  0  0  0  0  0  0
   -0.2973    1.1841   -0.3966 C   0  0  0  0  0  0  0  0  0  0  0  0
    0.3728    1.2634   -1.2519 H   0  0  0  0  0  0  0  0  0  0  0  0
   -1.3216    1.2767   -0.7544 H   0  0  0  0  0  0  0  0  0  0  0  0
    0.0174    2.3554    0.5199 C   0  0  0  0  0  0  0  0  0  0  0  0
    1.0362    3.0173    0.4244 O   0  0  0  0  0  0  0  0  0  0  0  0
   -0.8512    2.6500    1.4564 N   0  0  0  0  0  0  0  0  0  0  0  0
   -0.6250    3.4394    2.0355 H   0  0  0  0  0  0  0  0  0  0  0  0
   -1.7057    2.1329    1.5436 H   0  0  0  0  0  0  0  0  0  0  0  0
    0.4075   -0.0985    1.7169 C   0  0  0  0  0  0  0  0  0  0  0  0
    1.5860   -0.3526    1.9662 O   0  0  0  0  0  0  0  0  0  0  0  0
   -0.4625    0.2583    2.6666 N   0  0  0  0  0  0  0  0  0  0  0  0
   -1.4309    0.3754    2.3860 H   0  0  0  0  0  0  0  0  0  0  0  0
   -0.1275    0.4111    4.0813 C   0  0  0  0  0  0  0  0  0  0  0  0
    0.6862    1.1312    4.1910 H   0  0  0  0  0  0  0  0  0  0  0  0
   -0.9980    0.7641    4.6360 H   0  0  0  0  0  0  0  0  0  0  0  0
    0.1959   -0.5481    4.4891 H   0  0  0  0  0  0  0  0  0  0  0  0
  5  6  2  0  0  0  0
  5  7  1  0  0  0  0
  2  3  1  0  0  0  0
  2  4  1  0  0  0  0
  2  5  1  0  0  0  0
  1  2  1  0  0  0  0
 19 20  2  0  0  0  0
 19 21  1  0  0  0  0
 16 17  1  0  0  0  0
 16 18  1  0  0  0  0
 14 15  2  0  0  0  0
 14 16  1  0  0  0  0
 11 12  1  0  0  0  0
 11 13  1  0  0  0  0
 11 14  1  0  0  0  0
  9 10  1  0  0  0  0
  9 11  1  0  0  0  0
  9 19  1  0  0  0  0
  7  8  1  0  0  0  0
  7  9  1  0  0  0  0
 23 24  1  0  0  0  0
 23 25  1  0  0  0  0
 23 26  1  0  0  0  0
 21 22  1  0  0  0  0
 21 23  1  0  0  0  0
M  END
$$$$
default_name
  -OEChem-02102213163D

 26 25  0     1  0  0  0  0  0999 V2000
   -3.0232   -3.6924    1.0038 H   0  0  0  0  0  0  0  0  0  0  0  0
   -3.0082   -2.6684    0.6318 C   0  0  0  0  0  0  0  0  0  0  0  0
   -3.6332   -2.0414    1.2658 H   0  0  0  0  0  0  0  0  0  0  0  0
   -3.3762   -2.6444   -0.3912 H   0  0  0  0  0  0  0  0  0  0  0  0
   -1.5882   -2.1554    0.6658 C   0  0  0  0  0  0  0  0  0  0  0  0
   -0.6832   -2.8764    1.0638 O   0  0  0  0  0  0  0  0  0  0  0  0
   -1.3952   -0.9084    0.2428 N   0  0  0  0  0  0  0  0  0  0  0  0
   -2.1972   -0.3644   -0.0422 H   0  0  0  0  0  0  0  0  0  0  0  0
   -0.1122   -0.1994    0.2658 C   0  0  1  0  0  0  0  0  0  0  0  0
    0.6131   -0.7748   -0.3153 H   0  0  0  0  0  0  0  0  0  0  0  0
   -0.2973    1.1841   -0.3966 C   0  0  0  0  0  0  0  0  0  0  0  0
    0.3728    1.2634   -1.2519 H   0  0  0  0  0  0  0  0  0  0  0  0
   -1.3216    1.2767   -0.7544 H   0  0  0  0  0  0  0  0  0  0  0  0
    0.0174    2.3554    0.5199 C   0  0  0  0  0  0  0  0  0  0  0  0
    0.8839    3.1763    0.2736 O   0  0  0  0  0  0  0  0  0  0  0  0
   -0.6765    2.4703    1.6261 N   0  0  0  0  0  0  0  0  0  0  0  0
   -0.4586    3.2635    2.2032 H   0  0  0  0  0  0  0  0  0  0  0  0
   -1.4075    1.8192    1.8422 H   0  0  0  0  0  0  0  0  0  0  0  0
    0.4075   -0.0985    1.7169 C   0  0  0  0  0  0  0  0  0  0  0  0
    1.5860   -0.3526    1.9662 O   0  0  0  0  0  0  0  0  0  0  0  0
   -0.4625    0.2583    2.6666 N   0  0  0  0  0  0  0  0  0  0  0  0
   -1.4309    0.3754    2.3860 H   0  0  0  0  0  0  0  0  0  0  0  0
   -0.1275    0.4111    4.0813 C   0  0  0  0  0  0  0  0  0  0  0  0
    0.6862    1.1312    4.1910 H   0  0  0  0  0  0  0  0  0  0  0  0
   -0.9980    0.7641    4.6360 H   0  0  0  0  0  0  0  0  0  0  0  0
    0.1959   -0.5481    4.4891 H   0  0  0  0  0  0  0  0  0  0  0  0
  5  6  2  0  0  0  0
  5  7  1  0  0  0  0
  2  3  1  0  0  0  0
  2  4  1  0  0  0  0
  2  5  1  0  0  0  0
  1  2  1  0  0  0  0
 19 20  2  0  0  0  0
 19 21  1  0  0  0  0
 16 17  1  0  0  0  0
 16 18  1  0  0  0  0
 14 15  2  0  0  0  0
 14 16  1  0  0  0  0
 11 12  1  0  0  0  0
 11 13  1  0  0  0  0
 11 14  1  0  0  0  0
  9 10  1  0  0  0  0
  9 11  1  0  0  0  0
  9 19  1  0  0  0  0
  7  8  1  0  0  0  0
  7  9  1  0  0  0  0
 23 24  1  0  0  0  0
 23 25  1  0  0  0  0
 23 26  1  0  0  0  0
 21 22  1  0  0  0  0
 21 23  1  0  0  0  0
M  END
$$$$
default_name
  -OEChem-02102213163D

 26 25  0     1  0  0  0  0  0999 V2000
   -3.0232   -3.6924    1.0038 H   0  0  0  0  0  0  0  0  0  0  0  0
   -3.0082   -2.6684    0.6318 C   0  0  0  0  0  0  0  0  0  0  0  0
   -3.6332   -2.0414    1.2658 H   0  0  0  0  0  0  0  0  0  0  0  0
   -3.3762   -2.6444   -0.3912 H   0  0  0  0  0  0  0  0  0  0  0  0
   -1.5882   -2.1554    0.6658 C   0  0  0  0  0  0  0  0  0  0  0  0
   -0.6832   -2.8764    1.0638 O   0  0  0  0  0  0  0  0  0  0  0  0
   -1.3952   -0.9084    0.2428 N   0  0  0  0  0  0  0  0  0  0  0  0
   -2.1972   -0.3644   -0.0422 H   0  0  0  0  0  0  0  0  0  0  0  0
   -0.1122   -0.1994    0.2658 C   0  0  1  0  0  0  0  0  0  0  0  0
    0.6131   -0.7748   -0.3153 H   0  0  0  0  0  0  0  0  0  0  0  0
   -0.2973    1.1841   -0.3966 C   0  0  0  0  0  0  0  0  0  0  0  0
    0.3728    1.2634   -1.2519 H   0  0  0  0  0  0  0  0  0  0  0  0
   -1.3216    1.2767   -0.7544 H   0  0  0  0  0  0  0  0  0  0  0  0
    0.0174    2.3554    0.5199 C   0  0  0  0  0  0  0  0  0  0  0  0
    0.6818    3.3141    0.1668 O   0  0  0  0  0  0  0  0  0  0  0  0
   -0.4459    2.3149    1.7455 N   0  0  0  0  0  0  0  0  0  0  0  0
   -0.2370    3.1105    2.3227 H   0  0  0  0  0  0  0  0  0  0  0  0
   -1.0109    1.5466    2.0544 H   0  0  0  0  0  0  0  0  0  0  0  0
    0.4075   -0.0985    1.7169 C   0  0  0  0  0  0  0  0  0  0  0  0
    1.5860   -0.3526    1.9662 O   0  0  0  0  0  0  0  0  0  0  0  0
   -0.4625    0.2583    2.6666 N   0  0  0  0  0  0  0  0  0  0  0  0
   -1.4309    0.3754    2.3860 H   0  0  0  0  0  0  0  0  0  0  0  0
   -0.1275    0.4111    4.0813 C   0  0  0  0  0  0  0  0  0  0  0  0
    0.6862    1.1312    4.1910 H   0  0  0  0  0  0  0  0  0  0  0  0
   -0.9980    0.7641    4.6360 H   0  0  0  0  0  0  0  0  0  0  0  0
    0.1959   -0.5481    4.4891 H   0  0  0  0  0  0  0  0  0  0  0  0
  5  6  2  0  0  0  0
  5  7  1  0  0  0  0
  2  3  1  0  0  0  0
  2  4  1  0  0  0  0
  2  5  1  0  0  0  0
  1  2  1  0  0  0  0
 19 20  2  0  0  0  0
 19 21  1  0  0  0  0
 16 17  1  0  0  0  0
 16 18  1  0  0  0  0
 14 15  2  0  0  0  0
 14 16  1  0  0  0  0
 11 12  1  0  0  0  0
 11 13  1  0  0  0  0
 11 14  1  0  0  0  0
  9 10  1  0  0  0  0
  9 11  1  0  0  0  0
  9 19  1  0  0  0  0
  7  8  1  0  0  0  0
  7  9  1  0  0  0  0
 23 24  1  0  0  0  0
 23 25  1  0  0  0  0
 23 26  1  0  0  0  0
 21 22  1  0  0  0  0
 21 23  1  0  0  0  0
M  END
$$$$
default_name
  -OEChem-02102213163D

 26 25  0     1  0  0  0  0  0999 V2000
   -3.0232   -3.6924    1.0038 H   0  0  0  0  0  0  0  0  0  0  0  0
   -3.0082   -2.6684    0.6318 C   0  0  0  0  0  0  0  0  0  0  0  0
   -3.6332   -2.0414    1.2658 H   0  0  0  0  0  0  0  0  0  0  0  0
   -3.3762   -2.6444   -0.3912 H   0  0  0  0  0  0  0  0  0  0  0  0
   -1.5882   -2.1554    0.6658 C   0  0  0  0  0  0  0  0  0  0  0  0
   -0.6832   -2.8764    1.0638 O   0  0  0  0  0  0  0  0  0  0  0  0
   -1.3952   -0.9084    0.2428 N   0  0  0  0  0  0  0  0  0  0  0  0
   -2.1972   -0.3644   -0.0422 H   0  0  0  0  0  0  0  0  0  0  0  0
   -0.1122   -0.1994    0.2658 C   0  0  1  0  0  0  0  0  0  0  0  0
    0.6131   -0.7748   -0.3153 H   0  0  0  0  0  0  0  0  0  0  0  0
   -0.2973    1.1841   -0.3966 C   0  0  0  0  0  0  0  0  0  0  0  0
    0.3728    1.2634   -1.2519 H   0  0  0  0  0  0  0  0  0  0  0  0
   -1.3216    1.2767   -0.7544 H   0  0  0  0  0  0  0  0  0  0  0  0
    0.0174    2.3554    0.5199 C   0  0  0  0  0  0  0  0  0  0  0  0
    0.4439    3.4215    0.1113 O   0  0  0  0  0  0  0  0  0  0  0  0
   -0.1750    2.1944    1.8065 N   0  0  0  0  0  0  0  0  0  0  0  0
    0.0248    2.9909    2.3856 H   0  0  0  0  0  0  0  0  0  0  0  0
   -0.5430    1.3338    2.1657 H   0  0  0  0  0  0  0  0  0  0  0  0
    0.4075   -0.0985    1.7169 C   0  0  0  0  0  0  0  0  0  0  0  0
    1.5860   -0.3526    1.9662 O   0  0  0  0  0  0  0  0  0  0  0  0
   -0.4625    0.2583    2.6666 N   0  0  0  0  0  0  0  0  0  0  0  0
   -1.4309    0.3754    2.3860 H   0  0  0  0  0  0  0  0  0  0  0  0
   -0.1275    0.4111    4.0813 C   0  0  0  0  0  0  0  0  0  0  0  0
    0.6862    1.1312    4.1910 H   0  0  0  0  0  0  0  0  0  0  0  0
   -0.9980    0.7641    4.6360 H   0  0  0  0  0  0  0  0  0  0  0  0
    0.1959   -0.5481    4.4891 H   0  0  0  0  0  0  0  0  0  0  0  0
  5  6  2  0  0  0  0
  5  7  1  0  0  0  0
  2  3  1  0  0  0  0
  2  4  1  0  0  0  0
  2  5  1  0  0  0  0
  1  2  1  0  0  0  0
 19 20  2  0  0  0  0
 19 21  1  0  0  0  0
 16 17  1  0  0  0  0
 16 18  1  0  0  0  0
 14 15  2  0  0  0  0
 14 16  1  0  0  0  0
 11 12  1  0  0  0  0
 11 13  1  0  0  0  0
 11 14  1  0  0  0  0
  9 10  1  0  0  0  0
  9 11  1  0  0  0  0
  9 19  1  0  0  0  0
  7  8  1  0  0  0  0
  7  9  1  0  0  0  0
 23 24  1  0  0  0  0
 23 25  1  0  0  0  0
 23 26  1  0  0  0  0
 21 22  1  0  0  0  0
 21 23  1  0  0  0  0
M  END
$$$$
default_name
  -OEChem-02102213163D

 26 25  0     1  0  0  0  0  0999 V2000
   -3.0232   -3.6924    1.0038 H   0  0  0  0  0  0  0  0  0  0  0  0
   -3.0082   -2.6684    0.6318 C   0  0  0  0  0  0  0  0  0  0  0  0
   -3.6332   -2.0414    1.2658 H   0  0  0  0  0  0  0  0  0  0  0  0
   -3.3762   -2.6444   -0.3912 H   0  0  0  0  0  0  0  0  0  0  0  0
   -1.5882   -2.1554    0.6658 C   0  0  0  0  0  0  0  0  0  0  0  0
   -0.6832   -2.8764    1.0638 O   0  0  0  0  0  0  0  0  0  0  0  0
   -1.3952   -0.9084    0.2428 N   0  0  0  0  0  0  0  0  0  0  0  0
   -2.1972   -0.3644   -0.0422 H   0  0  0  0  0  0  0  0  0  0  0  0
   -0.1122   -0.1994    0.2658 C   0  0  1  0  0  0  0  0  0  0  0  0
    0.6131   -0.7748   -0.3153 H   0  0  0  0  0  0  0  0  0  0  0  0
   -0.2973    1.1841   -0.3966 C   0  0  0  0  0  0  0  0  0  0  0  0
    0.3728    1.2634   -1.2519 H   0  0  0  0  0  0  0  0  0  0  0  0
   -1.3216    1.2767   -0.7544 H   0  0  0  0  0  0  0  0  0  0  0  0
    0.0174    2.3554    0.5199 C   0  0  0  0  0  0  0  0  0  0  0  0
    0.1862    3.4910    0.1109 O   0  0  0  0  0  0  0  0  0  0  0  0
    0.1176    2.1170    1.8050 N   0  0  0  0  0  0  0  0  0  0  0  0
    0.3089    2.9128    2.3878 H   0  0  0  0  0  0  0  0  0  0  0  0
   -0.0356    1.1953    2.1685 H   0  0  0  0  0  0  0  0  0  0  0  0
    0.4075   -0.0985    1.7169 C   0  0  0  0  0  0  0  0  0  0  0  0
    1.5860   -0.3526    1.9662 O   0  0  0  0  0  0  0  0  0  0  0  0
   -0.4625    0.2583    2.6666 N   0  0  0  0  0  0  0  0  0  0  0  0
   -1.4309    0.3754    2.3860 H   0  0  0  0  0  0  0  0  0  0  0  0
   -0.1275    0.4111    4.0813 C   0  0  0  0  0  0  0  0  0  0  0  0
    0.6862    1.1312    4.1910 H   0  0  0  0  0  0  0  0  0  0  0  0
   -0.9980    0.7641    4.6360 H   0  0  0  0  0  0  0  0  0  0  0  0
    0.1959   -0.5481    4.4891 H   0  0  0  0  0  0  0  0  0  0  0  0
  5  6  2  0  0  0  0
  5  7  1  0  0  0  0
  2  3  1  0  0  0  0
  2  4  1  0  0  0  0
  2  5  1  0  0  0  0
  1  2  1  0  0  0  0
 19 20  2  0  0  0  0
 19 21  1  0  0  0  0
 16 17  1  0  0  0  0
 16 18  1  0  0  0  0
 14 15  2  0  0  0  0
 14 16  1  0  0  0  0
 11 12  1  0  0  0  0
 11 13  1  0  0  0  0
 11 14  1  0  0  0  0
  9 10  1  0  0  0  0
  9 11  1  0  0  0  0
  9 19  1  0  0  0  0
  7  8  1  0  0  0  0
  7  9  1  0  0  0  0
 23 24  1  0  0  0  0
 23 25  1  0  0  0  0
 23 26  1  0  0  0  0
 21 22  1  0  0  0  0
 21 23  1  0  0  0  0
M  END
$$$$
default_name
  -OEChem-02102213163D

 26 25  0     1  0  0  0  0  0999 V2000
   -3.0232   -3.6924    1.0038 H   0  0  0  0  0  0  0  0  0  0  0  0
   -3.0082   -2.6684    0.6318 C   0  0  0  0  0  0  0  0  0  0  0  0
   -3.6332   -2.0414    1.2658 H   0  0  0  0  0  0  0  0  0  0  0  0
   -3.3762   -2.6444   -0.3912 H   0  0  0  0  0  0  0  0  0  0  0  0
   -1.5882   -2.1554    0.6658 C   0  0  0  0  0  0  0  0  0  0  0  0
   -0.6832   -2.8764    1.0638 O   0  0  0  0  0  0  0  0  0  0  0  0
   -1.3952   -0.9084    0.2428 N   0  0  0  0  0  0  0  0  0  0  0  0
   -2.1972   -0.3644   -0.0422 H   0  0  0  0  0  0  0  0  0  0  0  0
   -0.1122   -0.1994    0.2658 C   0  0  1  0  0  0  0  0  0  0  0  0
    0.6131   -0.7748   -0.3153 H   0  0  0  0  0  0  0  0  0  0  0  0
   -0.2973    1.1841   -0.3966 C   0  0  0  0  0  0  0  0  0  0  0  0
    0.1591    1.1707   -1.3857 H   0  0  0  0  0  0  0  0  0  0  0  0
   -1.3609    1.3871   -0.5130 H   0  0  0  0  0  0  0  0  0  0  0  0
    0.3465    2.3279    0.3704 C   0  0  0  0  0  0  0  0  0  0  0  0
    0.3006    3.4867   -0.0043 O   0  0  0  0  0  0  0  0  0  0  0  0
    0.9843    2.0389    1.4786 N   0  0  0  0  0  0  0  0  0  0  0  0
    1.3845    2.8167    1.9730 H   0  0  0  0  0  0  0  0  0  0  0  0
    1.0201    1.0963    1.8181 H   0  0  0  0  0  0  0  0  0  0  0  0
    0.4075   -0.0985    1.7169 C   0  0  0  0  0  0  0  0  0  0  0  0
    1.5860   -0.3526    1.9662 O   0  0  0  0  0  0  0  0  0  0  0  0
   -0.4625    0.2583    2.6666 N   0  0  0  0  0  0  0  0  0  0  0  0
   -1.4309    0.3754    2.3860 H   0  0  0  0  0  0  0  0  0  0  0  0
   -0.1275    0.4111    4.0813 C   0  0  0  0  0  0  0  0  0  0  0  0
    0.6862    1.1312    4.1910 H   0  0  0  0  0  0  0  0  0  0  0  0
   -0.9980    0.7641    4.6360 H   0  0  0  0  0  0  0  0  0  0  0  0
    0.1959   -0.5481    4.4891 H   0  0  0  0  0  0  0  0  0  0  0  0
  5  6  2  0  0  0  0
  5  7  1  0  0  0  0
  2  3  1  0  0  0  0
  2  4  1  0  0  0  0
  2  5  1  0  0  0  0
  1  2  1  0  0  0  0
 19 20  2  0  0  0  0
 19 21  1  0  0  0  0
 16 17  1  0  0  0  0
 16 18  1  0  0  0  0
 14 15  2  0  0  0  0
 14 16  1  0  0  0  0
 11 12  1  0  0  0  0
 11 13  1  0  0  0  0
 11 14  1  0  0  0  0
  9 10  1  0  0  0  0
  9 11  1  0  0  0  0
  9 19  1  0  0  0  0
  7  8  1  0  0  0  0
  7  9  1  0  0  0  0
 23 24  1  0  0  0  0
 23 25  1  0  0  0  0
 23 26  1  0  0  0  0
 21 22  1  0  0  0  0
 21 23  1  0  0  0  0
M  END
$$$$
default_name
  -OEChem-02102213163D

 26 25  0     1  0  0  0  0  0999 V2000
   -3.0232   -3.6924    1.0038 H   0  0  0  0  0  0  0  0  0  0  0  0
   -3.0082   -2.6684    0.6318 C   0  0  0  0  0  0  0  0  0  0  0  0
   -3.6332   -2.0414    1.2658 H   0  0  0  0  0  0  0  0  0  0  0  0
   -3.3762   -2.6444   -0.3912 H   0  0  0  0  0  0  0  0  0  0  0  0
   -1.5882   -2.1554    0.6658 C   0  0  0  0  0  0  0  0  0  0  0  0
   -0.6832   -2.8764    1.0638 O   0  0  0  0  0  0  0  0  0  0  0  0
   -1.3952   -0.9084    0.2428 N   0  0  0  0  0  0  0  0  0  0  0  0
   -2.1972   -0.3644   -0.0422 H   0  0  0  0  0  0  0  0  0  0  0  0
   -0.1122   -0.1994    0.2658 C   0  0  1  0  0  0  0  0  0  0  0  0
    0.6131   -0.7748   -0.3153 H   0  0  0  0  0  0  0  0  0  0  0  0
   -0.2973    1.1841   -0.3966 C   0  0  0  0  0  0  0  0  0  0  0  0
    0.1591    1.1707   -1.3857 H   0  0  0  0  0  0  0  0  0  0  0  0
   -1.3609    1.3871   -0.5130 H   0  0  0  0  0  0  0  0  0  0  0  0
    0.3465    2.3279    0.3704 C   0  0  0  0  0  0  0  0  0  0  0  0
    0.0875    3.4993    0.1558 O   0  0  0  0  0  0  0  0  0  0  0  0
    1.2249    2.0262    1.2954 N   0  0  0  0  0  0  0  0  0  0  0  0
    1.6207    2.8013    1.7976 H   0  0  0  0  0  0  0  0  0  0  0  0
    1.4412    1.0698    1.5041 H   0  0  0  0  0  0  0  0  0  0  0  0
    0.4075   -0.0985    1.7169 C   0  0  0  0  0  0  0  0  0  0  0  0
    1.5860   -0.3526    1.9662 O   0  0  0  0  0  0  0  0  0  0  0  0
   -0.4625    0.2583    2.6666 N   0  0  0  0  0  0  0  0  0  0  0  0
   -1.4309    0.3754    2.3860 H   0  0  0  0  0  0  0  0  0  0  0  0
   -0.1275    0.4111    4.0813 C   0  0  0  0  0  0  0  0  0  0  0  0
    0.6862    1.1312    4.1910 H   0  0  0  0  0  0  0  0  0  0  0  0
   -0.9980    0.7641    4.6360 H   0  0  0  0  0  0  0  0  0  0  0  0
    0.1959   -0.5481    4.4891 H   0  0  0  0  0  0  0  0  0  0  0  0
  5  6  2  0  0  0  0
  5  7  1  0  0  0  0
  2  3  1  0  0  0  0
  2  4  1  0  0  0  0
  2  5  1  0  0  0  0
  1  2  1  0  0  0  0
 19 20  2  0  0  0  0
 19 21  1  0  0  0  0
 16 17  1  0  0  0  0
 16 18  1  0  0  0  0
 14 15  2  0  0  0  0
 14 16  1  0  0  0  0
 11 12  1  0  0  0  0
 11 13  1  0  0  0  0
 11 14  1  0  0  0  0
  9 10  1  0  0  0  0
  9 11  1  0  0  0  0
  9 19  1  0  0  0  0
  7  8  1  0  0  0  0
  7  9  1  0  0  0  0
 23 24  1  0  0  0  0
 23 25  1  0  0  0  0
 23 26  1  0  0  0  0
 21 22  1  0  0  0  0
 21 23  1  0  0  0  0
M  END
$$$$
default_name
  -OEChem-02102213163D

 26 25  0     1  0  0  0  0  0999 V2000
   -3.0232   -3.6924    1.0038 H   0  0  0  0  0  0  0  0  0  0  0  0
   -3.0082   -2.6684    0.6318 C   0  0  0  0  0  0  0  0  0  0  0  0
   -3.6332   -2.0414    1.2658 H   0  0  0  0  0  0  0  0  0  0  0  0
   -3.3762   -2.6444   -0.3912 H   0  0  0  0  0  0  0  0  0  0  0  0
   -1.5882   -2.1554    0.6658 C   0  0  0  0  0  0  0  0  0  0  0  0
   -0.6832   -2.8764    1.0638 O   0  0  0  0  0  0  0  0  0  0  0  0
   -1.3952   -0.9084    0.2428 N   0  0  0  0  0  0  0  0  0  0  0  0
   -2.1972   -0.3644   -0.0422 H   0  0  0  0  0  0  0  0  0  0  0  0
   -0.1122   -0.1994    0.2658 C   0  0  1  0  0  0  0  0  0  0  0  0
    0.6131   -0.7748   -0.3153 H   0  0  0  0  0  0  0  0  0  0  0  0
   -0.2973    1.1841   -0.3966 C   0  0  0  0  0  0  0  0  0  0  0  0
    0.1591    1.1707   -1.3857 H   0  0  0  0  0  0  0  0  0  0  0  0
   -1.3609    1.3871   -0.5130 H   0  0  0  0  0  0  0  0  0  0  0  0
    0.3465    2.3279    0.3704 C   0  0  0  0  0  0  0  0  0  0  0  0
   -0.0888    3.4661    0.3534 O   0  0  0  0  0  0  0  0  0  0  0  0
    1.4233    2.0654    1.0703 N   0  0  0  0  0  0  0  0  0  0  0  0
    1.8167    2.8365    1.5805 H   0  0  0  0  0  0  0  0  0  0  0  0
    1.7902    1.1336    1.1159 H   0  0  0  0  0  0  0  0  0  0  0  0
    0.4075   -0.0985    1.7169 C   0  0  0  0  0  0  0  0  0  0  0  0
    1.5860   -0.3526    1.9662 O   0  0  0  0  0  0  0  0  0  0  0  0
   -0.4625    0.2583    2.6666 N   0  0  0  0  0  0  0  0  0  0  0  0
   -1.4309    0.3754    2.3860 H   0  0  0  0  0  0  0  0  0  0  0  0
   -0.1275    0.4111    4.0813 C   0  0  0  0  0  0  0  0  0  0  0  0
    0.6862    1.1312    4.1910 H   0  0  0  0  0  0  0  0  0  0  0  0
   -0.9980    0.7641    4.6360 H   0  0  0  0  0  0  0  0  0  0  0  0
    0.1959   -0.5481    4.4891 H   0  0  0  0  0  0  0  0  0  0  0  0
  5  6  2  0  0  0  0
  5  7  1  0  0  0  0
  2  3  1  0  0  0  0
  2  4  1  0  0  0  0
  2  5  1  0  0  0  0
  1  2  1  0  0  0  0
 19 20  2  0  0  0  0
 19 21  1  0  0  0  0
 16 17  1  0  0  0  0
 16 18  1  0  0  0  0
 14 15  2  0  0  0  0
 14 16  1  0  0  0  0
 11 12  1  0  0  0  0
 11 13  1  0  0  0  0
 11 14  1  0  0  0  0
  9 10  1  0  0  0  0
  9 11  1  0  0  0  0
  9 19  1  0  0  0  0
  7  8  1  0  0  0  0
  7  9  1  0  0  0  0
 23 24  1  0  0  0  0
 23 25  1  0  0  0  0
 23 26  1  0  0  0  0
 21 22  1  0  0  0  0
 21 23  1  0  0  0  0
M  END
$$$$
default_name
  -OEChem-02102213163D

 26 25  0     1  0  0  0  0  0999 V2000
   -3.0232   -3.6924    1.0038 H   0  0  0  0  0  0  0  0  0  0  0  0
   -3.0082   -2.6684    0.6318 C   0  0  0  0  0  0  0  0  0  0  0  0
   -3.6332   -2.0414    1.2658 H   0  0  0  0  0  0  0  0  0  0  0  0
   -3.3762   -2.6444   -0.3912 H   0  0  0  0  0  0  0  0  0  0  0  0
   -1.5882   -2.1554    0.6658 C   0  0  0  0  0  0  0  0  0  0  0  0
   -0.6832   -2.8764    1.0638 O   0  0  0  0  0  0  0  0  0  0  0  0
   -1.3952   -0.9084    0.2428 N   0  0  0  0  0  0  0  0  0  0  0  0
   -2.1972   -0.3644   -0.0422 H   0  0  0  0  0  0  0  0  0  0  0  0
   -0.1122   -0.1994    0.2658 C   0  0  1  0  0  0  0  0  0  0  0  0
    0.6131   -0.7748   -0.3153 H   0  0  0  0  0  0  0  0  0  0  0  0
   -0.2973    1.1841   -0.3966 C   0  0  0  0  0  0  0  0  0  0  0  0
    0.1591    1.1707   -1.3857 H   0  0  0  0  0  0  0  0  0  0  0  0
   -1.3609    1.3871   -0.5130 H   0  0  0  0  0  0  0  0  0  0  0  0
    0.3465    2.3279    0.3704 C   0  0  0  0  0  0  0  0  0  0  0  0
   -0.2163    3.3893    0.5749 O   0  0  0  0  0  0  0  0  0  0  0  0
    1.5660    2.1539    0.8185 N   0  0  0  0  0  0  0  0  0  0  0  0
    1.9592    2.9199    1.3365 H   0  0  0  0  0  0  0  0  0  0  0  0
    2.0434    1.2834    0.6800 H   0  0  0  0  0  0  0  0  0  0  0  0
    0.4075   -0.0985    1.7169 C   0  0  0  0  0  0  0  0  0  0  0  0
    1.5860   -0.3526    1.9662 O   0  0  0  0  0  0  0  0  0  0  0  0
   -0.4625    0.2583    2.6666 N   0  0  0  0  0  0  0  0  0  0  0  0
   -1.4309    0.3754    2.3860 H   0  0  0  0  0  0  0  0  0  0  0  0
   -0.1275    0.4111    4.0813 C   0  0  0  0  0  0  0  0  0  0  0  0
    0.6862    1.1312    4.1910 H   0  0  0  0  0  0  0  0  0  0  0  0
   -0.9980    0.7641    4.6360 H   0  0  0  0  0  0  0  0  0  0  0  0
    0.1959   -0.5481    4.4891 H   0  0  0  0  0  0  0  0  0  0  0  0
  5  6  2  0  0  0  0
  5  7  1  0  0  0  0
  2  3  1  0  0  0  0
  2  4  1  0  0  0  0
  2  5  1  0  0  0  0
  1  2  1  0  0  0  0
 19 20  2  0  0  0  0
 19 21  1  0  0  0  0
 16 17  1  0  0  0  0
 16 18  1  0  0  0  0
 14 15  2  0  0  0  0
 14 16  1  0  0  0  0
 11 12  1  0  0  0  0
 11 13  1  0  0  0  0
 11 14  1  0  0  0  0
  9 10  1  0  0  0  0
  9 11  1  0  0  0  0
  9 19  1  0  0  0  0
  7  8  1  0  0  0  0
  7  9  1  0  0  0  0
 23 24  1  0  0  0  0
 23 25  1  0  0  0  0
 23 26  1  0  0  0  0
 21 22  1  0  0  0  0
 21 23  1  0  0  0  0
M  END
$$$$
default_name
  -OEChem-02102213163D

 26 25  0     1  0  0  0  0  0999 V2000
   -3.0232   -3.6924    1.0038 H   0  0  0  0  0  0  0  0  0  0  0  0
   -3.0082   -2.6684    0.6318 C   0  0  0  0  0  0  0  0  0  0  0  0
   -3.6332   -2.0414    1.2658 H   0  0  0  0  0  0  0  0  0  0  0  0
   -3.3762   -2.6444   -0.3912 H   0  0  0  0  0  0  0  0  0  0  0  0
   -1.5882   -2.1554    0.6658 C   0  0  0  0  0  0  0  0  0  0  0  0
   -0.6832   -2.8764    1.0638 O   0  0  0  0  0  0  0  0  0  0  0  0
   -1.3952   -0.9084    0.2428 N   0  0  0  0  0  0  0  0  0  0  0  0
   -2.1972   -0.3644   -0.0422 H   0  0  0  0  0  0  0  0  0  0  0  0
   -0.1122   -0.1994    0.2658 C   0  0  1  0  0  0  0  0  0  0  0  0
    0.6131   -0.7748   -0.3153 H   0  0  0  0  0  0  0  0  0  0  0  0
   -0.2973    1.1841   -0.3966 C   0  0  0  0  0  0  0  0  0  0  0  0
    0.1591    1.1707   -1.3857 H   0  0  0  0  0  0  0  0  0  0  0  0
   -1.3609    1.3871   -0.5130 H   0  0  0  0  0  0  0  0  0  0  0  0
    0.3465    2.3279    0.3704 C   0  0  0  0  0  0  0  0  0  0  0  0
   -0.2863    3.2742    0.8053 O   0  0  0  0  0  0  0  0  0  0  0  0
    1.6433    2.2857    0.5572 N   0  0  0  0  0  0  0  0  0  0  0  0
    2.0384    3.0459    1.0822 H   0  0  0  0  0  0  0  0  0  0  0  0
    2.1836    1.5089    0.2260 H   0  0  0  0  0  0  0  0  0  0  0  0
    0.4075   -0.0985    1.7169 C   0  0  0  0  0  0  0  0  0  0  0  0
    1.5860   -0.3526    1.9662 O   0  0  0  0  0  0  0  0  0  0  0  0
   -0.4625    0.2583    2.6666 N   0  0  0  0  0  0  0  0  0  0  0  0
   -1.4309    0.3754    2.3860 H   0  0  0  0  0  0  0  0  0  0  0  0
   -0.1275    0.4111    4.0813 C   0  0  0  0  0  0  0  0  0  0  0  0
    0.6862    1.1312    4.1910 H   0  0  0  0  0  0  0  0  0  0  0  0
   -0.9980    0.7641    4.6360 H   0  0  0  0  0  0  0  0  0  0  0  0
    0.1959   -0.5481    4.4891 H   0  0  0  0  0  0  0  0  0  0  0  0
  5  6  2  0  0  0  0
  5  7  1  0  0  0  0
  2  3  1  0  0  0  0
  2  4  1  0  0  0  0
  2  5  1  0  0  0  0
  1  2  1  0  0  0  0
 19 20  2  0  0  0  0
 19 21  1  0  0  0  0
 16 17  1  0  0  0  0
 16 18  1  0  0  0  0
 14 15  2  0  0  0  0
 14 16  1  0  0  0  0
 11 12  1  0  0  0  0
 11 13  1  0  0  0  0
 11 14  1  0  0  0  0
  9 10  1  0  0  0  0
  9 11  1  0  0  0  0
  9 19  1  0  0  0  0
  7  8  1  0  0  0  0
  7  9  1  0  0  0  0
 23 24  1  0  0  0  0
 23 25  1  0  0  0  0
 23 26  1  0  0  0  0
 21 22  1  0  0  0  0
 21 23  1  0  0  0  0
M  END
$$$$
default_name
  -OEChem-02102213163D

 26 25  0     1  0  0  0  0  0999 V2000
   -3.0232   -3.6924    1.0038 H   0  0  0  0  0  0  0  0  0  0  0  0
   -3.0082   -2.6684    0.6318 C   0  0  0  0  0  0  0  0  0  0  0  0
   -3.6332   -2.0414    1.2658 H   0  0  0  0  0  0  0  0  0  0  0  0
   -3.3762   -2.6444   -0.3912 H   0  0  0  0  0  0  0  0  0  0  0  0
   -1.5882   -2.1554    0.6658 C   0  0  0  0  0  0  0  0  0  0  0  0
   -0.6832   -2.8764    1.0638 O   0  0  0  0  0  0  0  0  0  0  0  0
   -1.3952   -0.9084    0.2428 N   0  0  0  0  0  0  0  0  0  0  0  0
   -2.1972   -0.3644   -0.0422 H   0  0  0  0  0  0  0  0  0  0  0  0
   -0.1122   -0.1994    0.2658 C   0  0  1  0  0  0  0  0  0  0  0  0
    0.6131   -0.7748   -0.3153 H   0  0  0  0  0  0  0  0  0  0  0  0
   -0.2973    1.1841   -0.3966 C   0  0  0  0  0  0  0  0  0  0  0  0
    0.1591    1.1707   -1.3857 H   0  0  0  0  0  0  0  0  0  0  0  0
   -1.3609    1.3871   -0.5130 H   0  0  0  0  0  0  0  0  0  0  0  0
    0.3465    2.3279    0.3704 C   0  0  0  0  0  0  0  0  0  0  0  0
   -0.2941    3.1287    1.0288 O   0  0  0  0  0  0  0  0  0  0  0  0
    1.6498    2.4516    0.3042 N   0  0  0  0  0  0  0  0  0  0  0  0
    2.0490    3.2057    0.8350 H   0  0  0  0  0  0  0  0  0  0  0  0
    2.2011    1.7948   -0.2151 H   0  0  0  0  0  0  0  0  0  0  0  0
    0.4075   -0.0985    1.7169 C   0  0  0  0  0  0  0  0  0  0  0  0
    1.5860   -0.3526    1.9662 O   0  0  0  0  0  0  0  0  0  0  0  0
   -0.4625    0.2583    2.6666 N   0  0  0  0  0  0  0  0  0  0  0  0
   -1.4309    0.3754    2.3860 H   0  0  0  0  0  0  0  0  0  0  0  0
   -0.1275    0.4111    4.0813 C   0  0  0  0  0  0  0  0  0  0  0  0
    0.6862    1.1312    4.1910 H   0  0  0  0  0  0  0  0  0  0  0  0
   -0.9980    0.7641    4.6360 H   0  0  0  0  0  0  0  0  0  0  0  0
    0.1959   -0.5481    4.4891 H   0  0  0  0  0  0  0  0  0  0  0  0
  5  6  2  0  0  0  0
  5  7  1  0  0  0  0
  2  3  1  0  0  0  0
  2  4  1  0  0  0  0
  2  5  1  0  0  0  0
  1  2  1  0  0  0  0
 19 20  2  0  0  0  0
 19 21  1  0  0  0  0
 16 17  1  0  0  0  0
 16 18  1  0  0  0  0
 14 15  2  0  0  0  0
 14 16  1  0  0  0  0
 11 12  1  0  0  0  0
 11 13  1  0  0  0  0
 11 14  1  0  0  0  0
  9 10  1  0  0  0  0
  9 11  1  0  0  0  0
  9 19  1  0  0  0  0
  7  8  1  0  0  0  0
  7  9  1  0  0  0  0
 23 24  1  0  0  0  0
 23 25  1  0  0  0  0
 23 26  1  0  0  0  0
 21 22  1  0  0  0  0
 21 23  1  0  0  0  0
M  END
$$$$
default_name
  -OEChem-02102213163D

 26 25  0     1  0  0  0  0  0999 V2000
   -3.0232   -3.6924    1.0038 H   0  0  0  0  0  0  0  0  0  0  0  0
   -3.0082   -2.6684    0.6318 C   0  0  0  0  0  0  0  0  0  0  0  0
   -3.6332   -2.0414    1.2658 H   0  0  0  0  0  0  0  0  0  0  0  0
   -3.3762   -2.6444   -0.3912 H   0  0  0  0  0  0  0  0  0  0  0  0
   -1.5882   -2.1554    0.6658 C   0  0  0  0  0  0  0  0  0  0  0  0
   -0.6832   -2.8764    1.0638 O   0  0  0  0  0  0  0  0  0  0  0  0
   -1.3952   -0.9084    0.2428 N   0  0  0  0  0  0  0  0  0  0  0  0
   -2.1972   -0.3644   -0.0422 H   0  0  0  0  0  0  0  0  0  0  0  0
   -0.1122   -0.1994    0.2658 C   0  0  1  0  0  0  0  0  0  0  0  0
    0.6131   -0.7748   -0.3153 H   0  0  0  0  0  0  0  0  0  0  0  0
   -0.2973    1.1841   -0.3966 C   0  0  0  0  0  0  0  0  0  0  0  0
    0.1591    1.1707   -1.3857 H   0  0  0  0  0  0  0  0  0  0  0  0
   -1.3609    1.3871   -0.5130 H   0  0  0  0  0  0  0  0  0  0  0  0
    0.3465    2.3279    0.3704 C   0  0  0  0  0  0  0  0  0  0  0  0
   -0.2390    2.9626    1.2303 O   0  0  0  0  0  0  0  0  0  0  0  0
    1.5852    2.6405    0.0767 N   0  0  0  0  0  0  0  0  0  0  0  0
    1.9901    3.3886    0.6116 H   0  0  0  0  0  0  0  0  0  0  0  0
    2.0948    2.1215   -0.6132 H   0  0  0  0  0  0  0  0  0  0  0  0
    0.4075   -0.0985    1.7169 C   0  0  0  0  0  0  0  0  0  0  0  0
    1.5860   -0.3526    1.9662 O   0  0  0  0  0  0  0  0  0  0  0  0
   -0.4625    0.2583    2.6666 N   0  0  0  0  0  0  0  0  0  0  0  0
   -1.4309    0.3754    2.3860 H   0  0  0  0  0  0  0  0  0  0  0  0
   -0.1275    0.4111    4.0813 C   0  0  0  0  0  0  0  0  0  0  0  0
    0.6862    1.1312    4.1910 H   0  0  0  0  0  0  0  0  0  0  0  0
   -0.9980    0.7641    4.6360 H   0  0  0  0  0  0  0  0  0  0  0  0
    0.1959   -0.5481    4.4891 H   0  0  0  0  0  0  0  0  0  0  0  0
  5  6  2  0  0  0  0
  5  7  1  0  0  0  0
  2  3  1  0  0  0  0
  2  4  1  0  0  0  0
  2  5  1  0  0  0  0
  1  2  1  0  0  0  0
 19 20  2  0  0  0  0
 19 21  1  0  0  0  0
 16 17  1  0  0  0  0
 16 18  1  0  0  0  0
 14 15  2  0  0  0  0
 14 16  1  0  0  0  0
 11 12  1  0  0  0  0
 11 13  1  0  0  0  0
 11 14  1  0  0  0  0
  9 10  1  0  0  0  0
  9 11  1  0  0  0  0
  9 19  1  0  0  0  0
  7  8  1  0  0  0  0
  7  9  1  0  0  0  0
 23 24  1  0  0  0  0
 23 25  1  0  0  0  0
 23 26  1  0  0  0  0
 21 22  1  0  0  0  0
 21 23  1  0  0  0  0
M  END
$$$$
default_name
  -OEChem-02102213163D

 26 25  0     1  0  0  0  0  0999 V2000
   -3.0232   -3.6924    1.0038 H   0  0  0  0  0  0  0  0  0  0  0  0
   -3.0082   -2.6684    0.6318 C   0  0  0  0  0  0  0  0  0  0  0  0
   -3.6332   -2.0414    1.2658 H   0  0  0  0  0  0  0  0  0  0  0  0
   -3.3762   -2.6444   -0.3912 H   0  0  0  0  0  0  0  0  0  0  0  0
   -1.5882   -2.1554    0.6658 C   0  0  0  0  0  0  0  0  0  0  0  0
   -0.6832   -2.8764    1.0638 O   0  0  0  0  0  0  0  0  0  0  0  0
   -1.3952   -0.9084    0.2428 N   0  0  0  0  0  0  0  0  0  0  0  0
   -2.1972   -0.3644   -0.0422 H   0  0  0  0  0  0  0  0  0  0  0  0
   -0.1122   -0.1994    0.2658 C   0  0  1  0  0  0  0  0  0  0  0  0
    0.6131   -0.7748   -0.3153 H   0  0  0  0  0  0  0  0  0  0  0  0
   -0.2973    1.1841   -0.3966 C   0  0  0  0  0  0  0  0  0  0  0  0
    0.1591    1.1707   -1.3857 H   0  0  0  0  0  0  0  0  0  0  0  0
   -1.3609    1.3871   -0.5130 H   0  0  0  0  0  0  0  0  0  0  0  0
    0.3465    2.3279    0.3704 C   0  0  0  0  0  0  0  0  0  0  0  0
   -0.1249    2.7872    1.3960 O   0  0  0  0  0  0  0  0  0  0  0  0
    1.4538    2.8395   -0.1097 N   0  0  0  0  0  0  0  0  0  0  0  0
    1.8659    3.5820    0.4274 H   0  0  0  0  0  0  0  0  0  0  0  0
    1.8719    2.4669   -0.9412 H   0  0  0  0  0  0  0  0  0  0  0  0
    0.4075   -0.0985    1.7169 C   0  0  0  0  0  0  0  0  0  0  0  0
    1.5860   -0.3526    1.9662 O   0  0  0  0  0  0  0  0  0  0  0  0
   -0.4625    0.2583    2.6666 N   0  0  0  0  0  0  0  0  0  0  0  0
   -1.4309    0.3754    2.3860 H   0  0  0  0  0  0  0  0  0  0  0  0
   -0.1275    0.4111    4.0813 C   0  0  0  0  0  0  0  0  0  0  0  0
    0.6862    1.1312    4.1910 H   0  0  0  0  0  0  0  0  0  0  0  0
   -0.9980    0.7641    4.6360 H   0  0  0  0  0  0  0  0  0  0  0  0
    0.1959   -0.5481    4.4891 H   0  0  0  0  0  0  0  0  0  0  0  0
  5  6  2  0  0  0  0
  5  7  1  0  0  0  0
  2  3  1  0  0  0  0
  2  4  1  0  0  0  0
  2  5  1  0  0  0  0
  1  2  1  0  0  0  0
 19 20  2  0  0  0  0
 19 21  1  0  0  0  0
 16 17  1  0  0  0  0
 16 18  1  0  0  0  0
 14 15  2  0  0  0  0
 14 16  1  0  0  0  0
 11 12  1  0  0  0  0
 11 13  1  0  0  0  0
 11 14  1  0  0  0  0
  9 10  1  0  0  0  0
  9 11  1  0  0  0  0
  9 19  1  0  0  0  0
  7  8  1  0  0  0  0
  7  9  1  0  0  0  0
 23 24  1  0  0  0  0
 23 25  1  0  0  0  0
 23 26  1  0  0  0  0
 21 22  1  0  0  0  0
 21 23  1  0  0  0  0
M  END
$$$$
default_name
  -OEChem-02102213163D

 26 25  0     1  0  0  0  0  0999 V2000
   -3.0232   -3.6924    1.0038 H   0  0  0  0  0  0  0  0  0  0  0  0
   -3.0082   -2.6684    0.6318 C   0  0  0  0  0  0  0  0  0  0  0  0
   -3.6332   -2.0414    1.2658 H   0  0  0  0  0  0  0  0  0  0  0  0
   -3.3762   -2.6444   -0.3912 H   0  0  0  0  0  0  0  0  0  0  0  0
   -1.5882   -2.1554    0.6658 C   0  0  0  0  0  0  0  0  0  0  0  0
   -0.6832   -2.8764    1.0638 O   0  0  0  0  0  0  0  0  0  0  0  0
   -1.3952   -0.9084    0.2428 N   0  0  0  0  0  0  0  0  0  0  0  0
   -2.1972   -0.3644   -0.0422 H   0  0  0  0  0  0  0  0  0  0  0  0
   -0.1122   -0.1994    0.2658 C   0  0  1  0  0  0  0  0  0  0  0  0
    0.6131   -0.7748   -0.3153 H   0  0  0  0  0  0  0  0  0  0  0  0
   -0.2973    1.1841   -0.3966 C   0  0  0  0  0  0  0  0  0  0  0  0
    0.1591    1.1707   -1.3857 H   0  0  0  0  0  0  0  0  0  0  0  0
   -1.3609    1.3871   -0.5130 H   0  0  0  0  0  0  0  0  0  0  0  0
    0.3465    2.3279    0.3704 C   0  0  0  0  0  0  0  0  0  0  0  0
    0.0405    2.6146    1.5146 O   0  0  0  0  0  0  0  0  0  0  0  0
    1.2647    3.0350   -0.2424 N   0  0  0  0  0  0  0  0  0  0  0  0
    1.6848    3.7729    0.2948 H   0  0  0  0  0  0  0  0  0  0  0  0
    1.5477    2.8074   -1.1768 H   0  0  0  0  0  0  0  0  0  0  0  0
    0.4075   -0.0985    1.7169 C   0  0  0  0  0  0  0  0  0  0  0  0
    1.5860   -0.3526    1.9662 O   0  0  0  0  0  0  0  0  0  0  0  0
   -0.4625    0.2583    2.6666 N   0  0  0  0  0  0  0  0  0  0  0  0
   -1.4309    0.3754    2.3860 H   0  0  0  0  0  0  0  0  0  0  0  0
   -0.1275    0.4111    4.0813 C   0  0  0  0  0  0  0  0  0  0  0  0
    0.6862    1.1312    4.1910 H   0  0  0  0  0  0  0  0  0  0  0  0
   -0.9980    0.7641    4.6360 H   0  0  0  0  0  0  0  0  0  0  0  0
    0.1959   -0.5481    4.4891 H   0  0  0  0  0  0  0  0  0  0  0  0
  5  6  2  0  0  0  0
  5  7  1  0  0  0  0
  2  3  1  0  0  0  0
  2  4  1  0  0  0  0
  2  5  1  0  0  0  0
  1  2  1  0  0  0  0
 19 20  2  0  0  0  0
 19 21  1  0  0  0  0
 16 17  1  0  0  0  0
 16 18  1  0  0  0  0
 14 15  2  0  0  0  0
 14 16  1  0  0  0  0
 11 12  1  0  0  0  0
 11 13  1  0  0  0  0
 11 14  1  0  0  0  0
  9 10  1  0  0  0  0
  9 11  1  0  0  0  0
  9 19  1  0  0  0  0
  7  8  1  0  0  0  0
  7  9  1  0  0  0  0
 23 24  1  0  0  0  0
 23 25  1  0  0  0  0
 23 26  1  0  0  0  0
 21 22  1  0  0  0  0
 21 23  1  0  0  0  0
M  END
$$$$
default_name
  -OEChem-02102213163D

 26 25  0     1  0  0  0  0  0999 V2000
   -3.0232   -3.6924    1.0038 H   0  0  0  0  0  0  0  0  0  0  0  0
   -3.0082   -2.6684    0.6318 C   0  0  0  0  0  0  0  0  0  0  0  0
   -3.6332   -2.0414    1.2658 H   0  0  0  0  0  0  0  0  0  0  0  0
   -3.3762   -2.6444   -0.3912 H   0  0  0  0  0  0  0  0  0  0  0  0
   -1.5882   -2.1554    0.6658 C   0  0  0  0  0  0  0  0  0  0  0  0
   -0.6832   -2.8764    1.0638 O   0  0  0  0  0  0  0  0  0  0  0  0
   -1.3952   -0.9084    0.2428 N   0  0  0  0  0  0  0  0  0  0  0  0
   -2.1972   -0.3644   -0.0422 H   0  0  0  0  0  0  0  0  0  0  0  0
   -0.1122   -0.1994    0.2658 C   0  0  1  0  0  0  0  0  0  0  0  0
    0.6131   -0.7748   -0.3153 H   0  0  0  0  0  0  0  0  0  0  0  0
   -0.2973    1.1841   -0.3966 C   0  0  0  0  0  0  0  0  0  0  0  0
    0.1591    1.1707   -1.3857 H   0  0  0  0  0  0  0  0  0  0  0  0
   -1.3609    1.3871   -0.5130 H   0  0  0  0  0  0  0  0  0  0  0  0
    0.3465    2.3279    0.3704 C   0  0  0  0  0  0  0  0  0  0  0  0
    0.2459    2.4564    1.5781 O   0  0  0  0  0  0  0  0  0  0  0  0
    1.0306    3.2136   -0.3123 N   0  0  0  0  0  0  0  0  0  0  0  0
    1.4592    3.9481    0.2229 H   0  0  0  0  0  0  0  0  0  0  0  0
    1.1441    3.1198   -1.3039 H   0  0  0  0  0  0  0  0  0  0  0  0
    0.4075   -0.0985    1.7169 C   0  0  0  0  0  0  0  0  0  0  0  0
    1.5860   -0.3526    1.9662 O   0  0  0  0  0  0  0  0  0  0  0  0
   -0.4625    0.2583    2.6666 N   0  0  0  0  0  0  0  0  0  0  0  0
   -1.4309    0.3754    2.3860 H   0  0  0  0  0  0  0  0  0  0  0  0
   -0.1275    0.4111    4.0813 C   0  0  0  0  0  0  0  0  0  0  0  0
    0.6862    1.1312    4.1910 H   0  0  0  0  0  0  0  0  0  0  0  0
   -0.9980    0.7641    4.6360 H   0  0  0  0  0  0  0  0  0  0  0  0
    0.1959   -0.5481    4.4891 H   0  0  0  0  0  0  0  0  0  0  0  0
  5  6  2  0  0  0  0
  5  7  1  0  0  0  0
  2  3  1  0  0  0  0
  2  4  1  0  0  0  0
  2  5  1  0  0  0  0
  1  2  1  0  0  0  0
 19 20  2  0  0  0  0
 19 21  1  0  0  0  0
 16 17  1  0  0  0  0
 16 18  1  0  0  0  0
 14 15  2  0  0  0  0
 14 16  1  0  0  0  0
 11 12  1  0  0  0  0
 11 13  1  0  0  0  0
 11 14  1  0  0  0  0
  9 10  1  0  0  0  0
  9 11  1  0  0  0  0
  9 19  1  0  0  0  0
  7  8  1  0  0  0  0
  7  9  1  0  0  0  0
 23 24  1  0  0  0  0
 23 25  1  0  0  0  0
 23 26  1  0  0  0  0
 21 22  1  0  0  0  0
 21 23  1  0  0  0  0
M  END
$$$$
default_name
  -OEChem-02102213163D

 26 25  0     1  0  0  0  0  0999 V2000
   -3.0232   -3.6924    1.0038 H   0  0  0  0  0  0  0  0  0  0  0  0
   -3.0082   -2.6684    0.6318 C   0  0  0  0  0  0  0  0  0  0  0  0
   -3.6332   -2.0414    1.2658 H   0  0  0  0  0  0  0  0  0  0  0  0
   -3.3762   -2.6444   -0.3912 H   0  0  0  0  0  0  0  0  0  0  0  0
   -1.5882   -2.1554    0.6658 C   0  0  0  0  0  0  0  0  0  0  0  0
   -0.6832   -2.8764    1.0638 O   0  0  0  0  0  0  0  0  0  0  0  0
   -1.3952   -0.9084    0.2428 N   0  0  0  0  0  0  0  0  0  0  0  0
   -2.1972   -0.3644   -0.0422 H   0  0  0  0  0  0  0  0  0  0  0  0
   -0.1122   -0.1994    0.2658 C   0  0  1  0  0  0  0  0  0  0  0  0
    0.6131   -0.7748   -0.3153 H   0  0  0  0  0  0  0  0  0  0  0  0
   -0.2973    1.1841   -0.3966 C   0  0  0  0  0  0  0  0  0  0  0  0
    0.1591    1.1707   -1.3857 H   0  0  0  0  0  0  0  0  0  0  0  0
   -1.3609    1.3871   -0.5130 H   0  0  0  0  0  0  0  0  0  0  0  0
    0.3465    2.3279    0.3704 C   0  0  0  0  0  0  0  0  0  0  0  0
    0.4773    2.3235    1.5820 O   0  0  0  0  0  0  0  0  0  0  0  0
    0.7675    3.3632   -0.3146 N   0  0  0  0  0  0  0  0  0  0  0  0
    1.2043    4.0958    0.2167 H   0  0  0  0  0  0  0  0  0  0  0  0
    0.6888    3.3828   -1.3138 H   0  0  0  0  0  0  0  0  0  0  0  0
    0.4075   -0.0985    1.7169 C   0  0  0  0  0  0  0  0  0  0  0  0
    1.5860   -0.3526    1.9662 O   0  0  0  0  0  0  0  0  0  0  0  0
   -0.4625    0.2583    2.6666 N   0  0  0  0  0  0  0  0  0  0  0  0
   -1.4309    0.3754    2.3860 H   0  0  0  0  0  0  0  0  0  0  0  0
   -0.1275    0.4111    4.0813 C   0  0  0  0  0  0  0  0  0  0  0  0
    0.6862    1.1312    4.1910 H   0  0  0  0  0  0  0  0  0  0  0  0
   -0.9980    0.7641    4.6360 H   0  0  0  0  0  0  0  0  0  0  0  0
    0.1959   -0.5481    4.4891 H   0  0  0  0  0  0  0  0  0  0  0  0
  5  6  2  0  0  0  0
  5  7  1  0  0  0  0
  2  3  1  0  0  0  0
  2  4  1  0  0  0  0
  2  5  1  0  0  0  0
  1  2  1  0  0  0  0
 19 20  2  0  0  0  0
 19 21  1  0  0  0  0
 16 17  1  0  0  0  0
 16 18  1  0  0  0  0
 14 15  2  0  0  0  0
 14 16  1  0  0  0  0
 11 12  1  0  0  0  0
 11 13  1  0  0  0  0
 11 14  1  0  0  0  0
  9 10  1  0  0  0  0
  9 11  1  0  0  0  0
  9 19  1  0  0  0  0
  7  8  1  0  0  0  0
  7  9  1  0  0  0  0
 23 24  1  0  0  0  0
 23 25  1  0  0  0  0
 23 26  1  0  0  0  0
 21 22  1  0  0  0  0
 21 23  1  0  0  0  0
M  END
$$$$
default_name
  -OEChem-02102213163D

 26 25  0     1  0  0  0  0  0999 V2000
   -3.0232   -3.6924    1.0038 H   0  0  0  0  0  0  0  0  0  0  0  0
   -3.0082   -2.6684    0.6318 C   0  0  0  0  0  0  0  0  0  0  0  0
   -3.6332   -2.0414    1.2658 H   0  0  0  0  0  0  0  0  0  0  0  0
   -3.3762   -2.6444   -0.3912 H   0  0  0  0  0  0  0  0  0  0  0  0
   -1.5882   -2.1554    0.6658 C   0  0  0  0  0  0  0  0  0  0  0  0
   -0.6832   -2.8764    1.0638 O   0  0  0  0  0  0  0  0  0  0  0  0
   -1.3952   -0.9084    0.2428 N   0  0  0  0  0  0  0  0  0  0  0  0
   -2.1972   -0.3644   -0.0422 H   0  0  0  0  0  0  0  0  0  0  0  0
   -0.1122   -0.1994    0.2658 C   0  0  1  0  0  0  0  0  0  0  0  0
    0.6131   -0.7748   -0.3153 H   0  0  0  0  0  0  0  0  0  0  0  0
   -0.2973    1.1841   -0.3966 C   0  0  0  0  0  0  0  0  0  0  0  0
    0.1591    1.1707   -1.3857 H   0  0  0  0  0  0  0  0  0  0  0  0
   -1.3609    1.3871   -0.5130 H   0  0  0  0  0  0  0  0  0  0  0  0
    0.3465    2.3279    0.3704 C   0  0  0  0  0  0  0  0  0  0  0  0
    0.7189    2.2250    1.5262 O   0  0  0  0  0  0  0  0  0  0  0  0
    0.4934    3.4737   -0.2492 N   0  0  0  0  0  0  0  0  0  0  0  0
    0.9376    4.2058    0.2764 H   0  0  0  0  0  0  0  0  0  0  0  0
    0.2127    3.5784   -1.2059 H   0  0  0  0  0  0  0  0  0  0  0  0
    0.4075   -0.0985    1.7169 C   0  0  0  0  0  0  0  0  0  0  0  0
    1.5860   -0.3526    1.9662 O   0  0  0  0  0  0  0  0  0  0  0  0
   -0.4625    0.2583    2.6666 N   0  0  0  0  0  0  0  0  0  0  0  0
   -1.4309    0.3754    2.3860 H   0  0  0  0  0  0  0  0  0  0  0  0
   -0.1275    0.4111    4.0813 C   0  0  0  0  0  0  0  0  0  0  0  0
    0.6862    1.1312    4.1910 H   0  0  0  0  0  0  0  0  0  0  0  0
   -0.9980    0.7641    4.6360 H   0  0  0  0  0  0  0  0  0  0  0  0
    0.1959   -0.5481    4.4891 H   0  0  0  0  0  0  0  0  0  0  0  0
  5  6  2  0  0  0  0
  5  7  1  0  0  0  0
  2  3  1  0  0  0  0
  2  4  1  0  0  0  0
  2  5  1  0  0  0  0
  1  2  1  0  0  0  0
 19 20  2  0  0  0  0
 19 21  1  0  0  0  0
 16 17  1  0  0  0  0
 16 18  1  0  0  0  0
 14 15  2  0  0  0  0
 14 16  1  0  0  0  0
 11 12  1  0  0  0  0
 11 13  1  0  0  0  0
 11 14  1  0  0  0  0
  9 10  1  0  0  0  0
  9 11  1  0  0  0  0
  9 19  1  0  0  0  0
  7  8  1  0  0  0  0
  7  9  1  0  0  0  0
 23 24  1  0  0  0  0
 23 25  1  0  0  0  0
 23 26  1  0  0  0  0
 21 22  1  0  0  0  0
 21 23  1  0  0  0  0
M  END
$$$$
default_name
  -OEChem-02102213163D

 26 25  0     1  0  0  0  0  0999 V2000
   -3.0232   -3.6924    1.0038 H   0  0  0  0  0  0  0  0  0  0  0  0
   -3.0082   -2.6684    0.6318 C   0  0  0  0  0  0  0  0  0  0  0  0
   -3.6332   -2.0414    1.2658 H   0  0  0  0  0  0  0  0  0  0  0  0
   -3.3762   -2.6444   -0.3912 H   0  0  0  0  0  0  0  0  0  0  0  0
   -1.5882   -2.1554    0.6658 C   0  0  0  0  0  0  0  0  0  0  0  0
   -0.6832   -2.8764    1.0638 O   0  0  0  0  0  0  0  0  0  0  0  0
   -1.3952   -0.9084    0.2428 N   0  0  0  0  0  0  0  0  0  0  0  0
   -2.1972   -0.3644   -0.0422 H   0  0  0  0  0  0  0  0  0  0  0  0
   -0.1122   -0.1994    0.2658 C   0  0  1  0  0  0  0  0  0  0  0  0
    0.6131   -0.7748   -0.3153 H   0  0  0  0  0  0  0  0  0  0  0  0
   -0.2973    1.1841   -0.3966 C   0  0  0  0  0  0  0  0  0  0  0  0
    0.1591    1.1707   -1.3857 H   0  0  0  0  0  0  0  0  0  0  0  0
   -1.3609    1.3871   -0.5130 H   0  0  0  0  0  0  0  0  0  0  0  0
    0.3465    2.3279    0.3704 C   0  0  0  0  0  0  0  0  0  0  0  0
    0.9543    2.1674    1.4144 O   0  0  0  0  0  0  0  0  0  0  0  0
    0.2270    3.5374   -0.1206 N   0  0  0  0  0  0  0  0  0  0  0  0
    0.6773    4.2707    0.3982 H   0  0  0  0  0  0  0  0  0  0  0  0
   -0.2517    3.6934   -0.9876 H   0  0  0  0  0  0  0  0  0  0  0  0
    0.4075   -0.0985    1.7169 C   0  0  0  0  0  0  0  0  0  0  0  0
    1.5860   -0.3526    1.9662 O   0  0  0  0  0  0  0  0  0  0  0  0
   -0.4625    0.2583    2.6666 N   0  0  0  0  0  0  0  0  0  0  0  0
   -1.4309    0.3754    2.3860 H   0  0  0  0  0  0  0  0  0  0  0  0
   -0.1275    0.4111    4.0813 C   0  0  0  0  0  0  0  0  0  0  0  0
    0.6862    1.1312    4.1910 H   0  0  0  0  0  0  0  0  0  0  0  0
   -0.9980    0.7641    4.6360 H   0  0  0  0  0  0  0  0  0  0  0  0
    0.1959   -0.5481    4.4891 H   0  0  0  0  0  0  0  0  0  0  0  0
  5  6  2  0  0  0  0
  5  7  1  0  0  0  0
  2  3  1  0  0  0  0
  2  4  1  0  0  0  0
  2  5  1  0  0  0  0
  1  2  1  0  0  0  0
 19 20  2  0  0  0  0
 19 21  1  0  0  0  0
 16 17  1  0  0  0  0
 16 18  1  0  0  0  0
 14 15  2  0  0  0  0
 14 16  1  0  0  0  0
 11 12  1  0  0  0  0
 11 13  1  0  0  0  0
 11 14  1  0  0  0  0
  9 10  1  0  0  0  0
  9 11  1  0  0  0  0
  9 19  1  0  0  0  0
  7  8  1  0  0  0  0
  7  9  1  0  0  0  0
 23 24  1  0  0  0  0
 23 25  1  0  0  0  0
 23 26  1  0  0  0  0
 21 22  1  0  0  0  0
 21 23  1  0  0  0  0
M  END
$$$$
default_name
  -OEChem-02102213163D

 26 25  0     1  0  0  0  0  0999 V2000
   -3.0232   -3.6924    1.0038 H   0  0  0  0  0  0  0  0  0  0  0  0
   -3.0082   -2.6684    0.6318 C   0  0  0  0  0  0  0  0  0  0  0  0
   -3.6332   -2.0414    1.2658 H   0  0  0  0  0  0  0  0  0  0  0  0
   -3.3762   -2.6444   -0.3912 H   0  0  0  0  0  0  0  0  0  0  0  0
   -1.5882   -2.1554    0.6658 C   0  0  0  0  0  0  0  0  0  0  0  0
   -0.6832   -2.8764    1.0638 O   0  0  0  0  0  0  0  0  0  0  0  0
   -1.3952   -0.9084    0.2428 N   0  0  0  0  0  0  0  0  0  0  0  0
   -2.1972   -0.3644   -0.0422 H   0  0  0  0  0  0  0  0  0  0  0  0
   -0.1122   -0.1994    0.2658 C   0  0  1  0  0  0  0  0  0  0  0  0
    0.6131   -0.7748   -0.3153 H   0  0  0  0  0  0  0  0  0  0  0  0
   -0.2973    1.1841   -0.3966 C   0  0  0  0  0  0  0  0  0  0  0  0
    0.1591    1.1707   -1.3857 H   0  0  0  0  0  0  0  0  0  0  0  0
   -1.3609    1.3871   -0.5130 H   0  0  0  0  0  0  0  0  0  0  0  0
    0.3465    2.3279    0.3704 C   0  0  0  0  0  0  0  0  0  0  0  0
    1.1675    2.1548    1.2543 O   0  0  0  0  0  0  0  0  0  0  0  0
   -0.0137    3.5501    0.0625 N   0  0  0  0  0  0  0  0  0  0  0  0
    0.4411    4.2861    0.5735 H   0  0  0  0  0  0  0  0  0  0  0  0
   -0.6728    3.7199   -0.6736 H   0  0  0  0  0  0  0  0  0  0  0  0
    0.4075   -0.0985    1.7169 C   0  0  0  0  0  0  0  0  0  0  0  0
    1.5860   -0.3526    1.9662 O   0  0  0  0  0  0  0  0  0  0  0  0
   -0.4625    0.2583    2.6666 N   0  0  0  0  0  0  0  0  0  0  0  0
   -1.4309    0.3754    2.3860 H   0  0  0  0  0  0  0  0  0  0  0  0
   -0.1275    0.4111    4.0813 C   0  0  0  0  0  0  0  0  0  0  0  0
    0.6862    1.1312    4.1910 H   0  0  0  0  0  0  0  0  0  0  0  0
   -0.9980    0.7641    4.6360 H   0  0  0  0  0  0  0  0  0  0  0  0
    0.1959   -0.5481    4.4891 H   0  0  0  0  0  0  0  0  0  0  0  0
  5  6  2  0  0  0  0
  5  7  1  0  0  0  0
  2  3  1  0  0  0  0
  2  4  1  0  0  0  0
  2  5  1  0  0  0  0
  1  2  1  0  0  0  0
 19 20  2  0  0  0  0
 19 21  1  0  0  0  0
 16 17  1  0  0  0  0
 16 18  1  0  0  0  0
 14 15  2  0  0  0  0
 14 16  1  0  0  0  0
 11 12  1  0  0  0  0
 11 13  1  0  0  0  0
 11 14  1  0  0  0  0
  9 10  1  0  0  0  0
  9 11  1  0  0  0  0
  9 19  1  0  0  0  0
  7  8  1  0  0  0  0
  7  9  1  0  0  0  0
 23 24  1  0  0  0  0
 23 25  1  0  0  0  0
 23 26  1  0  0  0  0
 21 22  1  0  0  0  0
 21 23  1  0  0  0  0
M  END
$$$$
default_name
  -OEChem-02102213163D

 26 25  0     1  0  0  0  0  0999 V2000
   -3.0232   -3.6924    1.0038 H   0  0  0  0  0  0  0  0  0  0  0  0
   -3.0082   -2.6684    0.6318 C   0  0  0  0  0  0  0  0  0  0  0  0
   -3.6332   -2.0414    1.2658 H   0  0  0  0  0  0  0  0  0  0  0  0
   -3.3762   -2.6444   -0.3912 H   0  0  0  0  0  0  0  0  0  0  0  0
   -1.5882   -2.1554    0.6658 C   0  0  0  0  0  0  0  0  0  0  0  0
   -0.6832   -2.8764    1.0638 O   0  0  0  0  0  0  0  0  0  0  0  0
   -1.3952   -0.9084    0.2428 N   0  0  0  0  0  0  0  0  0  0  0  0
   -2.1972   -0.3644   -0.0422 H   0  0  0  0  0  0  0  0  0  0  0  0
   -0.1122   -0.1994    0.2658 C   0  0  1  0  0  0  0  0  0  0  0  0
    0.6131   -0.7748   -0.3153 H   0  0  0  0  0  0  0  0  0  0  0  0
   -0.2973    1.1841   -0.3966 C   0  0  0  0  0  0  0  0  0  0  0  0
    0.1591    1.1707   -1.3857 H   0  0  0  0  0  0  0  0  0  0  0  0
   -1.3609    1.3871   -0.5130 H   0  0  0  0  0  0  0  0  0  0  0  0
    0.3465    2.3279    0.3704 C   0  0  0  0  0  0  0  0  0  0  0  0
    1.3438    2.1880    1.0567 O   0  0  0  0  0  0  0  0  0  0  0  0
   -0.2121    3.5109    0.2876 N   0  0  0  0  0  0  0  0  0  0  0  0
    0.2451    4.2509    0.7906 H   0  0  0  0  0  0  0  0  0  0  0  0
   -1.0218    3.6561   -0.2854 H   0  0  0  0  0  0  0  0  0  0  0  0
    0.4075   -0.0985    1.7169 C   0  0  0  0  0  0  0  0  0  0  0  0
    1.5860   -0.3526    1.9662 O   0  0  0  0  0  0  0  0  0  0  0  0
   -0.4625    0.2583    2.6666 N   0  0  0  0  0  0  0  0  0  0  0  0
   -1.4309    0.3754    2.3860 H   0  0  0  0  0  0  0  0  0  0  0  0
   -0.1275    0.4111    4.0813 C   0  0  0  0  0  0  0  0  0  0  0  0
    0.6862    1.1312    4.1910 H   0  0  0  0  0  0  0  0  0  0  0  0
   -0.9980    0.7641    4.6360 H   0  0  0  0  0  0  0  0  0  0  0  0
    0.1959   -0.5481    4.4891 H   0  0  0  0  0  0  0  0  0  0  0  0
  5  6  2  0  0  0  0
  5  7  1  0  0  0  0
  2  3  1  0  0  0  0
  2  4  1  0  0  0  0
  2  5  1  0  0  0  0
  1  2  1  0  0  0  0
 19 20  2  0  0  0  0
 19 21  1  0  0  0  0
 16 17  1  0  0  0  0
 16 18  1  0  0  0  0
 14 15  2  0  0  0  0
 14 16  1  0  0  0  0
 11 12  1  0  0  0  0
 11 13  1  0  0  0  0
 11 14  1  0  0  0  0
  9 10  1  0  0  0  0
  9 11  1  0  0  0  0
  9 19  1  0  0  0  0
  7  8  1  0  0  0  0
  7  9  1  0  0  0  0
 23 24  1  0  0  0  0
 23 25  1  0  0  0  0
 23 26  1  0  0  0  0
 21 22  1  0  0  0  0
 21 23  1  0  0  0  0
M  END
$$$$
default_name
  -OEChem-02102213163D

 26 25  0     1  0  0  0  0  0999 V2000
   -3.0232   -3.6924    1.0038 H   0  0  0  0  0  0  0  0  0  0  0  0
   -3.0082   -2.6684    0.6318 C   0  0  0  0  0  0  0  0  0  0  0  0
   -3.6332   -2.0414    1.2658 H   0  0  0  0  0  0  0  0  0  0  0  0
   -3.3762   -2.6444   -0.3912 H   0  0  0  0  0  0  0  0  0  0  0  0
   -1.5882   -2.1554    0.6658 C   0  0  0  0  0  0  0  0  0  0  0  0
   -0.6832   -2.8764    1.0638 O   0  0  0  0  0  0  0  0  0  0  0  0
   -1.3952   -0.9084    0.2428 N   0  0  0  0  0  0  0  0  0  0  0  0
   -2.1972   -0.3644   -0.0422 H   0  0  0  0  0  0  0  0  0  0  0  0
   -0.1122   -0.1994    0.2658 C   0  0  1  0  0  0  0  0  0  0  0  0
    0.6131   -0.7748   -0.3153 H   0  0  0  0  0  0  0  0  0  0  0  0
   -0.2973    1.1841   -0.3966 C   0  0  0  0  0  0  0  0  0  0  0  0
    0.1591    1.1707   -1.3857 H   0  0  0  0  0  0  0  0  0  0  0  0
   -1.3609    1.3871   -0.5130 H   0  0  0  0  0  0  0  0  0  0  0  0
    0.3465    2.3279    0.3704 C   0  0  0  0  0  0  0  0  0  0  0  0
    1.4713    2.2648    0.8352 O   0  0  0  0  0  0  0  0  0  0  0  0
   -0.3548    3.4224    0.5394 N   0  0  0  0  0  0  0  0  0  0  0  0
    0.1026    4.1675    1.0346 H   0  0  0  0  0  0  0  0  0  0  0  0
   -1.2750    3.5063    0.1505 H   0  0  0  0  0  0  0  0  0  0  0  0
    0.4075   -0.0985    1.7169 C   0  0  0  0  0  0  0  0  0  0  0  0
    1.5860   -0.3526    1.9662 O   0  0  0  0  0  0  0  0  0  0  0  0
   -0.4625    0.2583    2.6666 N   0  0  0  0  0  0  0  0  0  0  0  0
   -1.4309    0.3754    2.3860 H   0  0  0  0  0  0  0  0  0  0  0  0
   -0.1275    0.4111    4.0813 C   0  0  0  0  0  0  0  0  0  0  0  0
    0.6862    1.1312    4.1910 H   0  0  0  0  0  0  0  0  0  0  0  0
   -0.9980    0.7641    4.6360 H   0  0  0  0  0  0  0  0  0  0  0  0
    0.1959   -0.5481    4.4891 H   0  0  0  0  0  0  0  0  0  0  0  0
  5  6  2  0  0  0  0
  5  7  1  0  0  0  0
  2  3  1  0  0  0  0
  2  4  1  0  0  0  0
  2  5  1  0  0  0  0
  1  2  1  0  0  0  0
 19 20  2  0  0  0  0
 19 21  1  0  0  0  0
 16 17  1  0  0  0  0
 16 18  1  0  0  0  0
 14 15  2  0  0  0  0
 14 16  1  0  0  0  0
 11 12  1  0  0  0  0
 11 13  1  0  0  0  0
 11 14  1  0  0  0  0
  9 10  1  0  0  0  0
  9 11  1  0  0  0  0
  9 19  1  0  0  0  0
  7  8  1  0  0  0  0
  7  9  1  0  0  0  0
 23 24  1  0  0  0  0
 23 25  1  0  0  0  0
 23 26  1  0  0  0  0
 21 22  1  0  0  0  0
 21 23  1  0  0  0  0
M  END
$$$$
default_name
  -OEChem-02102213163D

 26 25  0     1  0  0  0  0  0999 V2000
   -3.0232   -3.6924    1.0038 H   0  0  0  0  0  0  0  0  0  0  0  0
   -3.0082   -2.6684    0.6318 C   0  0  0  0  0  0  0  0  0  0  0  0
   -3.6332   -2.0414    1.2658 H   0  0  0  0  0  0  0  0  0  0  0  0
   -3.3762   -2.6444   -0.3912 H   0  0  0  0  0  0  0  0  0  0  0  0
   -1.5882   -2.1554    0.6658 C   0  0  0  0  0  0  0  0  0  0  0  0
   -0.6832   -2.8764    1.0638 O   0  0  0  0  0  0  0  0  0  0  0  0
   -1.3952   -0.9084    0.2428 N   0  0  0  0  0  0  0  0  0  0  0  0
   -2.1972   -0.3644   -0.0422 H   0  0  0  0  0  0  0  0  0  0  0  0
   -0.1122   -0.1994    0.2658 C   0  0  1  0  0  0  0  0  0  0  0  0
    0.6131   -0.7748   -0.3153 H   0  0  0  0  0  0  0  0  0  0  0  0
   -0.2973    1.1841   -0.3966 C   0  0  0  0  0  0  0  0  0  0  0  0
    0.1591    1.1707   -1.3857 H   0  0  0  0  0  0  0  0  0  0  0  0
   -1.3609    1.3871   -0.5130 H   0  0  0  0  0  0  0  0  0  0  0  0
    0.3465    2.3279    0.3704 C   0  0  0  0  0  0  0  0  0  0  0  0
    1.5413    2.3798    0.6048 O   0  0  0  0  0  0  0  0  0  0  0  0
   -0.4321    3.2906    0.8007 N   0  0  0  0  0  0  0  0  0  0  0  0
    0.0234    4.0415    1.2889 H   0  0  0  0  0  0  0  0  0  0  0  0
   -1.4152    3.2808    0.6045 H   0  0  0  0  0  0  0  0  0  0  0  0
    0.4075   -0.0985    1.7169 C   0  0  0  0  0  0  0  0  0  0  0  0
    1.5860   -0.3526    1.9662 O   0  0  0  0  0  0  0  0  0  0  0  0
   -0.4625    0.2583    2.6666 N   0  0  0  0  0  0  0  0  0  0  0  0
   -1.4309    0.3754    2.3860 H   0  0  0  0  0  0  0  0  0  0  0  0
   -0.1275    0.4111    4.0813 C   0  0  0  0  0  0  0  0  0  0  0  0
    0.6862    1.1312    4.1910 H   0  0  0  0  0  0  0  0  0  0  0  0
   -0.9980    0.7641    4.6360 H   0  0  0  0  0  0  0  0  0  0  0  0
    0.1959   -0.5481    4.4891 H   0  0  0  0  0  0  0  0  0  0  0  0
  5  6  2  0  0  0  0
  5  7  1  0  0  0  0
  2  3  1  0  0  0  0
  2  4  1  0  0  0  0
  2  5  1  0  0  0  0
  1  2  1  0  0  0  0
 19 20  2  0  0  0  0
 19 21  1  0  0  0  0
 16 17  1  0  0  0  0
 16 18  1  0  0  0  0
 14 15  2  0  0  0  0
 14 16  1  0  0  0  0
 11 12  1  0  0  0  0
 11 13  1  0  0  0  0
 11 14  1  0  0  0  0
  9 10  1  0  0  0  0
  9 11  1  0  0  0  0
  9 19  1  0  0  0  0
  7  8  1  0  0  0  0
  7  9  1  0  0  0  0
 23 24  1  0  0  0  0
 23 25  1  0  0  0  0
 23 26  1  0  0  0  0
 21 22  1  0  0  0  0
 21 23  1  0  0  0  0
M  END
$$$$
default_name
  -OEChem-02102213163D

 26 25  0     1  0  0  0  0  0999 V2000
   -3.0232   -3.6924    1.0038 H   0  0  0  0  0  0  0  0  0  0  0  0
   -3.0082   -2.6684    0.6318 C   0  0  0  0  0  0  0  0  0  0  0  0
   -3.6332   -2.0414    1.2658 H   0  0  0  0  0  0  0  0  0  0  0  0
   -3.3762   -2.6444   -0.3912 H   0  0  0  0  0  0  0  0  0  0  0  0
   -1.5882   -2.1554    0.6658 C   0  0  0  0  0  0  0  0  0  0  0  0
   -0.6832   -2.8764    1.0638 O   0  0  0  0  0  0  0  0  0  0  0  0
   -1.3952   -0.9084    0.2428 N   0  0  0  0  0  0  0  0  0  0  0  0
   -2.1972   -0.3644   -0.0422 H   0  0  0  0  0  0  0  0  0  0  0  0
   -0.1122   -0.1994    0.2658 C   0  0  1  0  0  0  0  0  0  0  0  0
    0.6131   -0.7748   -0.3153 H   0  0  0  0  0  0  0  0  0  0  0  0
   -0.2973    1.1841   -0.3966 C   0  0  0  0  0  0  0  0  0  0  0  0
    0.1591    1.1707   -1.3857 H   0  0  0  0  0  0  0  0  0  0  0  0
   -1.3609    1.3871   -0.5130 H   0  0  0  0  0  0  0  0  0  0  0  0
    0.3465    2.3279    0.3704 C   0  0  0  0  0  0  0  0  0  0  0  0
    1.5491    2.5254    0.3812 O   0  0  0  0  0  0  0  0  0  0  0  0
   -0.4386    3.1247    1.0537 N   0  0  0  0  0  0  0  0  0  0  0  0
    0.0129    3.8817    1.5362 H   0  0  0  0  0  0  0  0  0  0  0  0
   -1.4327    2.9949    1.0456 H   0  0  0  0  0  0  0  0  0  0  0  0
    0.4075   -0.0985    1.7169 C   0  0  0  0  0  0  0  0  0  0  0  0
    1.5860   -0.3526    1.9662 O   0  0  0  0  0  0  0  0  0  0  0  0
   -0.4625    0.2583    2.6666 N   0  0  0  0  0  0  0  0  0  0  0  0
   -1.4309    0.3754    2.3860 H   0  0  0  0  0  0  0  0  0  0  0  0
   -0.1275    0.4111    4.0813 C   0  0  0  0  0  0  0  0  0  0  0  0
    0.6862    1.1312    4.1910 H   0  0  0  0  0  0  0  0  0  0  0  0
   -0.9980    0.7641    4.6360 H   0  0  0  0  0  0  0  0  0  0  0  0
    0.1959   -0.5481    4.4891 H   0  0  0  0  0  0  0  0  0  0  0  0
  5  6  2  0  0  0  0
  5  7  1  0  0  0  0
  2  3  1  0  0  0  0
  2  4  1  0  0  0  0
  2  5  1  0  0  0  0
  1  2  1  0  0  0  0
 19 20  2  0  0  0  0
 19 21  1  0  0  0  0
 16 17  1  0  0  0  0
 16 18  1  0  0  0  0
 14 15  2  0  0  0  0
 14 16  1  0  0  0  0
 11 12  1  0  0  0  0
 11 13  1  0  0  0  0
 11 14  1  0  0  0  0
  9 10  1  0  0  0  0
  9 11  1  0  0  0  0
  9 19  1  0  0  0  0
  7  8  1  0  0  0  0
  7  9  1  0  0  0  0
 23 24  1  0  0  0  0
 23 25  1  0  0  0  0
 23 26  1  0  0  0  0
 21 22  1  0  0  0  0
 21 23  1  0  0  0  0
M  END
$$$$
default_name
  -OEChem-02102213163D

 26 25  0     1  0  0  0  0  0999 V2000
   -3.0232   -3.6924    1.0038 H   0  0  0  0  0  0  0  0  0  0  0  0
   -3.0082   -2.6684    0.6318 C   0  0  0  0  0  0  0  0  0  0  0  0
   -3.6332   -2.0414    1.2658 H   0  0  0  0  0  0  0  0  0  0  0  0
   -3.3762   -2.6444   -0.3912 H   0  0  0  0  0  0  0  0  0  0  0  0
   -1.5882   -2.1554    0.6658 C   0  0  0  0  0  0  0  0  0  0  0  0
   -0.6832   -2.8764    1.0638 O   0  0  0  0  0  0  0  0  0  0  0  0
   -1.3952   -0.9084    0.2428 N   0  0  0  0  0  0  0  0  0  0  0  0
   -2.1972   -0.3644   -0.0422 H   0  0  0  0  0  0  0  0  0  0  0  0
   -0.1122   -0.1994    0.2658 C   0  0  1  0  0  0  0  0  0  0  0  0
    0.6131   -0.7748   -0.3153 H   0  0  0  0  0  0  0  0  0  0  0  0
   -0.2973    1.1841   -0.3966 C   0  0  0  0  0  0  0  0  0  0  0  0
    0.1591    1.1707   -1.3857 H   0  0  0  0  0  0  0  0  0  0  0  0
   -1.3609    1.3871   -0.5130 H   0  0  0  0  0  0  0  0  0  0  0  0
    0.3465    2.3279    0.3704 C   0  0  0  0  0  0  0  0  0  0  0  0
    1.4940    2.6915    0.1797 O   0  0  0  0  0  0  0  0  0  0  0  0
   -0.3740    2.9358    1.2812 N   0  0  0  0  0  0  0  0  0  0  0  0
    0.0717    3.6988    1.7595 H   0  0  0  0  0  0  0  0  0  0  0  0
   -1.3264    2.6682    1.4437 H   0  0  0  0  0  0  0  0  0  0  0  0
    0.4075   -0.0985    1.7169 C   0  0  0  0  0  0  0  0  0  0  0  0
    1.5860   -0.3526    1.9662 O   0  0  0  0  0  0  0  0  0  0  0  0
   -0.4625    0.2583    2.6666 N   0  0  0  0  0  0  0  0  0  0  0  0
   -1.4309    0.3754    2.3860 H   0  0  0  0  0  0  0  0  0  0  0  0
   -0.1275    0.4111    4.0813 C   0  0  0  0  0  0  0  0  0  0  0  0
    0.6862    1.1312    4.1910 H   0  0  0  0  0  0  0  0  0  0  0  0
   -0.9980    0.7641    4.6360 H   0  0  0  0  0  0  0  0  0  0  0  0
    0.1959   -0.5481    4.4891 H   0  0  0  0  0  0  0  0  0  0  0  0
  5  6  2  0  0  0  0
  5  7  1  0  0  0  0
  2  3  1  0  0  0  0
  2  4  1  0  0  0  0
  2  5  1  0  0  0  0
  1  2  1  0  0  0  0
 19 20  2  0  0  0  0
 19 21  1  0  0  0  0
 16 17  1  0  0  0  0
 16 18  1  0  0  0  0
 14 15  2  0  0  0  0
 14 16  1  0  0  0  0
 11 12  1  0  0  0  0
 11 13  1  0  0  0  0
 11 14  1  0  0  0  0
  9 10  1  0  0  0  0
  9 11  1  0  0  0  0
  9 19  1  0  0  0  0
  7  8  1  0  0  0  0
  7  9  1  0  0  0  0
 23 24  1  0  0  0  0
 23 25  1  0  0  0  0
 23 26  1  0  0  0  0
 21 22  1  0  0  0  0
 21 23  1  0  0  0  0
M  END
$$$$
default_name
  -OEChem-02102213163D

 26 25  0     1  0  0  0  0  0999 V2000
   -3.0232   -3.6924    1.0038 H   0  0  0  0  0  0  0  0  0  0  0  0
   -3.0082   -2.6684    0.6318 C   0  0  0  0  0  0  0  0  0  0  0  0
   -3.6332   -2.0414    1.2658 H   0  0  0  0  0  0  0  0  0  0  0  0
   -3.3762   -2.6444   -0.3912 H   0  0  0  0  0  0  0  0  0  0  0  0
   -1.5882   -2.1554    0.6658 C   0  0  0  0  0  0  0  0  0  0  0  0
   -0.6832   -2.8764    1.0638 O   0  0  0  0  0  0  0  0  0  0  0  0
   -1.3952   -0.9084    0.2428 N   0  0  0  0  0  0  0  0  0  0  0  0
   -2.1972   -0.3644   -0.0422 H   0  0  0  0  0  0  0  0  0  0  0  0
   -0.1122   -0.1994    0.2658 C   0  0  1  0  0  0  0  0  0  0  0  0
    0.6131   -0.7748   -0.3153 H   0  0  0  0  0  0  0  0  0  0  0  0
   -0.2973    1.1841   -0.3966 C   0  0  0  0  0  0  0  0  0  0  0  0
    0.1591    1.1707   -1.3857 H   0  0  0  0  0  0  0  0  0  0  0  0
   -1.3609    1.3871   -0.5130 H   0  0  0  0  0  0  0  0  0  0  0  0
    0.3465    2.3279    0.3704 C   0  0  0  0  0  0  0  0  0  0  0  0
    1.3799    2.8668    0.0140 O   0  0  0  0  0  0  0  0  0  0  0  0
   -0.2426    2.7368    1.4676 N   0  0  0  0  0  0  0  0  0  0  0  0
    0.1959    3.5054    1.9438 H   0  0  0  0  0  0  0  0  0  0  0  0
   -1.1035    2.3228    1.7717 H   0  0  0  0  0  0  0  0  0  0  0  0
    0.4075   -0.0985    1.7169 C   0  0  0  0  0  0  0  0  0  0  0  0
    1.5860   -0.3526    1.9662 O   0  0  0  0  0  0  0  0  0  0  0  0
   -0.4625    0.2583    2.6666 N   0  0  0  0  0  0  0  0  0  0  0  0
   -1.4309    0.3754    2.3860 H   0  0  0  0  0  0  0  0  0  0  0  0
   -0.1275    0.4111    4.0813 C   0  0  0  0  0  0  0  0  0  0  0  0
    0.6862    1.1312    4.1910 H   0  0  0  0  0  0  0  0  0  0  0  0
   -0.9980    0.7641    4.6360 H   0  0  0  0  0  0  0  0  0  0  0  0
    0.1959   -0.5481    4.4891 H   0  0  0  0  0  0  0  0  0  0  0  0
  5  6  2  0  0  0  0
  5  7  1  0  0  0  0
  2  3  1  0  0  0  0
  2  4  1  0  0  0  0
  2  5  1  0  0  0  0
  1  2  1  0  0  0  0
 19 20  2  0  0  0  0
 19 21  1  0  0  0  0
 16 17  1  0  0  0  0
 16 18  1  0  0  0  0
 14 15  2  0  0  0  0
 14 16  1  0  0  0  0
 11 12  1  0  0  0  0
 11 13  1  0  0  0  0
 11 14  1  0  0  0  0
  9 10  1  0  0  0  0
  9 11  1  0  0  0  0
  9 19  1  0  0  0  0
  7  8  1  0  0  0  0
  7  9  1  0  0  0  0
 23 24  1  0  0  0  0
 23 25  1  0  0  0  0
 23 26  1  0  0  0  0
 21 22  1  0  0  0  0
 21 23  1  0  0  0  0
M  END
$$$$
default_name
  -OEChem-02102213163D

 26 25  0     1  0  0  0  0  0999 V2000
   -3.0232   -3.6924    1.0038 H   0  0  0  0  0  0  0  0  0  0  0  0
   -3.0082   -2.6684    0.6318 C   0  0  0  0  0  0  0  0  0  0  0  0
   -3.6332   -2.0414    1.2658 H   0  0  0  0  0  0  0  0  0  0  0  0
   -3.3762   -2.6444   -0.3912 H   0  0  0  0  0  0  0  0  0  0  0  0
   -1.5882   -2.1554    0.6658 C   0  0  0  0  0  0  0  0  0  0  0  0
   -0.6832   -2.8764    1.0638 O   0  0  0  0  0  0  0  0  0  0  0  0
   -1.3952   -0.9084    0.2428 N   0  0  0  0  0  0  0  0  0  0  0  0
   -2.1972   -0.3644   -0.0422 H   0  0  0  0  0  0  0  0  0  0  0  0
   -0.1122   -0.1994    0.2658 C   0  0  1  0  0  0  0  0  0  0  0  0
    0.6131   -0.7748   -0.3153 H   0  0  0  0  0  0  0  0  0  0  0  0
   -0.2973    1.1841   -0.3966 C   0  0  0  0  0  0  0  0  0  0  0  0
    0.1591    1.1707   -1.3857 H   0  0  0  0  0  0  0  0  0  0  0  0
   -1.3609    1.3871   -0.5130 H   0  0  0  0  0  0  0  0  0  0  0  0
    0.3465    2.3279    0.3704 C   0  0  0  0  0  0  0  0  0  0  0  0
    1.2145    3.0395   -0.1046 O   0  0  0  0  0  0  0  0  0  0  0  0
   -0.0534    2.5414    1.6003 N   0  0  0  0  0  0  0  0  0  0  0  0
    0.3770    3.3145    2.0763 H   0  0  0  0  0  0  0  0  0  0  0  0
   -0.7792    1.9823    2.0073 H   0  0  0  0  0  0  0  0  0  0  0  0
    0.4075   -0.0985    1.7169 C   0  0  0  0  0  0  0  0  0  0  0  0
    1.5860   -0.3526    1.9662 O   0  0  0  0  0  0  0  0  0  0  0  0
   -0.4625    0.2583    2.6666 N   0  0  0  0  0  0  0  0  0  0  0  0
   -1.4309    0.3754    2.3860 H   0  0  0  0  0  0  0  0  0  0  0  0
   -0.1275    0.4111    4.0813 C   0  0  0  0  0  0  0  0  0  0  0  0
    0.6862    1.1312    4.1910 H   0  0  0  0  0  0  0  0  0  0  0  0
   -0.9980    0.7641    4.6360 H   0  0  0  0  0  0  0  0  0  0  0  0
    0.1959   -0.5481    4.4891 H   0  0  0  0  0  0  0  0  0  0  0  0
  5  6  2  0  0  0  0
  5  7  1  0  0  0  0
  2  3  1  0  0  0  0
  2  4  1  0  0  0  0
  2  5  1  0  0  0  0
  1  2  1  0  0  0  0
 19 20  2  0  0  0  0
 19 21  1  0  0  0  0
 16 17  1  0  0  0  0
 16 18  1  0  0  0  0
 14 15  2  0  0  0  0
 14 16  1  0  0  0  0
 11 12  1  0  0  0  0
 11 13  1  0  0  0  0
 11 14  1  0  0  0  0
  9 10  1  0  0  0  0
  9 11  1  0  0  0  0
  9 19  1  0  0  0  0
  7  8  1  0  0  0  0
  7  9  1  0  0  0  0
 23 24  1  0  0  0  0
 23 25  1  0  0  0  0
 23 26  1  0  0  0  0
 21 22  1  0  0  0  0
 21 23  1  0  0  0  0
M  END
$$$$
default_name
  -OEChem-02102213163D

 26 25  0     1  0  0  0  0  0999 V2000
   -3.0232   -3.6924    1.0038 H   0  0  0  0  0  0  0  0  0  0  0  0
   -3.0082   -2.6684    0.6318 C   0  0  0  0  0  0  0  0  0  0  0  0
   -3.6332   -2.0414    1.2658 H   0  0  0  0  0  0  0  0  0  0  0  0
   -3.3762   -2.6444   -0.3912 H   0  0  0  0  0  0  0  0  0  0  0  0
   -1.5882   -2.1554    0.6658 C   0  0  0  0  0  0  0  0  0  0  0  0
   -0.6832   -2.8764    1.0638 O   0  0  0  0  0  0  0  0  0  0  0  0
   -1.3952   -0.9084    0.2428 N   0  0  0  0  0  0  0  0  0  0  0  0
   -2.1972   -0.3644   -0.0422 H   0  0  0  0  0  0  0  0  0  0  0  0
   -0.1122   -0.1994    0.2658 C   0  0  1  0  0  0  0  0  0  0  0  0
    0.6131   -0.7748   -0.3153 H   0  0  0  0  0  0  0  0  0  0  0  0
   -0.2973    1.1841   -0.3966 C   0  0  0  0  0  0  0  0  0  0  0  0
    0.1591    1.1707   -1.3857 H   0  0  0  0  0  0  0  0  0  0  0  0
   -1.3609    1.3871   -0.5130 H   0  0  0  0  0  0  0  0  0  0  0  0
    0.3465    2.3279    0.3704 C   0  0  0  0  0  0  0  0  0  0  0  0
    1.0091    3.1976   -0.1680 O   0  0  0  0  0  0  0  0  0  0  0  0
    0.1807    2.3627    1.6702 N   0  0  0  0  0  0  0  0  0  0  0  0
    0.6027    3.1393    2.1482 H   0  0  0  0  0  0  0  0  0  0  0  0
   -0.3757    1.6699    2.1344 H   0  0  0  0  0  0  0  0  0  0  0  0
    0.4075   -0.0985    1.7169 C   0  0  0  0  0  0  0  0  0  0  0  0
    1.5860   -0.3526    1.9662 O   0  0  0  0  0  0  0  0  0  0  0  0
   -0.4625    0.2583    2.6666 N   0  0  0  0  0  0  0  0  0  0  0  0
   -1.4309    0.3754    2.3860 H   0  0  0  0  0  0  0  0  0  0  0  0
   -0.1275    0.4111    4.0813 C   0  0  0  0  0  0  0  0  0  0  0  0
    0.6862    1.1312    4.1910 H   0  0  0  0  0  0  0  0  0  0  0  0
   -0.9980    0.7641    4.6360 H   0  0  0  0  0  0  0  0  0  0  0  0
    0.1959   -0.5481    4.4891 H   0  0  0  0  0  0  0  0  0  0  0  0
  5  6  2  0  0  0  0
  5  7  1  0  0  0  0
  2  3  1  0  0  0  0
  2  4  1  0  0  0  0
  2  5  1  0  0  0  0
  1  2  1  0  0  0  0
 19 20  2  0  0  0  0
 19 21  1  0  0  0  0
 16 17  1  0  0  0  0
 16 18  1  0  0  0  0
 14 15  2  0  0  0  0
 14 16  1  0  0  0  0
 11 12  1  0  0  0  0
 11 13  1  0  0  0  0
 11 14  1  0  0  0  0
  9 10  1  0  0  0  0
  9 11  1  0  0  0  0
  9 19  1  0  0  0  0
  7  8  1  0  0  0  0
  7  9  1  0  0  0  0
 23 24  1  0  0  0  0
 23 25  1  0  0  0  0
 23 26  1  0  0  0  0
 21 22  1  0  0  0  0
 21 23  1  0  0  0  0
M  END
$$$$
default_name
  -OEChem-02102213163D

 26 25  0     1  0  0  0  0  0999 V2000
   -3.0232   -3.6924    1.0038 H   0  0  0  0  0  0  0  0  0  0  0  0
   -3.0082   -2.6684    0.6318 C   0  0  0  0  0  0  0  0  0  0  0  0
   -3.6332   -2.0414    1.2658 H   0  0  0  0  0  0  0  0  0  0  0  0
   -3.3762   -2.6444   -0.3912 H   0  0  0  0  0  0  0  0  0  0  0  0
   -1.5882   -2.1554    0.6658 C   0  0  0  0  0  0  0  0  0  0  0  0
   -0.6832   -2.8764    1.0638 O   0  0  0  0  0  0  0  0  0  0  0  0
   -1.3952   -0.9084    0.2428 N   0  0  0  0  0  0  0  0  0  0  0  0
   -2.1972   -0.3644   -0.0422 H   0  0  0  0  0  0  0  0  0  0  0  0
   -0.1122   -0.1994    0.2658 C   0  0  1  0  0  0  0  0  0  0  0  0
    0.6131   -0.7748   -0.3153 H   0  0  0  0  0  0  0  0  0  0  0  0
   -0.2973    1.1841   -0.3966 C   0  0  0  0  0  0  0  0  0  0  0  0
    0.1591    1.1707   -1.3857 H   0  0  0  0  0  0  0  0  0  0  0  0
   -1.3609    1.3871   -0.5130 H   0  0  0  0  0  0  0  0  0  0  0  0
    0.3465    2.3279    0.3704 C   0  0  0  0  0  0  0  0  0  0  0  0
    0.7777    3.3305   -0.1719 O   0  0  0  0  0  0  0  0  0  0  0  0
    0.4437    2.2131    1.6725 N   0  0  0  0  0  0  0  0  0  0  0  0
    0.8575    2.9916    2.1545 H   0  0  0  0  0  0  0  0  0  0  0  0
    0.0796    1.4069    2.1443 H   0  0  0  0  0  0  0  0  0  0  0  0
    0.4075   -0.0985    1.7169 C   0  0  0  0  0  0  0  0  0  0  0  0
    1.5860   -0.3526    1.9662 O   0  0  0  0  0  0  0  0  0  0  0  0
   -0.4625    0.2583    2.6666 N   0  0  0  0  0  0  0  0  0  0  0  0
   -1.4309    0.3754    2.3860 H   0  0  0  0  0  0  0  0  0  0  0  0
   -0.1275    0.4111    4.0813 C   0  0  0  0  0  0  0  0  0  0  0  0
    0.6862    1.1312    4.1910 H   0  0  0  0  0  0  0  0  0  0  0  0
   -0.9980    0.7641    4.6360 H   0  0  0  0  0  0  0  0  0  0  0  0
    0.1959   -0.5481    4.4891 H   0  0  0  0  0  0  0  0  0  0  0  0
  5  6  2  0  0  0  0
  5  7  1  0  0  0  0
  2  3  1  0  0  0  0
  2  4  1  0  0  0  0
  2  5  1  0  0  0  0
  1  2  1  0  0  0  0
 19 20  2  0  0  0  0
 19 21  1  0  0  0  0
 16 17  1  0  0  0  0
 16 18  1  0  0  0  0
 14 15  2  0  0  0  0
 14 16  1  0  0  0  0
 11 12  1  0  0  0  0
 11 13  1  0  0  0  0
 11 14  1  0  0  0  0
  9 10  1  0  0  0  0
  9 11  1  0  0  0  0
  9 19  1  0  0  0  0
  7  8  1  0  0  0  0
  7  9  1  0  0  0  0
 23 24  1  0  0  0  0
 23 25  1  0  0  0  0
 23 26  1  0  0  0  0
 21 22  1  0  0  0  0
 21 23  1  0  0  0  0
M  END
$$$$
default_name
  -OEChem-02102213163D

 26 25  0     1  0  0  0  0  0999 V2000
   -3.0232   -3.6924    1.0038 H   0  0  0  0  0  0  0  0  0  0  0  0
   -3.0082   -2.6684    0.6318 C   0  0  0  0  0  0  0  0  0  0  0  0
   -3.6332   -2.0414    1.2658 H   0  0  0  0  0  0  0  0  0  0  0  0
   -3.3762   -2.6444   -0.3912 H   0  0  0  0  0  0  0  0  0  0  0  0
   -1.5882   -2.1554    0.6658 C   0  0  0  0  0  0  0  0  0  0  0  0
   -0.6832   -2.8764    1.0638 O   0  0  0  0  0  0  0  0  0  0  0  0
   -1.3952   -0.9084    0.2428 N   0  0  0  0  0  0  0  0  0  0  0  0
   -2.1972   -0.3644   -0.0422 H   0  0  0  0  0  0  0  0  0  0  0  0
   -0.1122   -0.1994    0.2658 C   0  0  1  0  0  0  0  0  0  0  0  0
    0.6131   -0.7748   -0.3153 H   0  0  0  0  0  0  0  0  0  0  0  0
   -0.2973    1.1841   -0.3966 C   0  0  0  0  0  0  0  0  0  0  0  0
    0.1591    1.1707   -1.3857 H   0  0  0  0  0  0  0  0  0  0  0  0
   -1.3609    1.3871   -0.5130 H   0  0  0  0  0  0  0  0  0  0  0  0
    0.3465    2.3279    0.3704 C   0  0  0  0  0  0  0  0  0  0  0  0
    0.5361    3.4291   -0.1161 O   0  0  0  0  0  0  0  0  0  0  0  0
    0.7178    2.1026    1.6072 N   0  0  0  0  0  0  0  0  0  0  0  0
    1.1242    2.8816    2.0947 H   0  0  0  0  0  0  0  0  0  0  0  0
    0.5557    1.2113    2.0364 H   0  0  0  0  0  0  0  0  0  0  0  0
    0.4075   -0.0985    1.7169 C   0  0  0  0  0  0  0  0  0  0  0  0
    1.5860   -0.3526    1.9662 O   0  0  0  0  0  0  0  0  0  0  0  0
   -0.4625    0.2583    2.6666 N   0  0  0  0  0  0  0  0  0  0  0  0
   -1.4309    0.3754    2.3860 H   0  0  0  0  0  0  0  0  0  0  0  0
   -0.1275    0.4111    4.0813 C   0  0  0  0  0  0  0  0  0  0  0  0
    0.6862    1.1312    4.1910 H   0  0  0  0  0  0  0  0  0  0  0  0
   -0.9980    0.7641    4.6360 H   0  0  0  0  0  0  0  0  0  0  0  0
    0.1959   -0.5481    4.4891 H   0  0  0  0  0  0  0  0  0  0  0  0
  5  6  2  0  0  0  0
  5  7  1  0  0  0  0
  2  3  1  0  0  0  0
  2  4  1  0  0  0  0
  2  5  1  0  0  0  0
  1  2  1  0  0  0  0
 19 20  2  0  0  0  0
 19 21  1  0  0  0  0
 16 17  1  0  0  0  0
 16 18  1  0  0  0  0
 14 15  2  0  0  0  0
 14 16  1  0  0  0  0
 11 12  1  0  0  0  0
 11 13  1  0  0  0  0
 11 14  1  0  0  0  0
  9 10  1  0  0  0  0
  9 11  1  0  0  0  0
  9 19  1  0  0  0  0
  7  8  1  0  0  0  0
  7  9  1  0  0  0  0
 23 24  1  0  0  0  0
 23 25  1  0  0  0  0
 23 26  1  0  0  0  0
 21 22  1  0  0  0  0
 21 23  1  0  0  0  0
M  END
$$$$
default_name
  -OEChem-02102213163D

 26 25  0     1  0  0  0  0  0999 V2000
   -3.0232   -3.6924    1.0038 H   0  0  0  0  0  0  0  0  0  0  0  0
   -3.0082   -2.6684    0.6318 C   0  0  0  0  0  0  0  0  0  0  0  0
   -3.6332   -2.0414    1.2658 H   0  0  0  0  0  0  0  0  0  0  0  0
   -3.3762   -2.6444   -0.3912 H   0  0  0  0  0  0  0  0  0  0  0  0
   -1.5882   -2.1554    0.6658 C   0  0  0  0  0  0  0  0  0  0  0  0
   -0.6832   -2.8764    1.0638 O   0  0  0  0  0  0  0  0  0  0  0  0
   -1.3952   -0.9084    0.2428 N   0  0  0  0  0  0  0  0  0  0  0  0
   -2.1972   -0.3644   -0.0422 H   0  0  0  0  0  0  0  0  0  0  0  0
   -0.1122   -0.1994    0.2658 C   0  0  1  0  0  0  0  0  0  0  0  0
    0.6131   -0.7748   -0.3153 H   0  0  0  0  0  0  0  0  0  0  0  0
   -0.2973    1.1841   -0.3966 C   0  0  0  0  0  0  0  0  0  0  0  0
   -0.0887    1.1007   -1.4626 H   0  0  0  0  0  0  0  0  0  0  0  0
   -1.3305    1.5055   -0.2741 H   0  0  0  0  0  0  0  0  0  0  0  0
    0.6267    2.2601    0.1505 C   0  0  0  0  0  0  0  0  0  0  0  0
    0.6192    3.4096   -0.2543 O   0  0  0  0  0  0  0  0  0  0  0  0
    1.4708    1.9198    1.0939 N   0  0  0  0  0  0  0  0  0  0  0  0
    2.0565    2.6554    1.4483 H   0  0  0  0  0  0  0  0  0  0  0  0
    1.4836    0.9856    1.4573 H   0  0  0  0  0  0  0  0  0  0  0  0
    0.4075   -0.0985    1.7169 C   0  0  0  0  0  0  0  0  0  0  0  0
    1.5860   -0.3526    1.9662 O   0  0  0  0  0  0  0  0  0  0  0  0
   -0.4625    0.2583    2.6666 N   0  0  0  0  0  0  0  0  0  0  0  0
   -1.4309    0.3754    2.3860 H   0  0  0  0  0  0  0  0  0  0  0  0
   -0.1275    0.4111    4.0813 C   0  0  0  0  0  0  0  0  0  0  0  0
    0.6862    1.1312    4.1910 H   0  0  0  0  0  0  0  0  0  0  0  0
   -0.9980    0.7641    4.6360 H   0  0  0  0  0  0  0  0  0  0  0  0
    0.1959   -0.5481    4.4891 H   0  0  0  0  0  0  0  0  0  0  0  0
  5  6  2  0  0  0  0
  5  7  1  0  0  0  0
  2  3  1  0  0  0  0
  2  4  1  0  0  0  0
  2  5  1  0  0  0  0
  1  2  1  0  0  0  0
 19 20  2  0  0  0  0
 19 21  1  0  0  0  0
 16 17  1  0  0  0  0
 16 18  1  0  0  0  0
 14 15  2  0  0  0  0
 14 16  1  0  0  0  0
 11 12  1  0  0  0  0
 11 13  1  0  0  0  0
 11 14  1  0  0  0  0
  9 10  1  0  0  0  0
  9 11  1  0  0  0  0
  9 19  1  0  0  0  0
  7  8  1  0  0  0  0
  7  9  1  0  0  0  0
 23 24  1  0  0  0  0
 23 25  1  0  0  0  0
 23 26  1  0  0  0  0
 21 22  1  0  0  0  0
 21 23  1  0  0  0  0
M  END
$$$$
default_name
  -OEChem-02102213163D

 26 25  0     1  0  0  0  0  0999 V2000
   -3.0232   -3.6924    1.0038 H   0  0  0  0  0  0  0  0  0  0  0  0
   -3.0082   -2.6684    0.6318 C   0  0  0  0  0  0  0  0  0  0  0  0
   -3.6332   -2.0414    1.2658 H   0  0  0  0  0  0  0  0  0  0  0  0
   -3.3762   -2.6444   -0.3912 H   0  0  0  0  0  0  0  0  0  0  0  0
   -1.5882   -2.1554    0.6658 C   0  0  0  0  0  0  0  0  0  0  0  0
   -0.6832   -2.8764    1.0638 O   0  0  0  0  0  0  0  0  0  0  0  0
   -1.3952   -0.9084    0.2428 N   0  0  0  0  0  0  0  0  0  0  0  0
   -2.1972   -0.3644   -0.0422 H   0  0  0  0  0  0  0  0  0  0  0  0
   -0.1122   -0.1994    0.2658 C   0  0  1  0  0  0  0  0  0  0  0  0
    0.6131   -0.7748   -0.3153 H   0  0  0  0  0  0  0  0  0  0  0  0
   -0.2973    1.1841   -0.3966 C   0  0  0  0  0  0  0  0  0  0  0  0
   -0.0887    1.1007   -1.4626 H   0  0  0  0  0  0  0  0  0  0  0  0
   -1.3305    1.5055   -0.2741 H   0  0  0  0  0  0  0  0  0  0  0  0
    0.6267    2.2601    0.1505 C   0  0  0  0  0  0  0  0  0  0  0  0
    0.4520    3.4494   -0.0502 O   0  0  0  0  0  0  0  0  0  0  0  0
    1.6592    1.8764    0.8611 N   0  0  0  0  0  0  0  0  0  0  0  0
    2.2422    2.6099    1.2241 H   0  0  0  0  0  0  0  0  0  0  0  0
    1.8144    0.9054    1.0564 H   0  0  0  0  0  0  0  0  0  0  0  0
    0.4075   -0.0985    1.7169 C   0  0  0  0  0  0  0  0  0  0  0  0
    1.5860   -0.3526    1.9662 O   0  0  0  0  0  0  0  0  0  0  0  0
   -0.4625    0.2583    2.6666 N   0  0  0  0  0  0  0  0  0  0  0  0
   -1.4309    0.3754    2.3860 H   0  0  0  0  0  0  0  0  0  0  0  0
   -0.1275    0.4111    4.0813 C   0  0  0  0  0  0  0  0  0  0  0  0
    0.6862    1.1312    4.1910 H   0  0  0  0  0  0  0  0  0  0  0  0
   -0.9980    0.7641    4.6360 H   0  0  0  0  0  0  0  0  0  0  0  0
    0.1959   -0.5481    4.4891 H   0  0  0  0  0  0  0  0  0  0  0  0
  5  6  2  0  0  0  0
  5  7  1  0  0  0  0
  2  3  1  0  0  0  0
  2  4  1  0  0  0  0
  2  5  1  0  0  0  0
  1  2  1  0  0  0  0
 19 20  2  0  0  0  0
 19 21  1  0  0  0  0
 16 17  1  0  0  0  0
 16 18  1  0  0  0  0
 14 15  2  0  0  0  0
 14 16  1  0  0  0  0
 11 12  1  0  0  0  0
 11 13  1  0  0  0  0
 11 14  1  0  0  0  0
  9 10  1  0  0  0  0
  9 11  1  0  0  0  0
  9 19  1  0  0  0  0
  7  8  1  0  0  0  0
  7  9  1  0  0  0  0
 23 24  1  0  0  0  0
 23 25  1  0  0  0  0
 23 26  1  0  0  0  0
 21 22  1  0  0  0  0
 21 23  1  0  0  0  0
M  END
$$$$
default_name
  -OEChem-02102213163D

 26 25  0     1  0  0  0  0  0999 V2000
   -3.0232   -3.6924    1.0038 H   0  0  0  0  0  0  0  0  0  0  0  0
   -3.0082   -2.6684    0.6318 C   0  0  0  0  0  0  0  0  0  0  0  0
   -3.6332   -2.0414    1.2658 H   0  0  0  0  0  0  0  0  0  0  0  0
   -3.3762   -2.6444   -0.3912 H   0  0  0  0  0  0  0  0  0  0  0  0
   -1.5882   -2.1554    0.6658 C   0  0  0  0  0  0  0  0  0  0  0  0
   -0.6832   -2.8764    1.0638 O   0  0  0  0  0  0  0  0  0  0  0  0
   -1.3952   -0.9084    0.2428 N   0  0  0  0  0  0  0  0  0  0  0  0
   -2.1972   -0.3644   -0.0422 H   0  0  0  0  0  0  0  0  0  0  0  0
   -0.1122   -0.1994    0.2658 C   0  0  1  0  0  0  0  0  0  0  0  0
    0.6131   -0.7748   -0.3153 H   0  0  0  0  0  0  0  0  0  0  0  0
   -0.2973    1.1841   -0.3966 C   0  0  0  0  0  0  0  0  0  0  0  0
   -0.0887    1.1007   -1.4626 H   0  0  0  0  0  0  0  0  0  0  0  0
   -1.3305    1.5055   -0.2741 H   0  0  0  0  0  0  0  0  0  0  0  0
    0.6267    2.2601    0.1505 C   0  0  0  0  0  0  0  0  0  0  0  0
    0.3242    3.4402    0.1839 O   0  0  0  0  0  0  0  0  0  0  0  0
    1.8027    1.8886    0.5949 N   0  0  0  0  0  0  0  0  0  0  0  0
    2.3847    2.6185    0.9664 H   0  0  0  0  0  0  0  0  0  0  0  0
    2.0679    0.9218    0.5959 H   0  0  0  0  0  0  0  0  0  0  0  0
    0.4075   -0.0985    1.7169 C   0  0  0  0  0  0  0  0  0  0  0  0
    1.5860   -0.3526    1.9662 O   0  0  0  0  0  0  0  0  0  0  0  0
   -0.4625    0.2583    2.6666 N   0  0  0  0  0  0  0  0  0  0  0  0
   -1.4309    0.3754    2.3860 H   0  0  0  0  0  0  0  0  0  0  0  0
   -0.1275    0.4111    4.0813 C   0  0  0  0  0  0  0  0  0  0  0  0
    0.6862    1.1312    4.1910 H   0  0  0  0  0  0  0  0  0  0  0  0
   -0.9980    0.7641    4.6360 H   0  0  0  0  0  0  0  0  0  0  0  0
    0.1959   -0.5481    4.4891 H   0  0  0  0  0  0  0  0  0  0  0  0
  5  6  2  0  0  0  0
  5  7  1  0  0  0  0
  2  3  1  0  0  0  0
  2  4  1  0  0  0  0
  2  5  1  0  0  0  0
  1  2  1  0  0  0  0
 19 20  2  0  0  0  0
 19 21  1  0  0  0  0
 16 17  1  0  0  0  0
 16 18  1  0  0  0  0
 14 15  2  0  0  0  0
 14 16  1  0  0  0  0
 11 12  1  0  0  0  0
 11 13  1  0  0  0  0
 11 14  1  0  0  0  0
  9 10  1  0  0  0  0
  9 11  1  0  0  0  0
  9 19  1  0  0  0  0
  7  8  1  0  0  0  0
  7  9  1  0  0  0  0
 23 24  1  0  0  0  0
 23 25  1  0  0  0  0
 23 26  1  0  0  0  0
 21 22  1  0  0  0  0
 21 23  1  0  0  0  0
M  END
$$$$
default_name
  -OEChem-02102213163D

 26 25  0     1  0  0  0  0  0999 V2000
   -3.0232   -3.6924    1.0038 H   0  0  0  0  0  0  0  0  0  0  0  0
   -3.0082   -2.6684    0.6318 C   0  0  0  0  0  0  0  0  0  0  0  0
   -3.6332   -2.0414    1.2658 H   0  0  0  0  0  0  0  0  0  0  0  0
   -3.3762   -2.6444   -0.3912 H   0  0  0  0  0  0  0  0  0  0  0  0
   -1.5882   -2.1554    0.6658 C   0  0  0  0  0  0  0  0  0  0  0  0
   -0.6832   -2.8764    1.0638 O   0  0  0  0  0  0  0  0  0  0  0  0
   -1.3952   -0.9084    0.2428 N   0  0  0  0  0  0  0  0  0  0  0  0
   -2.1972   -0.3644   -0.0422 H   0  0  0  0  0  0  0  0  0  0  0  0
   -0.1122   -0.1994    0.2658 C   0  0  1  0  0  0  0  0  0  0  0  0
    0.6131   -0.7748   -0.3153 H   0  0  0  0  0  0  0  0  0  0  0  0
   -0.2973    1.1841   -0.3966 C   0  0  0  0  0  0  0  0  0  0  0  0
   -0.0887    1.1007   -1.4626 H   0  0  0  0  0  0  0  0  0  0  0  0
   -1.3305    1.5055   -0.2741 H   0  0  0  0  0  0  0  0  0  0  0  0
    0.6267    2.2601    0.1505 C   0  0  0  0  0  0  0  0  0  0  0  0
    0.2444    3.3826    0.4320 O   0  0  0  0  0  0  0  0  0  0  0  0
    1.8913    1.9556    0.3134 N   0  0  0  0  0  0  0  0  0  0  0  0
    2.4744    2.6807    0.6928 H   0  0  0  0  0  0  0  0  0  0  0  0
    2.2269    1.0337    0.1072 H   0  0  0  0  0  0  0  0  0  0  0  0
    0.4075   -0.0985    1.7169 C   0  0  0  0  0  0  0  0  0  0  0  0
    1.5860   -0.3526    1.9662 O   0  0  0  0  0  0  0  0  0  0  0  0
   -0.4625    0.2583    2.6666 N   0  0  0  0  0  0  0  0  0  0  0  0
   -1.4309    0.3754    2.3860 H   0  0  0  0  0  0  0  0  0  0  0  0
   -0.1275    0.4111    4.0813 C   0  0  0  0  0  0  0  0  0  0  0  0
    0.6862    1.1312    4.1910 H   0  0  0  0  0  0  0  0  0  0  0  0
   -0.9980    0.7641    4.6360 H   0  0  0  0  0  0  0  0  0  0  0  0
    0.1959   -0.5481    4.4891 H   0  0  0  0  0  0  0  0  0  0  0  0
  5  6  2  0  0  0  0
  5  7  1  0  0  0  0
  2  3  1  0  0  0  0
  2  4  1  0  0  0  0
  2  5  1  0  0  0  0
  1  2  1  0  0  0  0
 19 20  2  0  0  0  0
 19 21  1  0  0  0  0
 16 17  1  0  0  0  0
 16 18  1  0  0  0  0
 14 15  2  0  0  0  0
 14 16  1  0  0  0  0
 11 12  1  0  0  0  0
 11 13  1  0  0  0  0
 11 14  1  0  0  0  0
  9 10  1  0  0  0  0
  9 11  1  0  0  0  0
  9 19  1  0  0  0  0
  7  8  1  0  0  0  0
  7  9  1  0  0  0  0
 23 24  1  0  0  0  0
 23 25  1  0  0  0  0
 23 26  1  0  0  0  0
 21 22  1  0  0  0  0
 21 23  1  0  0  0  0
M  END
$$$$
default_name
  -OEChem-02102213163D

 26 25  0     1  0  0  0  0  0999 V2000
   -3.0232   -3.6924    1.0038 H   0  0  0  0  0  0  0  0  0  0  0  0
   -3.0082   -2.6684    0.6318 C   0  0  0  0  0  0  0  0  0  0  0  0
   -3.6332   -2.0414    1.2658 H   0  0  0  0  0  0  0  0  0  0  0  0
   -3.3762   -2.6444   -0.3912 H   0  0  0  0  0  0  0  0  0  0  0  0
   -1.5882   -2.1554    0.6658 C   0  0  0  0  0  0  0  0  0  0  0  0
   -0.6832   -2.8764    1.0638 O   0  0  0  0  0  0  0  0  0  0  0  0
   -1.3952   -0.9084    0.2428 N   0  0  0  0  0  0  0  0  0  0  0  0
   -2.1972   -0.3644   -0.0422 H   0  0  0  0  0  0  0  0  0  0  0  0
   -0.1122   -0.1994    0.2658 C   0  0  1  0  0  0  0  0  0  0  0  0
    0.6131   -0.7748   -0.3153 H   0  0  0  0  0  0  0  0  0  0  0  0
   -0.2973    1.1841   -0.3966 C   0  0  0  0  0  0  0  0  0  0  0  0
   -0.0887    1.1007   -1.4626 H   0  0  0  0  0  0  0  0  0  0  0  0
   -1.3305    1.5055   -0.2741 H   0  0  0  0  0  0  0  0  0  0  0  0
    0.6267    2.2601    0.1505 C   0  0  0  0  0  0  0  0  0  0  0  0
    0.2182    3.2804    0.6772 O   0  0  0  0  0  0  0  0  0  0  0  0
    1.9191    2.0729    0.0357 N   0  0  0  0  0  0  0  0  0  0  0  0
    2.5051    2.7921    0.4218 H   0  0  0  0  0  0  0  0  0  0  0  0
    2.2805    1.2335   -0.3763 H   0  0  0  0  0  0  0  0  0  0  0  0
    0.4075   -0.0985    1.7169 C   0  0  0  0  0  0  0  0  0  0  0  0
    1.5860   -0.3526    1.9662 O   0  0  0  0  0  0  0  0  0  0  0  0
   -0.4625    0.2583    2.6666 N   0  0  0  0  0  0  0  0  0  0  0  0
   -1.4309    0.3754    2.3860 H   0  0  0  0  0  0  0  0  0  0  0  0
   -0.1275    0.4111    4.0813 C   0  0  0  0  0  0  0  0  0  0  0  0
    0.6862    1.1312    4.1910 H   0  0  0  0  0  0  0  0  0  0  0  0
   -0.9980    0.7641    4.6360 H   0  0  0  0  0  0  0  0  0  0  0  0
    0.1959   -0.5481    4.4891 H   0  0  0  0  0  0  0  0  0  0  0  0
  5  6  2  0  0  0  0
  5  7  1  0  0  0  0
  2  3  1  0  0  0  0
  2  4  1  0  0  0  0
  2  5  1  0  0  0  0
  1  2  1  0  0  0  0
 19 20  2  0  0  0  0
 19 21  1  0  0  0  0
 16 17  1  0  0  0  0
 16 18  1  0  0  0  0
 14 15  2  0  0  0  0
 14 16  1  0  0  0  0
 11 12  1  0  0  0  0
 11 13  1  0  0  0  0
 11 14  1  0  0  0  0
  9 10  1  0  0  0  0
  9 11  1  0  0  0  0
  9 19  1  0  0  0  0
  7  8  1  0  0  0  0
  7  9  1  0  0  0  0
 23 24  1  0  0  0  0
 23 25  1  0  0  0  0
 23 26  1  0  0  0  0
 21 22  1  0  0  0  0
 21 23  1  0  0  0  0
M  END
$$$$
default_name
  -OEChem-02102213163D

 26 25  0     1  0  0  0  0  0999 V2000
   -3.0232   -3.6924    1.0038 H   0  0  0  0  0  0  0  0  0  0  0  0
   -3.0082   -2.6684    0.6318 C   0  0  0  0  0  0  0  0  0  0  0  0
   -3.6332   -2.0414    1.2658 H   0  0  0  0  0  0  0  0  0  0  0  0
   -3.3762   -2.6444   -0.3912 H   0  0  0  0  0  0  0  0  0  0  0  0
   -1.5882   -2.1554    0.6658 C   0  0  0  0  0  0  0  0  0  0  0  0
   -0.6832   -2.8764    1.0638 O   0  0  0  0  0  0  0  0  0  0  0  0
   -1.3952   -0.9084    0.2428 N   0  0  0  0  0  0  0  0  0  0  0  0
   -2.1972   -0.3644   -0.0422 H   0  0  0  0  0  0  0  0  0  0  0  0
   -0.1122   -0.1994    0.2658 C   0  0  1  0  0  0  0  0  0  0  0  0
    0.6131   -0.7748   -0.3153 H   0  0  0  0  0  0  0  0  0  0  0  0
   -0.2973    1.1841   -0.3966 C   0  0  0  0  0  0  0  0  0  0  0  0
   -0.0887    1.1007   -1.4626 H   0  0  0  0  0  0  0  0  0  0  0  0
   -1.3305    1.5055   -0.2741 H   0  0  0  0  0  0  0  0  0  0  0  0
    0.6267    2.2601    0.1505 C   0  0  0  0  0  0  0  0  0  0  0  0
    0.2473    3.1407    0.9027 O   0  0  0  0  0  0  0  0  0  0  0  0
    1.8841    2.2325   -0.2191 N   0  0  0  0  0  0  0  0  0  0  0  0
    2.4747    2.9452    0.1719 H   0  0  0  0  0  0  0  0  0  0  0  0
    2.2251    1.5075   -0.8217 H   0  0  0  0  0  0  0  0  0  0  0  0
    0.4075   -0.0985    1.7169 C   0  0  0  0  0  0  0  0  0  0  0  0
    1.5860   -0.3526    1.9662 O   0  0  0  0  0  0  0  0  0  0  0  0
   -0.4625    0.2583    2.6666 N   0  0  0  0  0  0  0  0  0  0  0  0
   -1.4309    0.3754    2.3860 H   0  0  0  0  0  0  0  0  0  0  0  0
   -0.1275    0.4111    4.0813 C   0  0  0  0  0  0  0  0  0  0  0  0
    0.6862    1.1312    4.1910 H   0  0  0  0  0  0  0  0  0  0  0  0
   -0.9980    0.7641    4.6360 H   0  0  0  0  0  0  0  0  0  0  0  0
    0.1959   -0.5481    4.4891 H   0  0  0  0  0  0  0  0  0  0  0  0
  5  6  2  0  0  0  0
  5  7  1  0  0  0  0
  2  3  1  0  0  0  0
  2  4  1  0  0  0  0
  2  5  1  0  0  0  0
  1  2  1  0  0  0  0
 19 20  2  0  0  0  0
 19 21  1  0  0  0  0
 16 17  1  0  0  0  0
 16 18  1  0  0  0  0
 14 15  2  0  0  0  0
 14 16  1  0  0  0  0
 11 12  1  0  0  0  0
 11 13  1  0  0  0  0
 11 14  1  0  0  0  0
  9 10  1  0  0  0  0
  9 11  1  0  0  0  0
  9 19  1  0  0  0  0
  7  8  1  0  0  0  0
  7  9  1  0  0  0  0
 23 24  1  0  0  0  0
 23 25  1  0  0  0  0
 23 26  1  0  0  0  0
 21 22  1  0  0  0  0
 21 23  1  0  0  0  0
M  END
$$$$
default_name
  -OEChem-02102213163D

 26 25  0     1  0  0  0  0  0999 V2000
   -3.0232   -3.6924    1.0038 H   0  0  0  0  0  0  0  0  0  0  0  0
   -3.0082   -2.6684    0.6318 C   0  0  0  0  0  0  0  0  0  0  0  0
   -3.6332   -2.0414    1.2658 H   0  0  0  0  0  0  0  0  0  0  0  0
   -3.3762   -2.6444   -0.3912 H   0  0  0  0  0  0  0  0  0  0  0  0
   -1.5882   -2.1554    0.6658 C   0  0  0  0  0  0  0  0  0  0  0  0
   -0.6832   -2.8764    1.0638 O   0  0  0  0  0  0  0  0  0  0  0  0
   -1.3952   -0.9084    0.2428 N   0  0  0  0  0  0  0  0  0  0  0  0
   -2.1972   -0.3644   -0.0422 H   0  0  0  0  0  0  0  0  0  0  0  0
   -0.1122   -0.1994    0.2658 C   0  0  1  0  0  0  0  0  0  0  0  0
    0.6131   -0.7748   -0.3153 H   0  0  0  0  0  0  0  0  0  0  0  0
   -0.2973    1.1841   -0.3966 C   0  0  0  0  0  0  0  0  0  0  0  0
   -0.0887    1.1007   -1.4626 H   0  0  0  0  0  0  0  0  0  0  0  0
   -1.3305    1.5055   -0.2741 H   0  0  0  0  0  0  0  0  0  0  0  0
    0.6267    2.2601    0.1505 C   0  0  0  0  0  0  0  0  0  0  0  0
    0.3298    2.9731    1.0932 O   0  0  0  0  0  0  0  0  0  0  0  0
    1.7888    2.4234   -0.4337 N   0  0  0  0  0  0  0  0  0  0  0  0
    2.3853    3.1296   -0.0398 H   0  0  0  0  0  0  0  0  0  0  0  0
    2.0645    1.8371   -1.1987 H   0  0  0  0  0  0  0  0  0  0  0  0
    0.4075   -0.0985    1.7169 C   0  0  0  0  0  0  0  0  0  0  0  0
    1.5860   -0.3526    1.9662 O   0  0  0  0  0  0  0  0  0  0  0  0
   -0.4625    0.2583    2.6666 N   0  0  0  0  0  0  0  0  0  0  0  0
   -1.4309    0.3754    2.3860 H   0  0  0  0  0  0  0  0  0  0  0  0
   -0.1275    0.4111    4.0813 C   0  0  0  0  0  0  0  0  0  0  0  0
    0.6862    1.1312    4.1910 H   0  0  0  0  0  0  0  0  0  0  0  0
   -0.9980    0.7641    4.6360 H   0  0  0  0  0  0  0  0  0  0  0  0
    0.1959   -0.5481    4.4891 H   0  0  0  0  0  0  0  0  0  0  0  0
  5  6  2  0  0  0  0
  5  7  1  0  0  0  0
  2  3  1  0  0  0  0
  2  4  1  0  0  0  0
  2  5  1  0  0  0  0
  1  2  1  0  0  0  0
 19 20  2  0  0  0  0
 19 21  1  0  0  0  0
 16 17  1  0  0  0  0
 16 18  1  0  0  0  0
 14 15  2  0  0  0  0
 14 16  1  0  0  0  0
 11 12  1  0  0  0  0
 11 13  1  0  0  0  0
 11 14  1  0  0  0  0
  9 10  1  0  0  0  0
  9 11  1  0  0  0  0
  9 19  1  0  0  0  0
  7  8  1  0  0  0  0
  7  9  1  0  0  0  0
 23 24  1  0  0  0  0
 23 25  1  0  0  0  0
 23 26  1  0  0  0  0
 21 22  1  0  0  0  0
 21 23  1  0  0  0  0
M  END
$$$$
default_name
  -OEChem-02102213163D

 26 25  0     1  0  0  0  0  0999 V2000
   -3.0232   -3.6924    1.0038 H   0  0  0  0  0  0  0  0  0  0  0  0
   -3.0082   -2.6684    0.6318 C   0  0  0  0  0  0  0  0  0  0  0  0
   -3.6332   -2.0414    1.2658 H   0  0  0  0  0  0  0  0  0  0  0  0
   -3.3762   -2.6444   -0.3912 H   0  0  0  0  0  0  0  0  0  0  0  0
   -1.5882   -2.1554    0.6658 C   0  0  0  0  0  0  0  0  0  0  0  0
   -0.6832   -2.8764    1.0638 O   0  0  0  0  0  0  0  0  0  0  0  0
   -1.3952   -0.9084    0.2428 N   0  0  0  0  0  0  0  0  0  0  0  0
   -2.1972   -0.3644   -0.0422 H   0  0  0  0  0  0  0  0  0  0  0  0
   -0.1122   -0.1994    0.2658 C   0  0  1  0  0  0  0  0  0  0  0  0
    0.6131   -0.7748   -0.3153 H   0  0  0  0  0  0  0  0  0  0  0  0
   -0.2973    1.1841   -0.3966 C   0  0  0  0  0  0  0  0  0  0  0  0
   -0.0887    1.1007   -1.4626 H   0  0  0  0  0  0  0  0  0  0  0  0
   -1.3305    1.5055   -0.2741 H   0  0  0  0  0  0  0  0  0  0  0  0
    0.6267    2.2601    0.1505 C   0  0  0  0  0  0  0  0  0  0  0  0
    0.4599    2.7888    1.2358 O   0  0  0  0  0  0  0  0  0  0  0  0
    1.6397    2.6327   -0.5935 N   0  0  0  0  0  0  0  0  0  0  0  0
    2.2430    3.3327   -0.1988 H   0  0  0  0  0  0  0  0  0  0  0  0
    1.8096    2.1999   -1.4816 H   0  0  0  0  0  0  0  0  0  0  0  0
    0.4075   -0.0985    1.7169 C   0  0  0  0  0  0  0  0  0  0  0  0
    1.5860   -0.3526    1.9662 O   0  0  0  0  0  0  0  0  0  0  0  0
   -0.4625    0.2583    2.6666 N   0  0  0  0  0  0  0  0  0  0  0  0
   -1.4309    0.3754    2.3860 H   0  0  0  0  0  0  0  0  0  0  0  0
   -0.1275    0.4111    4.0813 C   0  0  0  0  0  0  0  0  0  0  0  0
    0.6862    1.1312    4.1910 H   0  0  0  0  0  0  0  0  0  0  0  0
   -0.9980    0.7641    4.6360 H   0  0  0  0  0  0  0  0  0  0  0  0
    0.1959   -0.5481    4.4891 H   0  0  0  0  0  0  0  0  0  0  0  0
  5  6  2  0  0  0  0
  5  7  1  0  0  0  0
  2  3  1  0  0  0  0
  2  4  1  0  0  0  0
  2  5  1  0  0  0  0
  1  2  1  0  0  0  0
 19 20  2  0  0  0  0
 19 21  1  0  0  0  0
 16 17  1  0  0  0  0
 16 18  1  0  0  0  0
 14 15  2  0  0  0  0
 14 16  1  0  0  0  0
 11 12  1  0  0  0  0
 11 13  1  0  0  0  0
 11 14  1  0  0  0  0
  9 10  1  0  0  0  0
  9 11  1  0  0  0  0
  9 19  1  0  0  0  0
  7  8  1  0  0  0  0
  7  9  1  0  0  0  0
 23 24  1  0  0  0  0
 23 25  1  0  0  0  0
 23 26  1  0  0  0  0
 21 22  1  0  0  0  0
 21 23  1  0  0  0  0
M  END
$$$$
default_name
  -OEChem-02102213163D

 26 25  0     1  0  0  0  0  0999 V2000
   -3.0232   -3.6924    1.0038 H   0  0  0  0  0  0  0  0  0  0  0  0
   -3.0082   -2.6684    0.6318 C   0  0  0  0  0  0  0  0  0  0  0  0
   -3.6332   -2.0414    1.2658 H   0  0  0  0  0  0  0  0  0  0  0  0
   -3.3762   -2.6444   -0.3912 H   0  0  0  0  0  0  0  0  0  0  0  0
   -1.5882   -2.1554    0.6658 C   0  0  0  0  0  0  0  0  0  0  0  0
   -0.6832   -2.8764    1.0638 O   0  0  0  0  0  0  0  0  0  0  0  0
   -1.3952   -0.9084    0.2428 N   0  0  0  0  0  0  0  0  0  0  0  0
   -2.1972   -0.3644   -0.0422 H   0  0  0  0  0  0  0  0  0  0  0  0
   -0.1122   -0.1994    0.2658 C   0  0  1  0  0  0  0  0  0  0  0  0
    0.6131   -0.7748   -0.3153 H   0  0  0  0  0  0  0  0  0  0  0  0
   -0.2973    1.1841   -0.3966 C   0  0  0  0  0  0  0  0  0  0  0  0
   -0.0887    1.1007   -1.4626 H   0  0  0  0  0  0  0  0  0  0  0  0
   -1.3305    1.5055   -0.2741 H   0  0  0  0  0  0  0  0  0  0  0  0
    0.6267    2.2601    0.1505 C   0  0  0  0  0  0  0  0  0  0  0  0
    0.6289    2.6005    1.3207 O   0  0  0  0  0  0  0  0  0  0  0  0
    1.4468    2.8462   -0.6876 N   0  0  0  0  0  0  0  0  0  0  0  0
    2.0575    3.5406   -0.2945 H   0  0  0  0  0  0  0  0  0  0  0  0
    1.4777    2.5710   -1.6511 H   0  0  0  0  0  0  0  0  0  0  0  0
    0.4075   -0.0985    1.7169 C   0  0  0  0  0  0  0  0  0  0  0  0
    1.5860   -0.3526    1.9662 O   0  0  0  0  0  0  0  0  0  0  0  0
   -0.4625    0.2583    2.6666 N   0  0  0  0  0  0  0  0  0  0  0  0
   -1.4309    0.3754    2.3860 H   0  0  0  0  0  0  0  0  0  0  0  0
   -0.1275    0.4111    4.0813 C   0  0  0  0  0  0  0  0  0  0  0  0
    0.6862    1.1312    4.1910 H   0  0  0  0  0  0  0  0  0  0  0  0
   -0.9980    0.7641    4.6360 H   0  0  0  0  0  0  0  0  0  0  0  0
    0.1959   -0.5481    4.4891 H   0  0  0  0  0  0  0  0  0  0  0  0
  5  6  2  0  0  0  0
  5  7  1  0  0  0  0
  2  3  1  0  0  0  0
  2  4  1  0  0  0  0
  2  5  1  0  0  0  0
  1  2  1  0  0  0  0
 19 20  2  0  0  0  0
 19 21  1  0  0  0  0
 16 17  1  0  0  0  0
 16 18  1  0  0  0  0
 14 15  2  0  0  0  0
 14 16  1  0  0  0  0
 11 12  1  0  0  0  0
 11 13  1  0  0  0  0
 11 14  1  0  0  0  0
  9 10  1  0  0  0  0
  9 11  1  0  0  0  0
  9 19  1  0  0  0  0
  7  8  1  0  0  0  0
  7  9  1  0  0  0  0
 23 24  1  0  0  0  0
 23 25  1  0  0  0  0
 23 26  1  0  0  0  0
 21 22  1  0  0  0  0
 21 23  1  0  0  0  0
M  END
$$$$
default_name
  -OEChem-02102213163D

 26 25  0     1  0  0  0  0  0999 V2000
   -3.0232   -3.6924    1.0038 H   0  0  0  0  0  0  0  0  0  0  0  0
   -3.0082   -2.6684    0.6318 C   0  0  0  0  0  0  0  0  0  0  0  0
   -3.6332   -2.0414    1.2658 H   0  0  0  0  0  0  0  0  0  0  0  0
   -3.3762   -2.6444   -0.3912 H   0  0  0  0  0  0  0  0  0  0  0  0
   -1.5882   -2.1554    0.6658 C   0  0  0  0  0  0  0  0  0  0  0  0
   -0.6832   -2.8764    1.0638 O   0  0  0  0  0  0  0  0  0  0  0  0
   -1.3952   -0.9084    0.2428 N   0  0  0  0  0  0  0  0  0  0  0  0
   -2.1972   -0.3644   -0.0422 H   0  0  0  0  0  0  0  0  0  0  0  0
   -0.1122   -0.1994    0.2658 C   0  0  1  0  0  0  0  0  0  0  0  0
    0.6131   -0.7748   -0.3153 H   0  0  0  0  0  0  0  0  0  0  0  0
   -0.2973    1.1841   -0.3966 C   0  0  0  0  0  0  0  0  0  0  0  0
   -0.0887    1.1007   -1.4626 H   0  0  0  0  0  0  0  0  0  0  0  0
   -1.3305    1.5055   -0.2741 H   0  0  0  0  0  0  0  0  0  0  0  0
    0.6267    2.2601    0.1505 C   0  0  0  0  0  0  0  0  0  0  0  0
    0.8253    2.4210    1.3421 O   0  0  0  0  0  0  0  0  0  0  0  0
    1.2234    3.0492   -0.7095 N   0  0  0  0  0  0  0  0  0  0  0  0
    1.8414    3.7392   -0.3202 H   0  0  0  0  0  0  0  0  0  0  0  0
    1.0916    2.9253   -1.6956 H   0  0  0  0  0  0  0  0  0  0  0  0
    0.4075   -0.0985    1.7169 C   0  0  0  0  0  0  0  0  0  0  0  0
    1.5860   -0.3526    1.9662 O   0  0  0  0  0  0  0  0  0  0  0  0
   -0.4625    0.2583    2.6666 N   0  0  0  0  0  0  0  0  0  0  0  0
   -1.4309    0.3754    2.3860 H   0  0  0  0  0  0  0  0  0  0  0  0
   -0.1275    0.4111    4.0813 C   0  0  0  0  0  0  0  0  0  0  0  0
    0.6862    1.1312    4.1910 H   0  0  0  0  0  0  0  0  0  0  0  0
   -0.9980    0.7641    4.6360 H   0  0  0  0  0  0  0  0  0  0  0  0
    0.1959   -0.5481    4.4891 H   0  0  0  0  0  0  0  0  0  0  0  0
  5  6  2  0  0  0  0
  5  7  1  0  0  0  0
  2  3  1  0  0  0  0
  2  4  1  0  0  0  0
  2  5  1  0  0  0  0
  1  2  1  0  0  0  0
 19 20  2  0  0  0  0
 19 21  1  0  0  0  0
 16 17  1  0  0  0  0
 16 18  1  0  0  0  0
 14 15  2  0  0  0  0
 14 16  1  0  0  0  0
 11 12  1  0  0  0  0
 11 13  1  0  0  0  0
 11 14  1  0  0  0  0
  9 10  1  0  0  0  0
  9 11  1  0  0  0  0
  9 19  1  0  0  0  0
  7  8  1  0  0  0  0
  7  9  1  0  0  0  0
 23 24  1  0  0  0  0
 23 25  1  0  0  0  0
 23 26  1  0  0  0  0
 21 22  1  0  0  0  0
 21 23  1  0  0  0  0
M  END
$$$$
default_name
  -OEChem-02102213163D

 26 25  0     1  0  0  0  0  0999 V2000
   -3.0232   -3.6924    1.0038 H   0  0  0  0  0  0  0  0  0  0  0  0
   -3.0082   -2.6684    0.6318 C   0  0  0  0  0  0  0  0  0  0  0  0
   -3.6332   -2.0414    1.2658 H   0  0  0  0  0  0  0  0  0  0  0  0
   -3.3762   -2.6444   -0.3912 H   0  0  0  0  0  0  0  0  0  0  0  0
   -1.5882   -2.1554    0.6658 C   0  0  0  0  0  0  0  0  0  0  0  0
   -0.6832   -2.8764    1.0638 O   0  0  0  0  0  0  0  0  0  0  0  0
   -1.3952   -0.9084    0.2428 N   0  0  0  0  0  0  0  0  0  0  0  0
   -2.1972   -0.3644   -0.0422 H   0  0  0  0  0  0  0  0  0  0  0  0
   -0.1122   -0.1994    0.2658 C   0  0  1  0  0  0  0  0  0  0  0  0
    0.6131   -0.7748   -0.3153 H   0  0  0  0  0  0  0  0  0  0  0  0
   -0.2973    1.1841   -0.3966 C   0  0  0  0  0  0  0  0  0  0  0  0
   -0.0887    1.1007   -1.4626 H   0  0  0  0  0  0  0  0  0  0  0  0
   -1.3305    1.5055   -0.2741 H   0  0  0  0  0  0  0  0  0  0  0  0
    0.6267    2.2601    0.1505 C   0  0  0  0  0  0  0  0  0  0  0  0
    1.0356    2.2625    1.2986 O   0  0  0  0  0  0  0  0  0  0  0  0
    0.9847    3.2279   -0.6579 N   0  0  0  0  0  0  0  0  0  0  0  0
    1.6095    3.9150   -0.2742 H   0  0  0  0  0  0  0  0  0  0  0  0
    0.6774    3.2385   -1.6121 H   0  0  0  0  0  0  0  0  0  0  0  0
    0.4075   -0.0985    1.7169 C   0  0  0  0  0  0  0  0  0  0  0  0
    1.5860   -0.3526    1.9662 O   0  0  0  0  0  0  0  0  0  0  0  0
   -0.4625    0.2583    2.6666 N   0  0  0  0  0  0  0  0  0  0  0  0
   -1.4309    0.3754    2.3860 H   0  0  0  0  0  0  0  0  0  0  0  0
   -0.1275    0.4111    4.0813 C   0  0  0  0  0  0  0  0  0  0  0  0
    0.6862    1.1312    4.1910 H   0  0  0  0  0  0  0  0  0  0  0  0
   -0.9980    0.7641    4.6360 H   0  0  0  0  0  0  0  0  0  0  0  0
    0.1959   -0.5481    4.4891 H   0  0  0  0  0  0  0  0  0  0  0  0
  5  6  2  0  0  0  0
  5  7  1  0  0  0  0
  2  3  1  0  0  0  0
  2  4  1  0  0  0  0
  2  5  1  0  0  0  0
  1  2  1  0  0  0  0
 19 20  2  0  0  0  0
 19 21  1  0  0  0  0
 16 17  1  0  0  0  0
 16 18  1  0  0  0  0
 14 15  2  0  0  0  0
 14 16  1  0  0  0  0
 11 12  1  0  0  0  0
 11 13  1  0  0  0  0
 11 14  1  0  0  0  0
  9 10  1  0  0  0  0
  9 11  1  0  0  0  0
  9 19  1  0  0  0  0
  7  8  1  0  0  0  0
  7  9  1  0  0  0  0
 23 24  1  0  0  0  0
 23 25  1  0  0  0  0
 23 26  1  0  0  0  0
 21 22  1  0  0  0  0
 21 23  1  0  0  0  0
M  END
$$$$
default_name
  -OEChem-02102213163D

 26 25  0     1  0  0  0  0  0999 V2000
   -3.0232   -3.6924    1.0038 H   0  0  0  0  0  0  0  0  0  0  0  0
   -3.0082   -2.6684    0.6318 C   0  0  0  0  0  0  0  0  0  0  0  0
   -3.6332   -2.0414    1.2658 H   0  0  0  0  0  0  0  0  0  0  0  0
   -3.3762   -2.6444   -0.3912 H   0  0  0  0  0  0  0  0  0  0  0  0
   -1.5882   -2.1554    0.6658 C   0  0  0  0  0  0  0  0  0  0  0  0
   -0.6832   -2.8764    1.0638 O   0  0  0  0  0  0  0  0  0  0  0  0
   -1.3952   -0.9084    0.2428 N   0  0  0  0  0  0  0  0  0  0  0  0
   -2.1972   -0.3644   -0.0422 H   0  0  0  0  0  0  0  0  0  0  0  0
   -0.1122   -0.1994    0.2658 C   0  0  1  0  0  0  0  0  0  0  0  0
    0.6131   -0.7748   -0.3153 H   0  0  0  0  0  0  0  0  0  0  0  0
   -0.2973    1.1841   -0.3966 C   0  0  0  0  0  0  0  0  0  0  0  0
   -0.0887    1.1007   -1.4626 H   0  0  0  0  0  0  0  0  0  0  0  0
   -1.3305    1.5055   -0.2741 H   0  0  0  0  0  0  0  0  0  0  0  0
    0.6267    2.2601    0.1505 C   0  0  0  0  0  0  0  0  0  0  0  0
    1.2455    2.1359    1.1931 O   0  0  0  0  0  0  0  0  0  0  0  0
    0.7469    3.3702   -0.5362 N   0  0  0  0  0  0  0  0  0  0  0  0
    1.3776    4.0559   -0.1596 H   0  0  0  0  0  0  0  0  0  0  0  0
    0.2635    3.4893   -1.4063 H   0  0  0  0  0  0  0  0  0  0  0  0
    0.4075   -0.0985    1.7169 C   0  0  0  0  0  0  0  0  0  0  0  0
    1.5860   -0.3526    1.9662 O   0  0  0  0  0  0  0  0  0  0  0  0
   -0.4625    0.2583    2.6666 N   0  0  0  0  0  0  0  0  0  0  0  0
   -1.4309    0.3754    2.3860 H   0  0  0  0  0  0  0  0  0  0  0  0
   -0.1275    0.4111    4.0813 C   0  0  0  0  0  0  0  0  0  0  0  0
    0.6862    1.1312    4.1910 H   0  0  0  0  0  0  0  0  0  0  0  0
   -0.9980    0.7641    4.6360 H   0  0  0  0  0  0  0  0  0  0  0  0
    0.1959   -0.5481    4.4891 H   0  0  0  0  0  0  0  0  0  0  0  0
  5  6  2  0  0  0  0
  5  7  1  0  0  0  0
  2  3  1  0  0  0  0
  2  4  1  0  0  0  0
  2  5  1  0  0  0  0
  1  2  1  0  0  0  0
 19 20  2  0  0  0  0
 19 21  1  0  0  0  0
 16 17  1  0  0  0  0
 16 18  1  0  0  0  0
 14 15  2  0  0  0  0
 14 16  1  0  0  0  0
 11 12  1  0  0  0  0
 11 13  1  0  0  0  0
 11 14  1  0  0  0  0
  9 10  1  0  0  0  0
  9 11  1  0  0  0  0
  9 19  1  0  0  0  0
  7  8  1  0  0  0  0
  7  9  1  0  0  0  0
 23 24  1  0  0  0  0
 23 25  1  0  0  0  0
 23 26  1  0  0  0  0
 21 22  1  0  0  0  0
 21 23  1  0  0  0  0
M  END
$$$$
default_name
  -OEChem-02102213163D

 26 25  0     1  0  0  0  0  0999 V2000
   -3.0232   -3.6924    1.0038 H   0  0  0  0  0  0  0  0  0  0  0  0
   -3.0082   -2.6684    0.6318 C   0  0  0  0  0  0  0  0  0  0  0  0
   -3.6332   -2.0414    1.2658 H   0  0  0  0  0  0  0  0  0  0  0  0
   -3.3762   -2.6444   -0.3912 H   0  0  0  0  0  0  0  0  0  0  0  0
   -1.5882   -2.1554    0.6658 C   0  0  0  0  0  0  0  0  0  0  0  0
   -0.6832   -2.8764    1.0638 O   0  0  0  0  0  0  0  0  0  0  0  0
   -1.3952   -0.9084    0.2428 N   0  0  0  0  0  0  0  0  0  0  0  0
   -2.1972   -0.3644   -0.0422 H   0  0  0  0  0  0  0  0  0  0  0  0
   -0.1122   -0.1994    0.2658 C   0  0  1  0  0  0  0  0  0  0  0  0
    0.6131   -0.7748   -0.3153 H   0  0  0  0  0  0  0  0  0  0  0  0
   -0.2973    1.1841   -0.3966 C   0  0  0  0  0  0  0  0  0  0  0  0
   -0.0887    1.1007   -1.4626 H   0  0  0  0  0  0  0  0  0  0  0  0
   -1.3305    1.5055   -0.2741 H   0  0  0  0  0  0  0  0  0  0  0  0
    0.6267    2.2601    0.1505 C   0  0  0  0  0  0  0  0  0  0  0  0
    1.4407    2.0498    1.0328 O   0  0  0  0  0  0  0  0  0  0  0  0
    0.5263    3.4664   -0.3527 N   0  0  0  0  0  0  0  0  0  0  0  0
    1.1614    4.1524    0.0158 H   0  0  0  0  0  0  0  0  0  0  0  0
   -0.1220    3.6607   -1.0923 H   0  0  0  0  0  0  0  0  0  0  0  0
    0.4075   -0.0985    1.7169 C   0  0  0  0  0  0  0  0  0  0  0  0
    1.5860   -0.3526    1.9662 O   0  0  0  0  0  0  0  0  0  0  0  0
   -0.4625    0.2583    2.6666 N   0  0  0  0  0  0  0  0  0  0  0  0
   -1.4309    0.3754    2.3860 H   0  0  0  0  0  0  0  0  0  0  0  0
   -0.1275    0.4111    4.0813 C   0  0  0  0  0  0  0  0  0  0  0  0
    0.6862    1.1312    4.1910 H   0  0  0  0  0  0  0  0  0  0  0  0
   -0.9980    0.7641    4.6360 H   0  0  0  0  0  0  0  0  0  0  0  0
    0.1959   -0.5481    4.4891 H   0  0  0  0  0  0  0  0  0  0  0  0
  5  6  2  0  0  0  0
  5  7  1  0  0  0  0
  2  3  1  0  0  0  0
  2  4  1  0  0  0  0
  2  5  1  0  0  0  0
  1  2  1  0  0  0  0
 19 20  2  0  0  0  0
 19 21  1  0  0  0  0
 16 17  1  0  0  0  0
 16 18  1  0  0  0  0
 14 15  2  0  0  0  0
 14 16  1  0  0  0  0
 11 12  1  0  0  0  0
 11 13  1  0  0  0  0
 11 14  1  0  0  0  0
  9 10  1  0  0  0  0
  9 11  1  0  0  0  0
  9 19  1  0  0  0  0
  7  8  1  0  0  0  0
  7  9  1  0  0  0  0
 23 24  1  0  0  0  0
 23 25  1  0  0  0  0
 23 26  1  0  0  0  0
 21 22  1  0  0  0  0
 21 23  1  0  0  0  0
M  END
$$$$
default_name
  -OEChem-02102213163D

 26 25  0     1  0  0  0  0  0999 V2000
   -3.0232   -3.6924    1.0038 H   0  0  0  0  0  0  0  0  0  0  0  0
   -3.0082   -2.6684    0.6318 C   0  0  0  0  0  0  0  0  0  0  0  0
   -3.6332   -2.0414    1.2658 H   0  0  0  0  0  0  0  0  0  0  0  0
   -3.3762   -2.6444   -0.3912 H   0  0  0  0  0  0  0  0  0  0  0  0
   -1.5882   -2.1554    0.6658 C   0  0  0  0  0  0  0  0  0  0  0  0
   -0.6832   -2.8764    1.0638 O   0  0  0  0  0  0  0  0  0  0  0  0
   -1.3952   -0.9084    0.2428 N   0  0  0  0  0  0  0  0  0  0  0  0
   -2.1972   -0.3644   -0.0422 H   0  0  0  0  0  0  0  0  0  0  0  0
   -0.1122   -0.1994    0.2658 C   0  0  1  0  0  0  0  0  0  0  0  0
    0.6131   -0.7748   -0.3153 H   0  0  0  0  0  0  0  0  0  0  0  0
   -0.2973    1.1841   -0.3966 C   0  0  0  0  0  0  0  0  0  0  0  0
   -0.0887    1.1007   -1.4626 H   0  0  0  0  0  0  0  0  0  0  0  0
   -1.3305    1.5055   -0.2741 H   0  0  0  0  0  0  0  0  0  0  0  0
    0.6267    2.2601    0.1505 C   0  0  0  0  0  0  0  0  0  0  0  0
    1.6079    2.0100    0.8286 O   0  0  0  0  0  0  0  0  0  0  0  0
    0.3379    3.5099   -0.1198 N   0  0  0  0  0  0  0  0  0  0  0  0
    0.9757    4.1979    0.2399 H   0  0  0  0  0  0  0  0  0  0  0  0
   -0.4527    3.7409   -0.6913 H   0  0  0  0  0  0  0  0  0  0  0  0
    0.4075   -0.0985    1.7169 C   0  0  0  0  0  0  0  0  0  0  0  0
    1.5860   -0.3526    1.9662 O   0  0  0  0  0  0  0  0  0  0  0  0
   -0.4625    0.2583    2.6666 N   0  0  0  0  0  0  0  0  0  0  0  0
   -1.4309    0.3754    2.3860 H   0  0  0  0  0  0  0  0  0  0  0  0
   -0.1275    0.4111    4.0813 C   0  0  0  0  0  0  0  0  0  0  0  0
    0.6862    1.1312    4.1910 H   0  0  0  0  0  0  0  0  0  0  0  0
   -0.9980    0.7641    4.6360 H   0  0  0  0  0  0  0  0  0  0  0  0
    0.1959   -0.5481    4.4891 H   0  0  0  0  0  0  0  0  0  0  0  0
  5  6  2  0  0  0  0
  5  7  1  0  0  0  0
  2  3  1  0  0  0  0
  2  4  1  0  0  0  0
  2  5  1  0  0  0  0
  1  2  1  0  0  0  0
 19 20  2  0  0  0  0
 19 21  1  0  0  0  0
 16 17  1  0  0  0  0
 16 18  1  0  0  0  0
 14 15  2  0  0  0  0
 14 16  1  0  0  0  0
 11 12  1  0  0  0  0
 11 13  1  0  0  0  0
 11 14  1  0  0  0  0
  9 10  1  0  0  0  0
  9 11  1  0  0  0  0
  9 19  1  0  0  0  0
  7  8  1  0  0  0  0
  7  9  1  0  0  0  0
 23 24  1  0  0  0  0
 23 25  1  0  0  0  0
 23 26  1  0  0  0  0
 21 22  1  0  0  0  0
 21 23  1  0  0  0  0
M  END
$$$$
default_name
  -OEChem-02102213163D

 26 25  0     1  0  0  0  0  0999 V2000
   -3.0232   -3.6924    1.0038 H   0  0  0  0  0  0  0  0  0  0  0  0
   -3.0082   -2.6684    0.6318 C   0  0  0  0  0  0  0  0  0  0  0  0
   -3.6332   -2.0414    1.2658 H   0  0  0  0  0  0  0  0  0  0  0  0
   -3.3762   -2.6444   -0.3912 H   0  0  0  0  0  0  0  0  0  0  0  0
   -1.5882   -2.1554    0.6658 C   0  0  0  0  0  0  0  0  0  0  0  0
   -0.6832   -2.8764    1.0638 O   0  0  0  0  0  0  0  0  0  0  0  0
   -1.3952   -0.9084    0.2428 N   0  0  0  0  0  0  0  0  0  0  0  0
   -2.1972   -0.3644   -0.0422 H   0  0  0  0  0  0  0  0  0  0  0  0
   -0.1122   -0.1994    0.2658 C   0  0  1  0  0  0  0  0  0  0  0  0
    0.6131   -0.7748   -0.3153 H   0  0  0  0  0  0  0  0  0  0  0  0
   -0.2973    1.1841   -0.3966 C   0  0  0  0  0  0  0  0  0  0  0  0
   -0.0887    1.1007   -1.4626 H   0  0  0  0  0  0  0  0  0  0  0  0
   -1.3305    1.5055   -0.2741 H   0  0  0  0  0  0  0  0  0  0  0  0
    0.6267    2.2601    0.1505 C   0  0  0  0  0  0  0  0  0  0  0  0
    1.7358    2.0192    0.5946 O   0  0  0  0  0  0  0  0  0  0  0  0
    0.1945    3.4977    0.1464 N   0  0  0  0  0  0  0  0  0  0  0  0
    0.8332    4.1893    0.4976 H   0  0  0  0  0  0  0  0  0  0  0  0
   -0.7062    3.7244   -0.2308 H   0  0  0  0  0  0  0  0  0  0  0  0
    0.4075   -0.0985    1.7169 C   0  0  0  0  0  0  0  0  0  0  0  0
    1.5860   -0.3526    1.9662 O   0  0  0  0  0  0  0  0  0  0  0  0
   -0.4625    0.2583    2.6666 N   0  0  0  0  0  0  0  0  0  0  0  0
   -1.4309    0.3754    2.3860 H   0  0  0  0  0  0  0  0  0  0  0  0
   -0.1275    0.4111    4.0813 C   0  0  0  0  0  0  0  0  0  0  0  0
    0.6862    1.1312    4.1910 H   0  0  0  0  0  0  0  0  0  0  0  0
   -0.9980    0.7641    4.6360 H   0  0  0  0  0  0  0  0  0  0  0  0
    0.1959   -0.5481    4.4891 H   0  0  0  0  0  0  0  0  0  0  0  0
  5  6  2  0  0  0  0
  5  7  1  0  0  0  0
  2  3  1  0  0  0  0
  2  4  1  0  0  0  0
  2  5  1  0  0  0  0
  1  2  1  0  0  0  0
 19 20  2  0  0  0  0
 19 21  1  0  0  0  0
 16 17  1  0  0  0  0
 16 18  1  0  0  0  0
 14 15  2  0  0  0  0
 14 16  1  0  0  0  0
 11 12  1  0  0  0  0
 11 13  1  0  0  0  0
 11 14  1  0  0  0  0
  9 10  1  0  0  0  0
  9 11  1  0  0  0  0
  9 19  1  0  0  0  0
  7  8  1  0  0  0  0
  7  9  1  0  0  0  0
 23 24  1  0  0  0  0
 23 25  1  0  0  0  0
 23 26  1  0  0  0  0
 21 22  1  0  0  0  0
 21 23  1  0  0  0  0
M  END
$$$$
default_name
  -OEChem-02102213163D

 26 25  0     1  0  0  0  0  0999 V2000
   -3.0232   -3.6924    1.0038 H   0  0  0  0  0  0  0  0  0  0  0  0
   -3.0082   -2.6684    0.6318 C   0  0  0  0  0  0  0  0  0  0  0  0
   -3.6332   -2.0414    1.2658 H   0  0  0  0  0  0  0  0  0  0  0  0
   -3.3762   -2.6444   -0.3912 H   0  0  0  0  0  0  0  0  0  0  0  0
   -1.5882   -2.1554    0.6658 C   0  0  0  0  0  0  0  0  0  0  0  0
   -0.6832   -2.8764    1.0638 O   0  0  0  0  0  0  0  0  0  0  0  0
   -1.3952   -0.9084    0.2428 N   0  0  0  0  0  0  0  0  0  0  0  0
   -2.1972   -0.3644   -0.0422 H   0  0  0  0  0  0  0  0  0  0  0  0
   -0.1122   -0.1994    0.2658 C   0  0  1  0  0  0  0  0  0  0  0  0
    0.6131   -0.7748   -0.3153 H   0  0  0  0  0  0  0  0  0  0  0  0
   -0.2973    1.1841   -0.3966 C   0  0  0  0  0  0  0  0  0  0  0  0
   -0.0887    1.1007   -1.4626 H   0  0  0  0  0  0  0  0  0  0  0  0
   -1.3305    1.5055   -0.2741 H   0  0  0  0  0  0  0  0  0  0  0  0
    0.6267    2.2601    0.1505 C   0  0  0  0  0  0  0  0  0  0  0  0
    1.8155    2.0768    0.3465 O   0  0  0  0  0  0  0  0  0  0  0  0
    0.1059    3.4306    0.4279 N   0  0  0  0  0  0  0  0  0  0  0  0
    0.7435    4.1271    0.7713 H   0  0  0  0  0  0  0  0  0  0  0  0
   -0.8652    3.6125    0.2578 H   0  0  0  0  0  0  0  0  0  0  0  0
    0.4075   -0.0985    1.7169 C   0  0  0  0  0  0  0  0  0  0  0  0
    1.5860   -0.3526    1.9662 O   0  0  0  0  0  0  0  0  0  0  0  0
   -0.4625    0.2583    2.6666 N   0  0  0  0  0  0  0  0  0  0  0  0
   -1.4309    0.3754    2.3860 H   0  0  0  0  0  0  0  0  0  0  0  0
   -0.1275    0.4111    4.0813 C   0  0  0  0  0  0  0  0  0  0  0  0
    0.6862    1.1312    4.1910 H   0  0  0  0  0  0  0  0  0  0  0  0
   -0.9980    0.7641    4.6360 H   0  0  0  0  0  0  0  0  0  0  0  0
    0.1959   -0.5481    4.4891 H   0  0  0  0  0  0  0  0  0  0  0  0
  5  6  2  0  0  0  0
  5  7  1  0  0  0  0
  2  3  1  0  0  0  0
  2  4  1  0  0  0  0
  2  5  1  0  0  0  0
  1  2  1  0  0  0  0
 19 20  2  0  0  0  0
 19 21  1  0  0  0  0
 16 17  1  0  0  0  0
 16 18  1  0  0  0  0
 14 15  2  0  0  0  0
 14 16  1  0  0  0  0
 11 12  1  0  0  0  0
 11 13  1  0  0  0  0
 11 14  1  0  0  0  0
  9 10  1  0  0  0  0
  9 11  1  0  0  0  0
  9 19  1  0  0  0  0
  7  8  1  0  0  0  0
  7  9  1  0  0  0  0
 23 24  1  0  0  0  0
 23 25  1  0  0  0  0
 23 26  1  0  0  0  0
 21 22  1  0  0  0  0
 21 23  1  0  0  0  0
M  END
$$$$
default_name
  -OEChem-02102213163D

 26 25  0     1  0  0  0  0  0999 V2000
   -3.0232   -3.6924    1.0038 H   0  0  0  0  0  0  0  0  0  0  0  0
   -3.0082   -2.6684    0.6318 C   0  0  0  0  0  0  0  0  0  0  0  0
   -3.6332   -2.0414    1.2658 H   0  0  0  0  0  0  0  0  0  0  0  0
   -3.3762   -2.6444   -0.3912 H   0  0  0  0  0  0  0  0  0  0  0  0
   -1.5882   -2.1554    0.6658 C   0  0  0  0  0  0  0  0  0  0  0  0
   -0.6832   -2.8764    1.0638 O   0  0  0  0  0  0  0  0  0  0  0  0
   -1.3952   -0.9084    0.2428 N   0  0  0  0  0  0  0  0  0  0  0  0
   -2.1972   -0.3644   -0.0422 H   0  0  0  0  0  0  0  0  0  0  0  0
   -0.1122   -0.1994    0.2658 C   0  0  1  0  0  0  0  0  0  0  0  0
    0.6131   -0.7748   -0.3153 H   0  0  0  0  0  0  0  0  0  0  0  0
   -0.2973    1.1841   -0.3966 C   0  0  0  0  0  0  0  0  0  0  0  0
   -0.0887    1.1007   -1.4626 H   0  0  0  0  0  0  0  0  0  0  0  0
   -1.3305    1.5055   -0.2741 H   0  0  0  0  0  0  0  0  0  0  0  0
    0.6267    2.2601    0.1505 C   0  0  0  0  0  0  0  0  0  0  0  0
    1.8417    2.1790    0.1013 O   0  0  0  0  0  0  0  0  0  0  0  0
    0.0781    3.3133    0.7055 N   0  0  0  0  0  0  0  0  0  0  0  0
    0.7128    4.0157    1.0423 H   0  0  0  0  0  0  0  0  0  0  0  0
   -0.9189    3.4128    0.7413 H   0  0  0  0  0  0  0  0  0  0  0  0
    0.4075   -0.0985    1.7169 C   0  0  0  0  0  0  0  0  0  0  0  0
    1.5860   -0.3526    1.9662 O   0  0  0  0  0  0  0  0  0  0  0  0
   -0.4625    0.2583    2.6666 N   0  0  0  0  0  0  0  0  0  0  0  0
   -1.4309    0.3754    2.3860 H   0  0  0  0  0  0  0  0  0  0  0  0
   -0.1275    0.4111    4.0813 C   0  0  0  0  0  0  0  0  0  0  0  0
    0.6862    1.1312    4.1910 H   0  0  0  0  0  0  0  0  0  0  0  0
   -0.9980    0.7641    4.6360 H   0  0  0  0  0  0  0  0  0  0  0  0
    0.1959   -0.5481    4.4891 H   0  0  0  0  0  0  0  0  0  0  0  0
  5  6  2  0  0  0  0
  5  7  1  0  0  0  0
  2  3  1  0  0  0  0
  2  4  1  0  0  0  0
  2  5  1  0  0  0  0
  1  2  1  0  0  0  0
 19 20  2  0  0  0  0
 19 21  1  0  0  0  0
 16 17  1  0  0  0  0
 16 18  1  0  0  0  0
 14 15  2  0  0  0  0
 14 16  1  0  0  0  0
 11 12  1  0  0  0  0
 11 13  1  0  0  0  0
 11 14  1  0  0  0  0
  9 10  1  0  0  0  0
  9 11  1  0  0  0  0
  9 19  1  0  0  0  0
  7  8  1  0  0  0  0
  7  9  1  0  0  0  0
 23 24  1  0  0  0  0
 23 25  1  0  0  0  0
 23 26  1  0  0  0  0
 21 22  1  0  0  0  0
 21 23  1  0  0  0  0
M  END
$$$$
default_name
  -OEChem-02102213163D

 26 25  0     1  0  0  0  0  0999 V2000
   -3.0232   -3.6924    1.0038 H   0  0  0  0  0  0  0  0  0  0  0  0
   -3.0082   -2.6684    0.6318 C   0  0  0  0  0  0  0  0  0  0  0  0
   -3.6332   -2.0414    1.2658 H   0  0  0  0  0  0  0  0  0  0  0  0
   -3.3762   -2.6444   -0.3912 H   0  0  0  0  0  0  0  0  0  0  0  0
   -1.5882   -2.1554    0.6658 C   0  0  0  0  0  0  0  0  0  0  0  0
   -0.6832   -2.8764    1.0638 O   0  0  0  0  0  0  0  0  0  0  0  0
   -1.3952   -0.9084    0.2428 N   0  0  0  0  0  0  0  0  0  0  0  0
   -2.1972   -0.3644   -0.0422 H   0  0  0  0  0  0  0  0  0  0  0  0
   -0.1122   -0.1994    0.2658 C   0  0  1  0  0  0  0  0  0  0  0  0
    0.6131   -0.7748   -0.3153 H   0  0  0  0  0  0  0  0  0  0  0  0
   -0.2973    1.1841   -0.3966 C   0  0  0  0  0  0  0  0  0  0  0  0
   -0.0887    1.1007   -1.4626 H   0  0  0  0  0  0  0  0  0  0  0  0
   -1.3305    1.5055   -0.2741 H   0  0  0  0  0  0  0  0  0  0  0  0
    0.6267    2.2601    0.1505 C   0  0  0  0  0  0  0  0  0  0  0  0
    1.8126    2.3186   -0.1242 O   0  0  0  0  0  0  0  0  0  0  0  0
    0.1130    3.1538    0.9603 N   0  0  0  0  0  0  0  0  0  0  0  0
    0.7432    3.8626    1.2921 H   0  0  0  0  0  0  0  0  0  0  0  0
   -0.8635    3.1387    1.1868 H   0  0  0  0  0  0  0  0  0  0  0  0
    0.4075   -0.0985    1.7169 C   0  0  0  0  0  0  0  0  0  0  0  0
    1.5860   -0.3526    1.9662 O   0  0  0  0  0  0  0  0  0  0  0  0
   -0.4625    0.2583    2.6666 N   0  0  0  0  0  0  0  0  0  0  0  0
   -1.4309    0.3754    2.3860 H   0  0  0  0  0  0  0  0  0  0  0  0
   -0.1275    0.4111    4.0813 C   0  0  0  0  0  0  0  0  0  0  0  0
    0.6862    1.1312    4.1910 H   0  0  0  0  0  0  0  0  0  0  0  0
   -0.9980    0.7641    4.6360 H   0  0  0  0  0  0  0  0  0  0  0  0
    0.1959   -0.5481    4.4891 H   0  0  0  0  0  0  0  0  0  0  0  0
  5  6  2  0  0  0  0
  5  7  1  0  0  0  0
  2  3  1  0  0  0  0
  2  4  1  0  0  0  0
  2  5  1  0  0  0  0
  1  2  1  0  0  0  0
 19 20  2  0  0  0  0
 19 21  1  0  0  0  0
 16 17  1  0  0  0  0
 16 18  1  0  0  0  0
 14 15  2  0  0  0  0
 14 16  1  0  0  0  0
 11 12  1  0  0  0  0
 11 13  1  0  0  0  0
 11 14  1  0  0  0  0
  9 10  1  0  0  0  0
  9 11  1  0  0  0  0
  9 19  1  0  0  0  0
  7  8  1  0  0  0  0
  7  9  1  0  0  0  0
 23 24  1  0  0  0  0
 23 25  1  0  0  0  0
 23 26  1  0  0  0  0
 21 22  1  0  0  0  0
 21 23  1  0  0  0  0
M  END
$$$$
default_name
  -OEChem-02102213163D

 26 25  0     1  0  0  0  0  0999 V2000
   -3.0232   -3.6924    1.0038 H   0  0  0  0  0  0  0  0  0  0  0  0
   -3.0082   -2.6684    0.6318 C   0  0  0  0  0  0  0  0  0  0  0  0
   -3.6332   -2.0414    1.2658 H   0  0  0  0  0  0  0  0  0  0  0  0
   -3.3762   -2.6444   -0.3912 H   0  0  0  0  0  0  0  0  0  0  0  0
   -1.5882   -2.1554    0.6658 C   0  0  0  0  0  0  0  0  0  0  0  0
   -0.6832   -2.8764    1.0638 O   0  0  0  0  0  0  0  0  0  0  0  0
   -1.3952   -0.9084    0.2428 N   0  0  0  0  0  0  0  0  0  0  0  0
   -2.1972   -0.3644   -0.0422 H   0  0  0  0  0  0  0  0  0  0  0  0
   -0.1122   -0.1994    0.2658 C   0  0  1  0  0  0  0  0  0  0  0  0
    0.6131   -0.7748   -0.3153 H   0  0  0  0  0  0  0  0  0  0  0  0
   -0.2973    1.1841   -0.3966 C   0  0  0  0  0  0  0  0  0  0  0  0
   -0.0887    1.1007   -1.4626 H   0  0  0  0  0  0  0  0  0  0  0  0
   -1.3305    1.5055   -0.2741 H   0  0  0  0  0  0  0  0  0  0  0  0
    0.6267    2.2601    0.1505 C   0  0  0  0  0  0  0  0  0  0  0  0
    1.7302    2.4863   -0.3148 O   0  0  0  0  0  0  0  0  0  0  0  0
    0.2083    2.9628    1.1749 N   0  0  0  0  0  0  0  0  0  0  0  0
    0.8326    3.6782    1.5038 H   0  0  0  0  0  0  0  0  0  0  0  0
   -0.7028    2.8091    1.5638 H   0  0  0  0  0  0  0  0  0  0  0  0
    0.4075   -0.0985    1.7169 C   0  0  0  0  0  0  0  0  0  0  0  0
    1.5860   -0.3526    1.9662 O   0  0  0  0  0  0  0  0  0  0  0  0
   -0.4625    0.2583    2.6666 N   0  0  0  0  0  0  0  0  0  0  0  0
   -1.4309    0.3754    2.3860 H   0  0  0  0  0  0  0  0  0  0  0  0
   -0.1275    0.4111    4.0813 C   0  0  0  0  0  0  0  0  0  0  0  0
    0.6862    1.1312    4.1910 H   0  0  0  0  0  0  0  0  0  0  0  0
   -0.9980    0.7641    4.6360 H   0  0  0  0  0  0  0  0  0  0  0  0
    0.1959   -0.5481    4.4891 H   0  0  0  0  0  0  0  0  0  0  0  0
  5  6  2  0  0  0  0
  5  7  1  0  0  0  0
  2  3  1  0  0  0  0
  2  4  1  0  0  0  0
  2  5  1  0  0  0  0
  1  2  1  0  0  0  0
 19 20  2  0  0  0  0
 19 21  1  0  0  0  0
 16 17  1  0  0  0  0
 16 18  1  0  0  0  0
 14 15  2  0  0  0  0
 14 16  1  0  0  0  0
 11 12  1  0  0  0  0
 11 13  1  0  0  0  0
 11 14  1  0  0  0  0
  9 10  1  0  0  0  0
  9 11  1  0  0  0  0
  9 19  1  0  0  0  0
  7  8  1  0  0  0  0
  7  9  1  0  0  0  0
 23 24  1  0  0  0  0
 23 25  1  0  0  0  0
 23 26  1  0  0  0  0
 21 22  1  0  0  0  0
 21 23  1  0  0  0  0
M  END
$$$$
default_name
  -OEChem-02102213163D

 26 25  0     1  0  0  0  0  0999 V2000
   -3.0232   -3.6924    1.0038 H   0  0  0  0  0  0  0  0  0  0  0  0
   -3.0082   -2.6684    0.6318 C   0  0  0  0  0  0  0  0  0  0  0  0
   -3.6332   -2.0414    1.2658 H   0  0  0  0  0  0  0  0  0  0  0  0
   -3.3762   -2.6444   -0.3912 H   0  0  0  0  0  0  0  0  0  0  0  0
   -1.5882   -2.1554    0.6658 C   0  0  0  0  0  0  0  0  0  0  0  0
   -0.6832   -2.8764    1.0638 O   0  0  0  0  0  0  0  0  0  0  0  0
   -1.3952   -0.9084    0.2428 N   0  0  0  0  0  0  0  0  0  0  0  0
   -2.1972   -0.3644   -0.0422 H   0  0  0  0  0  0  0  0  0  0  0  0
   -0.1122   -0.1994    0.2658 C   0  0  1  0  0  0  0  0  0  0  0  0
    0.6131   -0.7748   -0.3153 H   0  0  0  0  0  0  0  0  0  0  0  0
   -0.2973    1.1841   -0.3966 C   0  0  0  0  0  0  0  0  0  0  0  0
   -0.0887    1.1007   -1.4626 H   0  0  0  0  0  0  0  0  0  0  0  0
   -1.3305    1.5055   -0.2741 H   0  0  0  0  0  0  0  0  0  0  0  0
    0.6267    2.2601    0.1505 C   0  0  0  0  0  0  0  0  0  0  0  0
    1.6000    2.6706   -0.4574 O   0  0  0  0  0  0  0  0  0  0  0  0
    0.3575    2.7535    1.3347 N   0  0  0  0  0  0  0  0  0  0  0  0
    0.9749    3.4751    1.6629 H   0  0  0  0  0  0  0  0  0  0  0  0
   -0.4479    2.4464    1.8466 H   0  0  0  0  0  0  0  0  0  0  0  0
    0.4075   -0.0985    1.7169 C   0  0  0  0  0  0  0  0  0  0  0  0
    1.5860   -0.3526    1.9662 O   0  0  0  0  0  0  0  0  0  0  0  0
   -0.4625    0.2583    2.6666 N   0  0  0  0  0  0  0  0  0  0  0  0
   -1.4309    0.3754    2.3860 H   0  0  0  0  0  0  0  0  0  0  0  0
   -0.1275    0.4111    4.0813 C   0  0  0  0  0  0  0  0  0  0  0  0
    0.6862    1.1312    4.1910 H   0  0  0  0  0  0  0  0  0  0  0  0
   -0.9980    0.7641    4.6360 H   0  0  0  0  0  0  0  0  0  0  0  0
    0.1959   -0.5481    4.4891 H   0  0  0  0  0  0  0  0  0  0  0  0
  5  6  2  0  0  0  0
  5  7  1  0  0  0  0
  2  3  1  0  0  0  0
  2  4  1  0  0  0  0
  2  5  1  0  0  0  0
  1  2  1  0  0  0  0
 19 20  2  0  0  0  0
 19 21  1  0  0  0  0
 16 17  1  0  0  0  0
 16 18  1  0  0  0  0
 14 15  2  0  0  0  0
 14 16  1  0  0  0  0
 11 12  1  0  0  0  0
 11 13  1  0  0  0  0
 11 14  1  0  0  0  0
  9 10  1  0  0  0  0
  9 11  1  0  0  0  0
  9 19  1  0  0  0  0
  7  8  1  0  0  0  0
  7  9  1  0  0  0  0
 23 24  1  0  0  0  0
 23 25  1  0  0  0  0
 23 26  1  0  0  0  0
 21 22  1  0  0  0  0
 21 23  1  0  0  0  0
M  END
$$$$
default_name
  -OEChem-02102213163D

 26 25  0     1  0  0  0  0  0999 V2000
   -3.0232   -3.6924    1.0038 H   0  0  0  0  0  0  0  0  0  0  0  0
   -3.0082   -2.6684    0.6318 C   0  0  0  0  0  0  0  0  0  0  0  0
   -3.6332   -2.0414    1.2658 H   0  0  0  0  0  0  0  0  0  0  0  0
   -3.3762   -2.6444   -0.3912 H   0  0  0  0  0  0  0  0  0  0  0  0
   -1.5882   -2.1554    0.6658 C   0  0  0  0  0  0  0  0  0  0  0  0
   -0.6832   -2.8764    1.0638 O   0  0  0  0  0  0  0  0  0  0  0  0
   -1.3952   -0.9084    0.2428 N   0  0  0  0  0  0  0  0  0  0  0  0
   -2.1972   -0.3644   -0.0422 H   0  0  0  0  0  0  0  0  0  0  0  0
   -0.1122   -0.1994    0.2658 C   0  0  1  0  0  0  0  0  0  0  0  0
    0.6131   -0.7748   -0.3153 H   0  0  0  0  0  0  0  0  0  0  0  0
   -0.2973    1.1841   -0.3966 C   0  0  0  0  0  0  0  0  0  0  0  0
   -0.0887    1.1007   -1.4626 H   0  0  0  0  0  0  0  0  0  0  0  0
   -1.3305    1.5055   -0.2741 H   0  0  0  0  0  0  0  0  0  0  0  0
    0.6267    2.2601    0.1505 C   0  0  0  0  0  0  0  0  0  0  0  0
    1.4310    2.8589   -0.5422 O   0  0  0  0  0  0  0  0  0  0  0  0
    0.5503    2.5401    1.4288 N   0  0  0  0  0  0  0  0  0  0  0  0
    1.1604    3.2672    1.7585 H   0  0  0  0  0  0  0  0  0  0  0  0
   -0.1161    2.0752    2.0161 H   0  0  0  0  0  0  0  0  0  0  0  0
    0.4075   -0.0985    1.7169 C   0  0  0  0  0  0  0  0  0  0  0  0
    1.5860   -0.3526    1.9662 O   0  0  0  0  0  0  0  0  0  0  0  0
   -0.4625    0.2583    2.6666 N   0  0  0  0  0  0  0  0  0  0  0  0
   -1.4309    0.3754    2.3860 H   0  0  0  0  0  0  0  0  0  0  0  0
   -0.1275    0.4111    4.0813 C   0  0  0  0  0  0  0  0  0  0  0  0
    0.6862    1.1312    4.1910 H   0  0  0  0  0  0  0  0  0  0  0  0
   -0.9980    0.7641    4.6360 H   0  0  0  0  0  0  0  0  0  0  0  0
    0.1959   -0.5481    4.4891 H   0  0  0  0  0  0  0  0  0  0  0  0
  5  6  2  0  0  0  0
  5  7  1  0  0  0  0
  2  3  1  0  0  0  0
  2  4  1  0  0  0  0
  2  5  1  0  0  0  0
  1  2  1  0  0  0  0
 19 20  2  0  0  0  0
 19 21  1  0  0  0  0
 16 17  1  0  0  0  0
 16 18  1  0  0  0  0
 14 15  2  0  0  0  0
 14 16  1  0  0  0  0
 11 12  1  0  0  0  0
 11 13  1  0  0  0  0
 11 14  1  0  0  0  0
  9 10  1  0  0  0  0
  9 11  1  0  0  0  0
  9 19  1  0  0  0  0
  7  8  1  0  0  0  0
  7  9  1  0  0  0  0
 23 24  1  0  0  0  0
 23 25  1  0  0  0  0
 23 26  1  0  0  0  0
 21 22  1  0  0  0  0
 21 23  1  0  0  0  0
M  END
$$$$
default_name
  -OEChem-02102213163D

 26 25  0     1  0  0  0  0  0999 V2000
   -3.0232   -3.6924    1.0038 H   0  0  0  0  0  0  0  0  0  0  0  0
   -3.0082   -2.6684    0.6318 C   0  0  0  0  0  0  0  0  0  0  0  0
   -3.6332   -2.0414    1.2658 H   0  0  0  0  0  0  0  0  0  0  0  0
   -3.3762   -2.6444   -0.3912 H   0  0  0  0  0  0  0  0  0  0  0  0
   -1.5882   -2.1554    0.6658 C   0  0  0  0  0  0  0  0  0  0  0  0
   -0.6832   -2.8764    1.0638 O   0  0  0  0  0  0  0  0  0  0  0  0
   -1.3952   -0.9084    0.2428 N   0  0  0  0  0  0  0  0  0  0  0  0
   -2.1972   -0.3644   -0.0422 H   0  0  0  0  0  0  0  0  0  0  0  0
   -0.1122   -0.1994    0.2658 C   0  0  1  0  0  0  0  0  0  0  0  0
    0.6131   -0.7748   -0.3153 H   0  0  0  0  0  0  0  0  0  0  0  0
   -0.2973    1.1841   -0.3966 C   0  0  0  0  0  0  0  0  0  0  0  0
   -0.0887    1.1007   -1.4626 H   0  0  0  0  0  0  0  0  0  0  0  0
   -1.3305    1.5055   -0.2741 H   0  0  0  0  0  0  0  0  0  0  0  0
    0.6267    2.2601    0.1505 C   0  0  0  0  0  0  0  0  0  0  0  0
    1.2347    3.0384   -0.5636 O   0  0  0  0  0  0  0  0  0  0  0  0
    0.7737    2.3370    1.4508 N   0  0  0  0  0  0  0  0  0  0  0  0
    1.3765    3.0686    1.7842 H   0  0  0  0  0  0  0  0  0  0  0  0
    0.2701    1.7210    2.0606 H   0  0  0  0  0  0  0  0  0  0  0  0
    0.4075   -0.0985    1.7169 C   0  0  0  0  0  0  0  0  0  0  0  0
    1.5860   -0.3526    1.9662 O   0  0  0  0  0  0  0  0  0  0  0  0
   -0.4625    0.2583    2.6666 N   0  0  0  0  0  0  0  0  0  0  0  0
   -1.4309    0.3754    2.3860 H   0  0  0  0  0  0  0  0  0  0  0  0
   -0.1275    0.4111    4.0813 C   0  0  0  0  0  0  0  0  0  0  0  0
    0.6862    1.1312    4.1910 H   0  0  0  0  0  0  0  0  0  0  0  0
   -0.9980    0.7641    4.6360 H   0  0  0  0  0  0  0  0  0  0  0  0
    0.1959   -0.5481    4.4891 H   0  0  0  0  0  0  0  0  0  0  0  0
  5  6  2  0  0  0  0
  5  7  1  0  0  0  0
  2  3  1  0  0  0  0
  2  4  1  0  0  0  0
  2  5  1  0  0  0  0
  1  2  1  0  0  0  0
 19 20  2  0  0  0  0
 19 21  1  0  0  0  0
 16 17  1  0  0  0  0
 16 18  1  0  0  0  0
 14 15  2  0  0  0  0
 14 16  1  0  0  0  0
 11 12  1  0  0  0  0
 11 13  1  0  0  0  0
 11 14  1  0  0  0  0
  9 10  1  0  0  0  0
  9 11  1  0  0  0  0
  9 19  1  0  0  0  0
  7  8  1  0  0  0  0
  7  9  1  0  0  0  0
 23 24  1  0  0  0  0
 23 25  1  0  0  0  0
 23 26  1  0  0  0  0
 21 22  1  0  0  0  0
 21 23  1  0  0  0  0
M  END
$$$$
default_name
  -OEChem-02102213163D

 26 25  0     1  0  0  0  0  0999 V2000
   -3.0232   -3.6924    1.0038 H   0  0  0  0  0  0  0  0  0  0  0  0
   -3.0082   -2.6684    0.6318 C   0  0  0  0  0  0  0  0  0  0  0  0
   -3.6332   -2.0414    1.2658 H   0  0  0  0  0  0  0  0  0  0  0  0
   -3.3762   -2.6444   -0.3912 H   0  0  0  0  0  0  0  0  0  0  0  0
   -1.5882   -2.1554    0.6658 C   0  0  0  0  0  0  0  0  0  0  0  0
   -0.6832   -2.8764    1.0638 O   0  0  0  0  0  0  0  0  0  0  0  0
   -1.3952   -0.9084    0.2428 N   0  0  0  0  0  0  0  0  0  0  0  0
   -2.1972   -0.3644   -0.0422 H   0  0  0  0  0  0  0  0  0  0  0  0
   -0.1122   -0.1994    0.2658 C   0  0  1  0  0  0  0  0  0  0  0  0
    0.6131   -0.7748   -0.3153 H   0  0  0  0  0  0  0  0  0  0  0  0
   -0.2973    1.1841   -0.3966 C   0  0  0  0  0  0  0  0  0  0  0  0
   -0.0887    1.1007   -1.4626 H   0  0  0  0  0  0  0  0  0  0  0  0
   -1.3305    1.5055   -0.2741 H   0  0  0  0  0  0  0  0  0  0  0  0
    0.6267    2.2601    0.1505 C   0  0  0  0  0  0  0  0  0  0  0  0
    1.0244    3.1968   -0.5201 O   0  0  0  0  0  0  0  0  0  0  0  0
    1.0124    2.1583    1.3992 N   0  0  0  0  0  0  0  0  0  0  0  0
    1.6084    2.8928    1.7382 H   0  0  0  0  0  0  0  0  0  0  0  0
    0.6842    1.4078    1.9771 H   0  0  0  0  0  0  0  0  0  0  0  0
    0.4075   -0.0985    1.7169 C   0  0  0  0  0  0  0  0  0  0  0  0
    1.5860   -0.3526    1.9662 O   0  0  0  0  0  0  0  0  0  0  0  0
   -0.4625    0.2583    2.6666 N   0  0  0  0  0  0  0  0  0  0  0  0
   -1.4309    0.3754    2.3860 H   0  0  0  0  0  0  0  0  0  0  0  0
   -0.1275    0.4111    4.0813 C   0  0  0  0  0  0  0  0  0  0  0  0
    0.6862    1.1312    4.1910 H   0  0  0  0  0  0  0  0  0  0  0  0
   -0.9980    0.7641    4.6360 H   0  0  0  0  0  0  0  0  0  0  0  0
    0.1959   -0.5481    4.4891 H   0  0  0  0  0  0  0  0  0  0  0  0
  5  6  2  0  0  0  0
  5  7  1  0  0  0  0
  2  3  1  0  0  0  0
  2  4  1  0  0  0  0
  2  5  1  0  0  0  0
  1  2  1  0  0  0  0
 19 20  2  0  0  0  0
 19 21  1  0  0  0  0
 16 17  1  0  0  0  0
 16 18  1  0  0  0  0
 14 15  2  0  0  0  0
 14 16  1  0  0  0  0
 11 12  1  0  0  0  0
 11 13  1  0  0  0  0
 11 14  1  0  0  0  0
  9 10  1  0  0  0  0
  9 11  1  0  0  0  0
  9 19  1  0  0  0  0
  7  8  1  0  0  0  0
  7  9  1  0  0  0  0
 23 24  1  0  0  0  0
 23 25  1  0  0  0  0
 23 26  1  0  0  0  0
 21 22  1  0  0  0  0
 21 23  1  0  0  0  0
M  END
$$$$
default_name
  -OEChem-02102213163D

 26 25  0     1  0  0  0  0  0999 V2000
   -3.0232   -3.6924    1.0038 H   0  0  0  0  0  0  0  0  0  0  0  0
   -3.0082   -2.6684    0.6318 C   0  0  0  0  0  0  0  0  0  0  0  0
   -3.6332   -2.0414    1.2658 H   0  0  0  0  0  0  0  0  0  0  0  0
   -3.3762   -2.6444   -0.3912 H   0  0  0  0  0  0  0  0  0  0  0  0
   -1.5882   -2.1554    0.6658 C   0  0  0  0  0  0  0  0  0  0  0  0
   -0.6832   -2.8764    1.0638 O   0  0  0  0  0  0  0  0  0  0  0  0
   -1.3952   -0.9084    0.2428 N   0  0  0  0  0  0  0  0  0  0  0  0
   -2.1972   -0.3644   -0.0422 H   0  0  0  0  0  0  0  0  0  0  0  0
   -0.1122   -0.1994    0.2658 C   0  0  1  0  0  0  0  0  0  0  0  0
    0.6131   -0.7748   -0.3153 H   0  0  0  0  0  0  0  0  0  0  0  0
   -0.2973    1.1841   -0.3966 C   0  0  0  0  0  0  0  0  0  0  0  0
   -0.0887    1.1007   -1.4626 H   0  0  0  0  0  0  0  0  0  0  0  0
   -1.3305    1.5055   -0.2741 H   0  0  0  0  0  0  0  0  0  0  0  0
    0.6267    2.2601    0.1505 C   0  0  0  0  0  0  0  0  0  0  0  0
    0.8145    3.3235   -0.4146 O   0  0  0  0  0  0  0  0  0  0  0  0
    1.2502    2.0160    1.2775 N   0  0  0  0  0  0  0  0  0  0  0  0
    1.8403    2.7519    1.6236 H   0  0  0  0  0  0  0  0  0  0  0  0
    1.0981    1.1569    1.7714 H   0  0  0  0  0  0  0  0  0  0  0  0
    0.4075   -0.0985    1.7169 C   0  0  0  0  0  0  0  0  0  0  0  0
    1.5860   -0.3526    1.9662 O   0  0  0  0  0  0  0  0  0  0  0  0
   -0.4625    0.2583    2.6666 N   0  0  0  0  0  0  0  0  0  0  0  0
   -1.4309    0.3754    2.3860 H   0  0  0  0  0  0  0  0  0  0  0  0
   -0.1275    0.4111    4.0813 C   0  0  0  0  0  0  0  0  0  0  0  0
    0.6862    1.1312    4.1910 H   0  0  0  0  0  0  0  0  0  0  0  0
   -0.9980    0.7641    4.6360 H   0  0  0  0  0  0  0  0  0  0  0  0
    0.1959   -0.5481    4.4891 H   0  0  0  0  0  0  0  0  0  0  0  0
  5  6  2  0  0  0  0
  5  7  1  0  0  0  0
  2  3  1  0  0  0  0
  2  4  1  0  0  0  0
  2  5  1  0  0  0  0
  1  2  1  0  0  0  0
 19 20  2  0  0  0  0
 19 21  1  0  0  0  0
 16 17  1  0  0  0  0
 16 18  1  0  0  0  0
 14 15  2  0  0  0  0
 14 16  1  0  0  0  0
 11 12  1  0  0  0  0
 11 13  1  0  0  0  0
 11 14  1  0  0  0  0
  9 10  1  0  0  0  0
  9 11  1  0  0  0  0
  9 19  1  0  0  0  0
  7  8  1  0  0  0  0
  7  9  1  0  0  0  0
 23 24  1  0  0  0  0
 23 25  1  0  0  0  0
 23 26  1  0  0  0  0
 21 22  1  0  0  0  0
 21 23  1  0  0  0  0
M  END
$$$$
default_name
  -OEChem-02102213163D

 26 25  0     1  0  0  0  0  0999 V2000
   -3.0232   -3.6924    1.0038 H   0  0  0  0  0  0  0  0  0  0  0  0
   -3.0082   -2.6684    0.6318 C   0  0  0  0  0  0  0  0  0  0  0  0
   -3.6332   -2.0414    1.2658 H   0  0  0  0  0  0  0  0  0  0  0  0
   -3.3762   -2.6444   -0.3912 H   0  0  0  0  0  0  0  0  0  0  0  0
   -1.5882   -2.1554    0.6658 C   0  0  0  0  0  0  0  0  0  0  0  0
   -0.6832   -2.8764    1.0638 O   0  0  0  0  0  0  0  0  0  0  0  0
   -1.3952   -0.9084    0.2428 N   0  0  0  0  0  0  0  0  0  0  0  0
   -2.1972   -0.3644   -0.0422 H   0  0  0  0  0  0  0  0  0  0  0  0
   -0.1122   -0.1994    0.2658 C   0  0  1  0  0  0  0  0  0  0  0  0
    0.6131   -0.7748   -0.3153 H   0  0  0  0  0  0  0  0  0  0  0  0
   -0.2973    1.1841   -0.3966 C   0  0  0  0  0  0  0  0  0  0  0  0
   -0.3535    1.0583   -1.4773 H   0  0  0  0  0  0  0  0  0  0  0  0
   -1.2327    1.6240   -0.0540 H   0  0  0  0  0  0  0  0  0  0  0  0
    0.8389    2.1568   -0.1247 C   0  0  0  0  0  0  0  0  0  0  0  0
    0.8605    3.2921   -0.5672 O   0  0  0  0  0  0  0  0  0  0  0  0
    1.8384    1.7389    0.6134 N   0  0  0  0  0  0  0  0  0  0  0  0
    2.5661    2.4087    0.7907 H   0  0  0  0  0  0  0  0  0  0  0  0
    1.8354    0.8160    1.0049 H   0  0  0  0  0  0  0  0  0  0  0  0
    0.4075   -0.0985    1.7169 C   0  0  0  0  0  0  0  0  0  0  0  0
    1.5860   -0.3526    1.9662 O   0  0  0  0  0  0  0  0  0  0  0  0
   -0.4625    0.2583    2.6666 N   0  0  0  0  0  0  0  0  0  0  0  0
   -1.4309    0.3754    2.3860 H   0  0  0  0  0  0  0  0  0  0  0  0
   -0.1275    0.4111    4.0813 C   0  0  0  0  0  0  0  0  0  0  0  0
    0.6862    1.1312    4.1910 H   0  0  0  0  0  0  0  0  0  0  0  0
   -0.9980    0.7641    4.6360 H   0  0  0  0  0  0  0  0  0  0  0  0
    0.1959   -0.5481    4.4891 H   0  0  0  0  0  0  0  0  0  0  0  0
  5  6  2  0  0  0  0
  5  7  1  0  0  0  0
  2  3  1  0  0  0  0
  2  4  1  0  0  0  0
  2  5  1  0  0  0  0
  1  2  1  0  0  0  0
 19 20  2  0  0  0  0
 19 21  1  0  0  0  0
 16 17  1  0  0  0  0
 16 18  1  0  0  0  0
 14 15  2  0  0  0  0
 14 16  1  0  0  0  0
 11 12  1  0  0  0  0
 11 13  1  0  0  0  0
 11 14  1  0  0  0  0
  9 10  1  0  0  0  0
  9 11  1  0  0  0  0
  9 19  1  0  0  0  0
  7  8  1  0  0  0  0
  7  9  1  0  0  0  0
 23 24  1  0  0  0  0
 23 25  1  0  0  0  0
 23 26  1  0  0  0  0
 21 22  1  0  0  0  0
 21 23  1  0  0  0  0
M  END
$$$$
default_name
  -OEChem-02102213163D

 26 25  0     1  0  0  0  0  0999 V2000
   -3.0232   -3.6924    1.0038 H   0  0  0  0  0  0  0  0  0  0  0  0
   -3.0082   -2.6684    0.6318 C   0  0  0  0  0  0  0  0  0  0  0  0
   -3.6332   -2.0414    1.2658 H   0  0  0  0  0  0  0  0  0  0  0  0
   -3.3762   -2.6444   -0.3912 H   0  0  0  0  0  0  0  0  0  0  0  0
   -1.5882   -2.1554    0.6658 C   0  0  0  0  0  0  0  0  0  0  0  0
   -0.6832   -2.8764    1.0638 O   0  0  0  0  0  0  0  0  0  0  0  0
   -1.3952   -0.9084    0.2428 N   0  0  0  0  0  0  0  0  0  0  0  0
   -2.1972   -0.3644   -0.0422 H   0  0  0  0  0  0  0  0  0  0  0  0
   -0.1122   -0.1994    0.2658 C   0  0  1  0  0  0  0  0  0  0  0  0
    0.6131   -0.7748   -0.3153 H   0  0  0  0  0  0  0  0  0  0  0  0
   -0.2973    1.1841   -0.3966 C   0  0  0  0  0  0  0  0  0  0  0  0
   -0.3535    1.0583   -1.4773 H   0  0  0  0  0  0  0  0  0  0  0  0
   -1.2327    1.6240   -0.0540 H   0  0  0  0  0  0  0  0  0  0  0  0
    0.8389    2.1568   -0.1247 C   0  0  0  0  0  0  0  0  0  0  0  0
    0.7508    3.3545   -0.3321 O   0  0  0  0  0  0  0  0  0  0  0  0
    1.9615    1.6700    0.3456 N   0  0  0  0  0  0  0  0  0  0  0  0
    2.6884    2.3383    0.5321 H   0  0  0  0  0  0  0  0  0  0  0  0
    2.0528    0.6913    0.5425 H   0  0  0  0  0  0  0  0  0  0  0  0
    0.4075   -0.0985    1.7169 C   0  0  0  0  0  0  0  0  0  0  0  0
    1.5860   -0.3526    1.9662 O   0  0  0  0  0  0  0  0  0  0  0  0
   -0.4625    0.2583    2.6666 N   0  0  0  0  0  0  0  0  0  0  0  0
   -1.4309    0.3754    2.3860 H   0  0  0  0  0  0  0  0  0  0  0  0
   -0.1275    0.4111    4.0813 C   0  0  0  0  0  0  0  0  0  0  0  0
    0.6862    1.1312    4.1910 H   0  0  0  0  0  0  0  0  0  0  0  0
   -0.9980    0.7641    4.6360 H   0  0  0  0  0  0  0  0  0  0  0  0
    0.1959   -0.5481    4.4891 H   0  0  0  0  0  0  0  0  0  0  0  0
  5  6  2  0  0  0  0
  5  7  1  0  0  0  0
  2  3  1  0  0  0  0
  2  4  1  0  0  0  0
  2  5  1  0  0  0  0
  1  2  1  0  0  0  0
 19 20  2  0  0  0  0
 19 21  1  0  0  0  0
 16 17  1  0  0  0  0
 16 18  1  0  0  0  0
 14 15  2  0  0  0  0
 14 16  1  0  0  0  0
 11 12  1  0  0  0  0
 11 13  1  0  0  0  0
 11 14  1  0  0  0  0
  9 10  1  0  0  0  0
  9 11  1  0  0  0  0
  9 19  1  0  0  0  0
  7  8  1  0  0  0  0
  7  9  1  0  0  0  0
 23 24  1  0  0  0  0
 23 25  1  0  0  0  0
 23 26  1  0  0  0  0
 21 22  1  0  0  0  0
 21 23  1  0  0  0  0
M  END
$$$$
default_name
  -OEChem-02102213163D

 26 25  0     1  0  0  0  0  0999 V2000
   -3.0232   -3.6924    1.0038 H   0  0  0  0  0  0  0  0  0  0  0  0
   -3.0082   -2.6684    0.6318 C   0  0  0  0  0  0  0  0  0  0  0  0
   -3.6332   -2.0414    1.2658 H   0  0  0  0  0  0  0  0  0  0  0  0
   -3.3762   -2.6444   -0.3912 H   0  0  0  0  0  0  0  0  0  0  0  0
   -1.5882   -2.1554    0.6658 C   0  0  0  0  0  0  0  0  0  0  0  0
   -0.6832   -2.8764    1.0638 O   0  0  0  0  0  0  0  0  0  0  0  0
   -1.3952   -0.9084    0.2428 N   0  0  0  0  0  0  0  0  0  0  0  0
   -2.1972   -0.3644   -0.0422 H   0  0  0  0  0  0  0  0  0  0  0  0
   -0.1122   -0.1994    0.2658 C   0  0  1  0  0  0  0  0  0  0  0  0
    0.6131   -0.7748   -0.3153 H   0  0  0  0  0  0  0  0  0  0  0  0
   -0.2973    1.1841   -0.3966 C   0  0  0  0  0  0  0  0  0  0  0  0
   -0.3535    1.0583   -1.4773 H   0  0  0  0  0  0  0  0  0  0  0  0
   -1.2327    1.6240   -0.0540 H   0  0  0  0  0  0  0  0  0  0  0  0
    0.8389    2.1568   -0.1247 C   0  0  0  0  0  0  0  0  0  0  0  0
    0.6809    3.3641   -0.0747 O   0  0  0  0  0  0  0  0  0  0  0  0
    2.0392    1.6609    0.0532 N   0  0  0  0  0  0  0  0  0  0  0  0
    2.7669    2.3259    0.2484 H   0  0  0  0  0  0  0  0  0  0  0  0
    2.1921    0.6703    0.0358 H   0  0  0  0  0  0  0  0  0  0  0  0
    0.4075   -0.0985    1.7169 C   0  0  0  0  0  0  0  0  0  0  0  0
    1.5860   -0.3526    1.9662 O   0  0  0  0  0  0  0  0  0  0  0  0
   -0.4625    0.2583    2.6666 N   0  0  0  0  0  0  0  0  0  0  0  0
   -1.4309    0.3754    2.3860 H   0  0  0  0  0  0  0  0  0  0  0  0
   -0.1275    0.4111    4.0813 C   0  0  0  0  0  0  0  0  0  0  0  0
    0.6862    1.1312    4.1910 H   0  0  0  0  0  0  0  0  0  0  0  0
   -0.9980    0.7641    4.6360 H   0  0  0  0  0  0  0  0  0  0  0  0
    0.1959   -0.5481    4.4891 H   0  0  0  0  0  0  0  0  0  0  0  0
  5  6  2  0  0  0  0
  5  7  1  0  0  0  0
  2  3  1  0  0  0  0
  2  4  1  0  0  0  0
  2  5  1  0  0  0  0
  1  2  1  0  0  0  0
 19 20  2  0  0  0  0
 19 21  1  0  0  0  0
 16 17  1  0  0  0  0
 16 18  1  0  0  0  0
 14 15  2  0  0  0  0
 14 16  1  0  0  0  0
 11 12  1  0  0  0  0
 11 13  1  0  0  0  0
 11 14  1  0  0  0  0
  9 10  1  0  0  0  0
  9 11  1  0  0  0  0
  9 19  1  0  0  0  0
  7  8  1  0  0  0  0
  7  9  1  0  0  0  0
 23 24  1  0  0  0  0
 23 25  1  0  0  0  0
 23 26  1  0  0  0  0
 21 22  1  0  0  0  0
 21 23  1  0  0  0  0
M  END
$$$$
default_name
  -OEChem-02102213163D

 26 25  0     1  0  0  0  0  0999 V2000
   -3.0232   -3.6924    1.0038 H   0  0  0  0  0  0  0  0  0  0  0  0
   -3.0082   -2.6684    0.6318 C   0  0  0  0  0  0  0  0  0  0  0  0
   -3.6332   -2.0414    1.2658 H   0  0  0  0  0  0  0  0  0  0  0  0
   -3.3762   -2.6444   -0.3912 H   0  0  0  0  0  0  0  0  0  0  0  0
   -1.5882   -2.1554    0.6658 C   0  0  0  0  0  0  0  0  0  0  0  0
   -0.6832   -2.8764    1.0638 O   0  0  0  0  0  0  0  0  0  0  0  0
   -1.3952   -0.9084    0.2428 N   0  0  0  0  0  0  0  0  0  0  0  0
   -2.1972   -0.3644   -0.0422 H   0  0  0  0  0  0  0  0  0  0  0  0
   -0.1122   -0.1994    0.2658 C   0  0  1  0  0  0  0  0  0  0  0  0
    0.6131   -0.7748   -0.3153 H   0  0  0  0  0  0  0  0  0  0  0  0
   -0.2973    1.1841   -0.3966 C   0  0  0  0  0  0  0  0  0  0  0  0
   -0.3535    1.0583   -1.4773 H   0  0  0  0  0  0  0  0  0  0  0  0
   -1.2327    1.6240   -0.0540 H   0  0  0  0  0  0  0  0  0  0  0  0
    0.8389    2.1568   -0.1247 C   0  0  0  0  0  0  0  0  0  0  0  0
    0.6556    3.3205    0.1874 O   0  0  0  0  0  0  0  0  0  0  0  0
    2.0663    1.7123   -0.2438 N   0  0  0  0  0  0  0  0  0  0  0  0
    2.7963    2.3724   -0.0411 H   0  0  0  0  0  0  0  0  0  0  0  0
    2.2436    0.7544   -0.4807 H   0  0  0  0  0  0  0  0  0  0  0  0
    0.4075   -0.0985    1.7169 C   0  0  0  0  0  0  0  0  0  0  0  0
    1.5860   -0.3526    1.9662 O   0  0  0  0  0  0  0  0  0  0  0  0
   -0.4625    0.2583    2.6666 N   0  0  0  0  0  0  0  0  0  0  0  0
   -1.4309    0.3754    2.3860 H   0  0  0  0  0  0  0  0  0  0  0  0
   -0.1275    0.4111    4.0813 C   0  0  0  0  0  0  0  0  0  0  0  0
    0.6862    1.1312    4.1910 H   0  0  0  0  0  0  0  0  0  0  0  0
   -0.9980    0.7641    4.6360 H   0  0  0  0  0  0  0  0  0  0  0  0
    0.1959   -0.5481    4.4891 H   0  0  0  0  0  0  0  0  0  0  0  0
  5  6  2  0  0  0  0
  5  7  1  0  0  0  0
  2  3  1  0  0  0  0
  2  4  1  0  0  0  0
  2  5  1  0  0  0  0
  1  2  1  0  0  0  0
 19 20  2  0  0  0  0
 19 21  1  0  0  0  0
 16 17  1  0  0  0  0
 16 18  1  0  0  0  0
 14 15  2  0  0  0  0
 14 16  1  0  0  0  0
 11 12  1  0  0  0  0
 11 13  1  0  0  0  0
 11 14  1  0  0  0  0
  9 10  1  0  0  0  0
  9 11  1  0  0  0  0
  9 19  1  0  0  0  0
  7  8  1  0  0  0  0
  7  9  1  0  0  0  0
 23 24  1  0  0  0  0
 23 25  1  0  0  0  0
 23 26  1  0  0  0  0
 21 22  1  0  0  0  0
 21 23  1  0  0  0  0
M  END
$$$$
default_name
  -OEChem-02102213163D

 26 25  0     1  0  0  0  0  0999 V2000
   -3.0232   -3.6924    1.0038 H   0  0  0  0  0  0  0  0  0  0  0  0
   -3.0082   -2.6684    0.6318 C   0  0  0  0  0  0  0  0  0  0  0  0
   -3.6332   -2.0414    1.2658 H   0  0  0  0  0  0  0  0  0  0  0  0
   -3.3762   -2.6444   -0.3912 H   0  0  0  0  0  0  0  0  0  0  0  0
   -1.5882   -2.1554    0.6658 C   0  0  0  0  0  0  0  0  0  0  0  0
   -0.6832   -2.8764    1.0638 O   0  0  0  0  0  0  0  0  0  0  0  0
   -1.3952   -0.9084    0.2428 N   0  0  0  0  0  0  0  0  0  0  0  0
   -2.1972   -0.3644   -0.0422 H   0  0  0  0  0  0  0  0  0  0  0  0
   -0.1122   -0.1994    0.2658 C   0  0  1  0  0  0  0  0  0  0  0  0
    0.6131   -0.7748   -0.3153 H   0  0  0  0  0  0  0  0  0  0  0  0
   -0.2973    1.1841   -0.3966 C   0  0  0  0  0  0  0  0  0  0  0  0
   -0.3535    1.0583   -1.4773 H   0  0  0  0  0  0  0  0  0  0  0  0
   -1.2327    1.6240   -0.0540 H   0  0  0  0  0  0  0  0  0  0  0  0
    0.8389    2.1568   -0.1247 C   0  0  0  0  0  0  0  0  0  0  0  0
    0.6766    3.2264    0.4363 O   0  0  0  0  0  0  0  0  0  0  0  0
    2.0409    1.8206   -0.5253 N   0  0  0  0  0  0  0  0  0  0  0  0
    2.7746    2.4747   -0.3165 H   0  0  0  0  0  0  0  0  0  0  0  0
    2.2040    0.9380   -0.9720 H   0  0  0  0  0  0  0  0  0  0  0  0
    0.4075   -0.0985    1.7169 C   0  0  0  0  0  0  0  0  0  0  0  0
    1.5860   -0.3526    1.9662 O   0  0  0  0  0  0  0  0  0  0  0  0
   -0.4625    0.2583    2.6666 N   0  0  0  0  0  0  0  0  0  0  0  0
   -1.4309    0.3754    2.3860 H   0  0  0  0  0  0  0  0  0  0  0  0
   -0.1275    0.4111    4.0813 C   0  0  0  0  0  0  0  0  0  0  0  0
    0.6862    1.1312    4.1910 H   0  0  0  0  0  0  0  0  0  0  0  0
   -0.9980    0.7641    4.6360 H   0  0  0  0  0  0  0  0  0  0  0  0
    0.1959   -0.5481    4.4891 H   0  0  0  0  0  0  0  0  0  0  0  0
  5  6  2  0  0  0  0
  5  7  1  0  0  0  0
  2  3  1  0  0  0  0
  2  4  1  0  0  0  0
  2  5  1  0  0  0  0
  1  2  1  0  0  0  0
 19 20  2  0  0  0  0
 19 21  1  0  0  0  0
 16 17  1  0  0  0  0
 16 18  1  0  0  0  0
 14 15  2  0  0  0  0
 14 16  1  0  0  0  0
 11 12  1  0  0  0  0
 11 13  1  0  0  0  0
 11 14  1  0  0  0  0
  9 10  1  0  0  0  0
  9 11  1  0  0  0  0
  9 19  1  0  0  0  0
  7  8  1  0  0  0  0
  7  9  1  0  0  0  0
 23 24  1  0  0  0  0
 23 25  1  0  0  0  0
 23 26  1  0  0  0  0
 21 22  1  0  0  0  0
 21 23  1  0  0  0  0
M  END
$$$$
default_name
  -OEChem-02102213163D

 26 25  0     1  0  0  0  0  0999 V2000
   -3.0232   -3.6924    1.0038 H   0  0  0  0  0  0  0  0  0  0  0  0
   -3.0082   -2.6684    0.6318 C   0  0  0  0  0  0  0  0  0  0  0  0
   -3.6332   -2.0414    1.2658 H   0  0  0  0  0  0  0  0  0  0  0  0
   -3.3762   -2.6444   -0.3912 H   0  0  0  0  0  0  0  0  0  0  0  0
   -1.5882   -2.1554    0.6658 C   0  0  0  0  0  0  0  0  0  0  0  0
   -0.6832   -2.8764    1.0638 O   0  0  0  0  0  0  0  0  0  0  0  0
   -1.3952   -0.9084    0.2428 N   0  0  0  0  0  0  0  0  0  0  0  0
   -2.1972   -0.3644   -0.0422 H   0  0  0  0  0  0  0  0  0  0  0  0
   -0.1122   -0.1994    0.2658 C   0  0  1  0  0  0  0  0  0  0  0  0
    0.6131   -0.7748   -0.3153 H   0  0  0  0  0  0  0  0  0  0  0  0
   -0.2973    1.1841   -0.3966 C   0  0  0  0  0  0  0  0  0  0  0  0
   -0.3535    1.0583   -1.4773 H   0  0  0  0  0  0  0  0  0  0  0  0
   -1.2327    1.6240   -0.0540 H   0  0  0  0  0  0  0  0  0  0  0  0
    0.8389    2.1568   -0.1247 C   0  0  0  0  0  0  0  0  0  0  0  0
    0.7424    3.0884    0.6550 O   0  0  0  0  0  0  0  0  0  0  0  0
    1.9648    1.9785   -0.7720 N   0  0  0  0  0  0  0  0  0  0  0  0
    2.7033    2.6258   -0.5591 H   0  0  0  0  0  0  0  0  0  0  0  0
    2.0758    1.2086   -1.4043 H   0  0  0  0  0  0  0  0  0  0  0  0
    0.4075   -0.0985    1.7169 C   0  0  0  0  0  0  0  0  0  0  0  0
    1.5860   -0.3526    1.9662 O   0  0  0  0  0  0  0  0  0  0  0  0
   -0.4625    0.2583    2.6666 N   0  0  0  0  0  0  0  0  0  0  0  0
   -1.4309    0.3754    2.3860 H   0  0  0  0  0  0  0  0  0  0  0  0
   -0.1275    0.4111    4.0813 C   0  0  0  0  0  0  0  0  0  0  0  0
    0.6862    1.1312    4.1910 H   0  0  0  0  0  0  0  0  0  0  0  0
   -0.9980    0.7641    4.6360 H   0  0  0  0  0  0  0  0  0  0  0  0
    0.1959   -0.5481    4.4891 H   0  0  0  0  0  0  0  0  0  0  0  0
  5  6  2  0  0  0  0
  5  7  1  0  0  0  0
  2  3  1  0  0  0  0
  2  4  1  0  0  0  0
  2  5  1  0  0  0  0
  1  2  1  0  0  0  0
 19 20  2  0  0  0  0
 19 21  1  0  0  0  0
 16 17  1  0  0  0  0
 16 18  1  0  0  0  0
 14 15  2  0  0  0  0
 14 16  1  0  0  0  0
 11 12  1  0  0  0  0
 11 13  1  0  0  0  0
 11 14  1  0  0  0  0
  9 10  1  0  0  0  0
  9 11  1  0  0  0  0
  9 19  1  0  0  0  0
  7  8  1  0  0  0  0
  7  9  1  0  0  0  0
 23 24  1  0  0  0  0
 23 25  1  0  0  0  0
 23 26  1  0  0  0  0
 21 22  1  0  0  0  0
 21 23  1  0  0  0  0
M  END
$$$$
default_name
  -OEChem-02102213163D

 26 25  0     1  0  0  0  0  0999 V2000
   -3.0232   -3.6924    1.0038 H   0  0  0  0  0  0  0  0  0  0  0  0
   -3.0082   -2.6684    0.6318 C   0  0  0  0  0  0  0  0  0  0  0  0
   -3.6332   -2.0414    1.2658 H   0  0  0  0  0  0  0  0  0  0  0  0
   -3.3762   -2.6444   -0.3912 H   0  0  0  0  0  0  0  0  0  0  0  0
   -1.5882   -2.1554    0.6658 C   0  0  0  0  0  0  0  0  0  0  0  0
   -0.6832   -2.8764    1.0638 O   0  0  0  0  0  0  0  0  0  0  0  0
   -1.3952   -0.9084    0.2428 N   0  0  0  0  0  0  0  0  0  0  0  0
   -2.1972   -0.3644   -0.0422 H   0  0  0  0  0  0  0  0  0  0  0  0
   -0.1122   -0.1994    0.2658 C   0  0  1  0  0  0  0  0  0  0  0  0
    0.6131   -0.7748   -0.3153 H   0  0  0  0  0  0  0  0  0  0  0  0
   -0.2973    1.1841   -0.3966 C   0  0  0  0  0  0  0  0  0  0  0  0
   -0.3535    1.0583   -1.4773 H   0  0  0  0  0  0  0  0  0  0  0  0
   -1.2327    1.6240   -0.0540 H   0  0  0  0  0  0  0  0  0  0  0  0
    0.8389    2.1568   -0.1247 C   0  0  0  0  0  0  0  0  0  0  0  0
    0.8486    2.9158    0.8287 O   0  0  0  0  0  0  0  0  0  0  0  0
    1.8431    2.1753   -0.9671 N   0  0  0  0  0  0  0  0  0  0  0  0
    2.5873    2.8154   -0.7525 H   0  0  0  0  0  0  0  0  0  0  0  0
    1.8679    1.5476   -1.7485 H   0  0  0  0  0  0  0  0  0  0  0  0
    0.4075   -0.0985    1.7169 C   0  0  0  0  0  0  0  0  0  0  0  0
    1.5860   -0.3526    1.9662 O   0  0  0  0  0  0  0  0  0  0  0  0
   -0.4625    0.2583    2.6666 N   0  0  0  0  0  0  0  0  0  0  0  0
   -1.4309    0.3754    2.3860 H   0  0  0  0  0  0  0  0  0  0  0  0
   -0.1275    0.4111    4.0813 C   0  0  0  0  0  0  0  0  0  0  0  0
    0.6862    1.1312    4.1910 H   0  0  0  0  0  0  0  0  0  0  0  0
   -0.9980    0.7641    4.6360 H   0  0  0  0  0  0  0  0  0  0  0  0
    0.1959   -0.5481    4.4891 H   0  0  0  0  0  0  0  0  0  0  0  0
  5  6  2  0  0  0  0
  5  7  1  0  0  0  0
  2  3  1  0  0  0  0
  2  4  1  0  0  0  0
  2  5  1  0  0  0  0
  1  2  1  0  0  0  0
 19 20  2  0  0  0  0
 19 21  1  0  0  0  0
 16 17  1  0  0  0  0
 16 18  1  0  0  0  0
 14 15  2  0  0  0  0
 14 16  1  0  0  0  0
 11 12  1  0  0  0  0
 11 13  1  0  0  0  0
 11 14  1  0  0  0  0
  9 10  1  0  0  0  0
  9 11  1  0  0  0  0
  9 19  1  0  0  0  0
  7  8  1  0  0  0  0
  7  9  1  0  0  0  0
 23 24  1  0  0  0  0
 23 25  1  0  0  0  0
 23 26  1  0  0  0  0
 21 22  1  0  0  0  0
 21 23  1  0  0  0  0
M  END
$$$$
default_name
  -OEChem-02102213163D

 26 25  0     1  0  0  0  0  0999 V2000
   -3.0232   -3.6924    1.0038 H   0  0  0  0  0  0  0  0  0  0  0  0
   -3.0082   -2.6684    0.6318 C   0  0  0  0  0  0  0  0  0  0  0  0
   -3.6332   -2.0414    1.2658 H   0  0  0  0  0  0  0  0  0  0  0  0
   -3.3762   -2.6444   -0.3912 H   0  0  0  0  0  0  0  0  0  0  0  0
   -1.5882   -2.1554    0.6658 C   0  0  0  0  0  0  0  0  0  0  0  0
   -0.6832   -2.8764    1.0638 O   0  0  0  0  0  0  0  0  0  0  0  0
   -1.3952   -0.9084    0.2428 N   0  0  0  0  0  0  0  0  0  0  0  0
   -2.1972   -0.3644   -0.0422 H   0  0  0  0  0  0  0  0  0  0  0  0
   -0.1122   -0.1994    0.2658 C   0  0  1  0  0  0  0  0  0  0  0  0
    0.6131   -0.7748   -0.3153 H   0  0  0  0  0  0  0  0  0  0  0  0
   -0.2973    1.1841   -0.3966 C   0  0  0  0  0  0  0  0  0  0  0  0
   -0.3535    1.0583   -1.4773 H   0  0  0  0  0  0  0  0  0  0  0  0
   -1.2327    1.6240   -0.0540 H   0  0  0  0  0  0  0  0  0  0  0  0
    0.8389    2.1568   -0.1247 C   0  0  0  0  0  0  0  0  0  0  0  0
    0.9879    2.7204    0.9455 O   0  0  0  0  0  0  0  0  0  0  0  0
    1.6841    2.3974   -1.0974 N   0  0  0  0  0  0  0  0  0  0  0  0
    2.4344    3.0305   -0.8834 H   0  0  0  0  0  0  0  0  0  0  0  0
    1.5944    1.9321   -1.9808 H   0  0  0  0  0  0  0  0  0  0  0  0
    0.4075   -0.0985    1.7169 C   0  0  0  0  0  0  0  0  0  0  0  0
    1.5860   -0.3526    1.9662 O   0  0  0  0  0  0  0  0  0  0  0  0
   -0.4625    0.2583    2.6666 N   0  0  0  0  0  0  0  0  0  0  0  0
   -1.4309    0.3754    2.3860 H   0  0  0  0  0  0  0  0  0  0  0  0
   -0.1275    0.4111    4.0813 C   0  0  0  0  0  0  0  0  0  0  0  0
    0.6862    1.1312    4.1910 H   0  0  0  0  0  0  0  0  0  0  0  0
   -0.9980    0.7641    4.6360 H   0  0  0  0  0  0  0  0  0  0  0  0
    0.1959   -0.5481    4.4891 H   0  0  0  0  0  0  0  0  0  0  0  0
  5  6  2  0  0  0  0
  5  7  1  0  0  0  0
  2  3  1  0  0  0  0
  2  4  1  0  0  0  0
  2  5  1  0  0  0  0
  1  2  1  0  0  0  0
 19 20  2  0  0  0  0
 19 21  1  0  0  0  0
 16 17  1  0  0  0  0
 16 18  1  0  0  0  0
 14 15  2  0  0  0  0
 14 16  1  0  0  0  0
 11 12  1  0  0  0  0
 11 13  1  0  0  0  0
 11 14  1  0  0  0  0
  9 10  1  0  0  0  0
  9 11  1  0  0  0  0
  9 19  1  0  0  0  0
  7  8  1  0  0  0  0
  7  9  1  0  0  0  0
 23 24  1  0  0  0  0
 23 25  1  0  0  0  0
 23 26  1  0  0  0  0
 21 22  1  0  0  0  0
 21 23  1  0  0  0  0
M  END
$$$$
default_name
  -OEChem-02102213163D

 26 25  0     1  0  0  0  0  0999 V2000
   -3.0232   -3.6924    1.0038 H   0  0  0  0  0  0  0  0  0  0  0  0
   -3.0082   -2.6684    0.6318 C   0  0  0  0  0  0  0  0  0  0  0  0
   -3.6332   -2.0414    1.2658 H   0  0  0  0  0  0  0  0  0  0  0  0
   -3.3762   -2.6444   -0.3912 H   0  0  0  0  0  0  0  0  0  0  0  0
   -1.5882   -2.1554    0.6658 C   0  0  0  0  0  0  0  0  0  0  0  0
   -0.6832   -2.8764    1.0638 O   0  0  0  0  0  0  0  0  0  0  0  0
   -1.3952   -0.9084    0.2428 N   0  0  0  0  0  0  0  0  0  0  0  0
   -2.1972   -0.3644   -0.0422 H   0  0  0  0  0  0  0  0  0  0  0  0
   -0.1122   -0.1994    0.2658 C   0  0  1  0  0  0  0  0  0  0  0  0
    0.6131   -0.7748   -0.3153 H   0  0  0  0  0  0  0  0  0  0  0  0
   -0.2973    1.1841   -0.3966 C   0  0  0  0  0  0  0  0  0  0  0  0
   -0.3535    1.0583   -1.4773 H   0  0  0  0  0  0  0  0  0  0  0  0
   -1.2327    1.6240   -0.0540 H   0  0  0  0  0  0  0  0  0  0  0  0
    0.8389    2.1568   -0.1247 C   0  0  0  0  0  0  0  0  0  0  0  0
    1.1508    2.5156    0.9974 O   0  0  0  0  0  0  0  0  0  0  0  0
    1.4987    2.6298   -1.1539 N   0  0  0  0  0  0  0  0  0  0  0  0
    2.2551    3.2566   -0.9429 H   0  0  0  0  0  0  0  0  0  0  0  0
    1.2740    2.3357   -2.0856 H   0  0  0  0  0  0  0  0  0  0  0  0
    0.4075   -0.0985    1.7169 C   0  0  0  0  0  0  0  0  0  0  0  0
    1.5860   -0.3526    1.9662 O   0  0  0  0  0  0  0  0  0  0  0  0
   -0.4625    0.2583    2.6666 N   0  0  0  0  0  0  0  0  0  0  0  0
   -1.4309    0.3754    2.3860 H   0  0  0  0  0  0  0  0  0  0  0  0
   -0.1275    0.4111    4.0813 C   0  0  0  0  0  0  0  0  0  0  0  0
    0.6862    1.1312    4.1910 H   0  0  0  0  0  0  0  0  0  0  0  0
   -0.9980    0.7641    4.6360 H   0  0  0  0  0  0  0  0  0  0  0  0
    0.1959   -0.5481    4.4891 H   0  0  0  0  0  0  0  0  0  0  0  0
  5  6  2  0  0  0  0
  5  7  1  0  0  0  0
  2  3  1  0  0  0  0
  2  4  1  0  0  0  0
  2  5  1  0  0  0  0
  1  2  1  0  0  0  0
 19 20  2  0  0  0  0
 19 21  1  0  0  0  0
 16 17  1  0  0  0  0
 16 18  1  0  0  0  0
 14 15  2  0  0  0  0
 14 16  1  0  0  0  0
 11 12  1  0  0  0  0
 11 13  1  0  0  0  0
 11 14  1  0  0  0  0
  9 10  1  0  0  0  0
  9 11  1  0  0  0  0
  9 19  1  0  0  0  0
  7  8  1  0  0  0  0
  7  9  1  0  0  0  0
 23 24  1  0  0  0  0
 23 25  1  0  0  0  0
 23 26  1  0  0  0  0
 21 22  1  0  0  0  0
 21 23  1  0  0  0  0
M  END
$$$$
default_name
  -OEChem-02102213163D

 26 25  0     1  0  0  0  0  0999 V2000
   -3.0232   -3.6924    1.0038 H   0  0  0  0  0  0  0  0  0  0  0  0
   -3.0082   -2.6684    0.6318 C   0  0  0  0  0  0  0  0  0  0  0  0
   -3.6332   -2.0414    1.2658 H   0  0  0  0  0  0  0  0  0  0  0  0
   -3.3762   -2.6444   -0.3912 H   0  0  0  0  0  0  0  0  0  0  0  0
   -1.5882   -2.1554    0.6658 C   0  0  0  0  0  0  0  0  0  0  0  0
   -0.6832   -2.8764    1.0638 O   0  0  0  0  0  0  0  0  0  0  0  0
   -1.3952   -0.9084    0.2428 N   0  0  0  0  0  0  0  0  0  0  0  0
   -2.1972   -0.3644   -0.0422 H   0  0  0  0  0  0  0  0  0  0  0  0
   -0.1122   -0.1994    0.2658 C   0  0  1  0  0  0  0  0  0  0  0  0
    0.6131   -0.7748   -0.3153 H   0  0  0  0  0  0  0  0  0  0  0  0
   -0.2973    1.1841   -0.3966 C   0  0  0  0  0  0  0  0  0  0  0  0
   -0.3535    1.0583   -1.4773 H   0  0  0  0  0  0  0  0  0  0  0  0
   -1.2327    1.6240   -0.0540 H   0  0  0  0  0  0  0  0  0  0  0  0
    0.8389    2.1568   -0.1247 C   0  0  0  0  0  0  0  0  0  0  0  0
    1.3263    2.3152    0.9810 O   0  0  0  0  0  0  0  0  0  0  0  0
    1.2994    2.8567   -1.1329 N   0  0  0  0  0  0  0  0  0  0  0  0
    2.0616    3.4782   -0.9269 H   0  0  0  0  0  0  0  0  0  0  0  0
    0.9284    2.7310   -2.0557 H   0  0  0  0  0  0  0  0  0  0  0  0
    0.4075   -0.0985    1.7169 C   0  0  0  0  0  0  0  0  0  0  0  0
    1.5860   -0.3526    1.9662 O   0  0  0  0  0  0  0  0  0  0  0  0
   -0.4625    0.2583    2.6666 N   0  0  0  0  0  0  0  0  0  0  0  0
   -1.4309    0.3754    2.3860 H   0  0  0  0  0  0  0  0  0  0  0  0
   -0.1275    0.4111    4.0813 C   0  0  0  0  0  0  0  0  0  0  0  0
    0.6862    1.1312    4.1910 H   0  0  0  0  0  0  0  0  0  0  0  0
   -0.9980    0.7641    4.6360 H   0  0  0  0  0  0  0  0  0  0  0  0
    0.1959   -0.5481    4.4891 H   0  0  0  0  0  0  0  0  0  0  0  0
  5  6  2  0  0  0  0
  5  7  1  0  0  0  0
  2  3  1  0  0  0  0
  2  4  1  0  0  0  0
  2  5  1  0  0  0  0
  1  2  1  0  0  0  0
 19 20  2  0  0  0  0
 19 21  1  0  0  0  0
 16 17  1  0  0  0  0
 16 18  1  0  0  0  0
 14 15  2  0  0  0  0
 14 16  1  0  0  0  0
 11 12  1  0  0  0  0
 11 13  1  0  0  0  0
 11 14  1  0  0  0  0
  9 10  1  0  0  0  0
  9 11  1  0  0  0  0
  9 19  1  0  0  0  0
  7  8  1  0  0  0  0
  7  9  1  0  0  0  0
 23 24  1  0  0  0  0
 23 25  1  0  0  0  0
 23 26  1  0  0  0  0
 21 22  1  0  0  0  0
 21 23  1  0  0  0  0
M  END
$$$$
default_name
  -OEChem-02102213163D

 26 25  0     1  0  0  0  0  0999 V2000
   -3.0232   -3.6924    1.0038 H   0  0  0  0  0  0  0  0  0  0  0  0
   -3.0082   -2.6684    0.6318 C   0  0  0  0  0  0  0  0  0  0  0  0
   -3.6332   -2.0414    1.2658 H   0  0  0  0  0  0  0  0  0  0  0  0
   -3.3762   -2.6444   -0.3912 H   0  0  0  0  0  0  0  0  0  0  0  0
   -1.5882   -2.1554    0.6658 C   0  0  0  0  0  0  0  0  0  0  0  0
   -0.6832   -2.8764    1.0638 O   0  0  0  0  0  0  0  0  0  0  0  0
   -1.3952   -0.9084    0.2428 N   0  0  0  0  0  0  0  0  0  0  0  0
   -2.1972   -0.3644   -0.0422 H   0  0  0  0  0  0  0  0  0  0  0  0
   -0.1122   -0.1994    0.2658 C   0  0  1  0  0  0  0  0  0  0  0  0
    0.6131   -0.7748   -0.3153 H   0  0  0  0  0  0  0  0  0  0  0  0
   -0.2973    1.1841   -0.3966 C   0  0  0  0  0  0  0  0  0  0  0  0
   -0.3535    1.0583   -1.4773 H   0  0  0  0  0  0  0  0  0  0  0  0
   -1.2327    1.6240   -0.0540 H   0  0  0  0  0  0  0  0  0  0  0  0
    0.8389    2.1568   -0.1247 C   0  0  0  0  0  0  0  0  0  0  0  0
    1.5024    2.1329    0.8973 O   0  0  0  0  0  0  0  0  0  0  0  0
    1.1000    3.0625   -1.0356 N   0  0  0  0  0  0  0  0  0  0  0  0
    1.8671    3.6802   -0.8366 H   0  0  0  0  0  0  0  0  0  0  0  0
    0.5813    3.0911   -1.8931 H   0  0  0  0  0  0  0  0  0  0  0  0
    0.4075   -0.0985    1.7169 C   0  0  0  0  0  0  0  0  0  0  0  0
    1.5860   -0.3526    1.9662 O   0  0  0  0  0  0  0  0  0  0  0  0
   -0.4625    0.2583    2.6666 N   0  0  0  0  0  0  0  0  0  0  0  0
   -1.4309    0.3754    2.3860 H   0  0  0  0  0  0  0  0  0  0  0  0
   -0.1275    0.4111    4.0813 C   0  0  0  0  0  0  0  0  0  0  0  0
    0.6862    1.1312    4.1910 H   0  0  0  0  0  0  0  0  0  0  0  0
   -0.9980    0.7641    4.6360 H   0  0  0  0  0  0  0  0  0  0  0  0
    0.1959   -0.5481    4.4891 H   0  0  0  0  0  0  0  0  0  0  0  0
  5  6  2  0  0  0  0
  5  7  1  0  0  0  0
  2  3  1  0  0  0  0
  2  4  1  0  0  0  0
  2  5  1  0  0  0  0
  1  2  1  0  0  0  0
 19 20  2  0  0  0  0
 19 21  1  0  0  0  0
 16 17  1  0  0  0  0
 16 18  1  0  0  0  0
 14 15  2  0  0  0  0
 14 16  1  0  0  0  0
 11 12  1  0  0  0  0
 11 13  1  0  0  0  0
 11 14  1  0  0  0  0
  9 10  1  0  0  0  0
  9 11  1  0  0  0  0
  9 19  1  0  0  0  0
  7  8  1  0  0  0  0
  7  9  1  0  0  0  0
 23 24  1  0  0  0  0
 23 25  1  0  0  0  0
 23 26  1  0  0  0  0
 21 22  1  0  0  0  0
 21 23  1  0  0  0  0
M  END
$$$$
default_name
  -OEChem-02102213163D

 26 25  0     1  0  0  0  0  0999 V2000
   -3.0232   -3.6924    1.0038 H   0  0  0  0  0  0  0  0  0  0  0  0
   -3.0082   -2.6684    0.6318 C   0  0  0  0  0  0  0  0  0  0  0  0
   -3.6332   -2.0414    1.2658 H   0  0  0  0  0  0  0  0  0  0  0  0
   -3.3762   -2.6444   -0.3912 H   0  0  0  0  0  0  0  0  0  0  0  0
   -1.5882   -2.1554    0.6658 C   0  0  0  0  0  0  0  0  0  0  0  0
   -0.6832   -2.8764    1.0638 O   0  0  0  0  0  0  0  0  0  0  0  0
   -1.3952   -0.9084    0.2428 N   0  0  0  0  0  0  0  0  0  0  0  0
   -2.1972   -0.3644   -0.0422 H   0  0  0  0  0  0  0  0  0  0  0  0
   -0.1122   -0.1994    0.2658 C   0  0  1  0  0  0  0  0  0  0  0  0
    0.6131   -0.7748   -0.3153 H   0  0  0  0  0  0  0  0  0  0  0  0
   -0.2973    1.1841   -0.3966 C   0  0  0  0  0  0  0  0  0  0  0  0
   -0.3535    1.0583   -1.4773 H   0  0  0  0  0  0  0  0  0  0  0  0
   -1.2327    1.6240   -0.0540 H   0  0  0  0  0  0  0  0  0  0  0  0
    0.8389    2.1568   -0.1247 C   0  0  0  0  0  0  0  0  0  0  0  0
    1.6670    1.9812    0.7520 O   0  0  0  0  0  0  0  0  0  0  0  0
    0.9139    3.2333   -0.8689 N   0  0  0  0  0  0  0  0  0  0  0  0
    1.6848    3.8488   -0.6780 H   0  0  0  0  0  0  0  0  0  0  0  0
    0.2563    3.3913   -1.6089 H   0  0  0  0  0  0  0  0  0  0  0  0
    0.4075   -0.0985    1.7169 C   0  0  0  0  0  0  0  0  0  0  0  0
    1.5860   -0.3526    1.9662 O   0  0  0  0  0  0  0  0  0  0  0  0
   -0.4625    0.2583    2.6666 N   0  0  0  0  0  0  0  0  0  0  0  0
   -1.4309    0.3754    2.3860 H   0  0  0  0  0  0  0  0  0  0  0  0
   -0.1275    0.4111    4.0813 C   0  0  0  0  0  0  0  0  0  0  0  0
    0.6862    1.1312    4.1910 H   0  0  0  0  0  0  0  0  0  0  0  0
   -0.9980    0.7641    4.6360 H   0  0  0  0  0  0  0  0  0  0  0  0
    0.1959   -0.5481    4.4891 H   0  0  0  0  0  0  0  0  0  0  0  0
  5  6  2  0  0  0  0
  5  7  1  0  0  0  0
  2  3  1  0  0  0  0
  2  4  1  0  0  0  0
  2  5  1  0  0  0  0
  1  2  1  0  0  0  0
 19 20  2  0  0  0  0
 19 21  1  0  0  0  0
 16 17  1  0  0  0  0
 16 18  1  0  0  0  0
 14 15  2  0  0  0  0
 14 16  1  0  0  0  0
 11 12  1  0  0  0  0
 11 13  1  0  0  0  0
 11 14  1  0  0  0  0
  9 10  1  0  0  0  0
  9 11  1  0  0  0  0
  9 19  1  0  0  0  0
  7  8  1  0  0  0  0
  7  9  1  0  0  0  0
 23 24  1  0  0  0  0
 23 25  1  0  0  0  0
 23 26  1  0  0  0  0
 21 22  1  0  0  0  0
 21 23  1  0  0  0  0
M  END
$$$$
default_name
  -OEChem-02102213163D

 26 25  0     1  0  0  0  0  0999 V2000
   -3.0232   -3.6924    1.0038 H   0  0  0  0  0  0  0  0  0  0  0  0
   -3.0082   -2.6684    0.6318 C   0  0  0  0  0  0  0  0  0  0  0  0
   -3.6332   -2.0414    1.2658 H   0  0  0  0  0  0  0  0  0  0  0  0
   -3.3762   -2.6444   -0.3912 H   0  0  0  0  0  0  0  0  0  0  0  0
   -1.5882   -2.1554    0.6658 C   0  0  0  0  0  0  0  0  0  0  0  0
   -0.6832   -2.8764    1.0638 O   0  0  0  0  0  0  0  0  0  0  0  0
   -1.3952   -0.9084    0.2428 N   0  0  0  0  0  0  0  0  0  0  0  0
   -2.1972   -0.3644   -0.0422 H   0  0  0  0  0  0  0  0  0  0  0  0
   -0.1122   -0.1994    0.2658 C   0  0  1  0  0  0  0  0  0  0  0  0
    0.6131   -0.7748   -0.3153 H   0  0  0  0  0  0  0  0  0  0  0  0
   -0.2973    1.1841   -0.3966 C   0  0  0  0  0  0  0  0  0  0  0  0
   -0.3535    1.0583   -1.4773 H   0  0  0  0  0  0  0  0  0  0  0  0
   -1.2327    1.6240   -0.0540 H   0  0  0  0  0  0  0  0  0  0  0  0
    0.8389    2.1568   -0.1247 C   0  0  0  0  0  0  0  0  0  0  0  0
    1.8090    1.8703    0.5551 O   0  0  0  0  0  0  0  0  0  0  0  0
    0.7538    3.3574   -0.6440 N   0  0  0  0  0  0  0  0  0  0  0  0
    1.5272    3.9726   -0.4621 H   0  0  0  0  0  0  0  0  0  0  0  0
   -0.0246    3.6114   -1.2225 H   0  0  0  0  0  0  0  0  0  0  0  0
    0.4075   -0.0985    1.7169 C   0  0  0  0  0  0  0  0  0  0  0  0
    1.5860   -0.3526    1.9662 O   0  0  0  0  0  0  0  0  0  0  0  0
   -0.4625    0.2583    2.6666 N   0  0  0  0  0  0  0  0  0  0  0  0
   -1.4309    0.3754    2.3860 H   0  0  0  0  0  0  0  0  0  0  0  0
   -0.1275    0.4111    4.0813 C   0  0  0  0  0  0  0  0  0  0  0  0
    0.6862    1.1312    4.1910 H   0  0  0  0  0  0  0  0  0  0  0  0
   -0.9980    0.7641    4.6360 H   0  0  0  0  0  0  0  0  0  0  0  0
    0.1959   -0.5481    4.4891 H   0  0  0  0  0  0  0  0  0  0  0  0
  5  6  2  0  0  0  0
  5  7  1  0  0  0  0
  2  3  1  0  0  0  0
  2  4  1  0  0  0  0
  2  5  1  0  0  0  0
  1  2  1  0  0  0  0
 19 20  2  0  0  0  0
 19 21  1  0  0  0  0
 16 17  1  0  0  0  0
 16 18  1  0  0  0  0
 14 15  2  0  0  0  0
 14 16  1  0  0  0  0
 11 12  1  0  0  0  0
 11 13  1  0  0  0  0
 11 14  1  0  0  0  0
  9 10  1  0  0  0  0
  9 11  1  0  0  0  0
  9 19  1  0  0  0  0
  7  8  1  0  0  0  0
  7  9  1  0  0  0  0
 23 24  1  0  0  0  0
 23 25  1  0  0  0  0
 23 26  1  0  0  0  0
 21 22  1  0  0  0  0
 21 23  1  0  0  0  0
M  END
$$$$
default_name
  -OEChem-02102213163D

 26 25  0     1  0  0  0  0  0999 V2000
   -3.0232   -3.6924    1.0038 H   0  0  0  0  0  0  0  0  0  0  0  0
   -3.0082   -2.6684    0.6318 C   0  0  0  0  0  0  0  0  0  0  0  0
   -3.6332   -2.0414    1.2658 H   0  0  0  0  0  0  0  0  0  0  0  0
   -3.3762   -2.6444   -0.3912 H   0  0  0  0  0  0  0  0  0  0  0  0
   -1.5882   -2.1554    0.6658 C   0  0  0  0  0  0  0  0  0  0  0  0
   -0.6832   -2.8764    1.0638 O   0  0  0  0  0  0  0  0  0  0  0  0
   -1.3952   -0.9084    0.2428 N   0  0  0  0  0  0  0  0  0  0  0  0
   -2.1972   -0.3644   -0.0422 H   0  0  0  0  0  0  0  0  0  0  0  0
   -0.1122   -0.1994    0.2658 C   0  0  1  0  0  0  0  0  0  0  0  0
    0.6131   -0.7748   -0.3153 H   0  0  0  0  0  0  0  0  0  0  0  0
   -0.2973    1.1841   -0.3966 C   0  0  0  0  0  0  0  0  0  0  0  0
   -0.3535    1.0583   -1.4773 H   0  0  0  0  0  0  0  0  0  0  0  0
   -1.2327    1.6240   -0.0540 H   0  0  0  0  0  0  0  0  0  0  0  0
    0.8389    2.1568   -0.1247 C   0  0  0  0  0  0  0  0  0  0  0  0
    1.9187    1.8080    0.3199 O   0  0  0  0  0  0  0  0  0  0  0  0
    0.6307    3.4263   -0.3762 N   0  0  0  0  0  0  0  0  0  0  0  0
    1.4050    4.0431   -0.2035 H   0  0  0  0  0  0  0  0  0  0  0  0
   -0.2420    3.7361   -0.7601 H   0  0  0  0  0  0  0  0  0  0  0  0
    0.4075   -0.0985    1.7169 C   0  0  0  0  0  0  0  0  0  0  0  0
    1.5860   -0.3526    1.9662 O   0  0  0  0  0  0  0  0  0  0  0  0
   -0.4625    0.2583    2.6666 N   0  0  0  0  0  0  0  0  0  0  0  0
   -1.4309    0.3754    2.3860 H   0  0  0  0  0  0  0  0  0  0  0  0
   -0.1275    0.4111    4.0813 C   0  0  0  0  0  0  0  0  0  0  0  0
    0.6862    1.1312    4.1910 H   0  0  0  0  0  0  0  0  0  0  0  0
   -0.9980    0.7641    4.6360 H   0  0  0  0  0  0  0  0  0  0  0  0
    0.1959   -0.5481    4.4891 H   0  0  0  0  0  0  0  0  0  0  0  0
  5  6  2  0  0  0  0
  5  7  1  0  0  0  0
  2  3  1  0  0  0  0
  2  4  1  0  0  0  0
  2  5  1  0  0  0  0
  1  2  1  0  0  0  0
 19 20  2  0  0  0  0
 19 21  1  0  0  0  0
 16 17  1  0  0  0  0
 16 18  1  0  0  0  0
 14 15  2  0  0  0  0
 14 16  1  0  0  0  0
 11 12  1  0  0  0  0
 11 13  1  0  0  0  0
 11 14  1  0  0  0  0
  9 10  1  0  0  0  0
  9 11  1  0  0  0  0
  9 19  1  0  0  0  0
  7  8  1  0  0  0  0
  7  9  1  0  0  0  0
 23 24  1  0  0  0  0
 23 25  1  0  0  0  0
 23 26  1  0  0  0  0
 21 22  1  0  0  0  0
 21 23  1  0  0  0  0
M  END
$$$$
default_name
  -OEChem-02102213163D

 26 25  0     1  0  0  0  0  0999 V2000
   -3.0232   -3.6924    1.0038 H   0  0  0  0  0  0  0  0  0  0  0  0
   -3.0082   -2.6684    0.6318 C   0  0  0  0  0  0  0  0  0  0  0  0
   -3.6332   -2.0414    1.2658 H   0  0  0  0  0  0  0  0  0  0  0  0
   -3.3762   -2.6444   -0.3912 H   0  0  0  0  0  0  0  0  0  0  0  0
   -1.5882   -2.1554    0.6658 C   0  0  0  0  0  0  0  0  0  0  0  0
   -0.6832   -2.8764    1.0638 O   0  0  0  0  0  0  0  0  0  0  0  0
   -1.3952   -0.9084    0.2428 N   0  0  0  0  0  0  0  0  0  0  0  0
   -2.1972   -0.3644   -0.0422 H   0  0  0  0  0  0  0  0  0  0  0  0
   -0.1122   -0.1994    0.2658 C   0  0  1  0  0  0  0  0  0  0  0  0
    0.6131   -0.7748   -0.3153 H   0  0  0  0  0  0  0  0  0  0  0  0
   -0.2973    1.1841   -0.3966 C   0  0  0  0  0  0  0  0  0  0  0  0
   -0.3535    1.0583   -1.4773 H   0  0  0  0  0  0  0  0  0  0  0  0
   -1.2327    1.6240   -0.0540 H   0  0  0  0  0  0  0  0  0  0  0  0
    0.8389    2.1568   -0.1247 C   0  0  0  0  0  0  0  0  0  0  0  0
    1.9885    1.7983    0.0625 O   0  0  0  0  0  0  0  0  0  0  0  0
    0.5530    3.4354   -0.0838 N   0  0  0  0  0  0  0  0  0  0  0  0
    1.3265    4.0554    0.0802 H   0  0  0  0  0  0  0  0  0  0  0  0
   -0.3812    3.7571   -0.2534 H   0  0  0  0  0  0  0  0  0  0  0  0
    0.4075   -0.0985    1.7169 C   0  0  0  0  0  0  0  0  0  0  0  0
    1.5860   -0.3526    1.9662 O   0  0  0  0  0  0  0  0  0  0  0  0
   -0.4625    0.2583    2.6666 N   0  0  0  0  0  0  0  0  0  0  0  0
   -1.4309    0.3754    2.3860 H   0  0  0  0  0  0  0  0  0  0  0  0
   -0.1275    0.4111    4.0813 C   0  0  0  0  0  0  0  0  0  0  0  0
    0.6862    1.1312    4.1910 H   0  0  0  0  0  0  0  0  0  0  0  0
   -0.9980    0.7641    4.6360 H   0  0  0  0  0  0  0  0  0  0  0  0
    0.1959   -0.5481    4.4891 H   0  0  0  0  0  0  0  0  0  0  0  0
  5  6  2  0  0  0  0
  5  7  1  0  0  0  0
  2  3  1  0  0  0  0
  2  4  1  0  0  0  0
  2  5  1  0  0  0  0
  1  2  1  0  0  0  0
 19 20  2  0  0  0  0
 19 21  1  0  0  0  0
 16 17  1  0  0  0  0
 16 18  1  0  0  0  0
 14 15  2  0  0  0  0
 14 16  1  0  0  0  0
 11 12  1  0  0  0  0
 11 13  1  0  0  0  0
 11 14  1  0  0  0  0
  9 10  1  0  0  0  0
  9 11  1  0  0  0  0
  9 19  1  0  0  0  0
  7  8  1  0  0  0  0
  7  9  1  0  0  0  0
 23 24  1  0  0  0  0
 23 25  1  0  0  0  0
 23 26  1  0  0  0  0
 21 22  1  0  0  0  0
 21 23  1  0  0  0  0
M  END
$$$$
default_name
  -OEChem-02102213163D

 26 25  0     1  0  0  0  0  0999 V2000
   -3.0232   -3.6924    1.0038 H   0  0  0  0  0  0  0  0  0  0  0  0
   -3.0082   -2.6684    0.6318 C   0  0  0  0  0  0  0  0  0  0  0  0
   -3.6332   -2.0414    1.2658 H   0  0  0  0  0  0  0  0  0  0  0  0
   -3.3762   -2.6444   -0.3912 H   0  0  0  0  0  0  0  0  0  0  0  0
   -1.5882   -2.1554    0.6658 C   0  0  0  0  0  0  0  0  0  0  0  0
   -0.6832   -2.8764    1.0638 O   0  0  0  0  0  0  0  0  0  0  0  0
   -1.3952   -0.9084    0.2428 N   0  0  0  0  0  0  0  0  0  0  0  0
   -2.1972   -0.3644   -0.0422 H   0  0  0  0  0  0  0  0  0  0  0  0
   -0.1122   -0.1994    0.2658 C   0  0  1  0  0  0  0  0  0  0  0  0
    0.6131   -0.7748   -0.3153 H   0  0  0  0  0  0  0  0  0  0  0  0
   -0.2973    1.1841   -0.3966 C   0  0  0  0  0  0  0  0  0  0  0  0
   -0.3535    1.0583   -1.4773 H   0  0  0  0  0  0  0  0  0  0  0  0
   -1.2327    1.6240   -0.0540 H   0  0  0  0  0  0  0  0  0  0  0  0
    0.8389    2.1568   -0.1247 C   0  0  0  0  0  0  0  0  0  0  0  0
    2.0139    1.8420   -0.1995 O   0  0  0  0  0  0  0  0  0  0  0  0
    0.5259    3.3840    0.2132 N   0  0  0  0  0  0  0  0  0  0  0  0
    1.2971    4.0089    0.3696 H   0  0  0  0  0  0  0  0  0  0  0  0
   -0.4328    3.6730    0.2631 H   0  0  0  0  0  0  0  0  0  0  0  0
    0.4075   -0.0985    1.7169 C   0  0  0  0  0  0  0  0  0  0  0  0
    1.5860   -0.3526    1.9662 O   0  0  0  0  0  0  0  0  0  0  0  0
   -0.4625    0.2583    2.6666 N   0  0  0  0  0  0  0  0  0  0  0  0
   -1.4309    0.3754    2.3860 H   0  0  0  0  0  0  0  0  0  0  0  0
   -0.1275    0.4111    4.0813 C   0  0  0  0  0  0  0  0  0  0  0  0
    0.6862    1.1312    4.1910 H   0  0  0  0  0  0  0  0  0  0  0  0
   -0.9980    0.7641    4.6360 H   0  0  0  0  0  0  0  0  0  0  0  0
    0.1959   -0.5481    4.4891 H   0  0  0  0  0  0  0  0  0  0  0  0
  5  6  2  0  0  0  0
  5  7  1  0  0  0  0
  2  3  1  0  0  0  0
  2  4  1  0  0  0  0
  2  5  1  0  0  0  0
  1  2  1  0  0  0  0
 19 20  2  0  0  0  0
 19 21  1  0  0  0  0
 16 17  1  0  0  0  0
 16 18  1  0  0  0  0
 14 15  2  0  0  0  0
 14 16  1  0  0  0  0
 11 12  1  0  0  0  0
 11 13  1  0  0  0  0
 11 14  1  0  0  0  0
  9 10  1  0  0  0  0
  9 11  1  0  0  0  0
  9 19  1  0  0  0  0
  7  8  1  0  0  0  0
  7  9  1  0  0  0  0
 23 24  1  0  0  0  0
 23 25  1  0  0  0  0
 23 26  1  0  0  0  0
 21 22  1  0  0  0  0
 21 23  1  0  0  0  0
M  END
$$$$
default_name
  -OEChem-02102213163D

 26 25  0     1  0  0  0  0  0999 V2000
   -3.0232   -3.6924    1.0038 H   0  0  0  0  0  0  0  0  0  0  0  0
   -3.0082   -2.6684    0.6318 C   0  0  0  0  0  0  0  0  0  0  0  0
   -3.6332   -2.0414    1.2658 H   0  0  0  0  0  0  0  0  0  0  0  0
   -3.3762   -2.6444   -0.3912 H   0  0  0  0  0  0  0  0  0  0  0  0
   -1.5882   -2.1554    0.6658 C   0  0  0  0  0  0  0  0  0  0  0  0
   -0.6832   -2.8764    1.0638 O   0  0  0  0  0  0  0  0  0  0  0  0
   -1.3952   -0.9084    0.2428 N   0  0  0  0  0  0  0  0  0  0  0  0
   -2.1972   -0.3644   -0.0422 H   0  0  0  0  0  0  0  0  0  0  0  0
   -0.1122   -0.1994    0.2658 C   0  0  1  0  0  0  0  0  0  0  0  0
    0.6131   -0.7748   -0.3153 H   0  0  0  0  0  0  0  0  0  0  0  0
   -0.2973    1.1841   -0.3966 C   0  0  0  0  0  0  0  0  0  0  0  0
   -0.3535    1.0583   -1.4773 H   0  0  0  0  0  0  0  0  0  0  0  0
   -1.2327    1.6240   -0.0540 H   0  0  0  0  0  0  0  0  0  0  0  0
    0.8389    2.1568   -0.1247 C   0  0  0  0  0  0  0  0  0  0  0  0
    1.9929    1.9360   -0.4484 O   0  0  0  0  0  0  0  0  0  0  0  0
    0.5513    3.2757    0.4946 N   0  0  0  0  0  0  0  0  0  0  0  0
    1.3188    3.9066    0.6450 H   0  0  0  0  0  0  0  0  0  0  0  0
   -0.3931    3.4894    0.7544 H   0  0  0  0  0  0  0  0  0  0  0  0
    0.4075   -0.0985    1.7169 C   0  0  0  0  0  0  0  0  0  0  0  0
    1.5860   -0.3526    1.9662 O   0  0  0  0  0  0  0  0  0  0  0  0
   -0.4625    0.2583    2.6666 N   0  0  0  0  0  0  0  0  0  0  0  0
   -1.4309    0.3754    2.3860 H   0  0  0  0  0  0  0  0  0  0  0  0
   -0.1275    0.4111    4.0813 C   0  0  0  0  0  0  0  0  0  0  0  0
    0.6862    1.1312    4.1910 H   0  0  0  0  0  0  0  0  0  0  0  0
   -0.9980    0.7641    4.6360 H   0  0  0  0  0  0  0  0  0  0  0  0
    0.1959   -0.5481    4.4891 H   0  0  0  0  0  0  0  0  0  0  0  0
  5  6  2  0  0  0  0
  5  7  1  0  0  0  0
  2  3  1  0  0  0  0
  2  4  1  0  0  0  0
  2  5  1  0  0  0  0
  1  2  1  0  0  0  0
 19 20  2  0  0  0  0
 19 21  1  0  0  0  0
 16 17  1  0  0  0  0
 16 18  1  0  0  0  0
 14 15  2  0  0  0  0
 14 16  1  0  0  0  0
 11 12  1  0  0  0  0
 11 13  1  0  0  0  0
 11 14  1  0  0  0  0
  9 10  1  0  0  0  0
  9 11  1  0  0  0  0
  9 19  1  0  0  0  0
  7  8  1  0  0  0  0
  7  9  1  0  0  0  0
 23 24  1  0  0  0  0
 23 25  1  0  0  0  0
 23 26  1  0  0  0  0
 21 22  1  0  0  0  0
 21 23  1  0  0  0  0
M  END
$$$$
default_name
  -OEChem-02102213163D

 26 25  0     1  0  0  0  0  0999 V2000
   -3.0232   -3.6924    1.0038 H   0  0  0  0  0  0  0  0  0  0  0  0
   -3.0082   -2.6684    0.6318 C   0  0  0  0  0  0  0  0  0  0  0  0
   -3.6332   -2.0414    1.2658 H   0  0  0  0  0  0  0  0  0  0  0  0
   -3.3762   -2.6444   -0.3912 H   0  0  0  0  0  0  0  0  0  0  0  0
   -1.5882   -2.1554    0.6658 C   0  0  0  0  0  0  0  0  0  0  0  0
   -0.6832   -2.8764    1.0638 O   0  0  0  0  0  0  0  0  0  0  0  0
   -1.3952   -0.9084    0.2428 N   0  0  0  0  0  0  0  0  0  0  0  0
   -2.1972   -0.3644   -0.0422 H   0  0  0  0  0  0  0  0  0  0  0  0
   -0.1122   -0.1994    0.2658 C   0  0  1  0  0  0  0  0  0  0  0  0
    0.6131   -0.7748   -0.3153 H   0  0  0  0  0  0  0  0  0  0  0  0
   -0.2973    1.1841   -0.3966 C   0  0  0  0  0  0  0  0  0  0  0  0
   -0.3535    1.0583   -1.4773 H   0  0  0  0  0  0  0  0  0  0  0  0
   -1.2327    1.6240   -0.0540 H   0  0  0  0  0  0  0  0  0  0  0  0
    0.8389    2.1568   -0.1247 C   0  0  0  0  0  0  0  0  0  0  0  0
    1.9271    2.0740   -0.6671 O   0  0  0  0  0  0  0  0  0  0  0  0
    0.6275    3.1178    0.7414 N   0  0  0  0  0  0  0  0  0  0  0  0
    1.3900    3.7555    0.8877 H   0  0  0  0  0  0  0  0  0  0  0  0
   -0.2650    3.2188    1.1868 H   0  0  0  0  0  0  0  0  0  0  0  0
    0.4075   -0.0985    1.7169 C   0  0  0  0  0  0  0  0  0  0  0  0
    1.5860   -0.3526    1.9662 O   0  0  0  0  0  0  0  0  0  0  0  0
   -0.4625    0.2583    2.6666 N   0  0  0  0  0  0  0  0  0  0  0  0
   -1.4309    0.3754    2.3860 H   0  0  0  0  0  0  0  0  0  0  0  0
   -0.1275    0.4111    4.0813 C   0  0  0  0  0  0  0  0  0  0  0  0
    0.6862    1.1312    4.1910 H   0  0  0  0  0  0  0  0  0  0  0  0
   -0.9980    0.7641    4.6360 H   0  0  0  0  0  0  0  0  0  0  0  0
    0.1959   -0.5481    4.4891 H   0  0  0  0  0  0  0  0  0  0  0  0
  5  6  2  0  0  0  0
  5  7  1  0  0  0  0
  2  3  1  0  0  0  0
  2  4  1  0  0  0  0
  2  5  1  0  0  0  0
  1  2  1  0  0  0  0
 19 20  2  0  0  0  0
 19 21  1  0  0  0  0
 16 17  1  0  0  0  0
 16 18  1  0  0  0  0
 14 15  2  0  0  0  0
 14 16  1  0  0  0  0
 11 12  1  0  0  0  0
 11 13  1  0  0  0  0
 11 14  1  0  0  0  0
  9 10  1  0  0  0  0
  9 11  1  0  0  0  0
  9 19  1  0  0  0  0
  7  8  1  0  0  0  0
  7  9  1  0  0  0  0
 23 24  1  0  0  0  0
 23 25  1  0  0  0  0
 23 26  1  0  0  0  0
 21 22  1  0  0  0  0
 21 23  1  0  0  0  0
M  END
$$$$
default_name
  -OEChem-02102213163D

 26 25  0     1  0  0  0  0  0999 V2000
   -3.0232   -3.6924    1.0038 H   0  0  0  0  0  0  0  0  0  0  0  0
   -3.0082   -2.6684    0.6318 C   0  0  0  0  0  0  0  0  0  0  0  0
   -3.6332   -2.0414    1.2658 H   0  0  0  0  0  0  0  0  0  0  0  0
   -3.3762   -2.6444   -0.3912 H   0  0  0  0  0  0  0  0  0  0  0  0
   -1.5882   -2.1554    0.6658 C   0  0  0  0  0  0  0  0  0  0  0  0
   -0.6832   -2.8764    1.0638 O   0  0  0  0  0  0  0  0  0  0  0  0
   -1.3952   -0.9084    0.2428 N   0  0  0  0  0  0  0  0  0  0  0  0
   -2.1972   -0.3644   -0.0422 H   0  0  0  0  0  0  0  0  0  0  0  0
   -0.1122   -0.1994    0.2658 C   0  0  1  0  0  0  0  0  0  0  0  0
    0.6131   -0.7748   -0.3153 H   0  0  0  0  0  0  0  0  0  0  0  0
   -0.2973    1.1841   -0.3966 C   0  0  0  0  0  0  0  0  0  0  0  0
   -0.3535    1.0583   -1.4773 H   0  0  0  0  0  0  0  0  0  0  0  0
   -1.2327    1.6240   -0.0540 H   0  0  0  0  0  0  0  0  0  0  0  0
    0.8389    2.1568   -0.1247 C   0  0  0  0  0  0  0  0  0  0  0  0
    1.8209    2.2466   -0.8408 O   0  0  0  0  0  0  0  0  0  0  0  0
    0.7492    2.9210    0.9365 N   0  0  0  0  0  0  0  0  0  0  0  0
    1.5061    3.5659    1.0811 H   0  0  0  0  0  0  0  0  0  0  0  0
   -0.0571    2.8798    1.5309 H   0  0  0  0  0  0  0  0  0  0  0  0
    0.4075   -0.0985    1.7169 C   0  0  0  0  0  0  0  0  0  0  0  0
    1.5860   -0.3526    1.9662 O   0  0  0  0  0  0  0  0  0  0  0  0
   -0.4625    0.2583    2.6666 N   0  0  0  0  0  0  0  0  0  0  0  0
   -1.4309    0.3754    2.3860 H   0  0  0  0  0  0  0  0  0  0  0  0
   -0.1275    0.4111    4.0813 C   0  0  0  0  0  0  0  0  0  0  0  0
    0.6862    1.1312    4.1910 H   0  0  0  0  0  0  0  0  0  0  0  0
   -0.9980    0.7641    4.6360 H   0  0  0  0  0  0  0  0  0  0  0  0
    0.1959   -0.5481    4.4891 H   0  0  0  0  0  0  0  0  0  0  0  0
  5  6  2  0  0  0  0
  5  7  1  0  0  0  0
  2  3  1  0  0  0  0
  2  4  1  0  0  0  0
  2  5  1  0  0  0  0
  1  2  1  0  0  0  0
 19 20  2  0  0  0  0
 19 21  1  0  0  0  0
 16 17  1  0  0  0  0
 16 18  1  0  0  0  0
 14 15  2  0  0  0  0
 14 16  1  0  0  0  0
 11 12  1  0  0  0  0
 11 13  1  0  0  0  0
 11 14  1  0  0  0  0
  9 10  1  0  0  0  0
  9 11  1  0  0  0  0
  9 19  1  0  0  0  0
  7  8  1  0  0  0  0
  7  9  1  0  0  0  0
 23 24  1  0  0  0  0
 23 25  1  0  0  0  0
 23 26  1  0  0  0  0
 21 22  1  0  0  0  0
 21 23  1  0  0  0  0
M  END
$$$$
default_name
  -OEChem-02102213163D

 26 25  0     1  0  0  0  0  0999 V2000
   -3.0232   -3.6924    1.0038 H   0  0  0  0  0  0  0  0  0  0  0  0
   -3.0082   -2.6684    0.6318 C   0  0  0  0  0  0  0  0  0  0  0  0
   -3.6332   -2.0414    1.2658 H   0  0  0  0  0  0  0  0  0  0  0  0
   -3.3762   -2.6444   -0.3912 H   0  0  0  0  0  0  0  0  0  0  0  0
   -1.5882   -2.1554    0.6658 C   0  0  0  0  0  0  0  0  0  0  0  0
   -0.6832   -2.8764    1.0638 O   0  0  0  0  0  0  0  0  0  0  0  0
   -1.3952   -0.9084    0.2428 N   0  0  0  0  0  0  0  0  0  0  0  0
   -2.1972   -0.3644   -0.0422 H   0  0  0  0  0  0  0  0  0  0  0  0
   -0.1122   -0.1994    0.2658 C   0  0  1  0  0  0  0  0  0  0  0  0
    0.6131   -0.7748   -0.3153 H   0  0  0  0  0  0  0  0  0  0  0  0
   -0.2973    1.1841   -0.3966 C   0  0  0  0  0  0  0  0  0  0  0  0
   -0.3535    1.0583   -1.4773 H   0  0  0  0  0  0  0  0  0  0  0  0
   -1.2327    1.6240   -0.0540 H   0  0  0  0  0  0  0  0  0  0  0  0
    0.8389    2.1568   -0.1247 C   0  0  0  0  0  0  0  0  0  0  0  0
    1.6816    2.4420   -0.9576 O   0  0  0  0  0  0  0  0  0  0  0  0
    0.9082    2.6989    1.0668 N   0  0  0  0  0  0  0  0  0  0  0  0
    1.6589    3.3508    1.2120 H   0  0  0  0  0  0  0  0  0  0  0  0
    0.2164    2.4953    1.7632 H   0  0  0  0  0  0  0  0  0  0  0  0
    0.4075   -0.0985    1.7169 C   0  0  0  0  0  0  0  0  0  0  0  0
    1.5860   -0.3526    1.9662 O   0  0  0  0  0  0  0  0  0  0  0  0
   -0.4625    0.2583    2.6666 N   0  0  0  0  0  0  0  0  0  0  0  0
   -1.4309    0.3754    2.3860 H   0  0  0  0  0  0  0  0  0  0  0  0
   -0.1275    0.4111    4.0813 C   0  0  0  0  0  0  0  0  0  0  0  0
    0.6862    1.1312    4.1910 H   0  0  0  0  0  0  0  0  0  0  0  0
   -0.9980    0.7641    4.6360 H   0  0  0  0  0  0  0  0  0  0  0  0
    0.1959   -0.5481    4.4891 H   0  0  0  0  0  0  0  0  0  0  0  0
  5  6  2  0  0  0  0
  5  7  1  0  0  0  0
  2  3  1  0  0  0  0
  2  4  1  0  0  0  0
  2  5  1  0  0  0  0
  1  2  1  0  0  0  0
 19 20  2  0  0  0  0
 19 21  1  0  0  0  0
 16 17  1  0  0  0  0
 16 18  1  0  0  0  0
 14 15  2  0  0  0  0
 14 16  1  0  0  0  0
 11 12  1  0  0  0  0
 11 13  1  0  0  0  0
 11 14  1  0  0  0  0
  9 10  1  0  0  0  0
  9 11  1  0  0  0  0
  9 19  1  0  0  0  0
  7  8  1  0  0  0  0
  7  9  1  0  0  0  0
 23 24  1  0  0  0  0
 23 25  1  0  0  0  0
 23 26  1  0  0  0  0
 21 22  1  0  0  0  0
 21 23  1  0  0  0  0
M  END
$$$$
default_name
  -OEChem-02102213163D

 26 25  0     1  0  0  0  0  0999 V2000
   -3.0232   -3.6924    1.0038 H   0  0  0  0  0  0  0  0  0  0  0  0
   -3.0082   -2.6684    0.6318 C   0  0  0  0  0  0  0  0  0  0  0  0
   -3.6332   -2.0414    1.2658 H   0  0  0  0  0  0  0  0  0  0  0  0
   -3.3762   -2.6444   -0.3912 H   0  0  0  0  0  0  0  0  0  0  0  0
   -1.5882   -2.1554    0.6658 C   0  0  0  0  0  0  0  0  0  0  0  0
   -0.6832   -2.8764    1.0638 O   0  0  0  0  0  0  0  0  0  0  0  0
   -1.3952   -0.9084    0.2428 N   0  0  0  0  0  0  0  0  0  0  0  0
   -2.1972   -0.3644   -0.0422 H   0  0  0  0  0  0  0  0  0  0  0  0
   -0.1122   -0.1994    0.2658 C   0  0  1  0  0  0  0  0  0  0  0  0
    0.6131   -0.7748   -0.3153 H   0  0  0  0  0  0  0  0  0  0  0  0
   -0.2973    1.1841   -0.3966 C   0  0  0  0  0  0  0  0  0  0  0  0
   -0.3535    1.0583   -1.4773 H   0  0  0  0  0  0  0  0  0  0  0  0
   -1.2327    1.6240   -0.0540 H   0  0  0  0  0  0  0  0  0  0  0  0
    0.8389    2.1568   -0.1247 C   0  0  0  0  0  0  0  0  0  0  0  0
    1.5187    2.6469   -1.0096 O   0  0  0  0  0  0  0  0  0  0  0  0
    1.0936    2.4665    1.1233 N   0  0  0  0  0  0  0  0  0  0  0  0
    1.8382    3.1247    1.2714 H   0  0  0  0  0  0  0  0  0  0  0  0
    0.5369    2.0917    1.8680 H   0  0  0  0  0  0  0  0  0  0  0  0
    0.4075   -0.0985    1.7169 C   0  0  0  0  0  0  0  0  0  0  0  0
    1.5860   -0.3526    1.9662 O   0  0  0  0  0  0  0  0  0  0  0  0
   -0.4625    0.2583    2.6666 N   0  0  0  0  0  0  0  0  0  0  0  0
   -1.4309    0.3754    2.3860 H   0  0  0  0  0  0  0  0  0  0  0  0
   -0.1275    0.4111    4.0813 C   0  0  0  0  0  0  0  0  0  0  0  0
    0.6862    1.1312    4.1910 H   0  0  0  0  0  0  0  0  0  0  0  0
   -0.9980    0.7641    4.6360 H   0  0  0  0  0  0  0  0  0  0  0  0
    0.1959   -0.5481    4.4891 H   0  0  0  0  0  0  0  0  0  0  0  0
  5  6  2  0  0  0  0
  5  7  1  0  0  0  0
  2  3  1  0  0  0  0
  2  4  1  0  0  0  0
  2  5  1  0  0  0  0
  1  2  1  0  0  0  0
 19 20  2  0  0  0  0
 19 21  1  0  0  0  0
 16 17  1  0  0  0  0
 16 18  1  0  0  0  0
 14 15  2  0  0  0  0
 14 16  1  0  0  0  0
 11 12  1  0  0  0  0
 11 13  1  0  0  0  0
 11 14  1  0  0  0  0
  9 10  1  0  0  0  0
  9 11  1  0  0  0  0
  9 19  1  0  0  0  0
  7  8  1  0  0  0  0
  7  9  1  0  0  0  0
 23 24  1  0  0  0  0
 23 25  1  0  0  0  0
 23 26  1  0  0  0  0
 21 22  1  0  0  0  0
 21 23  1  0  0  0  0
M  END
$$$$
default_name
  -OEChem-02102213163D

 26 25  0     1  0  0  0  0  0999 V2000
   -3.0232   -3.6924    1.0038 H   0  0  0  0  0  0  0  0  0  0  0  0
   -3.0082   -2.6684    0.6318 C   0  0  0  0  0  0  0  0  0  0  0  0
   -3.6332   -2.0414    1.2658 H   0  0  0  0  0  0  0  0  0  0  0  0
   -3.3762   -2.6444   -0.3912 H   0  0  0  0  0  0  0  0  0  0  0  0
   -1.5882   -2.1554    0.6658 C   0  0  0  0  0  0  0  0  0  0  0  0
   -0.6832   -2.8764    1.0638 O   0  0  0  0  0  0  0  0  0  0  0  0
   -1.3952   -0.9084    0.2428 N   0  0  0  0  0  0  0  0  0  0  0  0
   -2.1972   -0.3644   -0.0422 H   0  0  0  0  0  0  0  0  0  0  0  0
   -0.1122   -0.1994    0.2658 C   0  0  1  0  0  0  0  0  0  0  0  0
    0.6131   -0.7748   -0.3153 H   0  0  0  0  0  0  0  0  0  0  0  0
   -0.2973    1.1841   -0.3966 C   0  0  0  0  0  0  0  0  0  0  0  0
   -0.3535    1.0583   -1.4773 H   0  0  0  0  0  0  0  0  0  0  0  0
   -1.2327    1.6240   -0.0540 H   0  0  0  0  0  0  0  0  0  0  0  0
    0.8389    2.1568   -0.1247 C   0  0  0  0  0  0  0  0  0  0  0  0
    1.3432    2.8473   -0.9931 O   0  0  0  0  0  0  0  0  0  0  0  0
    1.2928    2.2396    1.1022 N   0  0  0  0  0  0  0  0  0  0  0  0
    2.0317    2.9031    1.2555 H   0  0  0  0  0  0  0  0  0  0  0  0
    0.8824    1.6964    1.8381 H   0  0  0  0  0  0  0  0  0  0  0  0
    0.4075   -0.0985    1.7169 C   0  0  0  0  0  0  0  0  0  0  0  0
    1.5860   -0.3526    1.9662 O   0  0  0  0  0  0  0  0  0  0  0  0
   -0.4625    0.2583    2.6666 N   0  0  0  0  0  0  0  0  0  0  0  0
   -1.4309    0.3754    2.3860 H   0  0  0  0  0  0  0  0  0  0  0  0
   -0.1275    0.4111    4.0813 C   0  0  0  0  0  0  0  0  0  0  0  0
    0.6862    1.1312    4.1910 H   0  0  0  0  0  0  0  0  0  0  0  0
   -0.9980    0.7641    4.6360 H   0  0  0  0  0  0  0  0  0  0  0  0
    0.1959   -0.5481    4.4891 H   0  0  0  0  0  0  0  0  0  0  0  0
  5  6  2  0  0  0  0
  5  7  1  0  0  0  0
  2  3  1  0  0  0  0
  2  4  1  0  0  0  0
  2  5  1  0  0  0  0
  1  2  1  0  0  0  0
 19 20  2  0  0  0  0
 19 21  1  0  0  0  0
 16 17  1  0  0  0  0
 16 18  1  0  0  0  0
 14 15  2  0  0  0  0
 14 16  1  0  0  0  0
 11 12  1  0  0  0  0
 11 13  1  0  0  0  0
 11 14  1  0  0  0  0
  9 10  1  0  0  0  0
  9 11  1  0  0  0  0
  9 19  1  0  0  0  0
  7  8  1  0  0  0  0
  7  9  1  0  0  0  0
 23 24  1  0  0  0  0
 23 25  1  0  0  0  0
 23 26  1  0  0  0  0
 21 22  1  0  0  0  0
 21 23  1  0  0  0  0
M  END
$$$$
default_name
  -OEChem-02102213163D

 26 25  0     1  0  0  0  0  0999 V2000
   -3.0232   -3.6924    1.0038 H   0  0  0  0  0  0  0  0  0  0  0  0
   -3.0082   -2.6684    0.6318 C   0  0  0  0  0  0  0  0  0  0  0  0
   -3.6332   -2.0414    1.2658 H   0  0  0  0  0  0  0  0  0  0  0  0
   -3.3762   -2.6444   -0.3912 H   0  0  0  0  0  0  0  0  0  0  0  0
   -1.5882   -2.1554    0.6658 C   0  0  0  0  0  0  0  0  0  0  0  0
   -0.6832   -2.8764    1.0638 O   0  0  0  0  0  0  0  0  0  0  0  0
   -1.3952   -0.9084    0.2428 N   0  0  0  0  0  0  0  0  0  0  0  0
   -2.1972   -0.3644   -0.0422 H   0  0  0  0  0  0  0  0  0  0  0  0
   -0.1122   -0.1994    0.2658 C   0  0  1  0  0  0  0  0  0  0  0  0
    0.6131   -0.7748   -0.3153 H   0  0  0  0  0  0  0  0  0  0  0  0
   -0.2973    1.1841   -0.3966 C   0  0  0  0  0  0  0  0  0  0  0  0
   -0.3535    1.0583   -1.4773 H   0  0  0  0  0  0  0  0  0  0  0  0
   -1.2327    1.6240   -0.0540 H   0  0  0  0  0  0  0  0  0  0  0  0
    0.8389    2.1568   -0.1247 C   0  0  0  0  0  0  0  0  0  0  0  0
    1.1671    3.0295   -0.9094 O   0  0  0  0  0  0  0  0  0  0  0  0
    1.4923    2.0338    1.0050 N   0  0  0  0  0  0  0  0  0  0  0  0
    2.2262    2.7011    1.1651 H   0  0  0  0  0  0  0  0  0  0  0  0
    1.2295    1.3363    1.6755 H   0  0  0  0  0  0  0  0  0  0  0  0
    0.4075   -0.0985    1.7169 C   0  0  0  0  0  0  0  0  0  0  0  0
    1.5860   -0.3526    1.9662 O   0  0  0  0  0  0  0  0  0  0  0  0
   -0.4625    0.2583    2.6666 N   0  0  0  0  0  0  0  0  0  0  0  0
   -1.4309    0.3754    2.3860 H   0  0  0  0  0  0  0  0  0  0  0  0
   -0.1275    0.4111    4.0813 C   0  0  0  0  0  0  0  0  0  0  0  0
    0.6862    1.1312    4.1910 H   0  0  0  0  0  0  0  0  0  0  0  0
   -0.9980    0.7641    4.6360 H   0  0  0  0  0  0  0  0  0  0  0  0
    0.1959   -0.5481    4.4891 H   0  0  0  0  0  0  0  0  0  0  0  0
  5  6  2  0  0  0  0
  5  7  1  0  0  0  0
  2  3  1  0  0  0  0
  2  4  1  0  0  0  0
  2  5  1  0  0  0  0
  1  2  1  0  0  0  0
 19 20  2  0  0  0  0
 19 21  1  0  0  0  0
 16 17  1  0  0  0  0
 16 18  1  0  0  0  0
 14 15  2  0  0  0  0
 14 16  1  0  0  0  0
 11 12  1  0  0  0  0
 11 13  1  0  0  0  0
 11 14  1  0  0  0  0
  9 10  1  0  0  0  0
  9 11  1  0  0  0  0
  9 19  1  0  0  0  0
  7  8  1  0  0  0  0
  7  9  1  0  0  0  0
 23 24  1  0  0  0  0
 23 25  1  0  0  0  0
 23 26  1  0  0  0  0
 21 22  1  0  0  0  0
 21 23  1  0  0  0  0
M  END
$$$$
default_name
  -OEChem-02102213163D

 26 25  0     1  0  0  0  0  0999 V2000
   -3.0232   -3.6924    1.0038 H   0  0  0  0  0  0  0  0  0  0  0  0
   -3.0082   -2.6684    0.6318 C   0  0  0  0  0  0  0  0  0  0  0  0
   -3.6332   -2.0414    1.2658 H   0  0  0  0  0  0  0  0  0  0  0  0
   -3.3762   -2.6444   -0.3912 H   0  0  0  0  0  0  0  0  0  0  0  0
   -1.5882   -2.1554    0.6658 C   0  0  0  0  0  0  0  0  0  0  0  0
   -0.6832   -2.8764    1.0638 O   0  0  0  0  0  0  0  0  0  0  0  0
   -1.3952   -0.9084    0.2428 N   0  0  0  0  0  0  0  0  0  0  0  0
   -2.1972   -0.3644   -0.0422 H   0  0  0  0  0  0  0  0  0  0  0  0
   -0.1122   -0.1994    0.2658 C   0  0  1  0  0  0  0  0  0  0  0  0
    0.6131   -0.7748   -0.3153 H   0  0  0  0  0  0  0  0  0  0  0  0
   -0.2973    1.1841   -0.3966 C   0  0  0  0  0  0  0  0  0  0  0  0
   -0.3535    1.0583   -1.4773 H   0  0  0  0  0  0  0  0  0  0  0  0
   -1.2327    1.6240   -0.0540 H   0  0  0  0  0  0  0  0  0  0  0  0
    0.8389    2.1568   -0.1247 C   0  0  0  0  0  0  0  0  0  0  0  0
    1.0025    3.1812   -0.7642 O   0  0  0  0  0  0  0  0  0  0  0  0
    1.6784    1.8630    0.8383 N   0  0  0  0  0  0  0  0  0  0  0  0
    2.4085    2.5325    1.0066 H   0  0  0  0  0  0  0  0  0  0  0  0
    1.5546    1.0361    1.3913 H   0  0  0  0  0  0  0  0  0  0  0  0
    0.4075   -0.0985    1.7169 C   0  0  0  0  0  0  0  0  0  0  0  0
    1.5860   -0.3526    1.9662 O   0  0  0  0  0  0  0  0  0  0  0  0
   -0.4625    0.2583    2.6666 N   0  0  0  0  0  0  0  0  0  0  0  0
   -1.4309    0.3754    2.3860 H   0  0  0  0  0  0  0  0  0  0  0  0
   -0.1275    0.4111    4.0813 C   0  0  0  0  0  0  0  0  0  0  0  0
    0.6862    1.1312    4.1910 H   0  0  0  0  0  0  0  0  0  0  0  0
   -0.9980    0.7641    4.6360 H   0  0  0  0  0  0  0  0  0  0  0  0
    0.1959   -0.5481    4.4891 H   0  0  0  0  0  0  0  0  0  0  0  0
  5  6  2  0  0  0  0
  5  7  1  0  0  0  0
  2  3  1  0  0  0  0
  2  4  1  0  0  0  0
  2  5  1  0  0  0  0
  1  2  1  0  0  0  0
 19 20  2  0  0  0  0
 19 21  1  0  0  0  0
 16 17  1  0  0  0  0
 16 18  1  0  0  0  0
 14 15  2  0  0  0  0
 14 16  1  0  0  0  0
 11 12  1  0  0  0  0
 11 13  1  0  0  0  0
 11 14  1  0  0  0  0
  9 10  1  0  0  0  0
  9 11  1  0  0  0  0
  9 19  1  0  0  0  0
  7  8  1  0  0  0  0
  7  9  1  0  0  0  0
 23 24  1  0  0  0  0
 23 25  1  0  0  0  0
 23 26  1  0  0  0  0
 21 22  1  0  0  0  0
 21 23  1  0  0  0  0
M  END
$$$$
