
  -OEChem-04042215573D

 26 25  0     1  0  0  0  0  0999 V2000
   -2.9493   -3.9100    0.4555 H   0  0  0  0  0  0  0  0  0  0  0  0
   -2.9296   -2.8749    0.1035 C   0  0  0  0  0  0  0  0  0  0  0  0
   -3.6064   -2.2799    0.7214 H   0  0  0  0  0  0  0  0  0  0  0  0
   -3.2758   -2.8492   -0.9327 H   0  0  0  0  0  0  0  0  0  0  0  0
   -1.5209   -2.3185    0.1934 C   0  0  0  0  0  0  0  0  0  0  0  0
   -0.6205   -2.9974    0.6611 O   0  0  0  0  0  0  0  0  0  0  0  0
   -1.2599   -1.0326   -0.2330 N   0  0  0  0  0  0  0  0  0  0  0  0
   -2.0477   -0.4728   -0.5565 H   0  0  0  0  0  0  0  0  0  0  0  0
    0.0518   -0.3752   -0.1561 C   0  0  1  0  0  0  0  0  0  0  0  0
    0.7208   -0.9152    0.5234 H   0  0  0  0  0  0  0  0  0  0  0  0
    0.6345   -0.4177   -1.5844 C   0  0  0  0  0  0  0  0  0  0  0  0
    0.7035   -1.4622   -1.9017 H   0  0  0  0  0  0  0  0  0  0  0  0
   -0.0558    0.0928   -2.2626 H   0  0  0  0  0  0  0  0  0  0  0  0
    2.0135    0.2101   -1.7785 C   0  0  0  0  0  0  0  0  0  0  0  0
    2.5360    0.2123   -2.8750 O   0  0  0  0  0  0  0  0  0  0  0  0
    2.7240    0.8805   -0.8230 N   0  0  0  0  0  0  0  0  0  0  0  0
    3.5176    1.3953   -1.1951 H   0  0  0  0  0  0  0  0  0  0  0  0
    2.2057    1.2843   -0.0498 H   0  0  0  0  0  0  0  0  0  0  0  0
   -0.1187    1.0589    0.3824 C   0  0  0  0  0  0  0  0  0  0  0  0
   -0.9616    1.7976   -0.1076 O   0  0  0  0  0  0  0  0  0  0  0  0
    0.7332    1.5460    1.3589 N   0  0  0  0  0  0  0  0  0  0  0  0
    1.2766    0.8597    1.8786 H   0  0  0  0  0  0  0  0  0  0  0  0
    0.5846    2.8799    1.9313 C   0  0  0  0  0  0  0  0  0  0  0  0
   -0.3917    2.9829    2.4169 H   0  0  0  0  0  0  0  0  0  0  0  0
    1.3641    3.0605    2.6778 H   0  0  0  0  0  0  0  0  0  0  0  0
    0.6720    3.6446    1.1520 H   0  0  0  0  0  0  0  0  0  0  0  0
  1  2  1  0  0  0  0
  2  3  1  0  0  0  0
  2  4  1  0  0  0  0
  2  5  1  0  0  0  0
  5  6  2  0  0  0  0
  5  7  1  0  0  0  0
  7  8  1  0  0  0  0
  7  9  1  0  0  0  0
  9 10  1  0  0  0  0
  9 11  1  0  0  0  0
  9 19  1  0  0  0  0
 11 12  1  0  0  0  0
 11 13  1  0  0  0  0
 11 14  1  0  0  0  0
 14 15  2  0  0  0  0
 14 16  1  0  0  0  0
 16 17  1  0  0  0  0
 16 18  1  0  0  0  0
 19 20  2  0  0  0  0
 19 21  1  0  0  0  0
 21 22  1  0  0  0  0
 21 23  1  0  0  0  0
 23 24  1  0  0  0  0
 23 25  1  0  0  0  0
 23 26  1  0  0  0  0
M  END
$$$$

  -OEChem-04042215573D

 26 25  0     1  0  0  0  0  0999 V2000
   -2.9400   -3.9154    0.4650 H   0  0  0  0  0  0  0  0  0  0  0  0
   -2.9247   -2.8846    0.0999 C   0  0  0  0  0  0  0  0  0  0  0  0
   -3.6111   -2.2862    0.7038 H   0  0  0  0  0  0  0  0  0  0  0  0
   -3.2614   -2.8744   -0.9396 H   0  0  0  0  0  0  0  0  0  0  0  0
   -1.5207   -2.3176    0.1944 C   0  0  0  0  0  0  0  0  0  0  0  0
   -0.6160   -2.9901    0.6635 O   0  0  0  0  0  0  0  0  0  0  0  0
   -1.2664   -1.0317   -0.2357 N   0  0  0  0  0  0  0  0  0  0  0  0
   -2.0569   -0.4757   -0.5597 H   0  0  0  0  0  0  0  0  0  0  0  0
    0.0428   -0.3695   -0.1669 C   0  0  1  0  0  0  0  0  0  0  0  0
    0.7159   -0.9112    0.5066 H   0  0  0  0  0  0  0  0  0  0  0  0
    0.6144   -0.4057   -1.5980 C   0  0  0  0  0  0  0  0  0  0  0  0
    0.6911   -1.4481   -1.9195 H   0  0  0  0  0  0  0  0  0  0  0  0
   -0.0816    0.1025   -2.2726 H   0  0  0  0  0  0  0  0  0  0  0  0
    1.9882    0.2330   -1.7816 C   0  0  0  0  0  0  0  0  0  0  0  0
    2.4026    0.4972   -2.8923 O   0  0  0  0  0  0  0  0  0  0  0  0
    2.8402    0.5638   -0.7656 N   0  0  0  0  0  0  0  0  0  0  0  0
    3.6336    1.1271   -1.0597 H   0  0  0  0  0  0  0  0  0  0  0  0
    2.4457    0.7174    0.1536 H   0  0  0  0  0  0  0  0  0  0  0  0
   -0.1138    1.0673    0.3683 C   0  0  0  0  0  0  0  0  0  0  0  0
   -0.9691    1.8020   -0.1064 O   0  0  0  0  0  0  0  0  0  0  0  0
    0.7502    1.5514    1.3360 N   0  0  0  0  0  0  0  0  0  0  0  0
    1.2596    0.8611    1.8820 H   0  0  0  0  0  0  0  0  0  0  0  0
    0.6188    2.8947    1.8903 C   0  0  0  0  0  0  0  0  0  0  0  0
   -0.3340    3.0004    2.4197 H   0  0  0  0  0  0  0  0  0  0  0  0
    1.4322    3.0950    2.5943 H   0  0  0  0  0  0  0  0  0  0  0  0
    0.6632    3.6454    1.0938 H   0  0  0  0  0  0  0  0  0  0  0  0
  1  2  1  0  0  0  0
  2  3  1  0  0  0  0
  2  4  1  0  0  0  0
  2  5  1  0  0  0  0
  5  6  2  0  0  0  0
  5  7  1  0  0  0  0
  7  8  1  0  0  0  0
  7  9  1  0  0  0  0
  9 10  1  0  0  0  0
  9 11  1  0  0  0  0
  9 19  1  0  0  0  0
 11 12  1  0  0  0  0
 11 13  1  0  0  0  0
 11 14  1  0  0  0  0
 14 15  2  0  0  0  0
 14 16  1  0  0  0  0
 16 17  1  0  0  0  0
 16 18  1  0  0  0  0
 19 20  2  0  0  0  0
 19 21  1  0  0  0  0
 21 22  1  0  0  0  0
 21 23  1  0  0  0  0
 23 24  1  0  0  0  0
 23 25  1  0  0  0  0
 23 26  1  0  0  0  0
M  END
$$$$

  -OEChem-04042215573D

 26 25  0     1  0  0  0  0  0999 V2000
   -2.8662   -3.9340    0.5261 H   0  0  0  0  0  0  0  0  0  0  0  0
   -2.8849   -2.9061    0.1532 C   0  0  0  0  0  0  0  0  0  0  0  0
   -3.5375   -2.3101    0.7958 H   0  0  0  0  0  0  0  0  0  0  0  0
   -3.2880   -2.9071   -0.8624 H   0  0  0  0  0  0  0  0  0  0  0  0
   -1.4842   -2.3233    0.1523 C   0  0  0  0  0  0  0  0  0  0  0  0
   -0.5342   -3.0014    0.5139 O   0  0  0  0  0  0  0  0  0  0  0  0
   -1.2788   -1.0240   -0.2627 N   0  0  0  0  0  0  0  0  0  0  0  0
   -2.1022   -0.4574   -0.4650 H   0  0  0  0  0  0  0  0  0  0  0  0
    0.0108   -0.3253   -0.1949 C   0  0  1  0  0  0  0  0  0  0  0  0
    0.6874   -0.8523    0.4853 H   0  0  0  0  0  0  0  0  0  0  0  0
    0.6145   -0.2924   -1.6085 C   0  0  0  0  0  0  0  0  0  0  0  0
    0.7453   -1.3140   -1.9752 H   0  0  0  0  0  0  0  0  0  0  0  0
   -0.0687    0.2275   -2.2873 H   0  0  0  0  0  0  0  0  0  0  0  0
    1.9628    0.4136   -1.6398 C   0  0  0  0  0  0  0  0  0  0  0  0
    2.3489    1.0134   -2.6220 O   0  0  0  0  0  0  0  0  0  0  0  0
    2.9247    0.1803   -0.6964 N   0  0  0  0  0  0  0  0  0  0  0  0
    3.8564    0.4625   -0.9910 H   0  0  0  0  0  0  0  0  0  0  0  0
    2.8282   -0.6633   -0.1404 H   0  0  0  0  0  0  0  0  0  0  0  0
   -0.1889    1.1010    0.3637 C   0  0  0  0  0  0  0  0  0  0  0  0
   -1.1618    1.7539    0.0069 O   0  0  0  0  0  0  0  0  0  0  0  0
    0.6581    1.6150    1.3283 N   0  0  0  0  0  0  0  0  0  0  0  0
    1.4944    1.0842    1.5530 H   0  0  0  0  0  0  0  0  0  0  0  0
    0.5352    2.9728    1.8454 C   0  0  0  0  0  0  0  0  0  0  0  0
   -0.4429    3.1177    2.3161 H   0  0  0  0  0  0  0  0  0  0  0  0
    1.3095    3.1641    2.5945 H   0  0  0  0  0  0  0  0  0  0  0  0
    0.6487    3.7017    1.0358 H   0  0  0  0  0  0  0  0  0  0  0  0
  1  2  1  0  0  0  0
  2  3  1  0  0  0  0
  2  4  1  0  0  0  0
  2  5  1  0  0  0  0
  5  6  2  0  0  0  0
  5  7  1  0  0  0  0
  7  8  1  0  0  0  0
  7  9  1  0  0  0  0
  9 10  1  0  0  0  0
  9 11  1  0  0  0  0
  9 19  1  0  0  0  0
 11 12  1  0  0  0  0
 11 13  1  0  0  0  0
 11 14  1  0  0  0  0
 14 15  2  0  0  0  0
 14 16  1  0  0  0  0
 16 17  1  0  0  0  0
 16 18  1  0  0  0  0
 19 20  2  0  0  0  0
 19 21  1  0  0  0  0
 21 22  1  0  0  0  0
 21 23  1  0  0  0  0
 23 24  1  0  0  0  0
 23 25  1  0  0  0  0
 23 26  1  0  0  0  0
M  END
$$$$

  -OEChem-04042215573D

 26 25  0     1  0  0  0  0  0999 V2000
   -2.8842   -3.9215    0.5467 H   0  0  0  0  0  0  0  0  0  0  0  0
   -2.9002   -2.8954    0.1689 C   0  0  0  0  0  0  0  0  0  0  0  0
   -3.5328   -2.2895    0.8222 H   0  0  0  0  0  0  0  0  0  0  0  0
   -3.3248   -2.8974   -0.8381 H   0  0  0  0  0  0  0  0  0  0  0  0
   -1.4933   -2.3280    0.1373 C   0  0  0  0  0  0  0  0  0  0  0  0
   -0.5440   -3.0173    0.4790 O   0  0  0  0  0  0  0  0  0  0  0  0
   -1.2810   -1.0308   -0.2805 N   0  0  0  0  0  0  0  0  0  0  0  0
   -2.1020   -0.4531   -0.4602 H   0  0  0  0  0  0  0  0  0  0  0  0
    0.0136   -0.3414   -0.2157 C   0  0  1  0  0  0  0  0  0  0  0  0
    0.6839   -0.8707    0.4694 H   0  0  0  0  0  0  0  0  0  0  0  0
    0.6277   -0.3251   -1.6237 C   0  0  0  0  0  0  0  0  0  0  0  0
    0.7573   -1.3493   -1.9833 H   0  0  0  0  0  0  0  0  0  0  0  0
   -0.0446    0.1943   -2.3140 H   0  0  0  0  0  0  0  0  0  0  0  0
    1.9784    0.3749   -1.6300 C   0  0  0  0  0  0  0  0  0  0  0  0
    2.2850    1.1846   -2.4807 O   0  0  0  0  0  0  0  0  0  0  0  0
    2.9804    0.0095   -0.7746 N   0  0  0  0  0  0  0  0  0  0  0  0
    3.8995    0.3516   -1.0440 H   0  0  0  0  0  0  0  0  0  0  0  0
    2.9065   -0.9019   -0.3330 H   0  0  0  0  0  0  0  0  0  0  0  0
   -0.1704    1.0875    0.3403 C   0  0  0  0  0  0  0  0  0  0  0  0
   -1.1505    1.7410    0.0047 O   0  0  0  0  0  0  0  0  0  0  0  0
    0.6871    1.5901    1.3016 N   0  0  0  0  0  0  0  0  0  0  0  0
    1.5238    1.0544    1.5133 H   0  0  0  0  0  0  0  0  0  0  0  0
    0.5732    2.9428    1.8337 C   0  0  0  0  0  0  0  0  0  0  0  0
   -0.4021    3.0875    2.3104 H   0  0  0  0  0  0  0  0  0  0  0  0
    1.3516    3.1216    2.5817 H   0  0  0  0  0  0  0  0  0  0  0  0
    0.6867    3.6805    1.0321 H   0  0  0  0  0  0  0  0  0  0  0  0
  1  2  1  0  0  0  0
  2  3  1  0  0  0  0
  2  4  1  0  0  0  0
  2  5  1  0  0  0  0
  5  6  2  0  0  0  0
  5  7  1  0  0  0  0
  7  8  1  0  0  0  0
  7  9  1  0  0  0  0
  9 10  1  0  0  0  0
  9 11  1  0  0  0  0
  9 19  1  0  0  0  0
 11 12  1  0  0  0  0
 11 13  1  0  0  0  0
 11 14  1  0  0  0  0
 14 15  2  0  0  0  0
 14 16  1  0  0  0  0
 16 17  1  0  0  0  0
 16 18  1  0  0  0  0
 19 20  2  0  0  0  0
 19 21  1  0  0  0  0
 21 22  1  0  0  0  0
 21 23  1  0  0  0  0
 23 24  1  0  0  0  0
 23 25  1  0  0  0  0
 23 26  1  0  0  0  0
M  END
$$$$

  -OEChem-04042215573D

 26 25  0     1  0  0  0  0  0999 V2000
   -2.8983   -3.9124    0.5595 H   0  0  0  0  0  0  0  0  0  0  0  0
   -2.9094   -2.8877    0.1776 C   0  0  0  0  0  0  0  0  0  0  0  0
   -3.5277   -2.2730    0.8364 H   0  0  0  0  0  0  0  0  0  0  0  0
   -3.3467   -2.8893   -0.8238 H   0  0  0  0  0  0  0  0  0  0  0  0
   -1.4979   -2.3338    0.1250 C   0  0  0  0  0  0  0  0  0  0  0  0
   -0.5493   -3.0349    0.4440 O   0  0  0  0  0  0  0  0  0  0  0  0
   -1.2807   -1.0372   -0.2921 N   0  0  0  0  0  0  0  0  0  0  0  0
   -2.1000   -0.4503   -0.4496 H   0  0  0  0  0  0  0  0  0  0  0  0
    0.0184   -0.3559   -0.2323 C   0  0  1  0  0  0  0  0  0  0  0  0
    0.6882   -0.8885    0.4512 H   0  0  0  0  0  0  0  0  0  0  0  0
    0.6305   -0.3471   -1.6400 C   0  0  0  0  0  0  0  0  0  0  0  0
    0.7531   -1.3719   -1.9997 H   0  0  0  0  0  0  0  0  0  0  0  0
   -0.0373    0.1767   -2.3310 H   0  0  0  0  0  0  0  0  0  0  0  0
    1.9836    0.3461   -1.6369 C   0  0  0  0  0  0  0  0  0  0  0  0
    2.2126    1.3331   -2.3052 O   0  0  0  0  0  0  0  0  0  0  0  0
    3.0348   -0.1473   -0.9167 N   0  0  0  0  0  0  0  0  0  0  0  0
    3.9381    0.2504   -1.1611 H   0  0  0  0  0  0  0  0  0  0  0  0
    2.9852   -1.1152   -0.6124 H   0  0  0  0  0  0  0  0  0  0  0  0
   -0.1553    1.0732    0.3268 C   0  0  0  0  0  0  0  0  0  0  0  0
   -1.1442    1.7245    0.0122 O   0  0  0  0  0  0  0  0  0  0  0  0
    0.7100    1.5684    1.2851 N   0  0  0  0  0  0  0  0  0  0  0  0
    1.5522    1.0345    1.4792 H   0  0  0  0  0  0  0  0  0  0  0  0
    0.6031    2.9194    1.8227 C   0  0  0  0  0  0  0  0  0  0  0  0
   -0.3687    3.0650    2.3061 H   0  0  0  0  0  0  0  0  0  0  0  0
    1.3867    3.0936    2.5662 H   0  0  0  0  0  0  0  0  0  0  0  0
    0.7134    3.6594    1.0226 H   0  0  0  0  0  0  0  0  0  0  0  0
  1  2  1  0  0  0  0
  2  3  1  0  0  0  0
  2  4  1  0  0  0  0
  2  5  1  0  0  0  0
  5  6  2  0  0  0  0
  5  7  1  0  0  0  0
  7  8  1  0  0  0  0
  7  9  1  0  0  0  0
  9 10  1  0  0  0  0
  9 11  1  0  0  0  0
  9 19  1  0  0  0  0
 11 12  1  0  0  0  0
 11 13  1  0  0  0  0
 11 14  1  0  0  0  0
 14 15  2  0  0  0  0
 14 16  1  0  0  0  0
 16 17  1  0  0  0  0
 16 18  1  0  0  0  0
 19 20  2  0  0  0  0
 19 21  1  0  0  0  0
 21 22  1  0  0  0  0
 21 23  1  0  0  0  0
 23 24  1  0  0  0  0
 23 25  1  0  0  0  0
 23 26  1  0  0  0  0
M  END
$$$$

  -OEChem-04042215573D

 26 25  0     1  0  0  0  0  0999 V2000
   -2.9081   -3.9031    0.5694 H   0  0  0  0  0  0  0  0  0  0  0  0
   -2.9152   -2.8794    0.1850 C   0  0  0  0  0  0  0  0  0  0  0  0
   -3.5201   -2.2578    0.8496 H   0  0  0  0  0  0  0  0  0  0  0  0
   -3.3645   -2.8796   -0.8111 H   0  0  0  0  0  0  0  0  0  0  0  0
   -1.5001   -2.3373    0.1137 C   0  0  0  0  0  0  0  0  0  0  0  0
   -0.5523   -3.0483    0.4128 O   0  0  0  0  0  0  0  0  0  0  0  0
   -1.2793   -1.0407   -0.3007 N   0  0  0  0  0  0  0  0  0  0  0  0
   -2.0965   -0.4454   -0.4371 H   0  0  0  0  0  0  0  0  0  0  0  0
    0.0238   -0.3662   -0.2461 C   0  0  1  0  0  0  0  0  0  0  0  0
    0.6966   -0.9023    0.4320 H   0  0  0  0  0  0  0  0  0  0  0  0
    0.6283   -0.3607   -1.6568 C   0  0  0  0  0  0  0  0  0  0  0  0
    0.7411   -1.3859   -2.0192 H   0  0  0  0  0  0  0  0  0  0  0  0
   -0.0386    0.1690   -2.3443 H   0  0  0  0  0  0  0  0  0  0  0  0
    1.9845    0.3252   -1.6572 C   0  0  0  0  0  0  0  0  0  0  0  0
    2.1521    1.4423   -2.1014 O   0  0  0  0  0  0  0  0  0  0  0  0
    3.0856   -0.2807   -1.1224 N   0  0  0  0  0  0  0  0  0  0  0  0
    3.9721    0.1658   -1.3416 H   0  0  0  0  0  0  0  0  0  0  0  0
    3.0539   -1.2849   -0.9733 H   0  0  0  0  0  0  0  0  0  0  0  0
   -0.1458    1.0616    0.3191 C   0  0  0  0  0  0  0  0  0  0  0  0
   -1.1458    1.7070    0.0261 O   0  0  0  0  0  0  0  0  0  0  0  0
    0.7244    1.5518    1.2756 N   0  0  0  0  0  0  0  0  0  0  0  0
    1.5774    1.0272    1.4456 H   0  0  0  0  0  0  0  0  0  0  0  0
    0.6201    2.9014    1.8167 C   0  0  0  0  0  0  0  0  0  0  0  0
   -0.3506    3.0473    2.3021 H   0  0  0  0  0  0  0  0  0  0  0  0
    1.4050    3.0730    2.5593 H   0  0  0  0  0  0  0  0  0  0  0  0
    0.7298    3.6425    1.0179 H   0  0  0  0  0  0  0  0  0  0  0  0
  1  2  1  0  0  0  0
  2  3  1  0  0  0  0
  2  4  1  0  0  0  0
  2  5  1  0  0  0  0
  5  6  2  0  0  0  0
  5  7  1  0  0  0  0
  7  8  1  0  0  0  0
  7  9  1  0  0  0  0
  9 10  1  0  0  0  0
  9 11  1  0  0  0  0
  9 19  1  0  0  0  0
 11 12  1  0  0  0  0
 11 13  1  0  0  0  0
 11 14  1  0  0  0  0
 14 15  2  0  0  0  0
 14 16  1  0  0  0  0
 16 17  1  0  0  0  0
 16 18  1  0  0  0  0
 19 20  2  0  0  0  0
 19 21  1  0  0  0  0
 21 22  1  0  0  0  0
 21 23  1  0  0  0  0
 23 24  1  0  0  0  0
 23 25  1  0  0  0  0
 23 26  1  0  0  0  0
M  END
$$$$

  -OEChem-04042215573D

 26 25  0     1  0  0  0  0  0999 V2000
   -2.9144   -3.8941    0.5791 H   0  0  0  0  0  0  0  0  0  0  0  0
   -2.9195   -2.8701    0.1952 C   0  0  0  0  0  0  0  0  0  0  0  0
   -3.5074   -2.2439    0.8710 H   0  0  0  0  0  0  0  0  0  0  0  0
   -3.3863   -2.8658   -0.7929 H   0  0  0  0  0  0  0  0  0  0  0  0
   -1.5014   -2.3397    0.0995 C   0  0  0  0  0  0  0  0  0  0  0  0
   -0.5542   -3.0617    0.3724 O   0  0  0  0  0  0  0  0  0  0  0  0
   -1.2785   -1.0418   -0.3091 N   0  0  0  0  0  0  0  0  0  0  0  0
   -2.0940   -0.4385   -0.4185 H   0  0  0  0  0  0  0  0  0  0  0  0
    0.0275   -0.3726   -0.2558 C   0  0  1  0  0  0  0  0  0  0  0  0
    0.7022   -0.9125    0.4176 H   0  0  0  0  0  0  0  0  0  0  0  0
    0.6268   -0.3657   -1.6689 C   0  0  0  0  0  0  0  0  0  0  0  0
    0.7284   -1.3906   -2.0350 H   0  0  0  0  0  0  0  0  0  0  0  0
   -0.0392    0.1703   -2.3519 H   0  0  0  0  0  0  0  0  0  0  0  0
    1.9871    0.3129   -1.6793 C   0  0  0  0  0  0  0  0  0  0  0  0
    2.1226    1.5042   -1.8700 O   0  0  0  0  0  0  0  0  0  0  0  0
    3.1266   -0.3793   -1.3842 N   0  0  0  0  0  0  0  0  0  0  0  0
    3.9975    0.1075   -1.5783 H   0  0  0  0  0  0  0  0  0  0  0  0
    3.0974   -1.3940   -1.4137 H   0  0  0  0  0  0  0  0  0  0  0  0
   -0.1444    1.0519    0.3187 C   0  0  0  0  0  0  0  0  0  0  0  0
   -1.1552    1.6891    0.0429 O   0  0  0  0  0  0  0  0  0  0  0  0
    0.7262    1.5383    1.2770 N   0  0  0  0  0  0  0  0  0  0  0  0
    1.5979    1.0342    1.4091 H   0  0  0  0  0  0  0  0  0  0  0  0
    0.6228    2.8895    1.8148 C   0  0  0  0  0  0  0  0  0  0  0  0
   -0.3492    3.0381    2.2968 H   0  0  0  0  0  0  0  0  0  0  0  0
    1.4056    3.0612    2.5597 H   0  0  0  0  0  0  0  0  0  0  0  0
    0.7365    3.6286    1.0146 H   0  0  0  0  0  0  0  0  0  0  0  0
  1  2  1  0  0  0  0
  2  3  1  0  0  0  0
  2  4  1  0  0  0  0
  2  5  1  0  0  0  0
  5  6  2  0  0  0  0
  5  7  1  0  0  0  0
  7  8  1  0  0  0  0
  7  9  1  0  0  0  0
  9 10  1  0  0  0  0
  9 11  1  0  0  0  0
  9 19  1  0  0  0  0
 11 12  1  0  0  0  0
 11 13  1  0  0  0  0
 11 14  1  0  0  0  0
 14 15  2  0  0  0  0
 14 16  1  0  0  0  0
 16 17  1  0  0  0  0
 16 18  1  0  0  0  0
 19 20  2  0  0  0  0
 19 21  1  0  0  0  0
 21 22  1  0  0  0  0
 21 23  1  0  0  0  0
 23 24  1  0  0  0  0
 23 25  1  0  0  0  0
 23 26  1  0  0  0  0
M  END
$$$$

  -OEChem-04042215573D

 26 25  0     1  0  0  0  0  0999 V2000
   -2.9178   -3.8837    0.5855 H   0  0  0  0  0  0  0  0  0  0  0  0
   -2.9213   -2.8590    0.2036 C   0  0  0  0  0  0  0  0  0  0  0  0
   -3.4970   -2.2307    0.8876 H   0  0  0  0  0  0  0  0  0  0  0  0
   -3.4003   -2.8497   -0.7784 H   0  0  0  0  0  0  0  0  0  0  0  0
   -1.5012   -2.3370    0.0909 C   0  0  0  0  0  0  0  0  0  0  0  0
   -0.5556   -3.0680    0.3441 O   0  0  0  0  0  0  0  0  0  0  0  0
   -1.2752   -1.0377   -0.3117 N   0  0  0  0  0  0  0  0  0  0  0  0
   -2.0885   -0.4278   -0.4001 H   0  0  0  0  0  0  0  0  0  0  0  0
    0.0338   -0.3732   -0.2559 C   0  0  1  0  0  0  0  0  0  0  0  0
    0.7084   -0.9154    0.4158 H   0  0  0  0  0  0  0  0  0  0  0  0
    0.6306   -0.3684   -1.6718 C   0  0  0  0  0  0  0  0  0  0  0  0
    0.7196   -1.3954   -2.0353 H   0  0  0  0  0  0  0  0  0  0  0  0
   -0.0363    0.1703   -2.3514 H   0  0  0  0  0  0  0  0  0  0  0  0
    1.9969    0.3004   -1.7066 C   0  0  0  0  0  0  0  0  0  0  0  0
    2.1431    1.5043   -1.6403 O   0  0  0  0  0  0  0  0  0  0  0  0
    3.1464   -0.4362   -1.7047 N   0  0  0  0  0  0  0  0  0  0  0  0
    4.0048    0.0798   -1.8771 H   0  0  0  0  0  0  0  0  0  0  0  0
    3.0940   -1.4254   -1.9273 H   0  0  0  0  0  0  0  0  0  0  0  0
   -0.1476    1.0477    0.3275 C   0  0  0  0  0  0  0  0  0  0  0  0
   -1.1677    1.6754    0.0610 O   0  0  0  0  0  0  0  0  0  0  0  0
    0.7171    1.5334    1.2914 N   0  0  0  0  0  0  0  0  0  0  0  0
    1.6091    1.0567    1.3842 H   0  0  0  0  0  0  0  0  0  0  0  0
    0.6064    2.8851    1.8262 C   0  0  0  0  0  0  0  0  0  0  0  0
   -0.3699    3.0333    2.2993 H   0  0  0  0  0  0  0  0  0  0  0  0
    1.3823    3.0590    2.5779 H   0  0  0  0  0  0  0  0  0  0  0  0
    0.7264    3.6230    1.0259 H   0  0  0  0  0  0  0  0  0  0  0  0
  1  2  1  0  0  0  0
  2  3  1  0  0  0  0
  2  4  1  0  0  0  0
  2  5  1  0  0  0  0
  5  6  2  0  0  0  0
  5  7  1  0  0  0  0
  7  8  1  0  0  0  0
  7  9  1  0  0  0  0
  9 10  1  0  0  0  0
  9 11  1  0  0  0  0
  9 19  1  0  0  0  0
 11 12  1  0  0  0  0
 11 13  1  0  0  0  0
 11 14  1  0  0  0  0
 14 15  2  0  0  0  0
 14 16  1  0  0  0  0
 16 17  1  0  0  0  0
 16 18  1  0  0  0  0
 19 20  2  0  0  0  0
 19 21  1  0  0  0  0
 21 22  1  0  0  0  0
 21 23  1  0  0  0  0
 23 24  1  0  0  0  0
 23 25  1  0  0  0  0
 23 26  1  0  0  0  0
M  END
$$$$

  -OEChem-04042215573D

 26 25  0     1  0  0  0  0  0999 V2000
   -2.9227   -3.8699    0.5866 H   0  0  0  0  0  0  0  0  0  0  0  0
   -2.9218   -2.8446    0.2059 C   0  0  0  0  0  0  0  0  0  0  0  0
   -3.4928   -2.2141    0.8918 H   0  0  0  0  0  0  0  0  0  0  0  0
   -3.4023   -2.8320   -0.7754 H   0  0  0  0  0  0  0  0  0  0  0  0
   -1.4990   -2.3304    0.0926 C   0  0  0  0  0  0  0  0  0  0  0  0
   -0.5580   -3.0680    0.3429 O   0  0  0  0  0  0  0  0  0  0  0  0
   -1.2659   -1.0319   -0.3080 N   0  0  0  0  0  0  0  0  0  0  0  0
   -2.0758   -0.4168   -0.3907 H   0  0  0  0  0  0  0  0  0  0  0  0
    0.0457   -0.3731   -0.2430 C   0  0  1  0  0  0  0  0  0  0  0  0
    0.7172   -0.9155    0.4318 H   0  0  0  0  0  0  0  0  0  0  0  0
    0.6439   -0.3739   -1.6601 C   0  0  0  0  0  0  0  0  0  0  0  0
    0.7214   -1.4051   -2.0148 H   0  0  0  0  0  0  0  0  0  0  0  0
   -0.0239    0.1633   -2.3394 H   0  0  0  0  0  0  0  0  0  0  0  0
    2.0176    0.2819   -1.7247 C   0  0  0  0  0  0  0  0  0  0  0  0
    2.2208    1.4390   -1.4144 O   0  0  0  0  0  0  0  0  0  0  0  0
    3.1281   -0.4353   -2.0658 N   0  0  0  0  0  0  0  0  0  0  0  0
    3.9757    0.1012   -2.2283 H   0  0  0  0  0  0  0  0  0  0  0  0
    3.0128   -1.3504   -2.4895 H   0  0  0  0  0  0  0  0  0  0  0  0
   -0.1498    1.0464    0.3418 C   0  0  0  0  0  0  0  0  0  0  0  0
   -1.1726    1.6675    0.0675 O   0  0  0  0  0  0  0  0  0  0  0  0
    0.7016    1.5353    1.3157 N   0  0  0  0  0  0  0  0  0  0  0  0
    1.6111    1.0870    1.3792 H   0  0  0  0  0  0  0  0  0  0  0  0
    0.5744    2.8861    1.8486 C   0  0  0  0  0  0  0  0  0  0  0  0
   -0.4091    3.0278    2.3090 H   0  0  0  0  0  0  0  0  0  0  0  0
    1.3390    3.0650    2.6106 H   0  0  0  0  0  0  0  0  0  0  0  0
    0.7001    3.6246    1.0496 H   0  0  0  0  0  0  0  0  0  0  0  0
  1  2  1  0  0  0  0
  2  3  1  0  0  0  0
  2  4  1  0  0  0  0
  2  5  1  0  0  0  0
  5  6  2  0  0  0  0
  5  7  1  0  0  0  0
  7  8  1  0  0  0  0
  7  9  1  0  0  0  0
  9 10  1  0  0  0  0
  9 11  1  0  0  0  0
  9 19  1  0  0  0  0
 11 12  1  0  0  0  0
 11 13  1  0  0  0  0
 11 14  1  0  0  0  0
 14 15  2  0  0  0  0
 14 16  1  0  0  0  0
 16 17  1  0  0  0  0
 16 18  1  0  0  0  0
 19 20  2  0  0  0  0
 19 21  1  0  0  0  0
 21 22  1  0  0  0  0
 21 23  1  0  0  0  0
 23 24  1  0  0  0  0
 23 25  1  0  0  0  0
 23 26  1  0  0  0  0
M  END
$$$$

  -OEChem-04042215573D

 26 25  0     1  0  0  0  0  0999 V2000
   -2.9414   -3.8534    0.5854 H   0  0  0  0  0  0  0  0  0  0  0  0
   -2.9275   -2.8272    0.2076 C   0  0  0  0  0  0  0  0  0  0  0  0
   -3.4955   -2.1924    0.8920 H   0  0  0  0  0  0  0  0  0  0  0  0
   -3.4028   -2.8064   -0.7759 H   0  0  0  0  0  0  0  0  0  0  0  0
   -1.4990   -2.3272    0.1023 C   0  0  0  0  0  0  0  0  0  0  0  0
   -0.5663   -3.0725    0.3599 O   0  0  0  0  0  0  0  0  0  0  0  0
   -1.2531   -1.0320   -0.3011 N   0  0  0  0  0  0  0  0  0  0  0  0
   -2.0579   -0.4101   -0.3842 H   0  0  0  0  0  0  0  0  0  0  0  0
    0.0622   -0.3809   -0.2268 C   0  0  1  0  0  0  0  0  0  0  0  0
    0.7279   -0.9218    0.4551 H   0  0  0  0  0  0  0  0  0  0  0  0
    0.6658   -0.3876   -1.6431 C   0  0  0  0  0  0  0  0  0  0  0  0
    0.7365   -1.4229   -1.9873 H   0  0  0  0  0  0  0  0  0  0  0  0
   -0.0010    0.1475   -2.3252 H   0  0  0  0  0  0  0  0  0  0  0  0
    2.0471    0.2542   -1.7287 C   0  0  0  0  0  0  0  0  0  0  0  0
    2.3379    1.3078   -1.1969 O   0  0  0  0  0  0  0  0  0  0  0  0
    3.0632   -0.3480   -2.4131 N   0  0  0  0  0  0  0  0  0  0  0  0
    3.8979    0.2117   -2.5626 H   0  0  0  0  0  0  0  0  0  0  0  0
    2.8529   -1.1288   -3.0263 H   0  0  0  0  0  0  0  0  0  0  0  0
   -0.1453    1.0404    0.3518 C   0  0  0  0  0  0  0  0  0  0  0  0
   -1.1669    1.6571    0.0617 O   0  0  0  0  0  0  0  0  0  0  0  0
    0.6905    1.5364    1.3351 N   0  0  0  0  0  0  0  0  0  0  0  0
    1.6156    1.1163    1.3750 H   0  0  0  0  0  0  0  0  0  0  0  0
    0.5416    2.8852    1.8670 C   0  0  0  0  0  0  0  0  0  0  0  0
   -0.4504    3.0158    2.3122 H   0  0  0  0  0  0  0  0  0  0  0  0
    1.2924    3.0709    2.6410 H   0  0  0  0  0  0  0  0  0  0  0  0
    0.6715    3.6260    1.0709 H   0  0  0  0  0  0  0  0  0  0  0  0
  1  2  1  0  0  0  0
  2  3  1  0  0  0  0
  2  4  1  0  0  0  0
  2  5  1  0  0  0  0
  5  6  2  0  0  0  0
  5  7  1  0  0  0  0
  7  8  1  0  0  0  0
  7  9  1  0  0  0  0
  9 10  1  0  0  0  0
  9 11  1  0  0  0  0
  9 19  1  0  0  0  0
 11 12  1  0  0  0  0
 11 13  1  0  0  0  0
 11 14  1  0  0  0  0
 14 15  2  0  0  0  0
 14 16  1  0  0  0  0
 16 17  1  0  0  0  0
 16 18  1  0  0  0  0
 19 20  2  0  0  0  0
 19 21  1  0  0  0  0
 21 22  1  0  0  0  0
 21 23  1  0  0  0  0
 23 24  1  0  0  0  0
 23 25  1  0  0  0  0
 23 26  1  0  0  0  0
M  END
$$$$

  -OEChem-04042215573D

 26 25  0     1  0  0  0  0  0999 V2000
   -2.9120   -3.8550    0.5937 H   0  0  0  0  0  0  0  0  0  0  0  0
   -2.9106   -2.8248    0.2268 C   0  0  0  0  0  0  0  0  0  0  0  0
   -3.4565   -2.1979    0.9362 H   0  0  0  0  0  0  0  0  0  0  0  0
   -3.4174   -2.7941   -0.7408 H   0  0  0  0  0  0  0  0  0  0  0  0
   -1.4862   -2.3228    0.0824 C   0  0  0  0  0  0  0  0  0  0  0  0
   -0.5463   -3.0702    0.3054 O   0  0  0  0  0  0  0  0  0  0  0  0
   -1.2522   -1.0227   -0.3123 N   0  0  0  0  0  0  0  0  0  0  0  0
   -2.0599   -0.4015   -0.3665 H   0  0  0  0  0  0  0  0  0  0  0  0
    0.0625   -0.3686   -0.2502 C   0  0  1  0  0  0  0  0  0  0  0  0
    0.7418   -0.9128    0.4156 H   0  0  0  0  0  0  0  0  0  0  0  0
    0.6428   -0.3538   -1.6770 C   0  0  0  0  0  0  0  0  0  0  0  0
    0.7105   -1.3846   -2.0352 H   0  0  0  0  0  0  0  0  0  0  0  0
   -0.0390    0.1868   -2.3394 H   0  0  0  0  0  0  0  0  0  0  0  0
    2.0218    0.2905   -1.7901 C   0  0  0  0  0  0  0  0  0  0  0  0
    2.4190    1.1821   -1.0642 O   0  0  0  0  0  0  0  0  0  0  0  0
    2.9119   -0.1223   -2.7396 N   0  0  0  0  0  0  0  0  0  0  0  0
    3.8558    0.2471   -2.6701 H   0  0  0  0  0  0  0  0  0  0  0  0
    2.7259   -0.9699   -3.2657 H   0  0  0  0  0  0  0  0  0  0  0  0
   -0.1490    1.0458    0.3464 C   0  0  0  0  0  0  0  0  0  0  0  0
   -1.1797    1.6571    0.0767 O   0  0  0  0  0  0  0  0  0  0  0  0
    0.6944    1.5385    1.3246 N   0  0  0  0  0  0  0  0  0  0  0  0
    1.6337    1.1468    1.3188 H   0  0  0  0  0  0  0  0  0  0  0  0
    0.5276    2.8712    1.8911 C   0  0  0  0  0  0  0  0  0  0  0  0
   -0.4657    2.9775    2.3398 H   0  0  0  0  0  0  0  0  0  0  0  0
    1.2754    3.0459    2.6704 H   0  0  0  0  0  0  0  0  0  0  0  0
    0.6478    3.6344    1.1151 H   0  0  0  0  0  0  0  0  0  0  0  0
  1  2  1  0  0  0  0
  2  3  1  0  0  0  0
  2  4  1  0  0  0  0
  2  5  1  0  0  0  0
  5  6  2  0  0  0  0
  5  7  1  0  0  0  0
  7  8  1  0  0  0  0
  7  9  1  0  0  0  0
  9 10  1  0  0  0  0
  9 11  1  0  0  0  0
  9 19  1  0  0  0  0
 11 12  1  0  0  0  0
 11 13  1  0  0  0  0
 11 14  1  0  0  0  0
 14 15  2  0  0  0  0
 14 16  1  0  0  0  0
 16 17  1  0  0  0  0
 16 18  1  0  0  0  0
 19 20  2  0  0  0  0
 19 21  1  0  0  0  0
 21 22  1  0  0  0  0
 21 23  1  0  0  0  0
 23 24  1  0  0  0  0
 23 25  1  0  0  0  0
 23 26  1  0  0  0  0
M  END
$$$$

  -OEChem-04042215573D

 26 25  0     1  0  0  0  0  0999 V2000
   -2.9171   -3.8625    0.5964 H   0  0  0  0  0  0  0  0  0  0  0  0
   -2.9145   -2.8336    0.2258 C   0  0  0  0  0  0  0  0  0  0  0  0
   -3.4672   -2.2054    0.9287 H   0  0  0  0  0  0  0  0  0  0  0  0
   -3.4132   -2.8066   -0.7461 H   0  0  0  0  0  0  0  0  0  0  0  0
   -1.4899   -2.3299    0.0902 C   0  0  0  0  0  0  0  0  0  0  0  0
   -0.5507   -3.0761    0.3194 O   0  0  0  0  0  0  0  0  0  0  0  0
   -1.2570   -1.0299   -0.3055 N   0  0  0  0  0  0  0  0  0  0  0  0
   -2.0662   -0.4111   -0.3650 H   0  0  0  0  0  0  0  0  0  0  0  0
    0.0564   -0.3733   -0.2448 C   0  0  1  0  0  0  0  0  0  0  0  0
    0.7375   -0.9173    0.4195 H   0  0  0  0  0  0  0  0  0  0  0  0
    0.6381   -0.3515   -1.6708 C   0  0  0  0  0  0  0  0  0  0  0  0
    0.7139   -1.3806   -2.0319 H   0  0  0  0  0  0  0  0  0  0  0  0
   -0.0462    0.1879   -2.3317 H   0  0  0  0  0  0  0  0  0  0  0  0
    2.0154    0.2975   -1.7798 C   0  0  0  0  0  0  0  0  0  0  0  0
    2.5120    0.9897   -0.9102 O   0  0  0  0  0  0  0  0  0  0  0  0
    2.7827    0.1261   -2.8958 N   0  0  0  0  0  0  0  0  0  0  0  0
    3.7401    0.4625   -2.8458 H   0  0  0  0  0  0  0  0  0  0  0  0
    2.5152   -0.5700   -3.5839 H   0  0  0  0  0  0  0  0  0  0  0  0
   -0.1519    1.0417    0.3501 C   0  0  0  0  0  0  0  0  0  0  0  0
   -1.1727    1.6626    0.0662 O   0  0  0  0  0  0  0  0  0  0  0  0
    0.6940    1.5342    1.3257 N   0  0  0  0  0  0  0  0  0  0  0  0
    1.6314    1.1351    1.3162 H   0  0  0  0  0  0  0  0  0  0  0  0
    0.5403    2.8724    1.8829 C   0  0  0  0  0  0  0  0  0  0  0  0
   -0.4518    2.9909    2.3312 H   0  0  0  0  0  0  0  0  0  0  0  0
    1.2908    3.0454    2.6602 H   0  0  0  0  0  0  0  0  0  0  0  0
    0.6673    3.6287    1.1013 H   0  0  0  0  0  0  0  0  0  0  0  0
  1  2  1  0  0  0  0
  2  3  1  0  0  0  0
  2  4  1  0  0  0  0
  2  5  1  0  0  0  0
  5  6  2  0  0  0  0
  5  7  1  0  0  0  0
  7  8  1  0  0  0  0
  7  9  1  0  0  0  0
  9 10  1  0  0  0  0
  9 11  1  0  0  0  0
  9 19  1  0  0  0  0
 11 12  1  0  0  0  0
 11 13  1  0  0  0  0
 11 14  1  0  0  0  0
 14 15  2  0  0  0  0
 14 16  1  0  0  0  0
 16 17  1  0  0  0  0
 16 18  1  0  0  0  0
 19 20  2  0  0  0  0
 19 21  1  0  0  0  0
 21 22  1  0  0  0  0
 21 23  1  0  0  0  0
 23 24  1  0  0  0  0
 23 25  1  0  0  0  0
 23 26  1  0  0  0  0
M  END
$$$$

  -OEChem-04042215573D

 26 25  0     1  0  0  0  0  0999 V2000
   -2.9554   -3.8699    0.6025 H   0  0  0  0  0  0  0  0  0  0  0  0
   -2.9398   -2.8448    0.2218 C   0  0  0  0  0  0  0  0  0  0  0  0
   -3.5112   -2.2081    0.9017 H   0  0  0  0  0  0  0  0  0  0  0  0
   -3.4103   -2.8273   -0.7642 H   0  0  0  0  0  0  0  0  0  0  0  0
   -1.5107   -2.3452    0.1219 C   0  0  0  0  0  0  0  0  0  0  0  0
   -0.5815   -3.0887    0.3944 O   0  0  0  0  0  0  0  0  0  0  0  0
   -1.2638   -1.0538   -0.2938 N   0  0  0  0  0  0  0  0  0  0  0  0
   -2.0695   -0.4361   -0.3908 H   0  0  0  0  0  0  0  0  0  0  0  0
    0.0517   -0.4013   -0.2307 C   0  0  1  0  0  0  0  0  0  0  0  0
    0.7221   -0.9407    0.4486 H   0  0  0  0  0  0  0  0  0  0  0  0
    0.6528   -0.4005   -1.6479 C   0  0  0  0  0  0  0  0  0  0  0  0
    0.7369   -1.4333   -1.9971 H   0  0  0  0  0  0  0  0  0  0  0  0
   -0.0224    0.1315   -2.3237 H   0  0  0  0  0  0  0  0  0  0  0  0
    2.0323    0.2466   -1.7345 C   0  0  0  0  0  0  0  0  0  0  0  0
    2.6147    0.7209   -0.7752 O   0  0  0  0  0  0  0  0  0  0  0  0
    2.6909    0.3406   -2.9266 N   0  0  0  0  0  0  0  0  0  0  0  0
    3.5246    0.9213   -2.9387 H   0  0  0  0  0  0  0  0  0  0  0  0
    2.1943    0.1351   -3.7872 H   0  0  0  0  0  0  0  0  0  0  0  0
   -0.1389    1.0266    0.3340 C   0  0  0  0  0  0  0  0  0  0  0  0
   -1.1341    1.6680    0.0092 O   0  0  0  0  0  0  0  0  0  0  0  0
    0.7078    1.5253    1.3050 N   0  0  0  0  0  0  0  0  0  0  0  0
    1.6307    1.0922    1.3316 H   0  0  0  0  0  0  0  0  0  0  0  0
    0.5793    2.8778    1.8324 C   0  0  0  0  0  0  0  0  0  0  0  0
   -0.4095    3.0227    2.2803 H   0  0  0  0  0  0  0  0  0  0  0  0
    1.3346    3.0550    2.6040 H   0  0  0  0  0  0  0  0  0  0  0  0
    0.7168    3.6150    1.0345 H   0  0  0  0  0  0  0  0  0  0  0  0
  1  2  1  0  0  0  0
  2  3  1  0  0  0  0
  2  4  1  0  0  0  0
  2  5  1  0  0  0  0
  5  6  2  0  0  0  0
  5  7  1  0  0  0  0
  7  8  1  0  0  0  0
  7  9  1  0  0  0  0
  9 10  1  0  0  0  0
  9 11  1  0  0  0  0
  9 19  1  0  0  0  0
 11 12  1  0  0  0  0
 11 13  1  0  0  0  0
 11 14  1  0  0  0  0
 14 15  2  0  0  0  0
 14 16  1  0  0  0  0
 16 17  1  0  0  0  0
 16 18  1  0  0  0  0
 19 20  2  0  0  0  0
 19 21  1  0  0  0  0
 21 22  1  0  0  0  0
 21 23  1  0  0  0  0
 23 24  1  0  0  0  0
 23 25  1  0  0  0  0
 23 26  1  0  0  0  0
M  END
$$$$

  -OEChem-04042215573D

 26 25  0     1  0  0  0  0  0999 V2000
   -2.9441   -3.8955    0.6195 H   0  0  0  0  0  0  0  0  0  0  0  0
   -2.9413   -2.8725    0.2327 C   0  0  0  0  0  0  0  0  0  0  0  0
   -3.5154   -2.2382    0.9125 H   0  0  0  0  0  0  0  0  0  0  0  0
   -3.4169   -2.8658   -0.7511 H   0  0  0  0  0  0  0  0  0  0  0  0
   -1.5175   -2.3594    0.1230 C   0  0  0  0  0  0  0  0  0  0  0  0
   -0.5813   -3.0931    0.3974 O   0  0  0  0  0  0  0  0  0  0  0  0
   -1.2843   -1.0666   -0.2976 N   0  0  0  0  0  0  0  0  0  0  0  0
   -2.0968   -0.4594   -0.4006 H   0  0  0  0  0  0  0  0  0  0  0  0
    0.0261   -0.4024   -0.2452 C   0  0  1  0  0  0  0  0  0  0  0  0
    0.6992   -0.9409    0.4324 H   0  0  0  0  0  0  0  0  0  0  0  0
    0.6317   -0.3992   -1.6592 C   0  0  0  0  0  0  0  0  0  0  0  0
    0.7334   -1.4294   -2.0108 H   0  0  0  0  0  0  0  0  0  0  0  0
   -0.0450    0.1260   -2.3387 H   0  0  0  0  0  0  0  0  0  0  0  0
    2.0026    0.2682   -1.7189 C   0  0  0  0  0  0  0  0  0  0  0  0
    2.6682    0.5058   -0.7255 O   0  0  0  0  0  0  0  0  0  0  0  0
    2.5548    0.6500   -2.9075 N   0  0  0  0  0  0  0  0  0  0  0  0
    3.3872    1.2301   -2.8529 H   0  0  0  0  0  0  0  0  0  0  0  0
    1.9790    0.6558   -3.7428 H   0  0  0  0  0  0  0  0  0  0  0  0
   -0.1456    1.0280    0.3143 C   0  0  0  0  0  0  0  0  0  0  0  0
   -1.1247    1.6875   -0.0204 O   0  0  0  0  0  0  0  0  0  0  0  0
    0.7197    1.5210    1.2712 N   0  0  0  0  0  0  0  0  0  0  0  0
    1.6252    1.0536    1.3186 H   0  0  0  0  0  0  0  0  0  0  0  0
    0.6238    2.8784    1.7926 C   0  0  0  0  0  0  0  0  0  0  0  0
   -0.3555    3.0444    2.2540 H   0  0  0  0  0  0  0  0  0  0  0  0
    1.3935    3.0454    2.5523 H   0  0  0  0  0  0  0  0  0  0  0  0
    0.7637    3.6085    0.9887 H   0  0  0  0  0  0  0  0  0  0  0  0
  1  2  1  0  0  0  0
  2  3  1  0  0  0  0
  2  4  1  0  0  0  0
  2  5  1  0  0  0  0
  5  6  2  0  0  0  0
  5  7  1  0  0  0  0
  7  8  1  0  0  0  0
  7  9  1  0  0  0  0
  9 10  1  0  0  0  0
  9 11  1  0  0  0  0
  9 19  1  0  0  0  0
 11 12  1  0  0  0  0
 11 13  1  0  0  0  0
 11 14  1  0  0  0  0
 14 15  2  0  0  0  0
 14 16  1  0  0  0  0
 16 17  1  0  0  0  0
 16 18  1  0  0  0  0
 19 20  2  0  0  0  0
 19 21  1  0  0  0  0
 21 22  1  0  0  0  0
 21 23  1  0  0  0  0
 23 24  1  0  0  0  0
 23 25  1  0  0  0  0
 23 26  1  0  0  0  0
M  END
$$$$

  -OEChem-04042215573D

 26 25  0     1  0  0  0  0  0999 V2000
   -2.9362   -3.9233    0.6145 H   0  0  0  0  0  0  0  0  0  0  0  0
   -2.9399   -2.8975    0.2350 C   0  0  0  0  0  0  0  0  0  0  0  0
   -3.5176   -2.2712    0.9192 H   0  0  0  0  0  0  0  0  0  0  0  0
   -3.4169   -2.8870   -0.7480 H   0  0  0  0  0  0  0  0  0  0  0  0
   -1.5198   -2.3739    0.1276 C   0  0  0  0  0  0  0  0  0  0  0  0
   -0.5793   -3.0970    0.4141 O   0  0  0  0  0  0  0  0  0  0  0  0
   -1.2976   -1.0808   -0.2985 N   0  0  0  0  0  0  0  0  0  0  0  0
   -2.1166   -0.4863   -0.4193 H   0  0  0  0  0  0  0  0  0  0  0  0
    0.0057   -0.4025   -0.2570 C   0  0  1  0  0  0  0  0  0  0  0  0
    0.6814   -0.9372    0.4215 H   0  0  0  0  0  0  0  0  0  0  0  0
    0.6148   -0.4029   -1.6676 C   0  0  0  0  0  0  0  0  0  0  0  0
    0.7372   -1.4325   -2.0147 H   0  0  0  0  0  0  0  0  0  0  0  0
   -0.0642    0.1092   -2.3549 H   0  0  0  0  0  0  0  0  0  0  0  0
    1.9740    0.2872   -1.7007 C   0  0  0  0  0  0  0  0  0  0  0  0
    2.7244    0.2959   -0.7401 O   0  0  0  0  0  0  0  0  0  0  0  0
    2.4060    0.9642   -2.8048 N   0  0  0  0  0  0  0  0  0  0  0  0
    3.2377    1.5356   -2.6867 H   0  0  0  0  0  0  0  0  0  0  0  0
    1.7485    1.1637   -3.5517 H   0  0  0  0  0  0  0  0  0  0  0  0
   -0.1484    1.0304    0.2936 C   0  0  0  0  0  0  0  0  0  0  0  0
   -1.1093    1.7074   -0.0563 O   0  0  0  0  0  0  0  0  0  0  0  0
    0.7346    1.5199    1.2360 N   0  0  0  0  0  0  0  0  0  0  0  0
    1.6160    1.0137    1.3232 H   0  0  0  0  0  0  0  0  0  0  0  0
    0.6673    2.8823    1.7481 C   0  0  0  0  0  0  0  0  0  0  0  0
   -0.3045    3.0676    2.2178 H   0  0  0  0  0  0  0  0  0  0  0  0
    1.4473    3.0422    2.4988 H   0  0  0  0  0  0  0  0  0  0  0  0
    0.8110    3.6042    0.9375 H   0  0  0  0  0  0  0  0  0  0  0  0
  1  2  1  0  0  0  0
  2  3  1  0  0  0  0
  2  4  1  0  0  0  0
  2  5  1  0  0  0  0
  5  6  2  0  0  0  0
  5  7  1  0  0  0  0
  7  8  1  0  0  0  0
  7  9  1  0  0  0  0
  9 10  1  0  0  0  0
  9 11  1  0  0  0  0
  9 19  1  0  0  0  0
 11 12  1  0  0  0  0
 11 13  1  0  0  0  0
 11 14  1  0  0  0  0
 14 15  2  0  0  0  0
 14 16  1  0  0  0  0
 16 17  1  0  0  0  0
 16 18  1  0  0  0  0
 19 20  2  0  0  0  0
 19 21  1  0  0  0  0
 21 22  1  0  0  0  0
 21 23  1  0  0  0  0
 23 24  1  0  0  0  0
 23 25  1  0  0  0  0
 23 26  1  0  0  0  0
M  END
$$$$

  -OEChem-04042215573D

 26 25  0     1  0  0  0  0  0999 V2000
   -2.9035   -3.9464    0.6052 H   0  0  0  0  0  0  0  0  0  0  0  0
   -2.9210   -2.9239    0.2173 C   0  0  0  0  0  0  0  0  0  0  0  0
   -3.5222   -2.3039    0.8868 H   0  0  0  0  0  0  0  0  0  0  0  0
   -3.3814   -2.9309   -0.7736 H   0  0  0  0  0  0  0  0  0  0  0  0
   -1.5099   -2.3733    0.1280 C   0  0  0  0  0  0  0  0  0  0  0  0
   -0.5591   -3.0816    0.4169 O   0  0  0  0  0  0  0  0  0  0  0  0
   -1.3082   -1.0738   -0.2890 N   0  0  0  0  0  0  0  0  0  0  0  0
   -2.1362   -0.4934   -0.4159 H   0  0  0  0  0  0  0  0  0  0  0  0
   -0.0145   -0.3773   -0.2564 C   0  0  1  0  0  0  0  0  0  0  0  0
    0.6723   -0.9104    0.4120 H   0  0  0  0  0  0  0  0  0  0  0  0
    0.5864   -0.3666   -1.6691 C   0  0  0  0  0  0  0  0  0  0  0  0
    0.7280   -1.3926   -2.0200 H   0  0  0  0  0  0  0  0  0  0  0  0
   -0.1008    0.1366   -2.3547 H   0  0  0  0  0  0  0  0  0  0  0  0
    1.9311    0.3484   -1.6827 C   0  0  0  0  0  0  0  0  0  0  0  0
    2.7761    0.1432   -0.8302 O   0  0  0  0  0  0  0  0  0  0  0  0
    2.2390    1.2902   -2.6220 N   0  0  0  0  0  0  0  0  0  0  0  0
    3.1946    1.6349   -2.6325 H   0  0  0  0  0  0  0  0  0  0  0  0
    1.6312    1.4205   -3.4241 H   0  0  0  0  0  0  0  0  0  0  0  0
   -0.1649    1.0503    0.3057 C   0  0  0  0  0  0  0  0  0  0  0  0
   -1.1263    1.7323   -0.0315 O   0  0  0  0  0  0  0  0  0  0  0  0
    0.7337    1.5320    1.2376 N   0  0  0  0  0  0  0  0  0  0  0  0
    1.5944    0.9984    1.3554 H   0  0  0  0  0  0  0  0  0  0  0  0
    0.6790    2.8888    1.7659 C   0  0  0  0  0  0  0  0  0  0  0  0
   -0.2820    3.0703    2.2584 H   0  0  0  0  0  0  0  0  0  0  0  0
    1.4757    3.0391    2.5007 H   0  0  0  0  0  0  0  0  0  0  0  0
    0.8061    3.6193    0.9603 H   0  0  0  0  0  0  0  0  0  0  0  0
  1  2  1  0  0  0  0
  2  3  1  0  0  0  0
  2  4  1  0  0  0  0
  2  5  1  0  0  0  0
  5  6  2  0  0  0  0
  5  7  1  0  0  0  0
  7  8  1  0  0  0  0
  7  9  1  0  0  0  0
  9 10  1  0  0  0  0
  9 11  1  0  0  0  0
  9 19  1  0  0  0  0
 11 12  1  0  0  0  0
 11 13  1  0  0  0  0
 11 14  1  0  0  0  0
 14 15  2  0  0  0  0
 14 16  1  0  0  0  0
 16 17  1  0  0  0  0
 16 18  1  0  0  0  0
 19 20  2  0  0  0  0
 19 21  1  0  0  0  0
 21 22  1  0  0  0  0
 21 23  1  0  0  0  0
 23 24  1  0  0  0  0
 23 25  1  0  0  0  0
 23 26  1  0  0  0  0
M  END
$$$$

  -OEChem-04042215573D

 26 25  0     1  0  0  0  0  0999 V2000
   -2.9057   -3.9745    0.5392 H   0  0  0  0  0  0  0  0  0  0  0  0
   -2.9219   -2.9321    0.2089 C   0  0  0  0  0  0  0  0  0  0  0  0
   -3.5228   -2.3493    0.9111 H   0  0  0  0  0  0  0  0  0  0  0  0
   -3.3816   -2.8840   -0.7811 H   0  0  0  0  0  0  0  0  0  0  0  0
   -1.5102   -2.3789    0.1525 C   0  0  0  0  0  0  0  0  0  0  0  0
   -0.5691   -3.0715    0.5033 O   0  0  0  0  0  0  0  0  0  0  0  0
   -1.2979   -1.0896   -0.2905 N   0  0  0  0  0  0  0  0  0  0  0  0
   -2.1217   -0.5214   -0.4804 H   0  0  0  0  0  0  0  0  0  0  0  0
   -0.0011   -0.3985   -0.2685 C   0  0  1  0  0  0  0  0  0  0  0  0
    0.6898   -0.9245    0.4013 H   0  0  0  0  0  0  0  0  0  0  0  0
    0.5833   -0.4140   -1.6876 C   0  0  0  0  0  0  0  0  0  0  0  0
    0.7215   -1.4463   -2.0210 H   0  0  0  0  0  0  0  0  0  0  0  0
   -0.1053    0.0757   -2.3814 H   0  0  0  0  0  0  0  0  0  0  0  0
    1.9293    0.2942   -1.7167 C   0  0  0  0  0  0  0  0  0  0  0  0
    2.8667   -0.0882   -1.0428 O   0  0  0  0  0  0  0  0  0  0  0  0
    2.1062    1.4731   -2.3821 N   0  0  0  0  0  0  0  0  0  0  0  0
    2.9553    1.9852   -2.1614 H   0  0  0  0  0  0  0  0  0  0  0  0
    1.2857    1.9703   -2.7153 H   0  0  0  0  0  0  0  0  0  0  0  0
   -0.1368    1.0417    0.2615 C   0  0  0  0  0  0  0  0  0  0  0  0
   -1.0395    1.7559   -0.1590 O   0  0  0  0  0  0  0  0  0  0  0  0
    0.7628    1.5387    1.1849 N   0  0  0  0  0  0  0  0  0  0  0  0
    1.5609    0.9515    1.4210 H   0  0  0  0  0  0  0  0  0  0  0  0
    0.7300    2.9101    1.6771 C   0  0  0  0  0  0  0  0  0  0  0  0
   -0.2410    3.1315    2.1324 H   0  0  0  0  0  0  0  0  0  0  0  0
    1.5061    3.0583    2.4342 H   0  0  0  0  0  0  0  0  0  0  0  0
    0.9046    3.6155    0.8582 H   0  0  0  0  0  0  0  0  0  0  0  0
  1  2  1  0  0  0  0
  2  3  1  0  0  0  0
  2  4  1  0  0  0  0
  2  5  1  0  0  0  0
  5  6  2  0  0  0  0
  5  7  1  0  0  0  0
  7  8  1  0  0  0  0
  7  9  1  0  0  0  0
  9 10  1  0  0  0  0
  9 11  1  0  0  0  0
  9 19  1  0  0  0  0
 11 12  1  0  0  0  0
 11 13  1  0  0  0  0
 11 14  1  0  0  0  0
 14 15  2  0  0  0  0
 14 16  1  0  0  0  0
 16 17  1  0  0  0  0
 16 18  1  0  0  0  0
 19 20  2  0  0  0  0
 19 21  1  0  0  0  0
 21 22  1  0  0  0  0
 21 23  1  0  0  0  0
 23 24  1  0  0  0  0
 23 25  1  0  0  0  0
 23 26  1  0  0  0  0
M  END
$$$$

  -OEChem-04042215573D

 26 25  0     1  0  0  0  0  0999 V2000
   -2.8896   -3.9744    0.5464 H   0  0  0  0  0  0  0  0  0  0  0  0
   -2.9084   -2.9413    0.1879 C   0  0  0  0  0  0  0  0  0  0  0  0
   -3.5372   -2.3480    0.8561 H   0  0  0  0  0  0  0  0  0  0  0  0
   -3.3381   -2.9251   -0.8166 H   0  0  0  0  0  0  0  0  0  0  0  0
   -1.5024   -2.3723    0.1592 C   0  0  0  0  0  0  0  0  0  0  0  0
   -0.5618   -3.0508    0.5378 O   0  0  0  0  0  0  0  0  0  0  0  0
   -1.2946   -1.0815   -0.2820 N   0  0  0  0  0  0  0  0  0  0  0  0
   -2.1183   -0.5266   -0.5084 H   0  0  0  0  0  0  0  0  0  0  0  0
    0.0002   -0.3868   -0.2624 C   0  0  1  0  0  0  0  0  0  0  0  0
    0.7006   -0.9131    0.3972 H   0  0  0  0  0  0  0  0  0  0  0  0
    0.5673   -0.3952   -1.6891 C   0  0  0  0  0  0  0  0  0  0  0  0
    0.7033   -1.4262   -2.0279 H   0  0  0  0  0  0  0  0  0  0  0  0
   -0.1276    0.0958   -2.3759 H   0  0  0  0  0  0  0  0  0  0  0  0
    1.9110    0.3148   -1.7330 C   0  0  0  0  0  0  0  0  0  0  0  0
    2.9220   -0.2016   -1.2991 O   0  0  0  0  0  0  0  0  0  0  0  0
    2.0192    1.6134   -2.1415 N   0  0  0  0  0  0  0  0  0  0  0  0
    2.9007    2.0734   -1.9337 H   0  0  0  0  0  0  0  0  0  0  0  0
    1.1692    2.1632   -2.2364 H   0  0  0  0  0  0  0  0  0  0  0  0
   -0.1383    1.0518    0.2710 C   0  0  0  0  0  0  0  0  0  0  0  0
   -1.0101    1.7831   -0.1832 O   0  0  0  0  0  0  0  0  0  0  0  0
    0.7624    1.5486    1.1935 N   0  0  0  0  0  0  0  0  0  0  0  0
    1.5138    0.9324    1.4968 H   0  0  0  0  0  0  0  0  0  0  0  0
    0.7342    2.9197    1.6868 C   0  0  0  0  0  0  0  0  0  0  0  0
   -0.2229    3.1318    2.1749 H   0  0  0  0  0  0  0  0  0  0  0  0
    1.5352    3.0746    2.4161 H   0  0  0  0  0  0  0  0  0  0  0  0
    0.8745    3.6271    0.8630 H   0  0  0  0  0  0  0  0  0  0  0  0
  1  2  1  0  0  0  0
  2  3  1  0  0  0  0
  2  4  1  0  0  0  0
  2  5  1  0  0  0  0
  5  6  2  0  0  0  0
  5  7  1  0  0  0  0
  7  8  1  0  0  0  0
  7  9  1  0  0  0  0
  9 10  1  0  0  0  0
  9 11  1  0  0  0  0
  9 19  1  0  0  0  0
 11 12  1  0  0  0  0
 11 13  1  0  0  0  0
 11 14  1  0  0  0  0
 14 15  2  0  0  0  0
 14 16  1  0  0  0  0
 16 17  1  0  0  0  0
 16 18  1  0  0  0  0
 19 20  2  0  0  0  0
 19 21  1  0  0  0  0
 21 22  1  0  0  0  0
 21 23  1  0  0  0  0
 23 24  1  0  0  0  0
 23 25  1  0  0  0  0
 23 26  1  0  0  0  0
M  END
$$$$

  -OEChem-04042215573D

 26 25  0     1  0  0  0  0  0999 V2000
   -2.8750   -3.9907    0.4974 H   0  0  0  0  0  0  0  0  0  0  0  0
   -2.8959   -2.9548    0.1473 C   0  0  0  0  0  0  0  0  0  0  0  0
   -3.5592   -2.3771    0.7955 H   0  0  0  0  0  0  0  0  0  0  0  0
   -3.2865   -2.9362   -0.8729 H   0  0  0  0  0  0  0  0  0  0  0  0
   -1.4987   -2.3644    0.1773 C   0  0  0  0  0  0  0  0  0  0  0  0
   -0.5631   -3.0291    0.5913 O   0  0  0  0  0  0  0  0  0  0  0  0
   -1.2929   -1.0700   -0.2544 N   0  0  0  0  0  0  0  0  0  0  0  0
   -2.1132   -0.5304   -0.5248 H   0  0  0  0  0  0  0  0  0  0  0  0
   -0.0009   -0.3701   -0.2278 C   0  0  1  0  0  0  0  0  0  0  0  0
    0.7041   -0.8986    0.4245 H   0  0  0  0  0  0  0  0  0  0  0  0
    0.5533   -0.3744   -1.6607 C   0  0  0  0  0  0  0  0  0  0  0  0
    0.6831   -1.4058   -2.0016 H   0  0  0  0  0  0  0  0  0  0  0  0
   -0.1496    0.1169   -2.3391 H   0  0  0  0  0  0  0  0  0  0  0  0
    1.8959    0.3354   -1.7322 C   0  0  0  0  0  0  0  0  0  0  0  0
    2.9453   -0.2555   -1.5723 O   0  0  0  0  0  0  0  0  0  0  0  0
    1.9796    1.6803   -1.9566 N   0  0  0  0  0  0  0  0  0  0  0  0
    2.8931    2.1041   -1.8253 H   0  0  0  0  0  0  0  0  0  0  0  0
    1.1358    2.2427   -1.8724 H   0  0  0  0  0  0  0  0  0  0  0  0
   -0.1429    1.0650    0.3146 C   0  0  0  0  0  0  0  0  0  0  0  0
   -0.9834    1.8132   -0.1694 O   0  0  0  0  0  0  0  0  0  0  0  0
    0.7558    1.5573    1.2420 N   0  0  0  0  0  0  0  0  0  0  0  0
    1.4682    0.9214    1.5937 H   0  0  0  0  0  0  0  0  0  0  0  0
    0.7343    2.9295    1.7336 C   0  0  0  0  0  0  0  0  0  0  0  0
   -0.2272    3.1522    2.2081 H   0  0  0  0  0  0  0  0  0  0  0  0
    1.5268    3.0775    2.4736 H   0  0  0  0  0  0  0  0  0  0  0  0
    0.8939    3.6346    0.9112 H   0  0  0  0  0  0  0  0  0  0  0  0
  1  2  1  0  0  0  0
  2  3  1  0  0  0  0
  2  4  1  0  0  0  0
  2  5  1  0  0  0  0
  5  6  2  0  0  0  0
  5  7  1  0  0  0  0
  7  8  1  0  0  0  0
  7  9  1  0  0  0  0
  9 10  1  0  0  0  0
  9 11  1  0  0  0  0
  9 19  1  0  0  0  0
 11 12  1  0  0  0  0
 11 13  1  0  0  0  0
 11 14  1  0  0  0  0
 14 15  2  0  0  0  0
 14 16  1  0  0  0  0
 16 17  1  0  0  0  0
 16 18  1  0  0  0  0
 19 20  2  0  0  0  0
 19 21  1  0  0  0  0
 21 22  1  0  0  0  0
 21 23  1  0  0  0  0
 23 24  1  0  0  0  0
 23 25  1  0  0  0  0
 23 26  1  0  0  0  0
M  END
$$$$

  -OEChem-04042215573D

 26 25  0     1  0  0  0  0  0999 V2000
   -2.8949   -3.9597    0.5028 H   0  0  0  0  0  0  0  0  0  0  0  0
   -2.9021   -2.9290    0.1370 C   0  0  0  0  0  0  0  0  0  0  0  0
   -3.5604   -2.3336    0.7745 H   0  0  0  0  0  0  0  0  0  0  0  0
   -3.2898   -2.9206   -0.8846 H   0  0  0  0  0  0  0  0  0  0  0  0
   -1.4978   -2.3553    0.1627 C   0  0  0  0  0  0  0  0  0  0  0  0
   -0.5667   -3.0348    0.5630 O   0  0  0  0  0  0  0  0  0  0  0  0
   -1.2794   -1.0569   -0.2496 N   0  0  0  0  0  0  0  0  0  0  0  0
   -2.0956   -0.4990   -0.4945 H   0  0  0  0  0  0  0  0  0  0  0  0
    0.0168   -0.3672   -0.1948 C   0  0  1  0  0  0  0  0  0  0  0  0
    0.7102   -0.9046    0.4624 H   0  0  0  0  0  0  0  0  0  0  0  0
    0.5868   -0.3577   -1.6232 C   0  0  0  0  0  0  0  0  0  0  0  0
    0.7045   -1.3875   -1.9743 H   0  0  0  0  0  0  0  0  0  0  0  0
   -0.1074    0.1487   -2.2994 H   0  0  0  0  0  0  0  0  0  0  0  0
    1.9387    0.3377   -1.6932 C   0  0  0  0  0  0  0  0  0  0  0  0
    2.9753   -0.2849   -1.8079 O   0  0  0  0  0  0  0  0  0  0  0  0
    2.0504    1.6991   -1.7120 N   0  0  0  0  0  0  0  0  0  0  0  0
    2.9566    2.0809   -1.9669 H   0  0  0  0  0  0  0  0  0  0  0  0
    1.2093    2.2672   -1.7796 H   0  0  0  0  0  0  0  0  0  0  0  0
   -0.1468    1.0587    0.3670 C   0  0  0  0  0  0  0  0  0  0  0  0
   -1.0080    1.7945   -0.1000 O   0  0  0  0  0  0  0  0  0  0  0  0
    0.7262    1.5483    1.3202 N   0  0  0  0  0  0  0  0  0  0  0  0
    1.4593    0.9275    1.6543 H   0  0  0  0  0  0  0  0  0  0  0  0
    0.6646    2.9076    1.8428 C   0  0  0  0  0  0  0  0  0  0  0  0
   -0.3022    3.0894    2.3239 H   0  0  0  0  0  0  0  0  0  0  0  0
    1.4539    3.0632    2.5845 H   0  0  0  0  0  0  0  0  0  0  0  0
    0.8002    3.6355    1.0361 H   0  0  0  0  0  0  0  0  0  0  0  0
  1  2  1  0  0  0  0
  2  3  1  0  0  0  0
  2  4  1  0  0  0  0
  2  5  1  0  0  0  0
  5  6  2  0  0  0  0
  5  7  1  0  0  0  0
  7  8  1  0  0  0  0
  7  9  1  0  0  0  0
  9 10  1  0  0  0  0
  9 11  1  0  0  0  0
  9 19  1  0  0  0  0
 11 12  1  0  0  0  0
 11 13  1  0  0  0  0
 11 14  1  0  0  0  0
 14 15  2  0  0  0  0
 14 16  1  0  0  0  0
 16 17  1  0  0  0  0
 16 18  1  0  0  0  0
 19 20  2  0  0  0  0
 19 21  1  0  0  0  0
 21 22  1  0  0  0  0
 21 23  1  0  0  0  0
 23 24  1  0  0  0  0
 23 25  1  0  0  0  0
 23 26  1  0  0  0  0
M  END
$$$$

  -OEChem-04042215573D

 26 25  0     1  0  0  0  0  0999 V2000
   -2.9027   -3.9583    0.4626 H   0  0  0  0  0  0  0  0  0  0  0  0
   -2.9045   -2.9234    0.1087 C   0  0  0  0  0  0  0  0  0  0  0  0
   -3.5791   -2.3373    0.7375 H   0  0  0  0  0  0  0  0  0  0  0  0
   -3.2684   -2.9043   -0.9214 H   0  0  0  0  0  0  0  0  0  0  0  0
   -1.5026   -2.3469    0.1738 C   0  0  0  0  0  0  0  0  0  0  0  0
   -0.5820   -3.0244    0.6009 O   0  0  0  0  0  0  0  0  0  0  0  0
   -1.2735   -1.0482   -0.2322 N   0  0  0  0  0  0  0  0  0  0  0  0
   -2.0805   -0.4933   -0.5123 H   0  0  0  0  0  0  0  0  0  0  0  0
    0.0257   -0.3655   -0.1598 C   0  0  1  0  0  0  0  0  0  0  0  0
    0.7108   -0.9066    0.5029 H   0  0  0  0  0  0  0  0  0  0  0  0
    0.6050   -0.3649   -1.5867 C   0  0  0  0  0  0  0  0  0  0  0  0
    0.7108   -1.3978   -1.9323 H   0  0  0  0  0  0  0  0  0  0  0  0
   -0.0840    0.1454   -2.2654 H   0  0  0  0  0  0  0  0  0  0  0  0
    1.9642    0.3163   -1.6767 C   0  0  0  0  0  0  0  0  0  0  0  0
    2.9521   -0.2794   -2.0570 O   0  0  0  0  0  0  0  0  0  0  0  0
    2.1122    1.6669   -1.5341 N   0  0  0  0  0  0  0  0  0  0  0  0
    2.9776    2.0588   -1.8941 H   0  0  0  0  0  0  0  0  0  0  0  0
    1.2761    2.2442   -1.4742 H   0  0  0  0  0  0  0  0  0  0  0  0
   -0.1437    1.0584    0.4052 C   0  0  0  0  0  0  0  0  0  0  0  0
   -0.9794    1.8065   -0.0872 O   0  0  0  0  0  0  0  0  0  0  0  0
    0.7167    1.5433    1.3724 N   0  0  0  0  0  0  0  0  0  0  0  0
    1.4248    0.9106    1.7367 H   0  0  0  0  0  0  0  0  0  0  0  0
    0.6492    2.9003    1.9009 C   0  0  0  0  0  0  0  0  0  0  0  0
   -0.3260    3.0833    2.3642 H   0  0  0  0  0  0  0  0  0  0  0  0
    1.4246    3.0491    2.6586 H   0  0  0  0  0  0  0  0  0  0  0  0
    0.8031    3.6320    1.1009 H   0  0  0  0  0  0  0  0  0  0  0  0
  1  2  1  0  0  0  0
  2  3  1  0  0  0  0
  2  4  1  0  0  0  0
  2  5  1  0  0  0  0
  5  6  2  0  0  0  0
  5  7  1  0  0  0  0
  7  8  1  0  0  0  0
  7  9  1  0  0  0  0
  9 10  1  0  0  0  0
  9 11  1  0  0  0  0
  9 19  1  0  0  0  0
 11 12  1  0  0  0  0
 11 13  1  0  0  0  0
 11 14  1  0  0  0  0
 14 15  2  0  0  0  0
 14 16  1  0  0  0  0
 16 17  1  0  0  0  0
 16 18  1  0  0  0  0
 19 20  2  0  0  0  0
 19 21  1  0  0  0  0
 21 22  1  0  0  0  0
 21 23  1  0  0  0  0
 23 24  1  0  0  0  0
 23 25  1  0  0  0  0
 23 26  1  0  0  0  0
M  END
$$$$

  -OEChem-04042215573D

 26 25  0     1  0  0  0  0  0999 V2000
   -2.9201   -3.9485    0.4335 H   0  0  0  0  0  0  0  0  0  0  0  0
   -2.9114   -2.9115    0.0864 C   0  0  0  0  0  0  0  0  0  0  0  0
   -3.5969   -2.3272    0.7048 H   0  0  0  0  0  0  0  0  0  0  0  0
   -3.2542   -2.8853   -0.9508 H   0  0  0  0  0  0  0  0  0  0  0  0
   -1.5097   -2.3390    0.1839 C   0  0  0  0  0  0  0  0  0  0  0  0
   -0.6003   -3.0184    0.6320 O   0  0  0  0  0  0  0  0  0  0  0  0
   -1.2667   -1.0422   -0.2203 N   0  0  0  0  0  0  0  0  0  0  0  0
   -2.0646   -0.4852   -0.5218 H   0  0  0  0  0  0  0  0  0  0  0  0
    0.0371   -0.3696   -0.1343 C   0  0  1  0  0  0  0  0  0  0  0  0
    0.7107   -0.9128    0.5381 H   0  0  0  0  0  0  0  0  0  0  0  0
    0.6268   -0.3868   -1.5595 C   0  0  0  0  0  0  0  0  0  0  0  0
    0.7182   -1.4251   -1.8934 H   0  0  0  0  0  0  0  0  0  0  0  0
   -0.0569    0.1243   -2.2431 H   0  0  0  0  0  0  0  0  0  0  0  0
    1.9957    0.2745   -1.6771 C   0  0  0  0  0  0  0  0  0  0  0  0
    2.8960   -0.2506   -2.3012 O   0  0  0  0  0  0  0  0  0  0  0  0
    2.2189    1.5826   -1.3534 N   0  0  0  0  0  0  0  0  0  0  0  0
    3.0440    1.9964   -1.7781 H   0  0  0  0  0  0  0  0  0  0  0  0
    1.4124    2.1686   -1.1481 H   0  0  0  0  0  0  0  0  0  0  0  0
   -0.1360    1.0545    0.4288 C   0  0  0  0  0  0  0  0  0  0  0  0
   -0.9525    1.8100   -0.0825 O   0  0  0  0  0  0  0  0  0  0  0  0
    0.7120    1.5389    1.4073 N   0  0  0  0  0  0  0  0  0  0  0  0
    1.3986    0.8984    1.7984 H   0  0  0  0  0  0  0  0  0  0  0  0
    0.6266    2.8910    1.9466 C   0  0  0  0  0  0  0  0  0  0  0  0
   -0.3551    3.0602    2.4018 H   0  0  0  0  0  0  0  0  0  0  0  0
    1.3932    3.0416    2.7130 H   0  0  0  0  0  0  0  0  0  0  0  0
    0.7804    3.6316    1.1548 H   0  0  0  0  0  0  0  0  0  0  0  0
  1  2  1  0  0  0  0
  2  3  1  0  0  0  0
  2  4  1  0  0  0  0
  2  5  1  0  0  0  0
  5  6  2  0  0  0  0
  5  7  1  0  0  0  0
  7  8  1  0  0  0  0
  7  9  1  0  0  0  0
  9 10  1  0  0  0  0
  9 11  1  0  0  0  0
  9 19  1  0  0  0  0
 11 12  1  0  0  0  0
 11 13  1  0  0  0  0
 11 14  1  0  0  0  0
 14 15  2  0  0  0  0
 14 16  1  0  0  0  0
 16 17  1  0  0  0  0
 16 18  1  0  0  0  0
 19 20  2  0  0  0  0
 19 21  1  0  0  0  0
 21 22  1  0  0  0  0
 21 23  1  0  0  0  0
 23 24  1  0  0  0  0
 23 25  1  0  0  0  0
 23 26  1  0  0  0  0
M  END
$$$$

  -OEChem-04042215573D

 26 25  0     1  0  0  0  0  0999 V2000
   -2.9408   -3.9212    0.4423 H   0  0  0  0  0  0  0  0  0  0  0  0
   -2.9218   -2.8845    0.0945 C   0  0  0  0  0  0  0  0  0  0  0  0
   -3.5996   -2.2924    0.7142 H   0  0  0  0  0  0  0  0  0  0  0  0
   -3.2666   -2.8552   -0.9419 H   0  0  0  0  0  0  0  0  0  0  0  0
   -1.5138   -2.3274    0.1879 C   0  0  0  0  0  0  0  0  0  0  0  0
   -0.6120   -3.0124    0.6431 O   0  0  0  0  0  0  0  0  0  0  0  0
   -1.2564   -1.0359   -0.2234 N   0  0  0  0  0  0  0  0  0  0  0  0
   -2.0477   -0.4718   -0.5298 H   0  0  0  0  0  0  0  0  0  0  0  0
    0.0538   -0.3766   -0.1369 C   0  0  1  0  0  0  0  0  0  0  0  0
    0.7209   -0.9185    0.5428 H   0  0  0  0  0  0  0  0  0  0  0  0
    0.6477   -0.4108   -1.5616 C   0  0  0  0  0  0  0  0  0  0  0  0
    0.7225   -1.4536   -1.8853 H   0  0  0  0  0  0  0  0  0  0  0  0
   -0.0331    0.1029   -2.2460 H   0  0  0  0  0  0  0  0  0  0  0  0
    2.0264    0.2265   -1.7152 C   0  0  0  0  0  0  0  0  0  0  0  0
    2.8048   -0.1807   -2.5541 O   0  0  0  0  0  0  0  0  0  0  0  0
    2.3914    1.4173   -1.1543 N   0  0  0  0  0  0  0  0  0  0  0  0
    3.1932    1.8600   -1.5947 H   0  0  0  0  0  0  0  0  0  0  0  0
    1.6580    2.0021   -0.7610 H   0  0  0  0  0  0  0  0  0  0  0  0
   -0.1277    1.0496    0.4185 C   0  0  0  0  0  0  0  0  0  0  0  0
   -0.9545    1.7965   -0.0874 O   0  0  0  0  0  0  0  0  0  0  0  0
    0.7107    1.5412    1.4020 N   0  0  0  0  0  0  0  0  0  0  0  0
    1.3744    0.8946    1.8223 H   0  0  0  0  0  0  0  0  0  0  0  0
    0.5785    2.8770    1.9724 C   0  0  0  0  0  0  0  0  0  0  0  0
   -0.4049    2.9984    2.4389 H   0  0  0  0  0  0  0  0  0  0  0  0
    1.3456    3.0401    2.7356 H   0  0  0  0  0  0  0  0  0  0  0  0
    0.6971    3.6405    1.1965 H   0  0  0  0  0  0  0  0  0  0  0  0
  1  2  1  0  0  0  0
  2  3  1  0  0  0  0
  2  4  1  0  0  0  0
  2  5  1  0  0  0  0
  5  6  2  0  0  0  0
  5  7  1  0  0  0  0
  7  8  1  0  0  0  0
  7  9  1  0  0  0  0
  9 10  1  0  0  0  0
  9 11  1  0  0  0  0
  9 19  1  0  0  0  0
 11 12  1  0  0  0  0
 11 13  1  0  0  0  0
 11 14  1  0  0  0  0
 14 15  2  0  0  0  0
 14 16  1  0  0  0  0
 16 17  1  0  0  0  0
 16 18  1  0  0  0  0
 19 20  2  0  0  0  0
 19 21  1  0  0  0  0
 21 22  1  0  0  0  0
 21 23  1  0  0  0  0
 23 24  1  0  0  0  0
 23 25  1  0  0  0  0
 23 26  1  0  0  0  0
M  END
$$$$

  -OEChem-04042215573D

 26 25  0     1  0  0  0  0  0999 V2000
   -2.9422   -3.9130    0.4551 H   0  0  0  0  0  0  0  0  0  0  0  0
   -2.9238   -2.8772    0.1045 C   0  0  0  0  0  0  0  0  0  0  0  0
   -3.6007   -2.2833    0.7235 H   0  0  0  0  0  0  0  0  0  0  0  0
   -3.2705   -2.8505   -0.9315 H   0  0  0  0  0  0  0  0  0  0  0  0
   -1.5157   -2.3194    0.1940 C   0  0  0  0  0  0  0  0  0  0  0  0
   -0.6140   -3.0007    0.6553 O   0  0  0  0  0  0  0  0  0  0  0  0
   -1.2565   -1.0315   -0.2275 N   0  0  0  0  0  0  0  0  0  0  0  0
   -2.0458   -0.4688   -0.5423 H   0  0  0  0  0  0  0  0  0  0  0  0
    0.0557   -0.3752   -0.1507 C   0  0  1  0  0  0  0  0  0  0  0  0
    0.7265   -0.9148    0.5273 H   0  0  0  0  0  0  0  0  0  0  0  0
    0.6393   -0.4117   -1.5792 C   0  0  0  0  0  0  0  0  0  0  0  0
    0.7057   -1.4551   -1.9017 H   0  0  0  0  0  0  0  0  0  0  0  0
   -0.0492    0.1032   -2.2555 H   0  0  0  0  0  0  0  0  0  0  0  0
    2.0195    0.2167   -1.7667 C   0  0  0  0  0  0  0  0  0  0  0  0
    2.6607   -0.0074   -2.7738 O   0  0  0  0  0  0  0  0  0  0  0  0
    2.5861    1.1517   -0.9467 N   0  0  0  0  0  0  0  0  0  0  0  0
    3.3872    1.6268   -1.3538 H   0  0  0  0  0  0  0  0  0  0  0  0
    1.9743    1.6710   -0.3234 H   0  0  0  0  0  0  0  0  0  0  0  0
   -0.1275    1.0544    0.3958 C   0  0  0  0  0  0  0  0  0  0  0  0
   -0.9723    1.7901   -0.0958 O   0  0  0  0  0  0  0  0  0  0  0  0
    0.7153    1.5499    1.3750 N   0  0  0  0  0  0  0  0  0  0  0  0
    1.3271    0.8849    1.8439 H   0  0  0  0  0  0  0  0  0  0  0  0
    0.5603    2.8795    1.9554 C   0  0  0  0  0  0  0  0  0  0  0  0
   -0.4202    2.9773    2.4334 H   0  0  0  0  0  0  0  0  0  0  0  0
    1.3325    3.0547    2.7109 H   0  0  0  0  0  0  0  0  0  0  0  0
    0.6534    3.6503    1.1829 H   0  0  0  0  0  0  0  0  0  0  0  0
  1  2  1  0  0  0  0
  2  3  1  0  0  0  0
  2  4  1  0  0  0  0
  2  5  1  0  0  0  0
  5  6  2  0  0  0  0
  5  7  1  0  0  0  0
  7  8  1  0  0  0  0
  7  9  1  0  0  0  0
  9 10  1  0  0  0  0
  9 11  1  0  0  0  0
  9 19  1  0  0  0  0
 11 12  1  0  0  0  0
 11 13  1  0  0  0  0
 11 14  1  0  0  0  0
 14 15  2  0  0  0  0
 14 16  1  0  0  0  0
 16 17  1  0  0  0  0
 16 18  1  0  0  0  0
 19 20  2  0  0  0  0
 19 21  1  0  0  0  0
 21 22  1  0  0  0  0
 21 23  1  0  0  0  0
 23 24  1  0  0  0  0
 23 25  1  0  0  0  0
 23 26  1  0  0  0  0
M  END
$$$$

  -OEChem-04042215573D

 26 25  0     1  0  0  0  0  0999 V2000
   -2.9851   -3.9154    0.4570 H   0  0  0  0  0  0  0  0  0  0  0  0
   -2.9608   -2.8832    0.0964 C   0  0  0  0  0  0  0  0  0  0  0  0
   -3.6428   -2.2820    0.7025 H   0  0  0  0  0  0  0  0  0  0  0  0
   -3.2970   -2.8660   -0.9432 H   0  0  0  0  0  0  0  0  0  0  0  0
   -1.5521   -2.3281    0.1952 C   0  0  0  0  0  0  0  0  0  0  0  0
   -0.6578   -3.0070    0.6744 O   0  0  0  0  0  0  0  0  0  0  0  0
   -1.2833   -1.0465   -0.2404 N   0  0  0  0  0  0  0  0  0  0  0  0
   -2.0671   -0.4877   -0.5750 H   0  0  0  0  0  0  0  0  0  0  0  0
    0.0303   -0.3922   -0.1645 C   0  0  1  0  0  0  0  0  0  0  0  0
    0.6795   -0.9412    0.5269 H   0  0  0  0  0  0  0  0  0  0  0  0
    0.6378   -0.4527   -1.5807 C   0  0  0  0  0  0  0  0  0  0  0  0
    0.4955   -1.4592   -1.9845 H   0  0  0  0  0  0  0  0  0  0  0  0
    0.1083    0.2471   -2.2343 H   0  0  0  0  0  0  0  0  0  0  0  0
    2.1318   -0.1525   -1.6580 C   0  0  0  0  0  0  0  0  0  0  0  0
    2.7114   -0.1756   -2.7251 O   0  0  0  0  0  0  0  0  0  0  0  0
    2.8691    0.3899   -0.6433 N   0  0  0  0  0  0  0  0  0  0  0  0
    3.7648    0.7581   -0.9529 H   0  0  0  0  0  0  0  0  0  0  0  0
    2.3635    0.8986    0.0738 H   0  0  0  0  0  0  0  0  0  0  0  0
   -0.0976    1.0512    0.3581 C   0  0  0  0  0  0  0  0  0  0  0  0
   -0.9343    1.8019   -0.1244 O   0  0  0  0  0  0  0  0  0  0  0  0
    0.7746    1.5228    1.3246 N   0  0  0  0  0  0  0  0  0  0  0  0
    1.2828    0.8237    1.8618 H   0  0  0  0  0  0  0  0  0  0  0  0
    0.6616    2.8648    1.8863 C   0  0  0  0  0  0  0  0  0  0  0  0
   -0.2972    2.9853    2.4017 H   0  0  0  0  0  0  0  0  0  0  0  0
    1.4672    3.0440    2.6050 H   0  0  0  0  0  0  0  0  0  0  0  0
    0.7333    3.6199    1.0961 H   0  0  0  0  0  0  0  0  0  0  0  0
  1  2  1  0  0  0  0
  2  3  1  0  0  0  0
  2  4  1  0  0  0  0
  2  5  1  0  0  0  0
  5  6  2  0  0  0  0
  5  7  1  0  0  0  0
  7  8  1  0  0  0  0
  7  9  1  0  0  0  0
  9 10  1  0  0  0  0
  9 11  1  0  0  0  0
  9 19  1  0  0  0  0
 11 12  1  0  0  0  0
 11 13  1  0  0  0  0
 11 14  1  0  0  0  0
 14 15  2  0  0  0  0
 14 16  1  0  0  0  0
 16 17  1  0  0  0  0
 16 18  1  0  0  0  0
 19 20  2  0  0  0  0
 19 21  1  0  0  0  0
 21 22  1  0  0  0  0
 21 23  1  0  0  0  0
 23 24  1  0  0  0  0
 23 25  1  0  0  0  0
 23 26  1  0  0  0  0
M  END
$$$$

  -OEChem-04042215573D

 26 25  0     1  0  0  0  0  0999 V2000
   -2.8480   -3.9417    0.5266 H   0  0  0  0  0  0  0  0  0  0  0  0
   -2.8765   -2.9140    0.1537 C   0  0  0  0  0  0  0  0  0  0  0  0
   -3.5340   -2.3240    0.7971 H   0  0  0  0  0  0  0  0  0  0  0  0
   -3.2808   -2.9189   -0.8615 H   0  0  0  0  0  0  0  0  0  0  0  0
   -1.4809   -2.3189    0.1523 C   0  0  0  0  0  0  0  0  0  0  0  0
   -0.5261   -2.9861    0.5212 O   0  0  0  0  0  0  0  0  0  0  0  0
   -1.2857   -1.0192   -0.2671 N   0  0  0  0  0  0  0  0  0  0  0  0
   -2.1133   -0.4626   -0.4792 H   0  0  0  0  0  0  0  0  0  0  0  0
   -0.0027   -0.3081   -0.2011 C   0  0  1  0  0  0  0  0  0  0  0  0
    0.6574   -0.8375    0.4920 H   0  0  0  0  0  0  0  0  0  0  0  0
    0.6200   -0.2796   -1.6075 C   0  0  0  0  0  0  0  0  0  0  0  0
    0.5409   -1.2732   -2.0575 H   0  0  0  0  0  0  0  0  0  0  0  0
    0.0716    0.4225   -2.2431 H   0  0  0  0  0  0  0  0  0  0  0  0
    2.0947    0.1038   -1.5939 C   0  0  0  0  0  0  0  0  0  0  0  0
    2.6668    0.4375   -2.6112 O   0  0  0  0  0  0  0  0  0  0  0  0
    2.9301   -0.1725   -0.5468 N   0  0  0  0  0  0  0  0  0  0  0  0
    3.9141   -0.1344   -0.8016 H   0  0  0  0  0  0  0  0  0  0  0  0
    2.6305   -0.8986    0.0959 H   0  0  0  0  0  0  0  0  0  0  0  0
   -0.1850    1.1218    0.3485 C   0  0  0  0  0  0  0  0  0  0  0  0
   -1.1568    1.7796   -0.0017 O   0  0  0  0  0  0  0  0  0  0  0  0
    0.6747    1.6311    1.3041 N   0  0  0  0  0  0  0  0  0  0  0  0
    1.5074    1.0934    1.5264 H   0  0  0  0  0  0  0  0  0  0  0  0
    0.5544    2.9820    1.8389 C   0  0  0  0  0  0  0  0  0  0  0  0
   -0.4211    3.1202    2.3170 H   0  0  0  0  0  0  0  0  0  0  0  0
    1.3327    3.1632    2.5864 H   0  0  0  0  0  0  0  0  0  0  0  0
    0.6631    3.7221    1.0390 H   0  0  0  0  0  0  0  0  0  0  0  0
  1  2  1  0  0  0  0
  2  3  1  0  0  0  0
  2  4  1  0  0  0  0
  2  5  1  0  0  0  0
  5  6  2  0  0  0  0
  5  7  1  0  0  0  0
  7  8  1  0  0  0  0
  7  9  1  0  0  0  0
  9 10  1  0  0  0  0
  9 11  1  0  0  0  0
  9 19  1  0  0  0  0
 11 12  1  0  0  0  0
 11 13  1  0  0  0  0
 11 14  1  0  0  0  0
 14 15  2  0  0  0  0
 14 16  1  0  0  0  0
 16 17  1  0  0  0  0
 16 18  1  0  0  0  0
 19 20  2  0  0  0  0
 19 21  1  0  0  0  0
 21 22  1  0  0  0  0
 21 23  1  0  0  0  0
 23 24  1  0  0  0  0
 23 25  1  0  0  0  0
 23 26  1  0  0  0  0
M  END
$$$$

  -OEChem-04042215573D

 26 25  0     1  0  0  0  0  0999 V2000
   -2.8592   -3.9362    0.5414 H   0  0  0  0  0  0  0  0  0  0  0  0
   -2.8879   -2.9099    0.1649 C   0  0  0  0  0  0  0  0  0  0  0  0
   -3.5298   -2.3135    0.8176 H   0  0  0  0  0  0  0  0  0  0  0  0
   -3.3104   -2.9162   -0.8428 H   0  0  0  0  0  0  0  0  0  0  0  0
   -1.4889   -2.3236    0.1370 C   0  0  0  0  0  0  0  0  0  0  0  0
   -0.5313   -2.9995    0.4832 O   0  0  0  0  0  0  0  0  0  0  0  0
   -1.2914   -1.0241   -0.2823 N   0  0  0  0  0  0  0  0  0  0  0  0
   -2.1188   -0.4595   -0.4734 H   0  0  0  0  0  0  0  0  0  0  0  0
   -0.0054   -0.3184   -0.2114 C   0  0  1  0  0  0  0  0  0  0  0  0
    0.6474   -0.8477    0.4890 H   0  0  0  0  0  0  0  0  0  0  0  0
    0.6313   -0.3028   -1.6109 C   0  0  0  0  0  0  0  0  0  0  0  0
    0.5555   -1.2974   -2.0587 H   0  0  0  0  0  0  0  0  0  0  0  0
    0.0969    0.4001   -2.2576 H   0  0  0  0  0  0  0  0  0  0  0  0
    2.1047    0.0761   -1.5590 C   0  0  0  0  0  0  0  0  0  0  0  0
    2.6462    0.6551   -2.4782 O   0  0  0  0  0  0  0  0  0  0  0  0
    2.9544   -0.4094   -0.6042 N   0  0  0  0  0  0  0  0  0  0  0  0
    3.9370   -0.3252   -0.8524 H   0  0  0  0  0  0  0  0  0  0  0  0
    2.6522   -1.2352   -0.0956 H   0  0  0  0  0  0  0  0  0  0  0  0
   -0.1763    1.1127    0.3374 C   0  0  0  0  0  0  0  0  0  0  0  0
   -1.1456    1.7771   -0.0072 O   0  0  0  0  0  0  0  0  0  0  0  0
    0.6884    1.6107    1.2947 N   0  0  0  0  0  0  0  0  0  0  0  0
    1.5130    1.0609    1.5192 H   0  0  0  0  0  0  0  0  0  0  0  0
    0.5843    2.9627    1.8306 C   0  0  0  0  0  0  0  0  0  0  0  0
   -0.3867    3.1105    2.3150 H   0  0  0  0  0  0  0  0  0  0  0  0
    1.3693    3.1369    2.5729 H   0  0  0  0  0  0  0  0  0  0  0  0
    0.6947    3.7016    1.0298 H   0  0  0  0  0  0  0  0  0  0  0  0
  1  2  1  0  0  0  0
  2  3  1  0  0  0  0
  2  4  1  0  0  0  0
  2  5  1  0  0  0  0
  5  6  2  0  0  0  0
  5  7  1  0  0  0  0
  7  8  1  0  0  0  0
  7  9  1  0  0  0  0
  9 10  1  0  0  0  0
  9 11  1  0  0  0  0
  9 19  1  0  0  0  0
 11 12  1  0  0  0  0
 11 13  1  0  0  0  0
 11 14  1  0  0  0  0
 14 15  2  0  0  0  0
 14 16  1  0  0  0  0
 16 17  1  0  0  0  0
 16 18  1  0  0  0  0
 19 20  2  0  0  0  0
 19 21  1  0  0  0  0
 21 22  1  0  0  0  0
 21 23  1  0  0  0  0
 23 24  1  0  0  0  0
 23 25  1  0  0  0  0
 23 26  1  0  0  0  0
M  END
$$$$

  -OEChem-04042215573D

 26 25  0     1  0  0  0  0  0999 V2000
   -2.8761   -3.9270    0.5529 H   0  0  0  0  0  0  0  0  0  0  0  0
   -2.8992   -2.9018    0.1728 C   0  0  0  0  0  0  0  0  0  0  0  0
   -3.5271   -2.2965    0.8312 H   0  0  0  0  0  0  0  0  0  0  0  0
   -3.3339   -2.9074   -0.8297 H   0  0  0  0  0  0  0  0  0  0  0  0
   -1.4947   -2.3300    0.1248 C   0  0  0  0  0  0  0  0  0  0  0  0
   -0.5375   -3.0187    0.4462 O   0  0  0  0  0  0  0  0  0  0  0  0
   -1.2917   -1.0311   -0.2929 N   0  0  0  0  0  0  0  0  0  0  0  0
   -2.1172   -0.4567   -0.4624 H   0  0  0  0  0  0  0  0  0  0  0  0
   -0.0015   -0.3339   -0.2249 C   0  0  1  0  0  0  0  0  0  0  0  0
    0.6518   -0.8666    0.4737 H   0  0  0  0  0  0  0  0  0  0  0  0
    0.6338   -0.3260   -1.6232 C   0  0  0  0  0  0  0  0  0  0  0  0
    0.5536   -1.3196   -2.0720 H   0  0  0  0  0  0  0  0  0  0  0  0
    0.1069    0.3811   -2.2716 H   0  0  0  0  0  0  0  0  0  0  0  0
    2.1070    0.0449   -1.5510 C   0  0  0  0  0  0  0  0  0  0  0  0
    2.6089    0.8416   -2.3172 O   0  0  0  0  0  0  0  0  0  0  0  0
    2.9765   -0.6063   -0.7216 N   0  0  0  0  0  0  0  0  0  0  0  0
    3.9574   -0.4680   -0.9509 H   0  0  0  0  0  0  0  0  0  0  0  0
    2.6806   -1.5029   -0.3451 H   0  0  0  0  0  0  0  0  0  0  0  0
   -0.1628    1.0968    0.3270 C   0  0  0  0  0  0  0  0  0  0  0  0
   -1.1372    1.7613   -0.0034 O   0  0  0  0  0  0  0  0  0  0  0  0
    0.7076    1.5876    1.2824 N   0  0  0  0  0  0  0  0  0  0  0  0
    1.5334    1.0357    1.4971 H   0  0  0  0  0  0  0  0  0  0  0  0
    0.6107    2.9379    1.8234 C   0  0  0  0  0  0  0  0  0  0  0  0
   -0.3573    3.0870    2.3133 H   0  0  0  0  0  0  0  0  0  0  0  0
    1.4001    3.1066    2.5622 H   0  0  0  0  0  0  0  0  0  0  0  0
    0.7197    3.6788    1.0242 H   0  0  0  0  0  0  0  0  0  0  0  0
  1  2  1  0  0  0  0
  2  3  1  0  0  0  0
  2  4  1  0  0  0  0
  2  5  1  0  0  0  0
  5  6  2  0  0  0  0
  5  7  1  0  0  0  0
  7  8  1  0  0  0  0
  7  9  1  0  0  0  0
  9 10  1  0  0  0  0
  9 11  1  0  0  0  0
  9 19  1  0  0  0  0
 11 12  1  0  0  0  0
 11 13  1  0  0  0  0
 11 14  1  0  0  0  0
 14 15  2  0  0  0  0
 14 16  1  0  0  0  0
 16 17  1  0  0  0  0
 16 18  1  0  0  0  0
 19 20  2  0  0  0  0
 19 21  1  0  0  0  0
 21 22  1  0  0  0  0
 21 23  1  0  0  0  0
 23 24  1  0  0  0  0
 23 25  1  0  0  0  0
 23 26  1  0  0  0  0
M  END
$$$$

  -OEChem-04042215573D

 26 25  0     1  0  0  0  0  0999 V2000
   -2.8897   -3.9193    0.5641 H   0  0  0  0  0  0  0  0  0  0  0  0
   -2.9082   -2.8956    0.1797 C   0  0  0  0  0  0  0  0  0  0  0  0
   -3.5230   -2.2822    0.8430 H   0  0  0  0  0  0  0  0  0  0  0  0
   -3.3550   -2.9016   -0.8176 H   0  0  0  0  0  0  0  0  0  0  0  0
   -1.4995   -2.3362    0.1121 C   0  0  0  0  0  0  0  0  0  0  0  0
   -0.5433   -3.0376    0.4078 O   0  0  0  0  0  0  0  0  0  0  0  0
   -1.2917   -1.0372   -0.3025 N   0  0  0  0  0  0  0  0  0  0  0  0
   -2.1150   -0.4530   -0.4477 H   0  0  0  0  0  0  0  0  0  0  0  0
    0.0037   -0.3486   -0.2412 C   0  0  1  0  0  0  0  0  0  0  0  0
    0.6618   -0.8868    0.4493 H   0  0  0  0  0  0  0  0  0  0  0  0
    0.6293   -0.3422   -1.6425 C   0  0  0  0  0  0  0  0  0  0  0  0
    0.5407   -1.3328   -2.0962 H   0  0  0  0  0  0  0  0  0  0  0  0
    0.1065    0.3721   -2.2866 H   0  0  0  0  0  0  0  0  0  0  0  0
    2.1030    0.0194   -1.5618 C   0  0  0  0  0  0  0  0  0  0  0  0
    2.5640    0.9913   -2.1247 O   0  0  0  0  0  0  0  0  0  0  0  0
    2.9958   -0.7677   -0.8907 N   0  0  0  0  0  0  0  0  0  0  0  0
    3.9739   -0.5753   -1.0903 H   0  0  0  0  0  0  0  0  0  0  0  0
    2.7110   -1.7148   -0.6556 H   0  0  0  0  0  0  0  0  0  0  0  0
   -0.1490    1.0809    0.3173 C   0  0  0  0  0  0  0  0  0  0  0  0
   -1.1334    1.7415    0.0082 O   0  0  0  0  0  0  0  0  0  0  0  0
    0.7280    1.5667    1.2695 N   0  0  0  0  0  0  0  0  0  0  0  0
    1.5669    1.0247    1.4570 H   0  0  0  0  0  0  0  0  0  0  0  0
    0.6330    2.9144    1.8173 C   0  0  0  0  0  0  0  0  0  0  0  0
   -0.3343    3.0616    2.3092 H   0  0  0  0  0  0  0  0  0  0  0  0
    1.4233    3.0786    2.5562 H   0  0  0  0  0  0  0  0  0  0  0  0
    0.7414    3.6596    1.0220 H   0  0  0  0  0  0  0  0  0  0  0  0
  1  2  1  0  0  0  0
  2  3  1  0  0  0  0
  2  4  1  0  0  0  0
  2  5  1  0  0  0  0
  5  6  2  0  0  0  0
  5  7  1  0  0  0  0
  7  8  1  0  0  0  0
  7  9  1  0  0  0  0
  9 10  1  0  0  0  0
  9 11  1  0  0  0  0
  9 19  1  0  0  0  0
 11 12  1  0  0  0  0
 11 13  1  0  0  0  0
 11 14  1  0  0  0  0
 14 15  2  0  0  0  0
 14 16  1  0  0  0  0
 16 17  1  0  0  0  0
 16 18  1  0  0  0  0
 19 20  2  0  0  0  0
 19 21  1  0  0  0  0
 21 22  1  0  0  0  0
 21 23  1  0  0  0  0
 23 24  1  0  0  0  0
 23 25  1  0  0  0  0
 23 26  1  0  0  0  0
M  END
$$$$

  -OEChem-04042215573D

 26 25  0     1  0  0  0  0  0999 V2000
   -2.9007   -3.9123    0.5748 H   0  0  0  0  0  0  0  0  0  0  0  0
   -2.9162   -2.8890    0.1890 C   0  0  0  0  0  0  0  0  0  0  0  0
   -3.5115   -2.2677    0.8627 H   0  0  0  0  0  0  0  0  0  0  0  0
   -3.3821   -2.8915   -0.7994 H   0  0  0  0  0  0  0  0  0  0  0  0
   -1.5035   -2.3440    0.0935 C   0  0  0  0  0  0  0  0  0  0  0  0
   -0.5482   -3.0580    0.3604 O   0  0  0  0  0  0  0  0  0  0  0  0
   -1.2929   -1.0434   -0.3141 N   0  0  0  0  0  0  0  0  0  0  0  0
   -2.1147   -0.4504   -0.4301 H   0  0  0  0  0  0  0  0  0  0  0  0
    0.0062   -0.3611   -0.2590 C   0  0  1  0  0  0  0  0  0  0  0  0
    0.6704   -0.9050    0.4216 H   0  0  0  0  0  0  0  0  0  0  0  0
    0.6218   -0.3485   -1.6637 C   0  0  0  0  0  0  0  0  0  0  0  0
    0.5243   -1.3348   -2.1251 H   0  0  0  0  0  0  0  0  0  0  0  0
    0.1016    0.3740   -2.3003 H   0  0  0  0  0  0  0  0  0  0  0  0
    2.0961    0.0066   -1.5790 C   0  0  0  0  0  0  0  0  0  0  0  0
    2.5192    1.0994   -1.8968 O   0  0  0  0  0  0  0  0  0  0  0  0
    3.0161   -0.8849   -1.1048 N   0  0  0  0  0  0  0  0  0  0  0  0
    3.9893   -0.6388   -1.2636 H   0  0  0  0  0  0  0  0  0  0  0  0
    2.7479   -1.8625   -1.0309 H   0  0  0  0  0  0  0  0  0  0  0  0
   -0.1432    1.0651    0.3114 C   0  0  0  0  0  0  0  0  0  0  0  0
   -1.1389    1.7205    0.0262 O   0  0  0  0  0  0  0  0  0  0  0  0
    0.7399    1.5441    1.2614 N   0  0  0  0  0  0  0  0  0  0  0  0
    1.5978    1.0196    1.4070 H   0  0  0  0  0  0  0  0  0  0  0  0
    0.6512    2.8924    1.8087 C   0  0  0  0  0  0  0  0  0  0  0  0
   -0.3151    3.0447    2.3012 H   0  0  0  0  0  0  0  0  0  0  0  0
    1.4424    3.0538    2.5471 H   0  0  0  0  0  0  0  0  0  0  0  0
    0.7626    3.6361    1.0125 H   0  0  0  0  0  0  0  0  0  0  0  0
  1  2  1  0  0  0  0
  2  3  1  0  0  0  0
  2  4  1  0  0  0  0
  2  5  1  0  0  0  0
  5  6  2  0  0  0  0
  5  7  1  0  0  0  0
  7  8  1  0  0  0  0
  7  9  1  0  0  0  0
  9 10  1  0  0  0  0
  9 11  1  0  0  0  0
  9 19  1  0  0  0  0
 11 12  1  0  0  0  0
 11 13  1  0  0  0  0
 11 14  1  0  0  0  0
 14 15  2  0  0  0  0
 14 16  1  0  0  0  0
 16 17  1  0  0  0  0
 16 18  1  0  0  0  0
 19 20  2  0  0  0  0
 19 21  1  0  0  0  0
 21 22  1  0  0  0  0
 21 23  1  0  0  0  0
 23 24  1  0  0  0  0
 23 25  1  0  0  0  0
 23 26  1  0  0  0  0
M  END
$$$$

  -OEChem-04042215573D

 26 25  0     1  0  0  0  0  0999 V2000
   -2.9079   -3.9054    0.5855 H   0  0  0  0  0  0  0  0  0  0  0  0
   -2.9224   -2.8826    0.1986 C   0  0  0  0  0  0  0  0  0  0  0  0
   -3.5008   -2.2563    0.8824 H   0  0  0  0  0  0  0  0  0  0  0  0
   -3.4056   -2.8828   -0.7815 H   0  0  0  0  0  0  0  0  0  0  0  0
   -1.5075   -2.3484    0.0779 C   0  0  0  0  0  0  0  0  0  0  0  0
   -0.5532   -3.0730    0.3173 O   0  0  0  0  0  0  0  0  0  0  0  0
   -1.2956   -1.0459   -0.3222 N   0  0  0  0  0  0  0  0  0  0  0  0
   -2.1158   -0.4462   -0.4116 H   0  0  0  0  0  0  0  0  0  0  0  0
    0.0064   -0.3682   -0.2731 C   0  0  1  0  0  0  0  0  0  0  0  0
    0.6760   -0.9179    0.3981 H   0  0  0  0  0  0  0  0  0  0  0  0
    0.6132   -0.3480   -1.6811 C   0  0  0  0  0  0  0  0  0  0  0  0
    0.5072   -1.3303   -2.1492 H   0  0  0  0  0  0  0  0  0  0  0  0
    0.0938    0.3817   -2.3098 H   0  0  0  0  0  0  0  0  0  0  0  0
    2.0892    0.0020   -1.6005 C   0  0  0  0  0  0  0  0  0  0  0  0
    2.4857    1.1489   -1.6512 O   0  0  0  0  0  0  0  0  0  0  0  0
    3.0352   -0.9541   -1.3651 N   0  0  0  0  0  0  0  0  0  0  0  0
    4.0029   -0.6641   -1.4756 H   0  0  0  0  0  0  0  0  0  0  0  0
    2.7801   -1.9321   -1.4686 H   0  0  0  0  0  0  0  0  0  0  0  0
   -0.1423    1.0538    0.3096 C   0  0  0  0  0  0  0  0  0  0  0  0
   -1.1502    1.7016    0.0485 O   0  0  0  0  0  0  0  0  0  0  0  0
    0.7462    1.5268    1.2575 N   0  0  0  0  0  0  0  0  0  0  0  0
    1.6283    1.0301    1.3466 H   0  0  0  0  0  0  0  0  0  0  0  0
    0.6609    2.8755    1.8040 C   0  0  0  0  0  0  0  0  0  0  0  0
   -0.3054    3.0314    2.2950 H   0  0  0  0  0  0  0  0  0  0  0  0
    1.4514    3.0343    2.5436 H   0  0  0  0  0  0  0  0  0  0  0  0
    0.7762    3.6181    1.0074 H   0  0  0  0  0  0  0  0  0  0  0  0
  1  2  1  0  0  0  0
  2  3  1  0  0  0  0
  2  4  1  0  0  0  0
  2  5  1  0  0  0  0
  5  6  2  0  0  0  0
  5  7  1  0  0  0  0
  7  8  1  0  0  0  0
  7  9  1  0  0  0  0
  9 10  1  0  0  0  0
  9 11  1  0  0  0  0
  9 19  1  0  0  0  0
 11 12  1  0  0  0  0
 11 13  1  0  0  0  0
 11 14  1  0  0  0  0
 14 15  2  0  0  0  0
 14 16  1  0  0  0  0
 16 17  1  0  0  0  0
 16 18  1  0  0  0  0
 19 20  2  0  0  0  0
 19 21  1  0  0  0  0
 21 22  1  0  0  0  0
 21 23  1  0  0  0  0
 23 24  1  0  0  0  0
 23 25  1  0  0  0  0
 23 26  1  0  0  0  0
M  END
$$$$

  -OEChem-04042215573D

 26 25  0     1  0  0  0  0  0999 V2000
   -2.9119   -3.8975    0.5917 H   0  0  0  0  0  0  0  0  0  0  0  0
   -2.9259   -2.8736    0.2078 C   0  0  0  0  0  0  0  0  0  0  0  0
   -3.4938   -2.2465    0.8996 H   0  0  0  0  0  0  0  0  0  0  0  0
   -3.4202   -2.8685   -0.7667 H   0  0  0  0  0  0  0  0  0  0  0  0
   -1.5100   -2.3461    0.0727 C   0  0  0  0  0  0  0  0  0  0  0  0
   -0.5579   -3.0785    0.2957 O   0  0  0  0  0  0  0  0  0  0  0  0
   -1.2957   -1.0430   -0.3242 N   0  0  0  0  0  0  0  0  0  0  0  0
   -2.1137   -0.4374   -0.3942 H   0  0  0  0  0  0  0  0  0  0  0  0
    0.0093   -0.3701   -0.2770 C   0  0  1  0  0  0  0  0  0  0  0  0
    0.6809   -0.9230    0.3901 H   0  0  0  0  0  0  0  0  0  0  0  0
    0.6111   -0.3482   -1.6878 C   0  0  0  0  0  0  0  0  0  0  0  0
    0.4943   -1.3289   -2.1566 H   0  0  0  0  0  0  0  0  0  0  0  0
    0.0920    0.3862   -2.3107 H   0  0  0  0  0  0  0  0  0  0  0  0
    2.0906   -0.0056   -1.6231 C   0  0  0  0  0  0  0  0  0  0  0  0
    2.4853    1.1237   -1.4088 O   0  0  0  0  0  0  0  0  0  0  0  0
    3.0506   -0.9746   -1.6808 N   0  0  0  0  0  0  0  0  0  0  0  0
    4.0135   -0.6581   -1.7519 H   0  0  0  0  0  0  0  0  0  0  0  0
    2.7936   -1.9132   -1.9714 H   0  0  0  0  0  0  0  0  0  0  0  0
   -0.1429    1.0502    0.3121 C   0  0  0  0  0  0  0  0  0  0  0  0
   -1.1597    1.6900    0.0633 O   0  0  0  0  0  0  0  0  0  0  0  0
    0.7445    1.5224    1.2613 N   0  0  0  0  0  0  0  0  0  0  0  0
    1.6483    1.0583    1.2991 H   0  0  0  0  0  0  0  0  0  0  0  0
    0.6504    2.8688    1.8121 C   0  0  0  0  0  0  0  0  0  0  0  0
   -0.3187    3.0188    2.2996 H   0  0  0  0  0  0  0  0  0  0  0  0
    1.4368    3.0276    2.5561 H   0  0  0  0  0  0  0  0  0  0  0  0
    0.7658    3.6151    1.0191 H   0  0  0  0  0  0  0  0  0  0  0  0
  1  2  1  0  0  0  0
  2  3  1  0  0  0  0
  2  4  1  0  0  0  0
  2  5  1  0  0  0  0
  5  6  2  0  0  0  0
  5  7  1  0  0  0  0
  7  8  1  0  0  0  0
  7  9  1  0  0  0  0
  9 10  1  0  0  0  0
  9 11  1  0  0  0  0
  9 19  1  0  0  0  0
 11 12  1  0  0  0  0
 11 13  1  0  0  0  0
 11 14  1  0  0  0  0
 14 15  2  0  0  0  0
 14 16  1  0  0  0  0
 16 17  1  0  0  0  0
 16 18  1  0  0  0  0
 19 20  2  0  0  0  0
 19 21  1  0  0  0  0
 21 22  1  0  0  0  0
 21 23  1  0  0  0  0
 23 24  1  0  0  0  0
 23 25  1  0  0  0  0
 23 26  1  0  0  0  0
M  END
$$$$

  -OEChem-04042215573D

 26 25  0     1  0  0  0  0  0999 V2000
   -2.9270   -3.8836    0.5948 H   0  0  0  0  0  0  0  0  0  0  0  0
   -2.9328   -2.8561    0.2205 C   0  0  0  0  0  0  0  0  0  0  0  0
   -3.4885   -2.2299    0.9228 H   0  0  0  0  0  0  0  0  0  0  0  0
   -3.4348   -2.8369   -0.7499 H   0  0  0  0  0  0  0  0  0  0  0  0
   -1.5124   -2.3419    0.0785 C   0  0  0  0  0  0  0  0  0  0  0  0
   -0.5663   -3.0820    0.3002 O   0  0  0  0  0  0  0  0  0  0  0  0
   -1.2894   -1.0409   -0.3203 N   0  0  0  0  0  0  0  0  0  0  0  0
   -2.1035   -0.4295   -0.3846 H   0  0  0  0  0  0  0  0  0  0  0  0
    0.0190   -0.3739   -0.2710 C   0  0  1  0  0  0  0  0  0  0  0  0
    0.6897   -0.9254    0.3979 H   0  0  0  0  0  0  0  0  0  0  0  0
    0.6218   -0.3553   -1.6833 C   0  0  0  0  0  0  0  0  0  0  0  0
    0.4952   -1.3379   -2.1455 H   0  0  0  0  0  0  0  0  0  0  0  0
    0.1031    0.3784   -2.3069 H   0  0  0  0  0  0  0  0  0  0  0  0
    2.1062   -0.0214   -1.6385 C   0  0  0  0  0  0  0  0  0  0  0  0
    2.5265    1.0227   -1.1778 O   0  0  0  0  0  0  0  0  0  0  0  0
    3.0551   -0.9223   -2.0287 N   0  0  0  0  0  0  0  0  0  0  0  0
    4.0150   -0.5914   -2.0688 H   0  0  0  0  0  0  0  0  0  0  0  0
    2.7764   -1.7662   -2.5194 H   0  0  0  0  0  0  0  0  0  0  0  0
   -0.1440    1.0467    0.3169 C   0  0  0  0  0  0  0  0  0  0  0  0
   -1.1650    1.6792    0.0645 O   0  0  0  0  0  0  0  0  0  0  0  0
    0.7347    1.5237    1.2713 N   0  0  0  0  0  0  0  0  0  0  0  0
    1.6556    1.0907    1.2731 H   0  0  0  0  0  0  0  0  0  0  0  0
    0.6205    2.8660    1.8282 C   0  0  0  0  0  0  0  0  0  0  0  0
   -0.3540    3.0019    2.3089 H   0  0  0  0  0  0  0  0  0  0  0  0
    1.3990    3.0301    2.5793 H   0  0  0  0  0  0  0  0  0  0  0  0
    0.7331    3.6177    1.0399 H   0  0  0  0  0  0  0  0  0  0  0  0
  1  2  1  0  0  0  0
  2  3  1  0  0  0  0
  2  4  1  0  0  0  0
  2  5  1  0  0  0  0
  5  6  2  0  0  0  0
  5  7  1  0  0  0  0
  7  8  1  0  0  0  0
  7  9  1  0  0  0  0
  9 10  1  0  0  0  0
  9 11  1  0  0  0  0
  9 19  1  0  0  0  0
 11 12  1  0  0  0  0
 11 13  1  0  0  0  0
 11 14  1  0  0  0  0
 14 15  2  0  0  0  0
 14 16  1  0  0  0  0
 16 17  1  0  0  0  0
 16 18  1  0  0  0  0
 19 20  2  0  0  0  0
 19 21  1  0  0  0  0
 21 22  1  0  0  0  0
 21 23  1  0  0  0  0
 23 24  1  0  0  0  0
 23 25  1  0  0  0  0
 23 26  1  0  0  0  0
M  END
$$$$

  -OEChem-04042215573D

 26 25  0     1  0  0  0  0  0999 V2000
   -2.8990   -3.8875    0.5927 H   0  0  0  0  0  0  0  0  0  0  0  0
   -2.9134   -2.8580    0.2241 C   0  0  0  0  0  0  0  0  0  0  0  0
   -3.4625   -2.2372    0.9363 H   0  0  0  0  0  0  0  0  0  0  0  0
   -3.4277   -2.8353   -0.7398 H   0  0  0  0  0  0  0  0  0  0  0  0
   -1.4971   -2.3372    0.0673 C   0  0  0  0  0  0  0  0  0  0  0  0
   -0.5450   -3.0761    0.2665 O   0  0  0  0  0  0  0  0  0  0  0  0
   -1.2849   -1.0319   -0.3233 N   0  0  0  0  0  0  0  0  0  0  0  0
   -2.1016   -0.4220   -0.3655 H   0  0  0  0  0  0  0  0  0  0  0  0
    0.0221   -0.3614   -0.2843 C   0  0  1  0  0  0  0  0  0  0  0  0
    0.7043   -0.9147    0.3714 H   0  0  0  0  0  0  0  0  0  0  0  0
    0.6053   -0.3269   -1.7057 C   0  0  0  0  0  0  0  0  0  0  0  0
    0.4721   -1.3067   -2.1720 H   0  0  0  0  0  0  0  0  0  0  0  0
    0.0719    0.4090   -2.3143 H   0  0  0  0  0  0  0  0  0  0  0  0
    2.0915    0.0091   -1.6981 C   0  0  0  0  0  0  0  0  0  0  0  0
    2.5627    0.9036   -1.0205 O   0  0  0  0  0  0  0  0  0  0  0  0
    2.9924   -0.7308   -2.4086 N   0  0  0  0  0  0  0  0  0  0  0  0
    3.9734   -0.5617   -2.2057 H   0  0  0  0  0  0  0  0  0  0  0  0
    2.6977   -1.6162   -2.8079 H   0  0  0  0  0  0  0  0  0  0  0  0
   -0.1463    1.0527    0.3192 C   0  0  0  0  0  0  0  0  0  0  0  0
   -1.1767    1.6780    0.0866 O   0  0  0  0  0  0  0  0  0  0  0  0
    0.7384    1.5274    1.2687 N   0  0  0  0  0  0  0  0  0  0  0  0
    1.6723    1.1230    1.2236 H   0  0  0  0  0  0  0  0  0  0  0  0
    0.6114    2.8587    1.8480 C   0  0  0  0  0  0  0  0  0  0  0  0
   -0.3624    2.9756    2.3349 H   0  0  0  0  0  0  0  0  0  0  0  0
    1.3909    3.0193    2.5989 H   0  0  0  0  0  0  0  0  0  0  0  0
    0.7122    3.6243    1.0716 H   0  0  0  0  0  0  0  0  0  0  0  0
  1  2  1  0  0  0  0
  2  3  1  0  0  0  0
  2  4  1  0  0  0  0
  2  5  1  0  0  0  0
  5  6  2  0  0  0  0
  5  7  1  0  0  0  0
  7  8  1  0  0  0  0
  7  9  1  0  0  0  0
  9 10  1  0  0  0  0
  9 11  1  0  0  0  0
  9 19  1  0  0  0  0
 11 12  1  0  0  0  0
 11 13  1  0  0  0  0
 11 14  1  0  0  0  0
 14 15  2  0  0  0  0
 14 16  1  0  0  0  0
 16 17  1  0  0  0  0
 16 18  1  0  0  0  0
 19 20  2  0  0  0  0
 19 21  1  0  0  0  0
 21 22  1  0  0  0  0
 21 23  1  0  0  0  0
 23 24  1  0  0  0  0
 23 25  1  0  0  0  0
 23 26  1  0  0  0  0
M  END
$$$$

  -OEChem-04042215573D

 26 25  0     1  0  0  0  0  0999 V2000
   -2.9078   -3.8893    0.5904 H   0  0  0  0  0  0  0  0  0  0  0  0
   -2.9209   -2.8567    0.2305 C   0  0  0  0  0  0  0  0  0  0  0  0
   -3.4676   -2.2407    0.9486 H   0  0  0  0  0  0  0  0  0  0  0  0
   -3.4359   -2.8248   -0.7327 H   0  0  0  0  0  0  0  0  0  0  0  0
   -1.5034   -2.3384    0.0771 C   0  0  0  0  0  0  0  0  0  0  0  0
   -0.5540   -3.0778    0.2855 O   0  0  0  0  0  0  0  0  0  0  0  0
   -1.2877   -1.0351   -0.3185 N   0  0  0  0  0  0  0  0  0  0  0  0
   -2.1040   -0.4255   -0.3693 H   0  0  0  0  0  0  0  0  0  0  0  0
    0.0191   -0.3642   -0.2726 C   0  0  1  0  0  0  0  0  0  0  0  0
    0.6958   -0.9152    0.3911 H   0  0  0  0  0  0  0  0  0  0  0  0
    0.6161   -0.3357   -1.6890 C   0  0  0  0  0  0  0  0  0  0  0  0
    0.4894   -1.3206   -2.1461 H   0  0  0  0  0  0  0  0  0  0  0  0
    0.0835    0.3933   -2.3062 H   0  0  0  0  0  0  0  0  0  0  0  0
    2.1035    0.0009   -1.6850 C   0  0  0  0  0  0  0  0  0  0  0  0
    2.6239    0.7052   -0.8383 O   0  0  0  0  0  0  0  0  0  0  0  0
    2.9443   -0.4919   -2.6409 N   0  0  0  0  0  0  0  0  0  0  0  0
    3.9385   -0.3610   -2.4773 H   0  0  0  0  0  0  0  0  0  0  0  0
    2.6188   -1.2356   -3.2498 H   0  0  0  0  0  0  0  0  0  0  0  0
   -0.1516    1.0529    0.3217 C   0  0  0  0  0  0  0  0  0  0  0  0
   -1.1734    1.6844    0.0691 O   0  0  0  0  0  0  0  0  0  0  0  0
    0.7275    1.5295    1.2747 N   0  0  0  0  0  0  0  0  0  0  0  0
    1.6591    1.1158    1.2394 H   0  0  0  0  0  0  0  0  0  0  0  0
    0.6028    2.8625    1.8506 C   0  0  0  0  0  0  0  0  0  0  0  0
   -0.3729    2.9834    2.3328 H   0  0  0  0  0  0  0  0  0  0  0  0
    1.3797    3.0212    2.6045 H   0  0  0  0  0  0  0  0  0  0  0  0
    0.7093    3.6265    1.0735 H   0  0  0  0  0  0  0  0  0  0  0  0
  1  2  1  0  0  0  0
  2  3  1  0  0  0  0
  2  4  1  0  0  0  0
  2  5  1  0  0  0  0
  5  6  2  0  0  0  0
  5  7  1  0  0  0  0
  7  8  1  0  0  0  0
  7  9  1  0  0  0  0
  9 10  1  0  0  0  0
  9 11  1  0  0  0  0
  9 19  1  0  0  0  0
 11 12  1  0  0  0  0
 11 13  1  0  0  0  0
 11 14  1  0  0  0  0
 14 15  2  0  0  0  0
 14 16  1  0  0  0  0
 16 17  1  0  0  0  0
 16 18  1  0  0  0  0
 19 20  2  0  0  0  0
 19 21  1  0  0  0  0
 21 22  1  0  0  0  0
 21 23  1  0  0  0  0
 23 24  1  0  0  0  0
 23 25  1  0  0  0  0
 23 26  1  0  0  0  0
M  END
$$$$

  -OEChem-04042215573D

 26 25  0     1  0  0  0  0  0999 V2000
   -2.9110   -3.9036    0.5996 H   0  0  0  0  0  0  0  0  0  0  0  0
   -2.9250   -2.8764    0.2244 C   0  0  0  0  0  0  0  0  0  0  0  0
   -3.4877   -2.2539    0.9244 H   0  0  0  0  0  0  0  0  0  0  0  0
   -3.4247   -2.8620   -0.7472 H   0  0  0  0  0  0  0  0  0  0  0  0
   -1.5085   -2.3505    0.0855 C   0  0  0  0  0  0  0  0  0  0  0  0
   -0.5581   -3.0852    0.3044 O   0  0  0  0  0  0  0  0  0  0  0  0
   -1.2979   -1.0458   -0.3089 N   0  0  0  0  0  0  0  0  0  0  0  0
   -2.1187   -0.4440   -0.3730 H   0  0  0  0  0  0  0  0  0  0  0  0
    0.0040   -0.3649   -0.2628 C   0  0  1  0  0  0  0  0  0  0  0  0
    0.6802   -0.9158    0.4019 H   0  0  0  0  0  0  0  0  0  0  0  0
    0.6078   -0.3330   -1.6766 C   0  0  0  0  0  0  0  0  0  0  0  0
    0.4941   -1.3200   -2.1327 H   0  0  0  0  0  0  0  0  0  0  0  0
    0.0689    0.3894   -2.2961 H   0  0  0  0  0  0  0  0  0  0  0  0
    2.0930    0.0171   -1.6712 C   0  0  0  0  0  0  0  0  0  0  0  0
    2.6620    0.4973   -0.7059 O   0  0  0  0  0  0  0  0  0  0  0  0
    2.8743   -0.1975   -2.7700 N   0  0  0  0  0  0  0  0  0  0  0  0
    3.8763   -0.0937   -2.6368 H   0  0  0  0  0  0  0  0  0  0  0  0
    2.5148   -0.7675   -3.5286 H   0  0  0  0  0  0  0  0  0  0  0  0
   -0.1596    1.0526    0.3292 C   0  0  0  0  0  0  0  0  0  0  0  0
   -1.1676    1.6987    0.0601 O   0  0  0  0  0  0  0  0  0  0  0  0
    0.7258    1.5265    1.2775 N   0  0  0  0  0  0  0  0  0  0  0  0
    1.6446    1.0824    1.2649 H   0  0  0  0  0  0  0  0  0  0  0  0
    0.6292    2.8699    1.8339 C   0  0  0  0  0  0  0  0  0  0  0  0
   -0.3439    3.0181    2.3137 H   0  0  0  0  0  0  0  0  0  0  0  0
    1.4091    3.0231    2.5858 H   0  0  0  0  0  0  0  0  0  0  0  0
    0.7525    3.6204    1.0462 H   0  0  0  0  0  0  0  0  0  0  0  0
  1  2  1  0  0  0  0
  2  3  1  0  0  0  0
  2  4  1  0  0  0  0
  2  5  1  0  0  0  0
  5  6  2  0  0  0  0
  5  7  1  0  0  0  0
  7  8  1  0  0  0  0
  7  9  1  0  0  0  0
  9 10  1  0  0  0  0
  9 11  1  0  0  0  0
  9 19  1  0  0  0  0
 11 12  1  0  0  0  0
 11 13  1  0  0  0  0
 11 14  1  0  0  0  0
 14 15  2  0  0  0  0
 14 16  1  0  0  0  0
 16 17  1  0  0  0  0
 16 18  1  0  0  0  0
 19 20  2  0  0  0  0
 19 21  1  0  0  0  0
 21 22  1  0  0  0  0
 21 23  1  0  0  0  0
 23 24  1  0  0  0  0
 23 25  1  0  0  0  0
 23 26  1  0  0  0  0
M  END
$$$$

  -OEChem-04042215573D

 26 25  0     1  0  0  0  0  0999 V2000
   -2.9026   -3.9269    0.5935 H   0  0  0  0  0  0  0  0  0  0  0  0
   -2.9242   -2.8988    0.2214 C   0  0  0  0  0  0  0  0  0  0  0  0
   -3.4953   -2.2837    0.9212 H   0  0  0  0  0  0  0  0  0  0  0  0
   -3.4196   -2.8860   -0.7524 H   0  0  0  0  0  0  0  0  0  0  0  0
   -1.5119   -2.3603    0.0902 C   0  0  0  0  0  0  0  0  0  0  0  0
   -0.5571   -3.0867    0.3159 O   0  0  0  0  0  0  0  0  0  0  0  0
   -1.3121   -1.0539   -0.3047 N   0  0  0  0  0  0  0  0  0  0  0  0
   -2.1392   -0.4627   -0.3789 H   0  0  0  0  0  0  0  0  0  0  0  0
   -0.0174   -0.3592   -0.2612 C   0  0  1  0  0  0  0  0  0  0  0  0
    0.6558   -0.9087    0.4077 H   0  0  0  0  0  0  0  0  0  0  0  0
    0.5968   -0.3291   -1.6703 C   0  0  0  0  0  0  0  0  0  0  0  0
    0.5011   -1.3193   -2.1238 H   0  0  0  0  0  0  0  0  0  0  0  0
    0.0525    0.3844   -2.2952 H   0  0  0  0  0  0  0  0  0  0  0  0
    2.0775    0.0406   -1.6533 C   0  0  0  0  0  0  0  0  0  0  0  0
    2.6929    0.2830   -0.6286 O   0  0  0  0  0  0  0  0  0  0  0  0
    2.8009    0.1121   -2.8087 N   0  0  0  0  0  0  0  0  0  0  0  0
    3.8080    0.1964   -2.7042 H   0  0  0  0  0  0  0  0  0  0  0  0
    2.4044   -0.2629   -3.6641 H   0  0  0  0  0  0  0  0  0  0  0  0
   -0.1683    1.0589    0.3260 C   0  0  0  0  0  0  0  0  0  0  0  0
   -1.1623    1.7205    0.0452 O   0  0  0  0  0  0  0  0  0  0  0  0
    0.7295    1.5269    1.2651 N   0  0  0  0  0  0  0  0  0  0  0  0
    1.6309    1.0479    1.2814 H   0  0  0  0  0  0  0  0  0  0  0  0
    0.6583    2.8740    1.8162 C   0  0  0  0  0  0  0  0  0  0  0  0
   -0.3091    3.0393    2.3019 H   0  0  0  0  0  0  0  0  0  0  0  0
    1.4458    3.0180    2.5620 H   0  0  0  0  0  0  0  0  0  0  0  0
    0.7875    3.6194    1.0245 H   0  0  0  0  0  0  0  0  0  0  0  0
  1  2  1  0  0  0  0
  2  3  1  0  0  0  0
  2  4  1  0  0  0  0
  2  5  1  0  0  0  0
  5  6  2  0  0  0  0
  5  7  1  0  0  0  0
  7  8  1  0  0  0  0
  7  9  1  0  0  0  0
  9 10  1  0  0  0  0
  9 11  1  0  0  0  0
  9 19  1  0  0  0  0
 11 12  1  0  0  0  0
 11 13  1  0  0  0  0
 11 14  1  0  0  0  0
 14 15  2  0  0  0  0
 14 16  1  0  0  0  0
 16 17  1  0  0  0  0
 16 18  1  0  0  0  0
 19 20  2  0  0  0  0
 19 21  1  0  0  0  0
 21 22  1  0  0  0  0
 21 23  1  0  0  0  0
 23 24  1  0  0  0  0
 23 25  1  0  0  0  0
 23 26  1  0  0  0  0
M  END
$$$$

  -OEChem-04042215573D

 26 25  0     1  0  0  0  0  0999 V2000
   -2.8876   -3.9517    0.5892 H   0  0  0  0  0  0  0  0  0  0  0  0
   -2.9194   -2.9260    0.2109 C   0  0  0  0  0  0  0  0  0  0  0  0
   -3.5090   -2.3157    0.8994 H   0  0  0  0  0  0  0  0  0  0  0  0
   -3.4014   -2.9264   -0.7697 H   0  0  0  0  0  0  0  0  0  0  0  0
   -1.5135   -2.3669    0.0962 C   0  0  0  0  0  0  0  0  0  0  0  0
   -0.5526   -3.0799    0.3367 O   0  0  0  0  0  0  0  0  0  0  0  0
   -1.3264   -1.0585   -0.2997 N   0  0  0  0  0  0  0  0  0  0  0  0
   -2.1605   -0.4801   -0.3905 H   0  0  0  0  0  0  0  0  0  0  0  0
   -0.0395   -0.3490   -0.2592 C   0  0  1  0  0  0  0  0  0  0  0  0
    0.6310   -0.8963    0.4141 H   0  0  0  0  0  0  0  0  0  0  0  0
    0.5831   -0.3246   -1.6638 C   0  0  0  0  0  0  0  0  0  0  0  0
    0.5068   -1.3190   -2.1120 H   0  0  0  0  0  0  0  0  0  0  0  0
    0.0329    0.3769   -2.2968 H   0  0  0  0  0  0  0  0  0  0  0  0
    2.0577    0.0658   -1.6313 C   0  0  0  0  0  0  0  0  0  0  0  0
    2.7225    0.0682   -0.6093 O   0  0  0  0  0  0  0  0  0  0  0  0
    2.7220    0.4185   -2.7704 N   0  0  0  0  0  0  0  0  0  0  0  0
    3.7330    0.4881   -2.6967 H   0  0  0  0  0  0  0  0  0  0  0  0
    2.2851    0.2481   -3.6702 H   0  0  0  0  0  0  0  0  0  0  0  0
   -0.1765    1.0705    0.3226 C   0  0  0  0  0  0  0  0  0  0  0  0
   -1.1546    1.7493    0.0297 O   0  0  0  0  0  0  0  0  0  0  0  0
    0.7349    1.5317    1.2518 N   0  0  0  0  0  0  0  0  0  0  0  0
    1.6120    1.0129    1.3090 H   0  0  0  0  0  0  0  0  0  0  0  0
    0.6903    2.8803    1.8014 C   0  0  0  0  0  0  0  0  0  0  0  0
   -0.2683    3.0602    2.2993 H   0  0  0  0  0  0  0  0  0  0  0  0
    1.4898    3.0142    2.5363 H   0  0  0  0  0  0  0  0  0  0  0  0
    0.8198    3.6220    1.0064 H   0  0  0  0  0  0  0  0  0  0  0  0
  1  2  1  0  0  0  0
  2  3  1  0  0  0  0
  2  4  1  0  0  0  0
  2  5  1  0  0  0  0
  5  6  2  0  0  0  0
  5  7  1  0  0  0  0
  7  8  1  0  0  0  0
  7  9  1  0  0  0  0
  9 10  1  0  0  0  0
  9 11  1  0  0  0  0
  9 19  1  0  0  0  0
 11 12  1  0  0  0  0
 11 13  1  0  0  0  0
 11 14  1  0  0  0  0
 14 15  2  0  0  0  0
 14 16  1  0  0  0  0
 16 17  1  0  0  0  0
 16 18  1  0  0  0  0
 19 20  2  0  0  0  0
 19 21  1  0  0  0  0
 21 22  1  0  0  0  0
 21 23  1  0  0  0  0
 23 24  1  0  0  0  0
 23 25  1  0  0  0  0
 23 26  1  0  0  0  0
M  END
$$$$

  -OEChem-04042215573D

 26 25  0     1  0  0  0  0  0999 V2000
   -2.8896   -3.9666    0.5741 H   0  0  0  0  0  0  0  0  0  0  0  0
   -2.9202   -2.9373    0.2059 C   0  0  0  0  0  0  0  0  0  0  0  0
   -3.5158   -2.3348    0.8959 H   0  0  0  0  0  0  0  0  0  0  0  0
   -3.3955   -2.9291   -0.7779 H   0  0  0  0  0  0  0  0  0  0  0  0
   -1.5144   -2.3745    0.1073 C   0  0  0  0  0  0  0  0  0  0  0  0
   -0.5556   -3.0802    0.3749 O   0  0  0  0  0  0  0  0  0  0  0  0
   -1.3280   -1.0677   -0.2948 N   0  0  0  0  0  0  0  0  0  0  0  0
   -2.1642   -0.4977   -0.4129 H   0  0  0  0  0  0  0  0  0  0  0  0
   -0.0448   -0.3509   -0.2568 C   0  0  1  0  0  0  0  0  0  0  0  0
    0.6251   -0.8944    0.4203 H   0  0  0  0  0  0  0  0  0  0  0  0
    0.5796   -0.3334   -1.6605 C   0  0  0  0  0  0  0  0  0  0  0  0
    0.5143   -1.3307   -2.1037 H   0  0  0  0  0  0  0  0  0  0  0  0
    0.0264    0.3600   -2.3004 H   0  0  0  0  0  0  0  0  0  0  0  0
    2.0499    0.0679   -1.6140 C   0  0  0  0  0  0  0  0  0  0  0  0
    2.7688   -0.1667   -0.6591 O   0  0  0  0  0  0  0  0  0  0  0  0
    2.6428    0.7201   -2.6564 N   0  0  0  0  0  0  0  0  0  0  0  0
    3.6548    0.8014   -2.6188 H   0  0  0  0  0  0  0  0  0  0  0  0
    2.1564    0.7792   -3.5449 H   0  0  0  0  0  0  0  0  0  0  0  0
   -0.1746    1.0722    0.3140 C   0  0  0  0  0  0  0  0  0  0  0  0
   -1.1352    1.7645   -0.0025 O   0  0  0  0  0  0  0  0  0  0  0  0
    0.7416    1.5353    1.2380 N   0  0  0  0  0  0  0  0  0  0  0  0
    1.5898    0.9813    1.3549 H   0  0  0  0  0  0  0  0  0  0  0  0
    0.7065    2.8849    1.7857 C   0  0  0  0  0  0  0  0  0  0  0  0
   -0.2473    3.0688    2.2914 H   0  0  0  0  0  0  0  0  0  0  0  0
    1.5128    3.0181    2.5134 H   0  0  0  0  0  0  0  0  0  0  0  0
    0.8318    3.6247    0.9882 H   0  0  0  0  0  0  0  0  0  0  0  0
  1  2  1  0  0  0  0
  2  3  1  0  0  0  0
  2  4  1  0  0  0  0
  2  5  1  0  0  0  0
  5  6  2  0  0  0  0
  5  7  1  0  0  0  0
  7  8  1  0  0  0  0
  7  9  1  0  0  0  0
  9 10  1  0  0  0  0
  9 11  1  0  0  0  0
  9 19  1  0  0  0  0
 11 12  1  0  0  0  0
 11 13  1  0  0  0  0
 11 14  1  0  0  0  0
 14 15  2  0  0  0  0
 14 16  1  0  0  0  0
 16 17  1  0  0  0  0
 16 18  1  0  0  0  0
 19 20  2  0  0  0  0
 19 21  1  0  0  0  0
 21 22  1  0  0  0  0
 21 23  1  0  0  0  0
 23 24  1  0  0  0  0
 23 25  1  0  0  0  0
 23 26  1  0  0  0  0
M  END
$$$$

  -OEChem-04042215573D

 26 25  0     1  0  0  0  0  0999 V2000
   -2.8963   -3.9669    0.5674 H   0  0  0  0  0  0  0  0  0  0  0  0
   -2.9201   -2.9379    0.1974 C   0  0  0  0  0  0  0  0  0  0  0  0
   -3.5293   -2.3345    0.8749 H   0  0  0  0  0  0  0  0  0  0  0  0
   -3.3757   -2.9308   -0.7957 H   0  0  0  0  0  0  0  0  0  0  0  0
   -1.5129   -2.3749    0.1261 C   0  0  0  0  0  0  0  0  0  0  0  0
   -0.5613   -3.0734    0.4338 O   0  0  0  0  0  0  0  0  0  0  0  0
   -1.3188   -1.0729   -0.2878 N   0  0  0  0  0  0  0  0  0  0  0  0
   -2.1521   -0.5072   -0.4403 H   0  0  0  0  0  0  0  0  0  0  0  0
   -0.0335   -0.3598   -0.2545 C   0  0  1  0  0  0  0  0  0  0  0  0
    0.6420   -0.8995    0.4200 H   0  0  0  0  0  0  0  0  0  0  0  0
    0.5777   -0.3503   -1.6634 C   0  0  0  0  0  0  0  0  0  0  0  0
    0.5107   -1.3497   -2.1017 H   0  0  0  0  0  0  0  0  0  0  0  0
    0.0223    0.3390   -2.3052 H   0  0  0  0  0  0  0  0  0  0  0  0
    2.0475    0.0464   -1.6165 C   0  0  0  0  0  0  0  0  0  0  0  0
    2.8228   -0.4117   -0.7984 O   0  0  0  0  0  0  0  0  0  0  0  0
    2.5620    0.9858   -2.4633 N   0  0  0  0  0  0  0  0  0  0  0  0
    3.5730    1.0879   -2.4647 H   0  0  0  0  0  0  0  0  0  0  0  0
    2.0133    1.2903   -3.2608 H   0  0  0  0  0  0  0  0  0  0  0  0
   -0.1611    1.0685    0.3027 C   0  0  0  0  0  0  0  0  0  0  0  0
   -1.1024    1.7712   -0.0461 O   0  0  0  0  0  0  0  0  0  0  0  0
    0.7528    1.5406    1.2249 N   0  0  0  0  0  0  0  0  0  0  0  0
    1.5653    0.9561    1.4154 H   0  0  0  0  0  0  0  0  0  0  0  0
    0.7119    2.8899    1.7735 C   0  0  0  0  0  0  0  0  0  0  0  0
   -0.2379    3.0651    2.2896 H   0  0  0  0  0  0  0  0  0  0  0  0
    1.5250    3.0304    2.4923 H   0  0  0  0  0  0  0  0  0  0  0  0
    0.8225    3.6315    0.9755 H   0  0  0  0  0  0  0  0  0  0  0  0
  1  2  1  0  0  0  0
  2  3  1  0  0  0  0
  2  4  1  0  0  0  0
  2  5  1  0  0  0  0
  5  6  2  0  0  0  0
  5  7  1  0  0  0  0
  7  8  1  0  0  0  0
  7  9  1  0  0  0  0
  9 10  1  0  0  0  0
  9 11  1  0  0  0  0
  9 19  1  0  0  0  0
 11 12  1  0  0  0  0
 11 13  1  0  0  0  0
 11 14  1  0  0  0  0
 14 15  2  0  0  0  0
 14 16  1  0  0  0  0
 16 17  1  0  0  0  0
 16 18  1  0  0  0  0
 19 20  2  0  0  0  0
 19 21  1  0  0  0  0
 21 22  1  0  0  0  0
 21 23  1  0  0  0  0
 23 24  1  0  0  0  0
 23 25  1  0  0  0  0
 23 26  1  0  0  0  0
M  END
$$$$

  -OEChem-04042215573D

 26 25  0     1  0  0  0  0  0999 V2000
   -2.8966   -3.9643    0.5655 H   0  0  0  0  0  0  0  0  0  0  0  0
   -2.9169   -2.9377    0.1891 C   0  0  0  0  0  0  0  0  0  0  0  0
   -3.5393   -2.3321    0.8523 H   0  0  0  0  0  0  0  0  0  0  0  0
   -3.3555   -2.9382   -0.8117 H   0  0  0  0  0  0  0  0  0  0  0  0
   -1.5099   -2.3718    0.1386 C   0  0  0  0  0  0  0  0  0  0  0  0
   -0.5639   -3.0631    0.4775 O   0  0  0  0  0  0  0  0  0  0  0  0
   -1.3096   -1.0734   -0.2835 N   0  0  0  0  0  0  0  0  0  0  0  0
   -2.1394   -0.5105   -0.4627 H   0  0  0  0  0  0  0  0  0  0  0  0
   -0.0207   -0.3667   -0.2557 C   0  0  1  0  0  0  0  0  0  0  0  0
    0.6632   -0.9058    0.4112 H   0  0  0  0  0  0  0  0  0  0  0  0
    0.5731   -0.3585   -1.6711 C   0  0  0  0  0  0  0  0  0  0  0  0
    0.4991   -1.3577   -2.1093 H   0  0  0  0  0  0  0  0  0  0  0  0
    0.0161    0.3320   -2.3102 H   0  0  0  0  0  0  0  0  0  0  0  0
    2.0433    0.0293   -1.6281 C   0  0  0  0  0  0  0  0  0  0  0  0
    2.8658   -0.6164   -1.0087 O   0  0  0  0  0  0  0  0  0  0  0  0
    2.4963    1.1840   -2.1988 N   0  0  0  0  0  0  0  0  0  0  0  0
    3.5040    1.3093   -2.2311 H   0  0  0  0  0  0  0  0  0  0  0  0
    1.8917    1.6990   -2.8309 H   0  0  0  0  0  0  0  0  0  0  0  0
   -0.1476    1.0650    0.2941 C   0  0  0  0  0  0  0  0  0  0  0  0
   -1.0726    1.7760   -0.0805 O   0  0  0  0  0  0  0  0  0  0  0  0
    0.7636    1.5449    1.2152 N   0  0  0  0  0  0  0  0  0  0  0  0
    1.5445    0.9404    1.4626 H   0  0  0  0  0  0  0  0  0  0  0  0
    0.7155    2.8948    1.7617 C   0  0  0  0  0  0  0  0  0  0  0  0
   -0.2297    3.0610    2.2891 H   0  0  0  0  0  0  0  0  0  0  0  0
    1.5365    3.0453    2.4693 H   0  0  0  0  0  0  0  0  0  0  0  0
    0.8080    3.6359    0.9609 H   0  0  0  0  0  0  0  0  0  0  0  0
  1  2  1  0  0  0  0
  2  3  1  0  0  0  0
  2  4  1  0  0  0  0
  2  5  1  0  0  0  0
  5  6  2  0  0  0  0
  5  7  1  0  0  0  0
  7  8  1  0  0  0  0
  7  9  1  0  0  0  0
  9 10  1  0  0  0  0
  9 11  1  0  0  0  0
  9 19  1  0  0  0  0
 11 12  1  0  0  0  0
 11 13  1  0  0  0  0
 11 14  1  0  0  0  0
 14 15  2  0  0  0  0
 14 16  1  0  0  0  0
 16 17  1  0  0  0  0
 16 18  1  0  0  0  0
 19 20  2  0  0  0  0
 19 21  1  0  0  0  0
 21 22  1  0  0  0  0
 21 23  1  0  0  0  0
 23 24  1  0  0  0  0
 23 25  1  0  0  0  0
 23 26  1  0  0  0  0
M  END
$$$$

  -OEChem-04042215573D

 26 25  0     1  0  0  0  0  0999 V2000
   -2.8938   -3.9657    0.5494 H   0  0  0  0  0  0  0  0  0  0  0  0
   -2.9107   -2.9388    0.1734 C   0  0  0  0  0  0  0  0  0  0  0  0
   -3.5480   -2.3360    0.8250 H   0  0  0  0  0  0  0  0  0  0  0  0
   -3.3301   -2.9404   -0.8356 H   0  0  0  0  0  0  0  0  0  0  0  0
   -1.5053   -2.3672    0.1498 C   0  0  0  0  0  0  0  0  0  0  0  0
   -0.5645   -3.0495    0.5203 O   0  0  0  0  0  0  0  0  0  0  0  0
   -1.3019   -1.0700   -0.2747 N   0  0  0  0  0  0  0  0  0  0  0  0
   -2.1285   -0.5142   -0.4878 H   0  0  0  0  0  0  0  0  0  0  0  0
   -0.0115   -0.3662   -0.2485 C   0  0  1  0  0  0  0  0  0  0  0  0
    0.6799   -0.9051    0.4110 H   0  0  0  0  0  0  0  0  0  0  0  0
    0.5691   -0.3550   -1.6696 C   0  0  0  0  0  0  0  0  0  0  0  0
    0.4887   -1.3530   -2.1106 H   0  0  0  0  0  0  0  0  0  0  0  0
    0.0119    0.3385   -2.3054 H   0  0  0  0  0  0  0  0  0  0  0  0
    2.0399    0.0277   -1.6334 C   0  0  0  0  0  0  0  0  0  0  0  0
    2.8992   -0.7447   -1.2589 O   0  0  0  0  0  0  0  0  0  0  0  0
    2.4564    1.2949   -1.9257 N   0  0  0  0  0  0  0  0  0  0  0  0
    3.4595    1.4357   -2.0052 H   0  0  0  0  0  0  0  0  0  0  0  0
    1.8081    1.9445   -2.3601 H   0  0  0  0  0  0  0  0  0  0  0  0
   -0.1414    1.0665    0.3001 C   0  0  0  0  0  0  0  0  0  0  0  0
   -1.0496    1.7863   -0.0977 O   0  0  0  0  0  0  0  0  0  0  0  0
    0.7666    1.5505    1.2225 N   0  0  0  0  0  0  0  0  0  0  0  0
    1.5258    0.9347    1.5055 H   0  0  0  0  0  0  0  0  0  0  0  0
    0.7135    2.9010    1.7680 C   0  0  0  0  0  0  0  0  0  0  0  0
   -0.2312    3.0635    2.2973 H   0  0  0  0  0  0  0  0  0  0  0  0
    1.5355    3.0559    2.4734 H   0  0  0  0  0  0  0  0  0  0  0  0
    0.8014    3.6421    0.9667 H   0  0  0  0  0  0  0  0  0  0  0  0
  1  2  1  0  0  0  0
  2  3  1  0  0  0  0
  2  4  1  0  0  0  0
  2  5  1  0  0  0  0
  5  6  2  0  0  0  0
  5  7  1  0  0  0  0
  7  8  1  0  0  0  0
  7  9  1  0  0  0  0
  9 10  1  0  0  0  0
  9 11  1  0  0  0  0
  9 19  1  0  0  0  0
 11 12  1  0  0  0  0
 11 13  1  0  0  0  0
 11 14  1  0  0  0  0
 14 15  2  0  0  0  0
 14 16  1  0  0  0  0
 16 17  1  0  0  0  0
 16 18  1  0  0  0  0
 19 20  2  0  0  0  0
 19 21  1  0  0  0  0
 21 22  1  0  0  0  0
 21 23  1  0  0  0  0
 23 24  1  0  0  0  0
 23 25  1  0  0  0  0
 23 26  1  0  0  0  0
M  END
$$$$

  -OEChem-04042215573D

 26 25  0     1  0  0  0  0  0999 V2000
   -2.8926   -3.9640    0.5229 H   0  0  0  0  0  0  0  0  0  0  0  0
   -2.9059   -2.9352    0.1521 C   0  0  0  0  0  0  0  0  0  0  0  0
   -3.5582   -2.3379    0.7938 H   0  0  0  0  0  0  0  0  0  0  0  0
   -3.3047   -2.9329   -0.8653 H   0  0  0  0  0  0  0  0  0  0  0  0
   -1.5026   -2.3586    0.1600 C   0  0  0  0  0  0  0  0  0  0  0  0
   -0.5677   -3.0344    0.5567 O   0  0  0  0  0  0  0  0  0  0  0  0
   -1.2935   -1.0617   -0.2622 N   0  0  0  0  0  0  0  0  0  0  0  0
   -2.1155   -0.5102   -0.5025 H   0  0  0  0  0  0  0  0  0  0  0  0
   -0.0016   -0.3616   -0.2280 C   0  0  1  0  0  0  0  0  0  0  0  0
    0.6899   -0.9022    0.4294 H   0  0  0  0  0  0  0  0  0  0  0  0
    0.5747   -0.3508   -1.6518 C   0  0  0  0  0  0  0  0  0  0  0  0
    0.4858   -1.3484   -2.0927 H   0  0  0  0  0  0  0  0  0  0  0  0
    0.0194    0.3457   -2.2859 H   0  0  0  0  0  0  0  0  0  0  0  0
    2.0474    0.0245   -1.6293 C   0  0  0  0  0  0  0  0  0  0  0  0
    2.9256   -0.8075   -1.5248 O   0  0  0  0  0  0  0  0  0  0  0  0
    2.4544    1.3267   -1.6934 N   0  0  0  0  0  0  0  0  0  0  0  0
    3.4469    1.4809   -1.8468 H   0  0  0  0  0  0  0  0  0  0  0  0
    1.7788    2.0439   -1.9409 H   0  0  0  0  0  0  0  0  0  0  0  0
   -0.1386    1.0703    0.3225 C   0  0  0  0  0  0  0  0  0  0  0  0
   -1.0297    1.7976   -0.0989 O   0  0  0  0  0  0  0  0  0  0  0  0
    0.7600    1.5565    1.2531 N   0  0  0  0  0  0  0  0  0  0  0  0
    1.4984    0.9319    1.5687 H   0  0  0  0  0  0  0  0  0  0  0  0
    0.6964    2.9054    1.8014 C   0  0  0  0  0  0  0  0  0  0  0  0
   -0.2555    3.0644    2.3190 H   0  0  0  0  0  0  0  0  0  0  0  0
    1.5092    3.0605    2.5177 H   0  0  0  0  0  0  0  0  0  0  0  0
    0.7922    3.6487    1.0031 H   0  0  0  0  0  0  0  0  0  0  0  0
  1  2  1  0  0  0  0
  2  3  1  0  0  0  0
  2  4  1  0  0  0  0
  2  5  1  0  0  0  0
  5  6  2  0  0  0  0
  5  7  1  0  0  0  0
  7  8  1  0  0  0  0
  7  9  1  0  0  0  0
  9 10  1  0  0  0  0
  9 11  1  0  0  0  0
  9 19  1  0  0  0  0
 11 12  1  0  0  0  0
 11 13  1  0  0  0  0
 11 14  1  0  0  0  0
 14 15  2  0  0  0  0
 14 16  1  0  0  0  0
 16 17  1  0  0  0  0
 16 18  1  0  0  0  0
 19 20  2  0  0  0  0
 19 21  1  0  0  0  0
 21 22  1  0  0  0  0
 21 23  1  0  0  0  0
 23 24  1  0  0  0  0
 23 25  1  0  0  0  0
 23 26  1  0  0  0  0
M  END
$$$$

  -OEChem-04042215573D

 26 25  0     1  0  0  0  0  0999 V2000
   -2.8968   -3.9654    0.4871 H   0  0  0  0  0  0  0  0  0  0  0  0
   -2.9063   -2.9329    0.1266 C   0  0  0  0  0  0  0  0  0  0  0  0
   -3.5779   -2.3455    0.7574 H   0  0  0  0  0  0  0  0  0  0  0  0
   -3.2795   -2.9224   -0.9003 H   0  0  0  0  0  0  0  0  0  0  0  0
   -1.5064   -2.3496    0.1747 C   0  0  0  0  0  0  0  0  0  0  0  0
   -0.5803   -3.0201    0.6005 O   0  0  0  0  0  0  0  0  0  0  0  0
   -1.2886   -1.0533   -0.2457 N   0  0  0  0  0  0  0  0  0  0  0  0
   -2.1033   -0.5054   -0.5170 H   0  0  0  0  0  0  0  0  0  0  0  0
    0.0062   -0.3591   -0.2001 C   0  0  1  0  0  0  0  0  0  0  0  0
    0.6929   -0.9010    0.4606 H   0  0  0  0  0  0  0  0  0  0  0  0
    0.5853   -0.3552   -1.6242 C   0  0  0  0  0  0  0  0  0  0  0  0
    0.4859   -1.3532   -2.0618 H   0  0  0  0  0  0  0  0  0  0  0  0
    0.0342    0.3436   -2.2596 H   0  0  0  0  0  0  0  0  0  0  0  0
    2.0614    0.0096   -1.6162 C   0  0  0  0  0  0  0  0  0  0  0  0
    2.9331   -0.8191   -1.7832 O   0  0  0  0  0  0  0  0  0  0  0  0
    2.4821    1.3020   -1.4809 N   0  0  0  0  0  0  0  0  0  0  0  0
    3.4564    1.4766   -1.7107 H   0  0  0  0  0  0  0  0  0  0  0  0
    1.7979    2.0492   -1.5615 H   0  0  0  0  0  0  0  0  0  0  0  0
   -0.1357    1.0726    0.3504 C   0  0  0  0  0  0  0  0  0  0  0  0
   -1.0082    1.8080   -0.0942 O   0  0  0  0  0  0  0  0  0  0  0  0
    0.7523    1.5596    1.2911 N   0  0  0  0  0  0  0  0  0  0  0  0
    1.4713    0.9273    1.6348 H   0  0  0  0  0  0  0  0  0  0  0  0
    0.6793    2.9073    1.8419 C   0  0  0  0  0  0  0  0  0  0  0  0
   -0.2791    3.0628    2.3483 H   0  0  0  0  0  0  0  0  0  0  0  0
    1.4832    3.0621    2.5682 H   0  0  0  0  0  0  0  0  0  0  0  0
    0.7835    3.6537    1.0475 H   0  0  0  0  0  0  0  0  0  0  0  0
  1  2  1  0  0  0  0
  2  3  1  0  0  0  0
  2  4  1  0  0  0  0
  2  5  1  0  0  0  0
  5  6  2  0  0  0  0
  5  7  1  0  0  0  0
  7  8  1  0  0  0  0
  7  9  1  0  0  0  0
  9 10  1  0  0  0  0
  9 11  1  0  0  0  0
  9 19  1  0  0  0  0
 11 12  1  0  0  0  0
 11 13  1  0  0  0  0
 11 14  1  0  0  0  0
 14 15  2  0  0  0  0
 14 16  1  0  0  0  0
 16 17  1  0  0  0  0
 16 18  1  0  0  0  0
 19 20  2  0  0  0  0
 19 21  1  0  0  0  0
 21 22  1  0  0  0  0
 21 23  1  0  0  0  0
 23 24  1  0  0  0  0
 23 25  1  0  0  0  0
 23 26  1  0  0  0  0
M  END
$$$$

  -OEChem-04042215573D

 26 25  0     1  0  0  0  0  0999 V2000
   -2.9171   -3.9461    0.4861 H   0  0  0  0  0  0  0  0  0  0  0  0
   -2.9157   -2.9141    0.1242 C   0  0  0  0  0  0  0  0  0  0  0  0
   -3.5817   -2.3192    0.7539 H   0  0  0  0  0  0  0  0  0  0  0  0
   -3.2883   -2.9013   -0.9029 H   0  0  0  0  0  0  0  0  0  0  0  0
   -1.5105   -2.3443    0.1739 C   0  0  0  0  0  0  0  0  0  0  0  0
   -0.5918   -3.0191    0.6090 O   0  0  0  0  0  0  0  0  0  0  0  0
   -1.2802   -1.0498   -0.2451 N   0  0  0  0  0  0  0  0  0  0  0  0
   -2.0883   -0.4962   -0.5247 H   0  0  0  0  0  0  0  0  0  0  0  0
    0.0189   -0.3651   -0.1857 C   0  0  1  0  0  0  0  0  0  0  0  0
    0.6959   -0.9080    0.4842 H   0  0  0  0  0  0  0  0  0  0  0  0
    0.6106   -0.3702   -1.6069 C   0  0  0  0  0  0  0  0  0  0  0  0
    0.5010   -1.3689   -2.0409 H   0  0  0  0  0  0  0  0  0  0  0  0
    0.0684    0.3319   -2.2460 H   0  0  0  0  0  0  0  0  0  0  0  0
    2.0917   -0.0196   -1.6093 C   0  0  0  0  0  0  0  0  0  0  0  0
    2.9330   -0.7857   -2.0336 O   0  0  0  0  0  0  0  0  0  0  0  0
    2.5455    1.2245   -1.2737 N   0  0  0  0  0  0  0  0  0  0  0  0
    3.4975    1.4321   -1.5631 H   0  0  0  0  0  0  0  0  0  0  0  0
    1.8687    1.9781   -1.1870 H   0  0  0  0  0  0  0  0  0  0  0  0
   -0.1329    1.0663    0.3642 C   0  0  0  0  0  0  0  0  0  0  0  0
   -0.9955    1.8037   -0.0952 O   0  0  0  0  0  0  0  0  0  0  0  0
    0.7405    1.5548    1.3180 N   0  0  0  0  0  0  0  0  0  0  0  0
    1.4423    0.9171    1.6866 H   0  0  0  0  0  0  0  0  0  0  0  0
    0.6455    2.8964    1.8811 C   0  0  0  0  0  0  0  0  0  0  0  0
   -0.3218    3.0372    2.3751 H   0  0  0  0  0  0  0  0  0  0  0  0
    1.4368    3.0524    2.6207 H   0  0  0  0  0  0  0  0  0  0  0  0
    0.7536    3.6513    1.0954 H   0  0  0  0  0  0  0  0  0  0  0  0
  1  2  1  0  0  0  0
  2  3  1  0  0  0  0
  2  4  1  0  0  0  0
  2  5  1  0  0  0  0
  5  6  2  0  0  0  0
  5  7  1  0  0  0  0
  7  8  1  0  0  0  0
  7  9  1  0  0  0  0
  9 10  1  0  0  0  0
  9 11  1  0  0  0  0
  9 19  1  0  0  0  0
 11 12  1  0  0  0  0
 11 13  1  0  0  0  0
 11 14  1  0  0  0  0
 14 15  2  0  0  0  0
 14 16  1  0  0  0  0
 16 17  1  0  0  0  0
 16 18  1  0  0  0  0
 19 20  2  0  0  0  0
 19 21  1  0  0  0  0
 21 22  1  0  0  0  0
 21 23  1  0  0  0  0
 23 24  1  0  0  0  0
 23 25  1  0  0  0  0
 23 26  1  0  0  0  0
M  END
$$$$

  -OEChem-04042215573D

 26 25  0     1  0  0  0  0  0999 V2000
   -2.9353   -3.9330    0.4759 H   0  0  0  0  0  0  0  0  0  0  0  0
   -2.9257   -2.9001    0.1166 C   0  0  0  0  0  0  0  0  0  0  0  0
   -3.5962   -2.3039    0.7403 H   0  0  0  0  0  0  0  0  0  0  0  0
   -3.2865   -2.8833   -0.9147 H   0  0  0  0  0  0  0  0  0  0  0  0
   -1.5188   -2.3363    0.1828 C   0  0  0  0  0  0  0  0  0  0  0  0
   -0.6078   -3.0140    0.6301 O   0  0  0  0  0  0  0  0  0  0  0  0
   -1.2757   -1.0454   -0.2400 N   0  0  0  0  0  0  0  0  0  0  0  0
   -2.0764   -0.4881   -0.5337 H   0  0  0  0  0  0  0  0  0  0  0  0
    0.0287   -0.3722   -0.1733 C   0  0  1  0  0  0  0  0  0  0  0  0
    0.6967   -0.9156    0.5044 H   0  0  0  0  0  0  0  0  0  0  0  0
    0.6280   -0.3923   -1.5926 C   0  0  0  0  0  0  0  0  0  0  0  0
    0.5053   -1.3927   -2.0195 H   0  0  0  0  0  0  0  0  0  0  0  0
    0.0933    0.3123   -2.2354 H   0  0  0  0  0  0  0  0  0  0  0  0
    2.1145   -0.0593   -1.6143 C   0  0  0  0  0  0  0  0  0  0  0  0
    2.9012   -0.7096   -2.2725 O   0  0  0  0  0  0  0  0  0  0  0  0
    2.6267    1.0851   -1.0716 N   0  0  0  0  0  0  0  0  0  0  0  0
    3.5577    1.3316   -1.3962 H   0  0  0  0  0  0  0  0  0  0  0  0
    1.9787    1.8218   -0.8056 H   0  0  0  0  0  0  0  0  0  0  0  0
   -0.1262    1.0613    0.3708 C   0  0  0  0  0  0  0  0  0  0  0  0
   -0.9816    1.7996   -0.0994 O   0  0  0  0  0  0  0  0  0  0  0  0
    0.7379    1.5521    1.3324 N   0  0  0  0  0  0  0  0  0  0  0  0
    1.4134    0.9050    1.7328 H   0  0  0  0  0  0  0  0  0  0  0  0
    0.6224    2.8881    1.9058 C   0  0  0  0  0  0  0  0  0  0  0  0
   -0.3474    3.0106    2.3999 H   0  0  0  0  0  0  0  0  0  0  0  0
    1.4108    3.0508    2.6471 H   0  0  0  0  0  0  0  0  0  0  0  0
    0.7197    3.6509    1.1261 H   0  0  0  0  0  0  0  0  0  0  0  0
  1  2  1  0  0  0  0
  2  3  1  0  0  0  0
  2  4  1  0  0  0  0
  2  5  1  0  0  0  0
  5  6  2  0  0  0  0
  5  7  1  0  0  0  0
  7  8  1  0  0  0  0
  7  9  1  0  0  0  0
  9 10  1  0  0  0  0
  9 11  1  0  0  0  0
  9 19  1  0  0  0  0
 11 12  1  0  0  0  0
 11 13  1  0  0  0  0
 11 14  1  0  0  0  0
 14 15  2  0  0  0  0
 14 16  1  0  0  0  0
 16 17  1  0  0  0  0
 16 18  1  0  0  0  0
 19 20  2  0  0  0  0
 19 21  1  0  0  0  0
 21 22  1  0  0  0  0
 21 23  1  0  0  0  0
 23 24  1  0  0  0  0
 23 25  1  0  0  0  0
 23 26  1  0  0  0  0
M  END
$$$$

  -OEChem-04042215573D

 26 25  0     1  0  0  0  0  0999 V2000
   -2.9536   -3.9215    0.4712 H   0  0  0  0  0  0  0  0  0  0  0  0
   -2.9376   -2.8884    0.1128 C   0  0  0  0  0  0  0  0  0  0  0  0
   -3.6102   -2.2900    0.7322 H   0  0  0  0  0  0  0  0  0  0  0  0
   -3.2914   -2.8696   -0.9209 H   0  0  0  0  0  0  0  0  0  0  0  0
   -1.5291   -2.3298    0.1896 C   0  0  0  0  0  0  0  0  0  0  0  0
   -0.6250   -3.0087    0.6493 O   0  0  0  0  0  0  0  0  0  0  0  0
   -1.2745   -1.0430   -0.2387 N   0  0  0  0  0  0  0  0  0  0  0  0
   -2.0685   -0.4827   -0.5454 H   0  0  0  0  0  0  0  0  0  0  0  0
    0.0349   -0.3793   -0.1682 C   0  0  1  0  0  0  0  0  0  0  0  0
    0.6960   -0.9235    0.5160 H   0  0  0  0  0  0  0  0  0  0  0  0
    0.6403   -0.4143   -1.5857 C   0  0  0  0  0  0  0  0  0  0  0  0
    0.5069   -1.4162   -2.0052 H   0  0  0  0  0  0  0  0  0  0  0  0
    0.1102    0.2910   -2.2320 H   0  0  0  0  0  0  0  0  0  0  0  0
    2.1313   -0.0967   -1.6279 C   0  0  0  0  0  0  0  0  0  0  0  0
    2.8498   -0.5785   -2.4803 O   0  0  0  0  0  0  0  0  0  0  0  0
    2.7196    0.8888   -0.8861 N   0  0  0  0  0  0  0  0  0  0  0  0
    3.6338    1.1762   -1.2249 H   0  0  0  0  0  0  0  0  0  0  0  0
    2.1159    1.5798   -0.4491 H   0  0  0  0  0  0  0  0  0  0  0  0
   -0.1175    1.0575    0.3679 C   0  0  0  0  0  0  0  0  0  0  0  0
   -0.9692    1.7963   -0.1074 O   0  0  0  0  0  0  0  0  0  0  0  0
    0.7437    1.5470    1.3334 N   0  0  0  0  0  0  0  0  0  0  0  0
    1.3720    0.8823    1.7801 H   0  0  0  0  0  0  0  0  0  0  0  0
    0.6117    2.8788    1.9139 C   0  0  0  0  0  0  0  0  0  0  0  0
   -0.3586    2.9863    2.4105 H   0  0  0  0  0  0  0  0  0  0  0  0
    1.3998    3.0487    2.6539 H   0  0  0  0  0  0  0  0  0  0  0  0
    0.6968    3.6467    1.1376 H   0  0  0  0  0  0  0  0  0  0  0  0
  1  2  1  0  0  0  0
  2  3  1  0  0  0  0
  2  4  1  0  0  0  0
  2  5  1  0  0  0  0
  5  6  2  0  0  0  0
  5  7  1  0  0  0  0
  7  8  1  0  0  0  0
  7  9  1  0  0  0  0
  9 10  1  0  0  0  0
  9 11  1  0  0  0  0
  9 19  1  0  0  0  0
 11 12  1  0  0  0  0
 11 13  1  0  0  0  0
 11 14  1  0  0  0  0
 14 15  2  0  0  0  0
 14 16  1  0  0  0  0
 16 17  1  0  0  0  0
 16 18  1  0  0  0  0
 19 20  2  0  0  0  0
 19 21  1  0  0  0  0
 21 22  1  0  0  0  0
 21 23  1  0  0  0  0
 23 24  1  0  0  0  0
 23 25  1  0  0  0  0
 23 26  1  0  0  0  0
M  END
$$$$

  -OEChem-04042215573D

 26 25  0     1  0  0  0  0  0999 V2000
   -2.9733   -3.9134    0.4653 H   0  0  0  0  0  0  0  0  0  0  0  0
   -2.9503   -2.8803    0.1073 C   0  0  0  0  0  0  0  0  0  0  0  0
   -3.6233   -2.2786    0.7230 H   0  0  0  0  0  0  0  0  0  0  0  0
   -3.2985   -2.8592   -0.9283 H   0  0  0  0  0  0  0  0  0  0  0  0
   -1.5394   -2.3287    0.1918 C   0  0  0  0  0  0  0  0  0  0  0  0
   -0.6409   -3.0095    0.6601 O   0  0  0  0  0  0  0  0  0  0  0  0
   -1.2759   -1.0451   -0.2404 N   0  0  0  0  0  0  0  0  0  0  0  0
   -2.0642   -0.4843   -0.5608 H   0  0  0  0  0  0  0  0  0  0  0  0
    0.0357   -0.3872   -0.1647 C   0  0  1  0  0  0  0  0  0  0  0  0
    0.6895   -0.9326    0.5253 H   0  0  0  0  0  0  0  0  0  0  0  0
    0.6454   -0.4366   -1.5803 C   0  0  0  0  0  0  0  0  0  0  0  0
    0.5065   -1.4409   -1.9917 H   0  0  0  0  0  0  0  0  0  0  0  0
    0.1180    0.2666   -2.2313 H   0  0  0  0  0  0  0  0  0  0  0  0
    2.1385   -0.1294   -1.6403 C   0  0  0  0  0  0  0  0  0  0  0  0
    2.7868   -0.3980   -2.6316 O   0  0  0  0  0  0  0  0  0  0  0  0
    2.8005    0.6568   -0.7394 N   0  0  0  0  0  0  0  0  0  0  0  0
    3.7038    0.9840   -1.0719 H   0  0  0  0  0  0  0  0  0  0  0  0
    2.2421    1.2783   -0.1620 H   0  0  0  0  0  0  0  0  0  0  0  0
   -0.1091    1.0528    0.3637 C   0  0  0  0  0  0  0  0  0  0  0  0
   -0.9529    1.7967   -0.1168 O   0  0  0  0  0  0  0  0  0  0  0  0
    0.7543    1.5341    1.3324 N   0  0  0  0  0  0  0  0  0  0  0  0
    1.3243    0.8497    1.8255 H   0  0  0  0  0  0  0  0  0  0  0  0
    0.6254    2.8688    1.9072 C   0  0  0  0  0  0  0  0  0  0  0  0
   -0.3426    2.9795    2.4071 H   0  0  0  0  0  0  0  0  0  0  0  0
    1.4171    3.0425    2.6423 H   0  0  0  0  0  0  0  0  0  0  0  0
    0.7077    3.6330    1.1270 H   0  0  0  0  0  0  0  0  0  0  0  0
  1  2  1  0  0  0  0
  2  3  1  0  0  0  0
  2  4  1  0  0  0  0
  2  5  1  0  0  0  0
  5  6  2  0  0  0  0
  5  7  1  0  0  0  0
  7  8  1  0  0  0  0
  7  9  1  0  0  0  0
  9 10  1  0  0  0  0
  9 11  1  0  0  0  0
  9 19  1  0  0  0  0
 11 12  1  0  0  0  0
 11 13  1  0  0  0  0
 11 14  1  0  0  0  0
 14 15  2  0  0  0  0
 14 16  1  0  0  0  0
 16 17  1  0  0  0  0
 16 18  1  0  0  0  0
 19 20  2  0  0  0  0
 19 21  1  0  0  0  0
 21 22  1  0  0  0  0
 21 23  1  0  0  0  0
 23 24  1  0  0  0  0
 23 25  1  0  0  0  0
 23 26  1  0  0  0  0
M  END
$$$$

  -OEChem-04042215573D

 26 25  0     1  0  0  0  0  0999 V2000
   -2.8375   -3.9468    0.5212 H   0  0  0  0  0  0  0  0  0  0  0  0
   -2.8705   -2.9187    0.1496 C   0  0  0  0  0  0  0  0  0  0  0  0
   -3.5352   -2.3339    0.7901 H   0  0  0  0  0  0  0  0  0  0  0  0
   -3.2686   -2.9248   -0.8680 H   0  0  0  0  0  0  0  0  0  0  0  0
   -1.4789   -2.3145    0.1576 C   0  0  0  0  0  0  0  0  0  0  0  0
   -0.5243   -2.9734    0.5416 O   0  0  0  0  0  0  0  0  0  0  0  0
   -1.2869   -1.0149   -0.2651 N   0  0  0  0  0  0  0  0  0  0  0  0
   -2.1152   -0.4648   -0.4909 H   0  0  0  0  0  0  0  0  0  0  0  0
   -0.0048   -0.3005   -0.2019 C   0  0  1  0  0  0  0  0  0  0  0  0
    0.6422   -0.8297    0.5018 H   0  0  0  0  0  0  0  0  0  0  0  0
    0.6301   -0.2791   -1.6072 C   0  0  0  0  0  0  0  0  0  0  0  0
    0.3328   -1.1823   -2.1477 H   0  0  0  0  0  0  0  0  0  0  0  0
    0.2585    0.5807   -2.1728 H   0  0  0  0  0  0  0  0  0  0  0  0
    2.1555   -0.2524   -1.6041 C   0  0  0  0  0  0  0  0  0  0  0  0
    2.7772   -0.2308   -2.6468 O   0  0  0  0  0  0  0  0  0  0  0  0
    2.9297   -0.4957   -0.5031 N   0  0  0  0  0  0  0  0  0  0  0  0
    3.8971   -0.7035   -0.7389 H   0  0  0  0  0  0  0  0  0  0  0  0
    2.5005   -1.0246    0.2482 H   0  0  0  0  0  0  0  0  0  0  0  0
   -0.1764    1.1316    0.3432 C   0  0  0  0  0  0  0  0  0  0  0  0
   -1.1415    1.7971   -0.0104 O   0  0  0  0  0  0  0  0  0  0  0  0
    0.6899    1.6393    1.2941 N   0  0  0  0  0  0  0  0  0  0  0  0
    1.5080    1.0879    1.5359 H   0  0  0  0  0  0  0  0  0  0  0  0
    0.5698    2.9867    1.8388 C   0  0  0  0  0  0  0  0  0  0  0  0
   -0.4014    3.1182    2.3275 H   0  0  0  0  0  0  0  0  0  0  0  0
    1.3550    3.1669    2.5794 H   0  0  0  0  0  0  0  0  0  0  0  0
    0.6673    3.7318    1.0421 H   0  0  0  0  0  0  0  0  0  0  0  0
  1  2  1  0  0  0  0
  2  3  1  0  0  0  0
  2  4  1  0  0  0  0
  2  5  1  0  0  0  0
  5  6  2  0  0  0  0
  5  7  1  0  0  0  0
  7  8  1  0  0  0  0
  7  9  1  0  0  0  0
  9 10  1  0  0  0  0
  9 11  1  0  0  0  0
  9 19  1  0  0  0  0
 11 12  1  0  0  0  0
 11 13  1  0  0  0  0
 11 14  1  0  0  0  0
 14 15  2  0  0  0  0
 14 16  1  0  0  0  0
 16 17  1  0  0  0  0
 16 18  1  0  0  0  0
 19 20  2  0  0  0  0
 19 21  1  0  0  0  0
 21 22  1  0  0  0  0
 21 23  1  0  0  0  0
 23 24  1  0  0  0  0
 23 25  1  0  0  0  0
 23 26  1  0  0  0  0
M  END
$$$$

  -OEChem-04042215573D

 26 25  0     1  0  0  0  0  0999 V2000
   -2.8393   -3.9403    0.5307 H   0  0  0  0  0  0  0  0  0  0  0  0
   -2.8724   -2.9115    0.1610 C   0  0  0  0  0  0  0  0  0  0  0  0
   -3.5263   -2.3245    0.8106 H   0  0  0  0  0  0  0  0  0  0  0  0
   -3.2837   -2.9143   -0.8514 H   0  0  0  0  0  0  0  0  0  0  0  0
   -1.4784   -2.3131    0.1518 C   0  0  0  0  0  0  0  0  0  0  0  0
   -0.5195   -2.9769    0.5177 O   0  0  0  0  0  0  0  0  0  0  0  0
   -1.2872   -1.0145   -0.2738 N   0  0  0  0  0  0  0  0  0  0  0  0
   -2.1163   -0.4600   -0.4852 H   0  0  0  0  0  0  0  0  0  0  0  0
   -0.0060   -0.3003   -0.2025 C   0  0  1  0  0  0  0  0  0  0  0  0
    0.6322   -0.8229    0.5145 H   0  0  0  0  0  0  0  0  0  0  0  0
    0.6460   -0.2904   -1.5996 C   0  0  0  0  0  0  0  0  0  0  0  0
    0.3597   -1.1978   -2.1386 H   0  0  0  0  0  0  0  0  0  0  0  0
    0.2851    0.5660   -2.1777 H   0  0  0  0  0  0  0  0  0  0  0  0
    2.1691   -0.2638   -1.5538 C   0  0  0  0  0  0  0  0  0  0  0  0
    2.8190    0.0188   -2.5396 O   0  0  0  0  0  0  0  0  0  0  0  0
    2.9021   -0.8104   -0.5373 N   0  0  0  0  0  0  0  0  0  0  0  0
    3.8708   -0.9880   -0.7907 H   0  0  0  0  0  0  0  0  0  0  0  0
    2.4289   -1.4881    0.0536 H   0  0  0  0  0  0  0  0  0  0  0  0
   -0.1749    1.1333    0.3363 C   0  0  0  0  0  0  0  0  0  0  0  0
   -1.1372    1.8010   -0.0211 O   0  0  0  0  0  0  0  0  0  0  0  0
    0.6901    1.6356    1.2908 N   0  0  0  0  0  0  0  0  0  0  0  0
    1.4981    1.0735    1.5436 H   0  0  0  0  0  0  0  0  0  0  0  0
    0.5759    2.9826    1.8371 C   0  0  0  0  0  0  0  0  0  0  0  0
   -0.3953    3.1178    2.3248 H   0  0  0  0  0  0  0  0  0  0  0  0
    1.3611    3.1580    2.5789 H   0  0  0  0  0  0  0  0  0  0  0  0
    0.6783    3.7282    1.0415 H   0  0  0  0  0  0  0  0  0  0  0  0
  1  2  1  0  0  0  0
  2  3  1  0  0  0  0
  2  4  1  0  0  0  0
  2  5  1  0  0  0  0
  5  6  2  0  0  0  0
  5  7  1  0  0  0  0
  7  8  1  0  0  0  0
  7  9  1  0  0  0  0
  9 10  1  0  0  0  0
  9 11  1  0  0  0  0
  9 19  1  0  0  0  0
 11 12  1  0  0  0  0
 11 13  1  0  0  0  0
 11 14  1  0  0  0  0
 14 15  2  0  0  0  0
 14 16  1  0  0  0  0
 16 17  1  0  0  0  0
 16 18  1  0  0  0  0
 19 20  2  0  0  0  0
 19 21  1  0  0  0  0
 21 22  1  0  0  0  0
 21 23  1  0  0  0  0
 23 24  1  0  0  0  0
 23 25  1  0  0  0  0
 23 26  1  0  0  0  0
M  END
$$$$

  -OEChem-04042215573D

 26 25  0     1  0  0  0  0  0999 V2000
   -2.8478   -3.9318    0.5451 H   0  0  0  0  0  0  0  0  0  0  0  0
   -2.8800   -2.9043    0.1722 C   0  0  0  0  0  0  0  0  0  0  0  0
   -3.5183   -2.3104    0.8309 H   0  0  0  0  0  0  0  0  0  0  0  0
   -3.3085   -2.9074   -0.8329 H   0  0  0  0  0  0  0  0  0  0  0  0
   -1.4818   -2.3167    0.1369 C   0  0  0  0  0  0  0  0  0  0  0  0
   -0.5191   -2.9926    0.4704 O   0  0  0  0  0  0  0  0  0  0  0  0
   -1.2882   -1.0179   -0.2865 N   0  0  0  0  0  0  0  0  0  0  0  0
   -2.1171   -0.4540   -0.4736 H   0  0  0  0  0  0  0  0  0  0  0  0
   -0.0040   -0.3098   -0.2111 C   0  0  1  0  0  0  0  0  0  0  0  0
    0.6322   -0.8328    0.5087 H   0  0  0  0  0  0  0  0  0  0  0  0
    0.6538   -0.3090   -1.6038 C   0  0  0  0  0  0  0  0  0  0  0  0
    0.3696   -1.2157   -2.1447 H   0  0  0  0  0  0  0  0  0  0  0  0
    0.3054    0.5493   -2.1869 H   0  0  0  0  0  0  0  0  0  0  0  0
    2.1733   -0.2904   -1.5204 C   0  0  0  0  0  0  0  0  0  0  0  0
    2.8486    0.2333   -2.3829 O   0  0  0  0  0  0  0  0  0  0  0  0
    2.8693   -1.0661   -0.6359 N   0  0  0  0  0  0  0  0  0  0  0  0
    3.8445   -1.2061   -0.8869 H   0  0  0  0  0  0  0  0  0  0  0  0
    2.3644   -1.8310   -0.1949 H   0  0  0  0  0  0  0  0  0  0  0  0
   -0.1679    1.1235    0.3304 C   0  0  0  0  0  0  0  0  0  0  0  0
   -1.1323    1.7921   -0.0200 O   0  0  0  0  0  0  0  0  0  0  0  0
    0.6975    1.6196    1.2877 N   0  0  0  0  0  0  0  0  0  0  0  0
    1.5055    1.0551    1.5354 H   0  0  0  0  0  0  0  0  0  0  0  0
    0.5905    2.9667    1.8349 C   0  0  0  0  0  0  0  0  0  0  0  0
   -0.3788    3.1062    2.3252 H   0  0  0  0  0  0  0  0  0  0  0  0
    1.3785    3.1380    2.5746 H   0  0  0  0  0  0  0  0  0  0  0  0
    0.6941    3.7123    1.0395 H   0  0  0  0  0  0  0  0  0  0  0  0
  1  2  1  0  0  0  0
  2  3  1  0  0  0  0
  2  4  1  0  0  0  0
  2  5  1  0  0  0  0
  5  6  2  0  0  0  0
  5  7  1  0  0  0  0
  7  8  1  0  0  0  0
  7  9  1  0  0  0  0
  9 10  1  0  0  0  0
  9 11  1  0  0  0  0
  9 19  1  0  0  0  0
 11 12  1  0  0  0  0
 11 13  1  0  0  0  0
 11 14  1  0  0  0  0
 14 15  2  0  0  0  0
 14 16  1  0  0  0  0
 16 17  1  0  0  0  0
 16 18  1  0  0  0  0
 19 20  2  0  0  0  0
 19 21  1  0  0  0  0
 21 22  1  0  0  0  0
 21 23  1  0  0  0  0
 23 24  1  0  0  0  0
 23 25  1  0  0  0  0
 23 26  1  0  0  0  0
M  END
$$$$

  -OEChem-04042215573D

 26 25  0     1  0  0  0  0  0999 V2000
   -2.8601   -3.9262    0.5624 H   0  0  0  0  0  0  0  0  0  0  0  0
   -2.8916   -2.9021    0.1799 C   0  0  0  0  0  0  0  0  0  0  0  0
   -3.5137   -2.2972    0.8441 H   0  0  0  0  0  0  0  0  0  0  0  0
   -3.3385   -2.9117   -0.8174 H   0  0  0  0  0  0  0  0  0  0  0  0
   -1.4901   -2.3253    0.1133 C   0  0  0  0  0  0  0  0  0  0  0  0
   -0.5239   -3.0148    0.4069 O   0  0  0  0  0  0  0  0  0  0  0  0
   -1.2960   -1.0245   -0.3035 N   0  0  0  0  0  0  0  0  0  0  0  0
   -2.1249   -0.4499   -0.4548 H   0  0  0  0  0  0  0  0  0  0  0  0
   -0.0075   -0.3239   -0.2309 C   0  0  1  0  0  0  0  0  0  0  0  0
    0.6311   -0.8537    0.4828 H   0  0  0  0  0  0  0  0  0  0  0  0
    0.6467   -0.3286   -1.6232 C   0  0  0  0  0  0  0  0  0  0  0  0
    0.3605   -1.2336   -2.1659 H   0  0  0  0  0  0  0  0  0  0  0  0
    0.3068    0.5321   -2.2077 H   0  0  0  0  0  0  0  0  0  0  0  0
    2.1632   -0.3190   -1.5153 C   0  0  0  0  0  0  0  0  0  0  0  0
    2.8500    0.4112   -2.2004 O   0  0  0  0  0  0  0  0  0  0  0  0
    2.8389   -1.2418   -0.7671 N   0  0  0  0  0  0  0  0  0  0  0  0
    3.8271   -1.3302   -0.9878 H   0  0  0  0  0  0  0  0  0  0  0  0
    2.3243   -2.0613   -0.4521 H   0  0  0  0  0  0  0  0  0  0  0  0
   -0.1589    1.1071    0.3206 C   0  0  0  0  0  0  0  0  0  0  0  0
   -1.1296    1.7774   -0.0084 O   0  0  0  0  0  0  0  0  0  0  0  0
    0.7155    1.5916    1.2757 N   0  0  0  0  0  0  0  0  0  0  0  0
    1.5329    1.0300    1.4979 H   0  0  0  0  0  0  0  0  0  0  0  0
    0.6218    2.9371    1.8291 C   0  0  0  0  0  0  0  0  0  0  0  0
   -0.3438    3.0825    2.3249 H   0  0  0  0  0  0  0  0  0  0  0  0
    1.4147    3.0990    2.5657 H   0  0  0  0  0  0  0  0  0  0  0  0
    0.7274    3.6854    1.0365 H   0  0  0  0  0  0  0  0  0  0  0  0
  1  2  1  0  0  0  0
  2  3  1  0  0  0  0
  2  4  1  0  0  0  0
  2  5  1  0  0  0  0
  5  6  2  0  0  0  0
  5  7  1  0  0  0  0
  7  8  1  0  0  0  0
  7  9  1  0  0  0  0
  9 10  1  0  0  0  0
  9 11  1  0  0  0  0
  9 19  1  0  0  0  0
 11 12  1  0  0  0  0
 11 13  1  0  0  0  0
 11 14  1  0  0  0  0
 14 15  2  0  0  0  0
 14 16  1  0  0  0  0
 16 17  1  0  0  0  0
 16 18  1  0  0  0  0
 19 20  2  0  0  0  0
 19 21  1  0  0  0  0
 21 22  1  0  0  0  0
 21 23  1  0  0  0  0
 23 24  1  0  0  0  0
 23 25  1  0  0  0  0
 23 26  1  0  0  0  0
M  END
$$$$

  -OEChem-04042215573D

 26 25  0     1  0  0  0  0  0999 V2000
   -2.8740   -3.9208    0.5726 H   0  0  0  0  0  0  0  0  0  0  0  0
   -2.9022   -2.8981    0.1862 C   0  0  0  0  0  0  0  0  0  0  0  0
   -3.5072   -2.2845    0.8583 H   0  0  0  0  0  0  0  0  0  0  0  0
   -3.3660   -2.9070   -0.8032 H   0  0  0  0  0  0  0  0  0  0  0  0
   -1.4967   -2.3348    0.0927 C   0  0  0  0  0  0  0  0  0  0  0  0
   -0.5310   -3.0391    0.3506 O   0  0  0  0  0  0  0  0  0  0  0  0
   -1.3005   -1.0321   -0.3163 N   0  0  0  0  0  0  0  0  0  0  0  0
   -2.1281   -0.4484   -0.4371 H   0  0  0  0  0  0  0  0  0  0  0  0
   -0.0075   -0.3390   -0.2529 C   0  0  1  0  0  0  0  0  0  0  0  0
    0.6386   -0.8778    0.4486 H   0  0  0  0  0  0  0  0  0  0  0  0
    0.6340   -0.3392   -1.6491 C   0  0  0  0  0  0  0  0  0  0  0  0
    0.3405   -1.2376   -2.1983 H   0  0  0  0  0  0  0  0  0  0  0  0
    0.2991    0.5288   -2.2258 H   0  0  0  0  0  0  0  0  0  0  0  0
    2.1483   -0.3383   -1.5319 C   0  0  0  0  0  0  0  0  0  0  0  0
    2.8308    0.5533   -1.9944 O   0  0  0  0  0  0  0  0  0  0  0  0
    2.8176   -1.3743   -0.9440 N   0  0  0  0  0  0  0  0  0  0  0  0
    3.8181   -1.4077   -1.1177 H   0  0  0  0  0  0  0  0  0  0  0  0
    2.3069   -2.2351   -0.7603 H   0  0  0  0  0  0  0  0  0  0  0  0
   -0.1490    1.0881    0.3115 C   0  0  0  0  0  0  0  0  0  0  0  0
   -1.1310    1.7556    0.0099 O   0  0  0  0  0  0  0  0  0  0  0  0
    0.7357    1.5643    1.2611 N   0  0  0  0  0  0  0  0  0  0  0  0
    1.5725    1.0165    1.4416 H   0  0  0  0  0  0  0  0  0  0  0  0
    0.6477    2.9069    1.8224 C   0  0  0  0  0  0  0  0  0  0  0  0
   -0.3166    3.0526    2.3205 H   0  0  0  0  0  0  0  0  0  0  0  0
    1.4420    3.0614    2.5589 H   0  0  0  0  0  0  0  0  0  0  0  0
    0.7546    3.6592    1.0338 H   0  0  0  0  0  0  0  0  0  0  0  0
  1  2  1  0  0  0  0
  2  3  1  0  0  0  0
  2  4  1  0  0  0  0
  2  5  1  0  0  0  0
  5  6  2  0  0  0  0
  5  7  1  0  0  0  0
  7  8  1  0  0  0  0
  7  9  1  0  0  0  0
  9 10  1  0  0  0  0
  9 11  1  0  0  0  0
  9 19  1  0  0  0  0
 11 12  1  0  0  0  0
 11 13  1  0  0  0  0
 11 14  1  0  0  0  0
 14 15  2  0  0  0  0
 14 16  1  0  0  0  0
 16 17  1  0  0  0  0
 16 18  1  0  0  0  0
 19 20  2  0  0  0  0
 19 21  1  0  0  0  0
 21 22  1  0  0  0  0
 21 23  1  0  0  0  0
 23 24  1  0  0  0  0
 23 25  1  0  0  0  0
 23 26  1  0  0  0  0
M  END
$$$$

  -OEChem-04042215573D

 26 25  0     1  0  0  0  0  0999 V2000
   -2.8839   -3.9185    0.5828 H   0  0  0  0  0  0  0  0  0  0  0  0
   -2.9119   -2.8966    0.1946 C   0  0  0  0  0  0  0  0  0  0  0  0
   -3.4937   -2.2758    0.8805 H   0  0  0  0  0  0  0  0  0  0  0  0
   -3.4009   -2.9034   -0.7826 H   0  0  0  0  0  0  0  0  0  0  0  0
   -1.5041   -2.3467    0.0645 C   0  0  0  0  0  0  0  0  0  0  0  0
   -0.5387   -3.0636    0.2843 O   0  0  0  0  0  0  0  0  0  0  0  0
   -1.3084   -1.0403   -0.3324 N   0  0  0  0  0  0  0  0  0  0  0  0
   -2.1353   -0.4496   -0.4181 H   0  0  0  0  0  0  0  0  0  0  0  0
   -0.0128   -0.3506   -0.2783 C   0  0  1  0  0  0  0  0  0  0  0  0
    0.6417   -0.8995    0.4082 H   0  0  0  0  0  0  0  0  0  0  0  0
    0.6175   -0.3363   -1.6780 C   0  0  0  0  0  0  0  0  0  0  0  0
    0.3191   -1.2267   -2.2377 H   0  0  0  0  0  0  0  0  0  0  0  0
    0.2851    0.5402   -2.2433 H   0  0  0  0  0  0  0  0  0  0  0  0
    2.1307   -0.3387   -1.5541 C   0  0  0  0  0  0  0  0  0  0  0  0
    2.7945    0.6583   -1.7561 O   0  0  0  0  0  0  0  0  0  0  0  0
    2.8086   -1.4555   -1.1553 N   0  0  0  0  0  0  0  0  0  0  0  0
    3.8190   -1.4343   -1.2601 H   0  0  0  0  0  0  0  0  0  0  0  0
    2.3143   -2.3437   -1.1171 H   0  0  0  0  0  0  0  0  0  0  0  0
   -0.1457    1.0708    0.3036 C   0  0  0  0  0  0  0  0  0  0  0  0
   -1.1395    1.7351    0.0337 O   0  0  0  0  0  0  0  0  0  0  0  0
    0.7517    1.5355    1.2469 N   0  0  0  0  0  0  0  0  0  0  0  0
    1.6127    1.0090    1.3687 H   0  0  0  0  0  0  0  0  0  0  0  0
    0.6753    2.8768    1.8126 C   0  0  0  0  0  0  0  0  0  0  0  0
   -0.2858    3.0278    2.3156 H   0  0  0  0  0  0  0  0  0  0  0  0
    1.4737    3.0241    2.5462 H   0  0  0  0  0  0  0  0  0  0  0  0
    0.7838    3.6302    1.0253 H   0  0  0  0  0  0  0  0  0  0  0  0
  1  2  1  0  0  0  0
  2  3  1  0  0  0  0
  2  4  1  0  0  0  0
  2  5  1  0  0  0  0
  5  6  2  0  0  0  0
  5  7  1  0  0  0  0
  7  8  1  0  0  0  0
  7  9  1  0  0  0  0
  9 10  1  0  0  0  0
  9 11  1  0  0  0  0
  9 19  1  0  0  0  0
 11 12  1  0  0  0  0
 11 13  1  0  0  0  0
 11 14  1  0  0  0  0
 14 15  2  0  0  0  0
 14 16  1  0  0  0  0
 16 17  1  0  0  0  0
 16 18  1  0  0  0  0
 19 20  2  0  0  0  0
 19 21  1  0  0  0  0
 21 22  1  0  0  0  0
 21 23  1  0  0  0  0
 23 24  1  0  0  0  0
 23 25  1  0  0  0  0
 23 26  1  0  0  0  0
M  END
$$$$

  -OEChem-04042215573D

 26 25  0     1  0  0  0  0  0999 V2000
   -2.8788   -3.9283    0.5705 H   0  0  0  0  0  0  0  0  0  0  0  0
   -2.9143   -2.8997    0.2007 C   0  0  0  0  0  0  0  0  0  0  0  0
   -3.4760   -2.2898    0.9126 H   0  0  0  0  0  0  0  0  0  0  0  0
   -3.4289   -2.8884   -0.7633 H   0  0  0  0  0  0  0  0  0  0  0  0
   -1.5086   -2.3512    0.0430 C   0  0  0  0  0  0  0  0  0  0  0  0
   -0.5414   -3.0745    0.2303 O   0  0  0  0  0  0  0  0  0  0  0  0
   -1.3179   -1.0410   -0.3443 N   0  0  0  0  0  0  0  0  0  0  0  0
   -2.1447   -0.4464   -0.3991 H   0  0  0  0  0  0  0  0  0  0  0  0
   -0.0206   -0.3526   -0.3022 C   0  0  1  0  0  0  0  0  0  0  0  0
    0.6428   -0.9092    0.3699 H   0  0  0  0  0  0  0  0  0  0  0  0
    0.5973   -0.3251   -1.7055 C   0  0  0  0  0  0  0  0  0  0  0  0
    0.2932   -1.2093   -2.2719 H   0  0  0  0  0  0  0  0  0  0  0  0
    0.2654    0.5578   -2.2603 H   0  0  0  0  0  0  0  0  0  0  0  0
    2.1098   -0.3288   -1.5811 C   0  0  0  0  0  0  0  0  0  0  0  0
    2.7463    0.7037   -1.5074 O   0  0  0  0  0  0  0  0  0  0  0  0
    2.8073   -1.4913   -1.4180 N   0  0  0  0  0  0  0  0  0  0  0  0
    3.8215   -1.4347   -1.4151 H   0  0  0  0  0  0  0  0  0  0  0  0
    2.3316   -2.3854   -1.5060 H   0  0  0  0  0  0  0  0  0  0  0  0
   -0.1437    1.0637    0.2953 C   0  0  0  0  0  0  0  0  0  0  0  0
   -1.1497    1.7230    0.0586 O   0  0  0  0  0  0  0  0  0  0  0  0
    0.7683    1.5181    1.2296 N   0  0  0  0  0  0  0  0  0  0  0  0
    1.6539    1.0207    1.2816 H   0  0  0  0  0  0  0  0  0  0  0  0
    0.6977    2.8546    1.8077 C   0  0  0  0  0  0  0  0  0  0  0  0
   -0.2602    3.0034    2.3172 H   0  0  0  0  0  0  0  0  0  0  0  0
    1.5002    2.9927    2.5386 H   0  0  0  0  0  0  0  0  0  0  0  0
    0.8036    3.6150    1.0268 H   0  0  0  0  0  0  0  0  0  0  0  0
  1  2  1  0  0  0  0
  2  3  1  0  0  0  0
  2  4  1  0  0  0  0
  2  5  1  0  0  0  0
  5  6  2  0  0  0  0
  5  7  1  0  0  0  0
  7  8  1  0  0  0  0
  7  9  1  0  0  0  0
  9 10  1  0  0  0  0
  9 11  1  0  0  0  0
  9 19  1  0  0  0  0
 11 12  1  0  0  0  0
 11 13  1  0  0  0  0
 11 14  1  0  0  0  0
 14 15  2  0  0  0  0
 14 16  1  0  0  0  0
 16 17  1  0  0  0  0
 16 18  1  0  0  0  0
 19 20  2  0  0  0  0
 19 21  1  0  0  0  0
 21 22  1  0  0  0  0
 21 23  1  0  0  0  0
 23 24  1  0  0  0  0
 23 25  1  0  0  0  0
 23 26  1  0  0  0  0
M  END
$$$$

  -OEChem-04042215573D

 26 25  0     1  0  0  0  0  0999 V2000
   -2.8561   -3.9324    0.5741 H   0  0  0  0  0  0  0  0  0  0  0  0
   -2.9002   -2.9046    0.2032 C   0  0  0  0  0  0  0  0  0  0  0  0
   -3.4495   -2.2938    0.9240 H   0  0  0  0  0  0  0  0  0  0  0  0
   -3.4327   -2.8961   -0.7510 H   0  0  0  0  0  0  0  0  0  0  0  0
   -1.4986   -2.3538    0.0188 C   0  0  0  0  0  0  0  0  0  0  0  0
   -0.5265   -3.0788    0.1721 O   0  0  0  0  0  0  0  0  0  0  0  0
   -1.3187   -1.0383   -0.3546 N   0  0  0  0  0  0  0  0  0  0  0  0
   -2.1471   -0.4436   -0.3759 H   0  0  0  0  0  0  0  0  0  0  0  0
   -0.0222   -0.3482   -0.3315 C   0  0  1  0  0  0  0  0  0  0  0  0
    0.6563   -0.9112    0.3199 H   0  0  0  0  0  0  0  0  0  0  0  0
    0.5700   -0.2965   -1.7452 C   0  0  0  0  0  0  0  0  0  0  0  0
    0.2544   -1.1709   -2.3203 H   0  0  0  0  0  0  0  0  0  0  0  0
    0.2292    0.5955   -2.2790 H   0  0  0  0  0  0  0  0  0  0  0  0
    2.0849   -0.2990   -1.6464 C   0  0  0  0  0  0  0  0  0  0  0  0
    2.7006    0.6909   -1.2999 O   0  0  0  0  0  0  0  0  0  0  0  0
    2.8063   -1.4501   -1.7810 N   0  0  0  0  0  0  0  0  0  0  0  0
    3.7745   -1.4123   -1.4760 H   0  0  0  0  0  0  0  0  0  0  0  0
    2.3098   -2.3370   -1.7910 H   0  0  0  0  0  0  0  0  0  0  0  0
   -0.1407    1.0592    0.2890 C   0  0  0  0  0  0  0  0  0  0  0  0
   -1.1627    1.7088    0.0960 O   0  0  0  0  0  0  0  0  0  0  0  0
    0.7892    1.5028    1.2101 N   0  0  0  0  0  0  0  0  0  0  0  0
    1.6979    1.0452    1.1797 H   0  0  0  0  0  0  0  0  0  0  0  0
    0.7178    2.8288    1.8110 C   0  0  0  0  0  0  0  0  0  0  0  0
   -0.2356    2.9644    2.3325 H   0  0  0  0  0  0  0  0  0  0  0  0
    1.5264    2.9582    2.5366 H   0  0  0  0  0  0  0  0  0  0  0  0
    0.8125    3.6023    1.0417 H   0  0  0  0  0  0  0  0  0  0  0  0
  1  2  1  0  0  0  0
  2  3  1  0  0  0  0
  2  4  1  0  0  0  0
  2  5  1  0  0  0  0
  5  6  2  0  0  0  0
  5  7  1  0  0  0  0
  7  8  1  0  0  0  0
  7  9  1  0  0  0  0
  9 10  1  0  0  0  0
  9 11  1  0  0  0  0
  9 19  1  0  0  0  0
 11 12  1  0  0  0  0
 11 13  1  0  0  0  0
 11 14  1  0  0  0  0
 14 15  2  0  0  0  0
 14 16  1  0  0  0  0
 16 17  1  0  0  0  0
 16 18  1  0  0  0  0
 19 20  2  0  0  0  0
 19 21  1  0  0  0  0
 21 22  1  0  0  0  0
 21 23  1  0  0  0  0
 23 24  1  0  0  0  0
 23 25  1  0  0  0  0
 23 26  1  0  0  0  0
M  END
$$$$

  -OEChem-04042215573D

 26 25  0     1  0  0  0  0  0999 V2000
   -2.8560   -3.9352    0.5580 H   0  0  0  0  0  0  0  0  0  0  0  0
   -2.9017   -2.8983    0.2131 C   0  0  0  0  0  0  0  0  0  0  0  0
   -3.4382   -2.3042    0.9569 H   0  0  0  0  0  0  0  0  0  0  0  0
   -3.4476   -2.8647   -0.7329 H   0  0  0  0  0  0  0  0  0  0  0  0
   -1.5008   -2.3479    0.0216 C   0  0  0  0  0  0  0  0  0  0  0  0
   -0.5296   -3.0750    0.1672 O   0  0  0  0  0  0  0  0  0  0  0  0
   -1.3223   -1.0323   -0.3522 N   0  0  0  0  0  0  0  0  0  0  0  0
   -2.1511   -0.4378   -0.3643 H   0  0  0  0  0  0  0  0  0  0  0  0
   -0.0268   -0.3392   -0.3311 C   0  0  1  0  0  0  0  0  0  0  0  0
    0.6524   -0.8997    0.3222 H   0  0  0  0  0  0  0  0  0  0  0  0
    0.5713   -0.2917   -1.7438 C   0  0  0  0  0  0  0  0  0  0  0  0
    0.2558   -1.1704   -2.3126 H   0  0  0  0  0  0  0  0  0  0  0  0
    0.2267    0.5960   -2.2822 H   0  0  0  0  0  0  0  0  0  0  0  0
    2.0893   -0.2892   -1.6534 C   0  0  0  0  0  0  0  0  0  0  0  0
    2.6905    0.5931   -1.0682 O   0  0  0  0  0  0  0  0  0  0  0  0
    2.8376   -1.3458   -2.0861 N   0  0  0  0  0  0  0  0  0  0  0  0
    3.8038   -1.3639   -1.7727 H   0  0  0  0  0  0  0  0  0  0  0  0
    2.3624   -2.2154   -2.3089 H   0  0  0  0  0  0  0  0  0  0  0  0
   -0.1506    1.0679    0.2895 C   0  0  0  0  0  0  0  0  0  0  0  0
   -1.1780    1.7116    0.1035 O   0  0  0  0  0  0  0  0  0  0  0  0
    0.7800    1.5114    1.2093 N   0  0  0  0  0  0  0  0  0  0  0  0
    1.6977    1.0725    1.1463 H   0  0  0  0  0  0  0  0  0  0  0  0
    0.7027    2.8312    1.8228 C   0  0  0  0  0  0  0  0  0  0  0  0
   -0.2465    2.9531    2.3553 H   0  0  0  0  0  0  0  0  0  0  0  0
    1.5179    2.9601    2.5413 H   0  0  0  0  0  0  0  0  0  0  0  0
    0.7830    3.6134    1.0607 H   0  0  0  0  0  0  0  0  0  0  0  0
  1  2  1  0  0  0  0
  2  3  1  0  0  0  0
  2  4  1  0  0  0  0
  2  5  1  0  0  0  0
  5  6  2  0  0  0  0
  5  7  1  0  0  0  0
  7  8  1  0  0  0  0
  7  9  1  0  0  0  0
  9 10  1  0  0  0  0
  9 11  1  0  0  0  0
  9 19  1  0  0  0  0
 11 12  1  0  0  0  0
 11 13  1  0  0  0  0
 11 14  1  0  0  0  0
 14 15  2  0  0  0  0
 14 16  1  0  0  0  0
 16 17  1  0  0  0  0
 16 18  1  0  0  0  0
 19 20  2  0  0  0  0
 19 21  1  0  0  0  0
 21 22  1  0  0  0  0
 21 23  1  0  0  0  0
 23 24  1  0  0  0  0
 23 25  1  0  0  0  0
 23 26  1  0  0  0  0
M  END
$$$$

  -OEChem-04042215573D

 26 25  0     1  0  0  0  0  0999 V2000
   -2.8726   -3.9314    0.5672 H   0  0  0  0  0  0  0  0  0  0  0  0
   -2.9127   -2.8948    0.2212 C   0  0  0  0  0  0  0  0  0  0  0  0
   -3.4526   -2.2981    0.9605 H   0  0  0  0  0  0  0  0  0  0  0  0
   -3.4518   -2.8603   -0.7284 H   0  0  0  0  0  0  0  0  0  0  0  0
   -1.5088   -2.3488    0.0396 C   0  0  0  0  0  0  0  0  0  0  0  0
   -0.5416   -3.0766    0.2035 O   0  0  0  0  0  0  0  0  0  0  0  0
   -1.3256   -1.0354   -0.3394 N   0  0  0  0  0  0  0  0  0  0  0  0
   -2.1548   -0.4423   -0.3664 H   0  0  0  0  0  0  0  0  0  0  0  0
   -0.0312   -0.3395   -0.3130 C   0  0  1  0  0  0  0  0  0  0  0  0
    0.6433   -0.8975    0.3476 H   0  0  0  0  0  0  0  0  0  0  0  0
    0.5800   -0.2985   -1.7219 C   0  0  0  0  0  0  0  0  0  0  0  0
    0.2682   -1.1845   -2.2815 H   0  0  0  0  0  0  0  0  0  0  0  0
    0.2326    0.5824   -2.2695 H   0  0  0  0  0  0  0  0  0  0  0  0
    2.1007   -0.2906   -1.6399 C   0  0  0  0  0  0  0  0  0  0  0  0
    2.6984    0.4246   -0.8548 O   0  0  0  0  0  0  0  0  0  0  0  0
    2.8677   -1.1436   -2.3799 N   0  0  0  0  0  0  0  0  0  0  0  0
    3.8430   -1.2150   -2.1045 H   0  0  0  0  0  0  0  0  0  0  0  0
    2.4151   -1.9247   -2.8438 H   0  0  0  0  0  0  0  0  0  0  0  0
   -0.1605    1.0707    0.2988 C   0  0  0  0  0  0  0  0  0  0  0  0
   -1.1817    1.7186    0.0937 O   0  0  0  0  0  0  0  0  0  0  0  0
    0.7646    1.5180    1.2219 N   0  0  0  0  0  0  0  0  0  0  0  0
    1.6797    1.0698    1.1692 H   0  0  0  0  0  0  0  0  0  0  0  0
    0.6895    2.8418    1.8265 C   0  0  0  0  0  0  0  0  0  0  0  0
   -0.2637    2.9723    2.3493 H   0  0  0  0  0  0  0  0  0  0  0  0
    1.4984    2.9704    2.5520 H   0  0  0  0  0  0  0  0  0  0  0  0
    0.7813    3.6187    1.0604 H   0  0  0  0  0  0  0  0  0  0  0  0
  1  2  1  0  0  0  0
  2  3  1  0  0  0  0
  2  4  1  0  0  0  0
  2  5  1  0  0  0  0
  5  6  2  0  0  0  0
  5  7  1  0  0  0  0
  7  8  1  0  0  0  0
  7  9  1  0  0  0  0
  9 10  1  0  0  0  0
  9 11  1  0  0  0  0
  9 19  1  0  0  0  0
 11 12  1  0  0  0  0
 11 13  1  0  0  0  0
 11 14  1  0  0  0  0
 14 15  2  0  0  0  0
 14 16  1  0  0  0  0
 16 17  1  0  0  0  0
 16 18  1  0  0  0  0
 19 20  2  0  0  0  0
 19 21  1  0  0  0  0
 21 22  1  0  0  0  0
 21 23  1  0  0  0  0
 23 24  1  0  0  0  0
 23 25  1  0  0  0  0
 23 26  1  0  0  0  0
M  END
$$$$

  -OEChem-04042215573D

 26 25  0     1  0  0  0  0  0999 V2000
   -2.8862   -3.9392    0.5634 H   0  0  0  0  0  0  0  0  0  0  0  0
   -2.9237   -2.8990    0.2278 C   0  0  0  0  0  0  0  0  0  0  0  0
   -3.4627   -2.3083    0.9725 H   0  0  0  0  0  0  0  0  0  0  0  0
   -3.4618   -2.8536   -0.7220 H   0  0  0  0  0  0  0  0  0  0  0  0
   -1.5182   -2.3549    0.0540 C   0  0  0  0  0  0  0  0  0  0  0  0
   -0.5537   -3.0816    0.2346 O   0  0  0  0  0  0  0  0  0  0  0  0
   -1.3331   -1.0432   -0.3305 N   0  0  0  0  0  0  0  0  0  0  0  0
   -2.1639   -0.4535   -0.3711 H   0  0  0  0  0  0  0  0  0  0  0  0
   -0.0414   -0.3419   -0.2961 C   0  0  1  0  0  0  0  0  0  0  0  0
    0.6239   -0.8975    0.3758 H   0  0  0  0  0  0  0  0  0  0  0  0
    0.5875   -0.3118   -1.6989 C   0  0  0  0  0  0  0  0  0  0  0  0
    0.2870   -1.2089   -2.2465 H   0  0  0  0  0  0  0  0  0  0  0  0
    0.2342    0.5580   -2.2600 H   0  0  0  0  0  0  0  0  0  0  0  0
    2.1101   -0.2945   -1.6222 C   0  0  0  0  0  0  0  0  0  0  0  0
    2.7096    0.2134   -0.6894 O   0  0  0  0  0  0  0  0  0  0  0  0
    2.8844   -0.8663   -2.5904 N   0  0  0  0  0  0  0  0  0  0  0  0
    3.8701   -0.9717   -2.3673 H   0  0  0  0  0  0  0  0  0  0  0  0
    2.4466   -1.4875   -3.2629 H   0  0  0  0  0  0  0  0  0  0  0  0
   -0.1698    1.0719    0.3038 C   0  0  0  0  0  0  0  0  0  0  0  0
   -1.1762    1.7324    0.0697 O   0  0  0  0  0  0  0  0  0  0  0  0
    0.7516    1.5203    1.2294 N   0  0  0  0  0  0  0  0  0  0  0  0
    1.6540    1.0432    1.2119 H   0  0  0  0  0  0  0  0  0  0  0  0
    0.6906    2.8513    1.8190 C   0  0  0  0  0  0  0  0  0  0  0  0
   -0.2637    2.9994    2.3353 H   0  0  0  0  0  0  0  0  0  0  0  0
    1.4975    2.9778    2.5471 H   0  0  0  0  0  0  0  0  0  0  0  0
    0.7959    3.6186    1.0451 H   0  0  0  0  0  0  0  0  0  0  0  0
  1  2  1  0  0  0  0
  2  3  1  0  0  0  0
  2  4  1  0  0  0  0
  2  5  1  0  0  0  0
  5  6  2  0  0  0  0
  5  7  1  0  0  0  0
  7  8  1  0  0  0  0
  7  9  1  0  0  0  0
  9 10  1  0  0  0  0
  9 11  1  0  0  0  0
  9 19  1  0  0  0  0
 11 12  1  0  0  0  0
 11 13  1  0  0  0  0
 11 14  1  0  0  0  0
 14 15  2  0  0  0  0
 14 16  1  0  0  0  0
 16 17  1  0  0  0  0
 16 18  1  0  0  0  0
 19 20  2  0  0  0  0
 19 21  1  0  0  0  0
 21 22  1  0  0  0  0
 21 23  1  0  0  0  0
 23 24  1  0  0  0  0
 23 25  1  0  0  0  0
 23 26  1  0  0  0  0
M  END
$$$$

  -OEChem-04042215573D

 26 25  0     1  0  0  0  0  0999 V2000
   -2.8879   -3.9479    0.5846 H   0  0  0  0  0  0  0  0  0  0  0  0
   -2.9259   -2.9195    0.2148 C   0  0  0  0  0  0  0  0  0  0  0  0
   -3.4959   -2.3128    0.9227 H   0  0  0  0  0  0  0  0  0  0  0  0
   -3.4328   -2.9110   -0.7531 H   0  0  0  0  0  0  0  0  0  0  0  0
   -1.5217   -2.3641    0.0682 C   0  0  0  0  0  0  0  0  0  0  0  0
   -0.5559   -3.0838    0.2674 O   0  0  0  0  0  0  0  0  0  0  0  0
   -1.3418   -1.0517   -0.3168 N   0  0  0  0  0  0  0  0  0  0  0  0
   -2.1775   -0.4714   -0.3776 H   0  0  0  0  0  0  0  0  0  0  0  0
   -0.0563   -0.3390   -0.2787 C   0  0  1  0  0  0  0  0  0  0  0  0
    0.6021   -0.8935    0.4009 H   0  0  0  0  0  0  0  0  0  0  0  0
    0.5834   -0.3150   -1.6778 C   0  0  0  0  0  0  0  0  0  0  0  0
    0.2957   -1.2202   -2.2190 H   0  0  0  0  0  0  0  0  0  0  0  0
    0.2202    0.5457   -2.2464 H   0  0  0  0  0  0  0  0  0  0  0  0
    2.1072   -0.2814   -1.6090 C   0  0  0  0  0  0  0  0  0  0  0  0
    2.7168   -0.0086   -0.5881 O   0  0  0  0  0  0  0  0  0  0  0  0
    2.8743   -0.5566   -2.7042 N   0  0  0  0  0  0  0  0  0  0  0  0
    3.8671   -0.6873   -2.5314 H   0  0  0  0  0  0  0  0  0  0  0  0
    2.4377   -0.9859   -3.5133 H   0  0  0  0  0  0  0  0  0  0  0  0
   -0.1774    1.0762    0.3147 C   0  0  0  0  0  0  0  0  0  0  0  0
   -1.1659    1.7540    0.0567 O   0  0  0  0  0  0  0  0  0  0  0  0
    0.7486    1.5218    1.2370 N   0  0  0  0  0  0  0  0  0  0  0  0
    1.6310    1.0088    1.2594 H   0  0  0  0  0  0  0  0  0  0  0  0
    0.7129    2.8626    1.8058 C   0  0  0  0  0  0  0  0  0  0  0  0
   -0.2385    3.0363    2.3197 H   0  0  0  0  0  0  0  0  0  0  0  0
    1.5226    2.9858    2.5315 H   0  0  0  0  0  0  0  0  0  0  0  0
    0.8321    3.6152    1.0194 H   0  0  0  0  0  0  0  0  0  0  0  0
  1  2  1  0  0  0  0
  2  3  1  0  0  0  0
  2  4  1  0  0  0  0
  2  5  1  0  0  0  0
  5  6  2  0  0  0  0
  5  7  1  0  0  0  0
  7  8  1  0  0  0  0
  7  9  1  0  0  0  0
  9 10  1  0  0  0  0
  9 11  1  0  0  0  0
  9 19  1  0  0  0  0
 11 12  1  0  0  0  0
 11 13  1  0  0  0  0
 11 14  1  0  0  0  0
 14 15  2  0  0  0  0
 14 16  1  0  0  0  0
 16 17  1  0  0  0  0
 16 18  1  0  0  0  0
 19 20  2  0  0  0  0
 19 21  1  0  0  0  0
 21 22  1  0  0  0  0
 21 23  1  0  0  0  0
 23 24  1  0  0  0  0
 23 25  1  0  0  0  0
 23 26  1  0  0  0  0
M  END
$$$$

  -OEChem-04042215573D

 26 25  0     1  0  0  0  0  0999 V2000
   -2.8791   -3.9619    0.5773 H   0  0  0  0  0  0  0  0  0  0  0  0
   -2.9202   -2.9351    0.2032 C   0  0  0  0  0  0  0  0  0  0  0  0
   -3.5070   -2.3307    0.8991 H   0  0  0  0  0  0  0  0  0  0  0  0
   -3.4108   -2.9342   -0.7730 H   0  0  0  0  0  0  0  0  0  0  0  0
   -1.5190   -2.3674    0.0784 C   0  0  0  0  0  0  0  0  0  0  0  0
   -0.5514   -3.0773    0.2998 O   0  0  0  0  0  0  0  0  0  0  0  0
   -1.3456   -1.0545   -0.3092 N   0  0  0  0  0  0  0  0  0  0  0  0
   -2.1864   -0.4852   -0.3940 H   0  0  0  0  0  0  0  0  0  0  0  0
   -0.0669   -0.3289   -0.2706 C   0  0  1  0  0  0  0  0  0  0  0  0
    0.5853   -0.8801    0.4170 H   0  0  0  0  0  0  0  0  0  0  0  0
    0.5813   -0.3149   -1.6666 C   0  0  0  0  0  0  0  0  0  0  0  0
    0.3066   -1.2295   -2.1990 H   0  0  0  0  0  0  0  0  0  0  0  0
    0.2083    0.5353   -2.2443 H   0  0  0  0  0  0  0  0  0  0  0  0
    2.1053   -0.2638   -1.6021 C   0  0  0  0  0  0  0  0  0  0  0  0
    2.7304   -0.2353   -0.5557 O   0  0  0  0  0  0  0  0  0  0  0  0
    2.8599   -0.2570   -2.7396 N   0  0  0  0  0  0  0  0  0  0  0  0
    3.8566   -0.4091   -2.6127 H   0  0  0  0  0  0  0  0  0  0  0  0
    2.4177   -0.4884   -3.6229 H   0  0  0  0  0  0  0  0  0  0  0  0
   -0.1826    1.0885    0.3147 C   0  0  0  0  0  0  0  0  0  0  0  0
   -1.1582    1.7780    0.0407 O   0  0  0  0  0  0  0  0  0  0  0  0
    0.7492    1.5330    1.2319 N   0  0  0  0  0  0  0  0  0  0  0  0
    1.6080    0.9864    1.3026 H   0  0  0  0  0  0  0  0  0  0  0  0
    0.7239    2.8717    1.8061 C   0  0  0  0  0  0  0  0  0  0  0  0
   -0.2237    3.0487    2.3254 H   0  0  0  0  0  0  0  0  0  0  0  0
    1.5379    2.9879    2.5280 H   0  0  0  0  0  0  0  0  0  0  0  0
    0.8432    3.6268    1.0223 H   0  0  0  0  0  0  0  0  0  0  0  0
  1  2  1  0  0  0  0
  2  3  1  0  0  0  0
  2  4  1  0  0  0  0
  2  5  1  0  0  0  0
  5  6  2  0  0  0  0
  5  7  1  0  0  0  0
  7  8  1  0  0  0  0
  7  9  1  0  0  0  0
  9 10  1  0  0  0  0
  9 11  1  0  0  0  0
  9 19  1  0  0  0  0
 11 12  1  0  0  0  0
 11 13  1  0  0  0  0
 11 14  1  0  0  0  0
 14 15  2  0  0  0  0
 14 16  1  0  0  0  0
 16 17  1  0  0  0  0
 16 18  1  0  0  0  0
 19 20  2  0  0  0  0
 19 21  1  0  0  0  0
 21 22  1  0  0  0  0
 21 23  1  0  0  0  0
 23 24  1  0  0  0  0
 23 25  1  0  0  0  0
 23 26  1  0  0  0  0
M  END
$$$$

  -OEChem-04042215573D

 26 25  0     1  0  0  0  0  0999 V2000
   -2.8825   -3.9698    0.5575 H   0  0  0  0  0  0  0  0  0  0  0  0
   -2.9190   -2.9393    0.1932 C   0  0  0  0  0  0  0  0  0  0  0  0
   -3.5177   -2.3430    0.8860 H   0  0  0  0  0  0  0  0  0  0  0  0
   -3.3946   -2.9297   -0.7903 H   0  0  0  0  0  0  0  0  0  0  0  0
   -1.5165   -2.3685    0.0957 C   0  0  0  0  0  0  0  0  0  0  0  0
   -0.5542   -3.0724    0.3540 O   0  0  0  0  0  0  0  0  0  0  0  0
   -1.3377   -1.0583   -0.2995 N   0  0  0  0  0  0  0  0  0  0  0  0
   -2.1779   -0.4939   -0.4157 H   0  0  0  0  0  0  0  0  0  0  0  0
   -0.0598   -0.3305   -0.2581 C   0  0  1  0  0  0  0  0  0  0  0  0
    0.5905   -0.8774    0.4341 H   0  0  0  0  0  0  0  0  0  0  0  0
    0.5873   -0.3200   -1.6560 C   0  0  0  0  0  0  0  0  0  0  0  0
    0.3145   -1.2355   -2.1880 H   0  0  0  0  0  0  0  0  0  0  0  0
    0.2090    0.5281   -2.2335 H   0  0  0  0  0  0  0  0  0  0  0  0
    2.1114   -0.2668   -1.5999 C   0  0  0  0  0  0  0  0  0  0  0  0
    2.7568   -0.4965   -0.5928 O   0  0  0  0  0  0  0  0  0  0  0  0
    2.8458    0.0400   -2.7090 N   0  0  0  0  0  0  0  0  0  0  0  0
    3.8462   -0.1245   -2.6403 H   0  0  0  0  0  0  0  0  0  0  0  0
    2.3900    0.0437   -3.6154 H   0  0  0  0  0  0  0  0  0  0  0  0
   -0.1776    1.0906    0.3156 C   0  0  0  0  0  0  0  0  0  0  0  0
   -1.1356    1.7902    0.0085 O   0  0  0  0  0  0  0  0  0  0  0  0
    0.7481    1.5433    1.2354 N   0  0  0  0  0  0  0  0  0  0  0  0
    1.5753    0.9648    1.3789 H   0  0  0  0  0  0  0  0  0  0  0  0
    0.7177    2.8826    1.8083 C   0  0  0  0  0  0  0  0  0  0  0  0
   -0.2283    3.0541    2.3326 H   0  0  0  0  0  0  0  0  0  0  0  0
    1.5354    3.0048    2.5252 H   0  0  0  0  0  0  0  0  0  0  0  0
    0.8284    3.6377    1.0231 H   0  0  0  0  0  0  0  0  0  0  0  0
  1  2  1  0  0  0  0
  2  3  1  0  0  0  0
  2  4  1  0  0  0  0
  2  5  1  0  0  0  0
  5  6  2  0  0  0  0
  5  7  1  0  0  0  0
  7  8  1  0  0  0  0
  7  9  1  0  0  0  0
  9 10  1  0  0  0  0
  9 11  1  0  0  0  0
  9 19  1  0  0  0  0
 11 12  1  0  0  0  0
 11 13  1  0  0  0  0
 11 14  1  0  0  0  0
 14 15  2  0  0  0  0
 14 16  1  0  0  0  0
 16 17  1  0  0  0  0
 16 18  1  0  0  0  0
 19 20  2  0  0  0  0
 19 21  1  0  0  0  0
 21 22  1  0  0  0  0
 21 23  1  0  0  0  0
 23 24  1  0  0  0  0
 23 25  1  0  0  0  0
 23 26  1  0  0  0  0
M  END
$$$$

  -OEChem-04042215573D

 26 25  0     1  0  0  0  0  0999 V2000
   -2.8894   -3.9660    0.5482 H   0  0  0  0  0  0  0  0  0  0  0  0
   -2.9171   -2.9360    0.1816 C   0  0  0  0  0  0  0  0  0  0  0  0
   -3.5321   -2.3381    0.8587 H   0  0  0  0  0  0  0  0  0  0  0  0
   -3.3690   -2.9282   -0.8132 H   0  0  0  0  0  0  0  0  0  0  0  0
   -1.5124   -2.3659    0.1177 C   0  0  0  0  0  0  0  0  0  0  0  0
   -0.5593   -3.0641    0.4208 O   0  0  0  0  0  0  0  0  0  0  0  0
   -1.3234   -1.0602   -0.2874 N   0  0  0  0  0  0  0  0  0  0  0  0
   -2.1598   -0.4986   -0.4387 H   0  0  0  0  0  0  0  0  0  0  0  0
   -0.0429   -0.3371   -0.2465 C   0  0  1  0  0  0  0  0  0  0  0  0
    0.6140   -0.8799    0.4429 H   0  0  0  0  0  0  0  0  0  0  0  0
    0.5896   -0.3290   -1.6515 C   0  0  0  0  0  0  0  0  0  0  0  0
    0.3095   -1.2425   -2.1830 H   0  0  0  0  0  0  0  0  0  0  0  0
    0.2084    0.5207   -2.2249 H   0  0  0  0  0  0  0  0  0  0  0  0
    2.1132   -0.2840   -1.6057 C   0  0  0  0  0  0  0  0  0  0  0  0
    2.7727   -0.7637   -0.7028 O   0  0  0  0  0  0  0  0  0  0  0  0
    2.8314    0.3171   -2.5990 N   0  0  0  0  0  0  0  0  0  0  0  0
    3.8342    0.1527   -2.5861 H   0  0  0  0  0  0  0  0  0  0  0  0
    2.3648    0.5607   -3.4663 H   0  0  0  0  0  0  0  0  0  0  0  0
   -0.1651    1.0884    0.3156 C   0  0  0  0  0  0  0  0  0  0  0  0
   -1.1066    1.7950   -0.0244 O   0  0  0  0  0  0  0  0  0  0  0  0
    0.7522    1.5523    1.2385 N   0  0  0  0  0  0  0  0  0  0  0  0
    1.5428    0.9478    1.4559 H   0  0  0  0  0  0  0  0  0  0  0  0
    0.7065    2.8906    1.8131 C   0  0  0  0  0  0  0  0  0  0  0  0
   -0.2389    3.0479    2.3429 H   0  0  0  0  0  0  0  0  0  0  0  0
    1.5269    3.0241    2.5248 H   0  0  0  0  0  0  0  0  0  0  0  0
    0.8017    3.6481    1.0283 H   0  0  0  0  0  0  0  0  0  0  0  0
  1  2  1  0  0  0  0
  2  3  1  0  0  0  0
  2  4  1  0  0  0  0
  2  5  1  0  0  0  0
  5  6  2  0  0  0  0
  5  7  1  0  0  0  0
  7  8  1  0  0  0  0
  7  9  1  0  0  0  0
  9 10  1  0  0  0  0
  9 11  1  0  0  0  0
  9 19  1  0  0  0  0
 11 12  1  0  0  0  0
 11 13  1  0  0  0  0
 11 14  1  0  0  0  0
 14 15  2  0  0  0  0
 14 16  1  0  0  0  0
 16 17  1  0  0  0  0
 16 18  1  0  0  0  0
 19 20  2  0  0  0  0
 19 21  1  0  0  0  0
 21 22  1  0  0  0  0
 21 23  1  0  0  0  0
 23 24  1  0  0  0  0
 23 25  1  0  0  0  0
 23 26  1  0  0  0  0
M  END
$$$$

  -OEChem-04042215573D

 26 25  0     1  0  0  0  0  0999 V2000
   -2.8974   -3.9650    0.5447 H   0  0  0  0  0  0  0  0  0  0  0  0
   -2.9175   -2.9362    0.1741 C   0  0  0  0  0  0  0  0  0  0  0  0
   -3.5456   -2.3360    0.8369 H   0  0  0  0  0  0  0  0  0  0  0  0
   -3.3493   -2.9318   -0.8296 H   0  0  0  0  0  0  0  0  0  0  0  0
   -1.5118   -2.3661    0.1359 C   0  0  0  0  0  0  0  0  0  0  0  0
   -0.5667   -3.0575    0.4762 O   0  0  0  0  0  0  0  0  0  0  0  0
   -1.3152   -1.0640   -0.2770 N   0  0  0  0  0  0  0  0  0  0  0  0
   -2.1476   -0.5059   -0.4591 H   0  0  0  0  0  0  0  0  0  0  0  0
   -0.0315   -0.3466   -0.2434 C   0  0  1  0  0  0  0  0  0  0  0  0
    0.6359   -0.8877    0.4376 H   0  0  0  0  0  0  0  0  0  0  0  0
    0.5838   -0.3382   -1.6552 C   0  0  0  0  0  0  0  0  0  0  0  0
    0.2982   -1.2502   -2.1863 H   0  0  0  0  0  0  0  0  0  0  0  0
    0.2008    0.5125   -2.2260 H   0  0  0  0  0  0  0  0  0  0  0  0
    2.1060   -0.3017   -1.6099 C   0  0  0  0  0  0  0  0  0  0  0  0
    2.7651   -1.0018   -0.8663 O   0  0  0  0  0  0  0  0  0  0  0  0
    2.8189    0.5676   -2.3847 N   0  0  0  0  0  0  0  0  0  0  0  0
    3.8238    0.4190   -2.4122 H   0  0  0  0  0  0  0  0  0  0  0  0
    2.3519    1.0441   -3.1492 H   0  0  0  0  0  0  0  0  0  0  0  0
   -0.1538    1.0820    0.3117 C   0  0  0  0  0  0  0  0  0  0  0  0
   -1.0840    1.7937   -0.0479 O   0  0  0  0  0  0  0  0  0  0  0  0
    0.7622    1.5538    1.2322 N   0  0  0  0  0  0  0  0  0  0  0  0
    1.5287    0.9363    1.4924 H   0  0  0  0  0  0  0  0  0  0  0  0
    0.7084    2.8932    1.8042 C   0  0  0  0  0  0  0  0  0  0  0  0
   -0.2324    3.0417    2.3445 H   0  0  0  0  0  0  0  0  0  0  0  0
    1.5359    3.0379    2.5055 H   0  0  0  0  0  0  0  0  0  0  0  0
    0.7864    3.6499    1.0165 H   0  0  0  0  0  0  0  0  0  0  0  0
  1  2  1  0  0  0  0
  2  3  1  0  0  0  0
  2  4  1  0  0  0  0
  2  5  1  0  0  0  0
  5  6  2  0  0  0  0
  5  7  1  0  0  0  0
  7  8  1  0  0  0  0
  7  9  1  0  0  0  0
  9 10  1  0  0  0  0
  9 11  1  0  0  0  0
  9 19  1  0  0  0  0
 11 12  1  0  0  0  0
 11 13  1  0  0  0  0
 11 14  1  0  0  0  0
 14 15  2  0  0  0  0
 14 16  1  0  0  0  0
 16 17  1  0  0  0  0
 16 18  1  0  0  0  0
 19 20  2  0  0  0  0
 19 21  1  0  0  0  0
 21 22  1  0  0  0  0
 21 23  1  0  0  0  0
 23 24  1  0  0  0  0
 23 25  1  0  0  0  0
 23 26  1  0  0  0  0
M  END
$$$$

  -OEChem-04042215573D

 26 25  0     1  0  0  0  0  0999 V2000
   -2.8983   -3.9683    0.5373 H   0  0  0  0  0  0  0  0  0  0  0  0
   -2.9156   -2.9397    0.1661 C   0  0  0  0  0  0  0  0  0  0  0  0
   -3.5583   -2.3416    0.8166 H   0  0  0  0  0  0  0  0  0  0  0  0
   -3.3291   -2.9375   -0.8453 H   0  0  0  0  0  0  0  0  0  0  0  0
   -1.5115   -2.3646    0.1533 C   0  0  0  0  0  0  0  0  0  0  0  0
   -0.5727   -3.0458    0.5295 O   0  0  0  0  0  0  0  0  0  0  0  0
   -1.3101   -1.0660   -0.2681 N   0  0  0  0  0  0  0  0  0  0  0  0
   -2.1386   -0.5139   -0.4829 H   0  0  0  0  0  0  0  0  0  0  0  0
   -0.0231   -0.3542   -0.2455 C   0  0  1  0  0  0  0  0  0  0  0  0
    0.6562   -0.8955    0.4243 H   0  0  0  0  0  0  0  0  0  0  0  0
    0.5729   -0.3444   -1.6642 C   0  0  0  0  0  0  0  0  0  0  0  0
    0.2819   -1.2563   -2.1931 H   0  0  0  0  0  0  0  0  0  0  0  0
    0.1894    0.5058   -2.2350 H   0  0  0  0  0  0  0  0  0  0  0  0
    2.0933   -0.3157   -1.6187 C   0  0  0  0  0  0  0  0  0  0  0  0
    2.7509   -1.1875   -1.0868 O   0  0  0  0  0  0  0  0  0  0  0  0
    2.7985    0.7542   -2.0904 N   0  0  0  0  0  0  0  0  0  0  0  0
    3.8060    0.6345   -2.1476 H   0  0  0  0  0  0  0  0  0  0  0  0
    2.3295    1.4320   -2.6826 H   0  0  0  0  0  0  0  0  0  0  0  0
   -0.1420    1.0779    0.3031 C   0  0  0  0  0  0  0  0  0  0  0  0
   -1.0619    1.7956   -0.0705 O   0  0  0  0  0  0  0  0  0  0  0  0
    0.7771    1.5550    1.2179 N   0  0  0  0  0  0  0  0  0  0  0  0
    1.5237    0.9271    1.5079 H   0  0  0  0  0  0  0  0  0  0  0  0
    0.7196    2.8946    1.7888 C   0  0  0  0  0  0  0  0  0  0  0  0
   -0.2162    3.0364    2.3396 H   0  0  0  0  0  0  0  0  0  0  0  0
    1.5541    3.0467    2.4802 H   0  0  0  0  0  0  0  0  0  0  0  0
    0.7828    3.6507    0.9993 H   0  0  0  0  0  0  0  0  0  0  0  0
  1  2  1  0  0  0  0
  2  3  1  0  0  0  0
  2  4  1  0  0  0  0
  2  5  1  0  0  0  0
  5  6  2  0  0  0  0
  5  7  1  0  0  0  0
  7  8  1  0  0  0  0
  7  9  1  0  0  0  0
  9 10  1  0  0  0  0
  9 11  1  0  0  0  0
  9 19  1  0  0  0  0
 11 12  1  0  0  0  0
 11 13  1  0  0  0  0
 11 14  1  0  0  0  0
 14 15  2  0  0  0  0
 14 16  1  0  0  0  0
 16 17  1  0  0  0  0
 16 18  1  0  0  0  0
 19 20  2  0  0  0  0
 19 21  1  0  0  0  0
 21 22  1  0  0  0  0
 21 23  1  0  0  0  0
 23 24  1  0  0  0  0
 23 25  1  0  0  0  0
 23 26  1  0  0  0  0
M  END
$$$$

  -OEChem-04042215573D

 26 25  0     1  0  0  0  0  0999 V2000
   -2.8897   -3.9706    0.5269 H   0  0  0  0  0  0  0  0  0  0  0  0
   -2.9081   -2.9423    0.1550 C   0  0  0  0  0  0  0  0  0  0  0  0
   -3.5632   -2.3478    0.7961 H   0  0  0  0  0  0  0  0  0  0  0  0
   -3.3067   -2.9430   -0.8624 H   0  0  0  0  0  0  0  0  0  0  0  0
   -1.5077   -2.3587    0.1627 C   0  0  0  0  0  0  0  0  0  0  0  0
   -0.5721   -3.0290    0.5661 O   0  0  0  0  0  0  0  0  0  0  0  0
   -1.3064   -1.0612   -0.2624 N   0  0  0  0  0  0  0  0  0  0  0  0
   -2.1328   -0.5159   -0.5015 H   0  0  0  0  0  0  0  0  0  0  0  0
   -0.0182   -0.3522   -0.2447 C   0  0  1  0  0  0  0  0  0  0  0  0
    0.6673   -0.8938    0.4185 H   0  0  0  0  0  0  0  0  0  0  0  0
    0.5677   -0.3430   -1.6672 C   0  0  0  0  0  0  0  0  0  0  0  0
    0.2728   -1.2543   -2.1954 H   0  0  0  0  0  0  0  0  0  0  0  0
    0.1871    0.5077   -2.2391 H   0  0  0  0  0  0  0  0  0  0  0  0
    2.0864   -0.3189   -1.6184 C   0  0  0  0  0  0  0  0  0  0  0  0
    2.7457   -1.2973   -1.3320 O   0  0  0  0  0  0  0  0  0  0  0  0
    2.7839    0.8421   -1.7930 N   0  0  0  0  0  0  0  0  0  0  0  0
    3.7914    0.7463   -1.8851 H   0  0  0  0  0  0  0  0  0  0  0  0
    2.3090    1.6464   -2.1907 H   0  0  0  0  0  0  0  0  0  0  0  0
   -0.1359    1.0813    0.3022 C   0  0  0  0  0  0  0  0  0  0  0  0
   -1.0460    1.8053   -0.0825 O   0  0  0  0  0  0  0  0  0  0  0  0
    0.7846    1.5603    1.2150 N   0  0  0  0  0  0  0  0  0  0  0  0
    1.5174    0.9256    1.5236 H   0  0  0  0  0  0  0  0  0  0  0  0
    0.7212    2.8973    1.7919 C   0  0  0  0  0  0  0  0  0  0  0  0
   -0.2161    3.0333    2.3418 H   0  0  0  0  0  0  0  0  0  0  0  0
    1.5539    3.0493    2.4854 H   0  0  0  0  0  0  0  0  0  0  0  0
    0.7827    3.6575    1.0061 H   0  0  0  0  0  0  0  0  0  0  0  0
  1  2  1  0  0  0  0
  2  3  1  0  0  0  0
  2  4  1  0  0  0  0
  2  5  1  0  0  0  0
  5  6  2  0  0  0  0
  5  7  1  0  0  0  0
  7  8  1  0  0  0  0
  7  9  1  0  0  0  0
  9 10  1  0  0  0  0
  9 11  1  0  0  0  0
  9 19  1  0  0  0  0
 11 12  1  0  0  0  0
 11 13  1  0  0  0  0
 11 14  1  0  0  0  0
 14 15  2  0  0  0  0
 14 16  1  0  0  0  0
 16 17  1  0  0  0  0
 16 18  1  0  0  0  0
 19 20  2  0  0  0  0
 19 21  1  0  0  0  0
 21 22  1  0  0  0  0
 21 23  1  0  0  0  0
 23 24  1  0  0  0  0
 23 25  1  0  0  0  0
 23 26  1  0  0  0  0
M  END
$$$$

  -OEChem-04042215573D

 26 25  0     1  0  0  0  0  0999 V2000
   -2.8865   -3.9754    0.5045 H   0  0  0  0  0  0  0  0  0  0  0  0
   -2.9051   -2.9453    0.1376 C   0  0  0  0  0  0  0  0  0  0  0  0
   -3.5748   -2.3582    0.7706 H   0  0  0  0  0  0  0  0  0  0  0  0
   -3.2866   -2.9435   -0.8864 H   0  0  0  0  0  0  0  0  0  0  0  0
   -1.5086   -2.3531    0.1715 C   0  0  0  0  0  0  0  0  0  0  0  0
   -0.5769   -3.0157    0.5967 O   0  0  0  0  0  0  0  0  0  0  0  0
   -1.3049   -1.0560   -0.2539 N   0  0  0  0  0  0  0  0  0  0  0  0
   -2.1271   -0.5161   -0.5179 H   0  0  0  0  0  0  0  0  0  0  0  0
   -0.0149   -0.3507   -0.2321 C   0  0  1  0  0  0  0  0  0  0  0  0
    0.6705   -0.8938    0.4299 H   0  0  0  0  0  0  0  0  0  0  0  0
    0.5704   -0.3407   -1.6548 C   0  0  0  0  0  0  0  0  0  0  0  0
    0.2703   -1.2496   -2.1851 H   0  0  0  0  0  0  0  0  0  0  0  0
    0.1964    0.5132   -2.2263 H   0  0  0  0  0  0  0  0  0  0  0  0
    2.0887   -0.3222   -1.6042 C   0  0  0  0  0  0  0  0  0  0  0  0
    2.7533   -1.3379   -1.5844 O   0  0  0  0  0  0  0  0  0  0  0  0
    2.7814    0.8515   -1.5146 N   0  0  0  0  0  0  0  0  0  0  0  0
    3.7858    0.7825   -1.6542 H   0  0  0  0  0  0  0  0  0  0  0  0
    2.2978    1.7208   -1.7186 H   0  0  0  0  0  0  0  0  0  0  0  0
   -0.1336    1.0833    0.3148 C   0  0  0  0  0  0  0  0  0  0  0  0
   -1.0306    1.8141   -0.0866 O   0  0  0  0  0  0  0  0  0  0  0  0
    0.7828    1.5633    1.2316 N   0  0  0  0  0  0  0  0  0  0  0  0
    1.5010    0.9225    1.5611 H   0  0  0  0  0  0  0  0  0  0  0  0
    0.7189    2.9029    1.8027 C   0  0  0  0  0  0  0  0  0  0  0  0
   -0.2165    3.0394    2.3554 H   0  0  0  0  0  0  0  0  0  0  0  0
    1.5541    3.0598    2.4920 H   0  0  0  0  0  0  0  0  0  0  0  0
    0.7758    3.6598    1.0135 H   0  0  0  0  0  0  0  0  0  0  0  0
  1  2  1  0  0  0  0
  2  3  1  0  0  0  0
  2  4  1  0  0  0  0
  2  5  1  0  0  0  0
  5  6  2  0  0  0  0
  5  7  1  0  0  0  0
  7  8  1  0  0  0  0
  7  9  1  0  0  0  0
  9 10  1  0  0  0  0
  9 11  1  0  0  0  0
  9 19  1  0  0  0  0
 11 12  1  0  0  0  0
 11 13  1  0  0  0  0
 11 14  1  0  0  0  0
 14 15  2  0  0  0  0
 14 16  1  0  0  0  0
 16 17  1  0  0  0  0
 16 18  1  0  0  0  0
 19 20  2  0  0  0  0
 19 21  1  0  0  0  0
 21 22  1  0  0  0  0
 21 23  1  0  0  0  0
 23 24  1  0  0  0  0
 23 25  1  0  0  0  0
 23 26  1  0  0  0  0
M  END
$$$$

  -OEChem-04042215573D

 26 25  0     1  0  0  0  0  0999 V2000
   -2.8996   -3.9654    0.4927 H   0  0  0  0  0  0  0  0  0  0  0  0
   -2.9111   -2.9342    0.1286 C   0  0  0  0  0  0  0  0  0  0  0  0
   -3.5862   -2.3467    0.7556 H   0  0  0  0  0  0  0  0  0  0  0  0
   -3.2817   -2.9286   -0.8994 H   0  0  0  0  0  0  0  0  0  0  0  0
   -1.5131   -2.3462    0.1797 C   0  0  0  0  0  0  0  0  0  0  0  0
   -0.5894   -3.0077    0.6240 O   0  0  0  0  0  0  0  0  0  0  0  0
   -1.2985   -1.0514   -0.2473 N   0  0  0  0  0  0  0  0  0  0  0  0
   -2.1139   -0.5109   -0.5306 H   0  0  0  0  0  0  0  0  0  0  0  0
   -0.0051   -0.3531   -0.2162 C   0  0  1  0  0  0  0  0  0  0  0  0
    0.6742   -0.8962    0.4518 H   0  0  0  0  0  0  0  0  0  0  0  0
    0.5880   -0.3496   -1.6369 C   0  0  0  0  0  0  0  0  0  0  0  0
    0.2805   -1.2560   -2.1675 H   0  0  0  0  0  0  0  0  0  0  0  0
    0.2230    0.5071   -2.2103 H   0  0  0  0  0  0  0  0  0  0  0  0
    2.1073   -0.3406   -1.5871 C   0  0  0  0  0  0  0  0  0  0  0  0
    2.7735   -1.3259   -1.8304 O   0  0  0  0  0  0  0  0  0  0  0  0
    2.8039    0.7949   -1.2843 N   0  0  0  0  0  0  0  0  0  0  0  0
    3.8004    0.7594   -1.4815 H   0  0  0  0  0  0  0  0  0  0  0  0
    2.3148    1.6846   -1.3136 H   0  0  0  0  0  0  0  0  0  0  0  0
   -0.1290    1.0822    0.3272 C   0  0  0  0  0  0  0  0  0  0  0  0
   -1.0173    1.8150   -0.0891 O   0  0  0  0  0  0  0  0  0  0  0  0
    0.7771    1.5648    1.2530 N   0  0  0  0  0  0  0  0  0  0  0  0
    1.4800    0.9194    1.6058 H   0  0  0  0  0  0  0  0  0  0  0  0
    0.6943    2.9000    1.8325 C   0  0  0  0  0  0  0  0  0  0  0  0
   -0.2507    3.0259    2.3715 H   0  0  0  0  0  0  0  0  0  0  0  0
    1.5173    3.0587    2.5360 H   0  0  0  0  0  0  0  0  0  0  0  0
    0.7576    3.6629    1.0495 H   0  0  0  0  0  0  0  0  0  0  0  0
  1  2  1  0  0  0  0
  2  3  1  0  0  0  0
  2  4  1  0  0  0  0
  2  5  1  0  0  0  0
  5  6  2  0  0  0  0
  5  7  1  0  0  0  0
  7  8  1  0  0  0  0
  7  9  1  0  0  0  0
  9 10  1  0  0  0  0
  9 11  1  0  0  0  0
  9 19  1  0  0  0  0
 11 12  1  0  0  0  0
 11 13  1  0  0  0  0
 11 14  1  0  0  0  0
 14 15  2  0  0  0  0
 14 16  1  0  0  0  0
 16 17  1  0  0  0  0
 16 18  1  0  0  0  0
 19 20  2  0  0  0  0
 19 21  1  0  0  0  0
 21 22  1  0  0  0  0
 21 23  1  0  0  0  0
 23 24  1  0  0  0  0
 23 25  1  0  0  0  0
 23 26  1  0  0  0  0
M  END
$$$$

  -OEChem-04042215573D

 26 25  0     1  0  0  0  0  0999 V2000
   -2.9154   -3.9554    0.4828 H   0  0  0  0  0  0  0  0  0  0  0  0
   -2.9200   -2.9235    0.1205 C   0  0  0  0  0  0  0  0  0  0  0  0
   -3.6020   -2.3358    0.7397 H   0  0  0  0  0  0  0  0  0  0  0  0
   -3.2773   -2.9151   -0.9120 H   0  0  0  0  0  0  0  0  0  0  0  0
   -1.5218   -2.3385    0.1896 C   0  0  0  0  0  0  0  0  0  0  0  0
   -0.6039   -3.0013    0.6446 O   0  0  0  0  0  0  0  0  0  0  0  0
   -1.2969   -1.0468   -0.2416 N   0  0  0  0  0  0  0  0  0  0  0  0
   -2.1055   -0.5054   -0.5427 H   0  0  0  0  0  0  0  0  0  0  0  0
    0.0008   -0.3574   -0.2027 C   0  0  1  0  0  0  0  0  0  0  0  0
    0.6715   -0.9005    0.4735 H   0  0  0  0  0  0  0  0  0  0  0  0
    0.6034   -0.3687   -1.6200 C   0  0  0  0  0  0  0  0  0  0  0  0
    0.2886   -1.2753   -2.1457 H   0  0  0  0  0  0  0  0  0  0  0  0
    0.2493    0.4884   -2.1996 H   0  0  0  0  0  0  0  0  0  0  0  0
    2.1233   -0.3716   -1.5710 C   0  0  0  0  0  0  0  0  0  0  0  0
    2.7860   -1.2657   -2.0564 O   0  0  0  0  0  0  0  0  0  0  0  0
    2.8286    0.6850   -1.0677 N   0  0  0  0  0  0  0  0  0  0  0  0
    3.8180    0.6907   -1.3007 H   0  0  0  0  0  0  0  0  0  0  0  0
    2.3408    1.5651   -0.9276 H   0  0  0  0  0  0  0  0  0  0  0  0
   -0.1229    1.0807    0.3340 C   0  0  0  0  0  0  0  0  0  0  0  0
   -1.0024    1.8163   -0.0945 O   0  0  0  0  0  0  0  0  0  0  0  0
    0.7765    1.5632    1.2668 N   0  0  0  0  0  0  0  0  0  0  0  0
    1.4529    0.9071    1.6506 H   0  0  0  0  0  0  0  0  0  0  0  0
    0.6782    2.8934    1.8561 C   0  0  0  0  0  0  0  0  0  0  0  0
   -0.2702    3.0057    2.3921 H   0  0  0  0  0  0  0  0  0  0  0  0
    1.4971    3.0544    2.5640 H   0  0  0  0  0  0  0  0  0  0  0  0
    0.7369    3.6635    1.0798 H   0  0  0  0  0  0  0  0  0  0  0  0
  1  2  1  0  0  0  0
  2  3  1  0  0  0  0
  2  4  1  0  0  0  0
  2  5  1  0  0  0  0
  5  6  2  0  0  0  0
  5  7  1  0  0  0  0
  7  8  1  0  0  0  0
  7  9  1  0  0  0  0
  9 10  1  0  0  0  0
  9 11  1  0  0  0  0
  9 19  1  0  0  0  0
 11 12  1  0  0  0  0
 11 13  1  0  0  0  0
 11 14  1  0  0  0  0
 14 15  2  0  0  0  0
 14 16  1  0  0  0  0
 16 17  1  0  0  0  0
 16 18  1  0  0  0  0
 19 20  2  0  0  0  0
 19 21  1  0  0  0  0
 21 22  1  0  0  0  0
 21 23  1  0  0  0  0
 23 24  1  0  0  0  0
 23 25  1  0  0  0  0
 23 26  1  0  0  0  0
M  END
$$$$

  -OEChem-04042215573D

 26 25  0     1  0  0  0  0  0999 V2000
   -2.9376   -3.9433    0.4812 H   0  0  0  0  0  0  0  0  0  0  0  0
   -2.9358   -2.9118    0.1180 C   0  0  0  0  0  0  0  0  0  0  0  0
   -3.6173   -2.3203    0.7341 H   0  0  0  0  0  0  0  0  0  0  0  0
   -3.2886   -2.9029   -0.9161 H   0  0  0  0  0  0  0  0  0  0  0  0
   -1.5347   -2.3345    0.1925 C   0  0  0  0  0  0  0  0  0  0  0  0
   -0.6222   -3.0010    0.6534 O   0  0  0  0  0  0  0  0  0  0  0  0
   -1.2982   -1.0461   -0.2421 N   0  0  0  0  0  0  0  0  0  0  0  0
   -2.1001   -0.5000   -0.5527 H   0  0  0  0  0  0  0  0  0  0  0  0
    0.0042   -0.3666   -0.1939 C   0  0  1  0  0  0  0  0  0  0  0  0
    0.6641   -0.9107    0.4918 H   0  0  0  0  0  0  0  0  0  0  0  0
    0.6196   -0.3934   -1.6064 C   0  0  0  0  0  0  0  0  0  0  0  0
    0.2988   -1.3007   -2.1277 H   0  0  0  0  0  0  0  0  0  0  0  0
    0.2763    0.4639   -2.1922 H   0  0  0  0  0  0  0  0  0  0  0  0
    2.1405   -0.4089   -1.5580 C   0  0  0  0  0  0  0  0  0  0  0  0
    2.7972   -1.1557   -2.2549 O   0  0  0  0  0  0  0  0  0  0  0  0
    2.8570    0.5321   -0.8728 N   0  0  0  0  0  0  0  0  0  0  0  0
    3.8387    0.5851   -1.1318 H   0  0  0  0  0  0  0  0  0  0  0  0
    2.3743    1.3766   -0.5790 H   0  0  0  0  0  0  0  0  0  0  0  0
   -0.1166    1.0740    0.3364 C   0  0  0  0  0  0  0  0  0  0  0  0
   -0.9852    1.8148   -0.1044 O   0  0  0  0  0  0  0  0  0  0  0  0
    0.7777    1.5524    1.2766 N   0  0  0  0  0  0  0  0  0  0  0  0
    1.4151    0.8807    1.6988 H   0  0  0  0  0  0  0  0  0  0  0  0
    0.6702    2.8802    1.8703 C   0  0  0  0  0  0  0  0  0  0  0  0
   -0.2817    2.9867    2.4013 H   0  0  0  0  0  0  0  0  0  0  0  0
    1.4844    3.0424    2.5832 H   0  0  0  0  0  0  0  0  0  0  0  0
    0.7301    3.6534    1.0971 H   0  0  0  0  0  0  0  0  0  0  0  0
  1  2  1  0  0  0  0
  2  3  1  0  0  0  0
  2  4  1  0  0  0  0
  2  5  1  0  0  0  0
  5  6  2  0  0  0  0
  5  7  1  0  0  0  0
  7  8  1  0  0  0  0
  7  9  1  0  0  0  0
  9 10  1  0  0  0  0
  9 11  1  0  0  0  0
  9 19  1  0  0  0  0
 11 12  1  0  0  0  0
 11 13  1  0  0  0  0
 11 14  1  0  0  0  0
 14 15  2  0  0  0  0
 14 16  1  0  0  0  0
 16 17  1  0  0  0  0
 16 18  1  0  0  0  0
 19 20  2  0  0  0  0
 19 21  1  0  0  0  0
 21 22  1  0  0  0  0
 21 23  1  0  0  0  0
 23 24  1  0  0  0  0
 23 25  1  0  0  0  0
 23 26  1  0  0  0  0
M  END
$$$$

  -OEChem-04042215573D

 26 25  0     1  0  0  0  0  0999 V2000
   -2.9676   -3.9354    0.4720 H   0  0  0  0  0  0  0  0  0  0  0  0
   -2.9565   -2.9044    0.1072 C   0  0  0  0  0  0  0  0  0  0  0  0
   -3.6415   -2.3081    0.7147 H   0  0  0  0  0  0  0  0  0  0  0  0
   -3.2979   -2.8951   -0.9308 H   0  0  0  0  0  0  0  0  0  0  0  0
   -1.5534   -2.3342    0.1962 C   0  0  0  0  0  0  0  0  0  0  0  0
   -0.6495   -3.0038    0.6697 O   0  0  0  0  0  0  0  0  0  0  0  0
   -1.3033   -1.0490   -0.2408 N   0  0  0  0  0  0  0  0  0  0  0  0
   -2.0971   -0.4995   -0.5664 H   0  0  0  0  0  0  0  0  0  0  0  0
    0.0043   -0.3799   -0.1817 C   0  0  1  0  0  0  0  0  0  0  0  0
    0.6522   -0.9271    0.5128 H   0  0  0  0  0  0  0  0  0  0  0  0
    0.6309   -0.4259   -1.5902 C   0  0  0  0  0  0  0  0  0  0  0  0
    0.3038   -1.3345   -2.1050 H   0  0  0  0  0  0  0  0  0  0  0  0
    0.2977    0.4301   -2.1840 H   0  0  0  0  0  0  0  0  0  0  0  0
    2.1526   -0.4554   -1.5494 C   0  0  0  0  0  0  0  0  0  0  0  0
    2.8000   -1.0085   -2.4153 O   0  0  0  0  0  0  0  0  0  0  0  0
    2.8816    0.3492   -0.7189 N   0  0  0  0  0  0  0  0  0  0  0  0
    3.8533    0.4564   -0.9980 H   0  0  0  0  0  0  0  0  0  0  0  0
    2.4041    1.1378   -0.2924 H   0  0  0  0  0  0  0  0  0  0  0  0
   -0.1077    1.0635    0.3421 C   0  0  0  0  0  0  0  0  0  0  0  0
   -0.9586    1.8142   -0.1154 O   0  0  0  0  0  0  0  0  0  0  0  0
    0.7840    1.5337    1.2899 N   0  0  0  0  0  0  0  0  0  0  0  0
    1.3664    0.8439    1.7600 H   0  0  0  0  0  0  0  0  0  0  0  0
    0.6808    2.8661    1.8749 C   0  0  0  0  0  0  0  0  0  0  0  0
   -0.2684    2.9772    2.4098 H   0  0  0  0  0  0  0  0  0  0  0  0
    1.4990    3.0341    2.5821 H   0  0  0  0  0  0  0  0  0  0  0  0
    0.7376    3.6337    1.0957 H   0  0  0  0  0  0  0  0  0  0  0  0
  1  2  1  0  0  0  0
  2  3  1  0  0  0  0
  2  4  1  0  0  0  0
  2  5  1  0  0  0  0
  5  6  2  0  0  0  0
  5  7  1  0  0  0  0
  7  8  1  0  0  0  0
  7  9  1  0  0  0  0
  9 10  1  0  0  0  0
  9 11  1  0  0  0  0
  9 19  1  0  0  0  0
 11 12  1  0  0  0  0
 11 13  1  0  0  0  0
 11 14  1  0  0  0  0
 14 15  2  0  0  0  0
 14 16  1  0  0  0  0
 16 17  1  0  0  0  0
 16 18  1  0  0  0  0
 19 20  2  0  0  0  0
 19 21  1  0  0  0  0
 21 22  1  0  0  0  0
 21 23  1  0  0  0  0
 23 24  1  0  0  0  0
 23 25  1  0  0  0  0
 23 26  1  0  0  0  0
M  END
$$$$

  -OEChem-04042215573D

 26 25  0     1  0  0  0  0  0999 V2000
   -3.0039   -3.9219    0.4703 H   0  0  0  0  0  0  0  0  0  0  0  0
   -2.9818   -2.8908    0.1062 C   0  0  0  0  0  0  0  0  0  0  0  0
   -3.6586   -2.2872    0.7156 H   0  0  0  0  0  0  0  0  0  0  0  0
   -3.3259   -2.8768   -0.9307 H   0  0  0  0  0  0  0  0  0  0  0  0
   -1.5721   -2.3363    0.1929 C   0  0  0  0  0  0  0  0  0  0  0  0
   -0.6754   -3.0146    0.6682 O   0  0  0  0  0  0  0  0  0  0  0  0
   -1.3071   -1.0549   -0.2462 N   0  0  0  0  0  0  0  0  0  0  0  0
   -2.0943   -0.4978   -0.5752 H   0  0  0  0  0  0  0  0  0  0  0  0
    0.0054   -0.3963   -0.1788 C   0  0  1  0  0  0  0  0  0  0  0  0
    0.6411   -0.9477    0.5231 H   0  0  0  0  0  0  0  0  0  0  0  0
    0.6401   -0.4592   -1.5842 C   0  0  0  0  0  0  0  0  0  0  0  0
    0.3064   -1.3691   -2.0919 H   0  0  0  0  0  0  0  0  0  0  0  0
    0.3131    0.3944   -2.1849 H   0  0  0  0  0  0  0  0  0  0  0  0
    2.1627   -0.5025   -1.5574 C   0  0  0  0  0  0  0  0  0  0  0  0
    2.7968   -0.8246   -2.5420 O   0  0  0  0  0  0  0  0  0  0  0  0
    2.9082    0.1305   -0.6024 N   0  0  0  0  0  0  0  0  0  0  0  0
    3.8736    0.2846   -0.8823 H   0  0  0  0  0  0  0  0  0  0  0  0
    2.4432    0.8497   -0.0578 H   0  0  0  0  0  0  0  0  0  0  0  0
   -0.0975    1.0495    0.3389 C   0  0  0  0  0  0  0  0  0  0  0  0
   -0.9382    1.8064   -0.1269 O   0  0  0  0  0  0  0  0  0  0  0  0
    0.7929    1.5112    1.2927 N   0  0  0  0  0  0  0  0  0  0  0  0
    1.3274    0.8094    1.8000 H   0  0  0  0  0  0  0  0  0  0  0  0
    0.6939    2.8474    1.8701 C   0  0  0  0  0  0  0  0  0  0  0  0
   -0.2587    2.9676    2.3970 H   0  0  0  0  0  0  0  0  0  0  0  0
    1.5079    3.0141    2.5824 H   0  0  0  0  0  0  0  0  0  0  0  0
    0.7616    3.6104    1.0871 H   0  0  0  0  0  0  0  0  0  0  0  0
  1  2  1  0  0  0  0
  2  3  1  0  0  0  0
  2  4  1  0  0  0  0
  2  5  1  0  0  0  0
  5  6  2  0  0  0  0
  5  7  1  0  0  0  0
  7  8  1  0  0  0  0
  7  9  1  0  0  0  0
  9 10  1  0  0  0  0
  9 11  1  0  0  0  0
  9 19  1  0  0  0  0
 11 12  1  0  0  0  0
 11 13  1  0  0  0  0
 11 14  1  0  0  0  0
 14 15  2  0  0  0  0
 14 16  1  0  0  0  0
 16 17  1  0  0  0  0
 16 18  1  0  0  0  0
 19 20  2  0  0  0  0
 19 21  1  0  0  0  0
 21 22  1  0  0  0  0
 21 23  1  0  0  0  0
 23 24  1  0  0  0  0
 23 25  1  0  0  0  0
 23 26  1  0  0  0  0
M  END
$$$$

  -OEChem-04042215573D

 26 25  0     1  0  0  0  0  0999 V2000
   -2.8075   -3.9376    0.5366 H   0  0  0  0  0  0  0  0  0  0  0  0
   -2.8475   -2.9096    0.1656 C   0  0  0  0  0  0  0  0  0  0  0  0
   -3.5122   -2.3286    0.8095 H   0  0  0  0  0  0  0  0  0  0  0  0
   -3.2510   -2.9179   -0.8499 H   0  0  0  0  0  0  0  0  0  0  0  0
   -1.4588   -2.2985    0.1662 C   0  0  0  0  0  0  0  0  0  0  0  0
   -0.4972   -2.9504    0.5473 O   0  0  0  0  0  0  0  0  0  0  0  0
   -1.2714   -1.0019   -0.2673 N   0  0  0  0  0  0  0  0  0  0  0  0
   -2.0998   -0.4523   -0.4944 H   0  0  0  0  0  0  0  0  0  0  0  0
    0.0107   -0.2889   -0.1964 C   0  0  1  0  0  0  0  0  0  0  0  0
    0.6441   -0.7963    0.5343 H   0  0  0  0  0  0  0  0  0  0  0  0
    0.6692   -0.2818   -1.5958 C   0  0  0  0  0  0  0  0  0  0  0  0
    0.1784   -1.0247   -2.2310 H   0  0  0  0  0  0  0  0  0  0  0  0
    0.5289    0.6935   -2.0716 H   0  0  0  0  0  0  0  0  0  0  0  0
    2.1575   -0.6179   -1.5990 C   0  0  0  0  0  0  0  0  0  0  0  0
    2.7817   -0.6393   -2.6406 O   0  0  0  0  0  0  0  0  0  0  0  0
    2.8152   -1.2057   -0.5546 N   0  0  0  0  0  0  0  0  0  0  0  0
    3.6952   -1.6337   -0.8308 H   0  0  0  0  0  0  0  0  0  0  0  0
    2.2392   -1.7010    0.1203 H   0  0  0  0  0  0  0  0  0  0  0  0
   -0.1684    1.1464    0.3358 C   0  0  0  0  0  0  0  0  0  0  0  0
   -1.1271    1.8119   -0.0350 O   0  0  0  0  0  0  0  0  0  0  0  0
    0.6891    1.6575    1.2926 N   0  0  0  0  0  0  0  0  0  0  0  0
    1.4838    1.0898    1.5731 H   0  0  0  0  0  0  0  0  0  0  0  0
    0.5574    3.0008    1.8442 C   0  0  0  0  0  0  0  0  0  0  0  0
   -0.4154    3.1217    2.3323 H   0  0  0  0  0  0  0  0  0  0  0  0
    1.3404    3.1836    2.5864 H   0  0  0  0  0  0  0  0  0  0  0  0
    0.6500    3.7512    1.0519 H   0  0  0  0  0  0  0  0  0  0  0  0
  1  2  1  0  0  0  0
  2  3  1  0  0  0  0
  2  4  1  0  0  0  0
  2  5  1  0  0  0  0
  5  6  2  0  0  0  0
  5  7  1  0  0  0  0
  7  8  1  0  0  0  0
  7  9  1  0  0  0  0
  9 10  1  0  0  0  0
  9 11  1  0  0  0  0
  9 19  1  0  0  0  0
 11 12  1  0  0  0  0
 11 13  1  0  0  0  0
 11 14  1  0  0  0  0
 14 15  2  0  0  0  0
 14 16  1  0  0  0  0
 16 17  1  0  0  0  0
 16 18  1  0  0  0  0
 19 20  2  0  0  0  0
 19 21  1  0  0  0  0
 21 22  1  0  0  0  0
 21 23  1  0  0  0  0
 23 24  1  0  0  0  0
 23 25  1  0  0  0  0
 23 26  1  0  0  0  0
M  END
$$$$

  -OEChem-04042215573D

 26 25  0     1  0  0  0  0  0999 V2000
   -2.8001   -3.9251    0.5578 H   0  0  0  0  0  0  0  0  0  0  0  0
   -2.8420   -2.8978    0.1850 C   0  0  0  0  0  0  0  0  0  0  0  0
   -3.4864   -2.3100    0.8434 H   0  0  0  0  0  0  0  0  0  0  0  0
   -3.2705   -2.9053   -0.8203 H   0  0  0  0  0  0  0  0  0  0  0  0
   -1.4498   -2.2963    0.1496 C   0  0  0  0  0  0  0  0  0  0  0  0
   -0.4786   -2.9603    0.4851 O   0  0  0  0  0  0  0  0  0  0  0  0
   -1.2655   -0.9993   -0.2832 N   0  0  0  0  0  0  0  0  0  0  0  0
   -2.0963   -0.4396   -0.4745 H   0  0  0  0  0  0  0  0  0  0  0  0
    0.0172   -0.2898   -0.2016 C   0  0  1  0  0  0  0  0  0  0  0  0
    0.6453   -0.7933    0.5377 H   0  0  0  0  0  0  0  0  0  0  0  0
    0.6880   -0.2959   -1.5936 C   0  0  0  0  0  0  0  0  0  0  0  0
    0.2068   -1.0422   -2.2321 H   0  0  0  0  0  0  0  0  0  0  0  0
    0.5629    0.6776   -2.0777 H   0  0  0  0  0  0  0  0  0  0  0  0
    2.1708   -0.6413   -1.5437 C   0  0  0  0  0  0  0  0  0  0  0  0
    2.8937   -0.4244   -2.4952 O   0  0  0  0  0  0  0  0  0  0  0  0
    2.6955   -1.5127   -0.6303 N   0  0  0  0  0  0  0  0  0  0  0  0
    3.5783   -1.9246   -0.9198 H   0  0  0  0  0  0  0  0  0  0  0  0
    2.0322   -2.0995   -0.1274 H   0  0  0  0  0  0  0  0  0  0  0  0
   -0.1631    1.1454    0.3304 C   0  0  0  0  0  0  0  0  0  0  0  0
   -1.1242    1.8083   -0.0393 O   0  0  0  0  0  0  0  0  0  0  0  0
    0.6874    1.6545    1.2944 N   0  0  0  0  0  0  0  0  0  0  0  0
    1.4818    1.0871    1.5768 H   0  0  0  0  0  0  0  0  0  0  0  0
    0.5519    2.9969    1.8476 C   0  0  0  0  0  0  0  0  0  0  0  0
   -0.4233    3.1159    2.3314 H   0  0  0  0  0  0  0  0  0  0  0  0
    1.3314    3.1789    2.5936 H   0  0  0  0  0  0  0  0  0  0  0  0
    0.6473    3.7487    1.0570 H   0  0  0  0  0  0  0  0  0  0  0  0
  1  2  1  0  0  0  0
  2  3  1  0  0  0  0
  2  4  1  0  0  0  0
  2  5  1  0  0  0  0
  5  6  2  0  0  0  0
  5  7  1  0  0  0  0
  7  8  1  0  0  0  0
  7  9  1  0  0  0  0
  9 10  1  0  0  0  0
  9 11  1  0  0  0  0
  9 19  1  0  0  0  0
 11 12  1  0  0  0  0
 11 13  1  0  0  0  0
 11 14  1  0  0  0  0
 14 15  2  0  0  0  0
 14 16  1  0  0  0  0
 16 17  1  0  0  0  0
 16 18  1  0  0  0  0
 19 20  2  0  0  0  0
 19 21  1  0  0  0  0
 21 22  1  0  0  0  0
 21 23  1  0  0  0  0
 23 24  1  0  0  0  0
 23 25  1  0  0  0  0
 23 26  1  0  0  0  0
M  END
$$$$

  -OEChem-04042215573D

 26 25  0     1  0  0  0  0  0999 V2000
   -2.8159   -3.9196    0.5737 H   0  0  0  0  0  0  0  0  0  0  0  0
   -2.8578   -2.8943    0.1956 C   0  0  0  0  0  0  0  0  0  0  0  0
   -3.4806   -2.2973    0.8663 H   0  0  0  0  0  0  0  0  0  0  0  0
   -3.3107   -2.9034   -0.7989 H   0  0  0  0  0  0  0  0  0  0  0  0
   -1.4614   -2.3062    0.1222 C   0  0  0  0  0  0  0  0  0  0  0  0
   -0.4858   -2.9869    0.4090 O   0  0  0  0  0  0  0  0  0  0  0  0
   -1.2766   -1.0068   -0.3030 N   0  0  0  0  0  0  0  0  0  0  0  0
   -2.1076   -0.4359   -0.4575 H   0  0  0  0  0  0  0  0  0  0  0  0
    0.0097   -0.3041   -0.2188 C   0  0  1  0  0  0  0  0  0  0  0  0
    0.6372   -0.8156    0.5168 H   0  0  0  0  0  0  0  0  0  0  0  0
    0.6827   -0.3165   -1.6071 C   0  0  0  0  0  0  0  0  0  0  0  0
    0.2048   -1.0607   -2.2499 H   0  0  0  0  0  0  0  0  0  0  0  0
    0.5711    0.6576   -2.0934 H   0  0  0  0  0  0  0  0  0  0  0  0
    2.1590   -0.6730   -1.5189 C   0  0  0  0  0  0  0  0  0  0  0  0
    2.9639   -0.2409   -2.3193 O   0  0  0  0  0  0  0  0  0  0  0  0
    2.6067   -1.7018   -0.7378 N   0  0  0  0  0  0  0  0  0  0  0  0
    3.5142   -2.0725   -1.0049 H   0  0  0  0  0  0  0  0  0  0  0  0
    1.9063   -2.3371   -0.3563 H   0  0  0  0  0  0  0  0  0  0  0  0
   -0.1589    1.1286    0.3230 C   0  0  0  0  0  0  0  0  0  0  0  0
   -1.1220    1.7962   -0.0325 O   0  0  0  0  0  0  0  0  0  0  0  0
    0.6980    1.6248    1.2880 N   0  0  0  0  0  0  0  0  0  0  0  0
    1.4986    1.0566    1.5507 H   0  0  0  0  0  0  0  0  0  0  0  0
    0.5800    2.9677    1.8433 C   0  0  0  0  0  0  0  0  0  0  0  0
   -0.3913    3.0972    2.3321 H   0  0  0  0  0  0  0  0  0  0  0  0
    1.3652    3.1400    2.5858 H   0  0  0  0  0  0  0  0  0  0  0  0
    0.6803    3.7192    1.0530 H   0  0  0  0  0  0  0  0  0  0  0  0
  1  2  1  0  0  0  0
  2  3  1  0  0  0  0
  2  4  1  0  0  0  0
  2  5  1  0  0  0  0
  5  6  2  0  0  0  0
  5  7  1  0  0  0  0
  7  8  1  0  0  0  0
  7  9  1  0  0  0  0
  9 10  1  0  0  0  0
  9 11  1  0  0  0  0
  9 19  1  0  0  0  0
 11 12  1  0  0  0  0
 11 13  1  0  0  0  0
 11 14  1  0  0  0  0
 14 15  2  0  0  0  0
 14 16  1  0  0  0  0
 16 17  1  0  0  0  0
 16 18  1  0  0  0  0
 19 20  2  0  0  0  0
 19 21  1  0  0  0  0
 21 22  1  0  0  0  0
 21 23  1  0  0  0  0
 23 24  1  0  0  0  0
 23 25  1  0  0  0  0
 23 26  1  0  0  0  0
M  END
$$$$

  -OEChem-04042215573D

 26 25  0     1  0  0  0  0  0999 V2000
   -2.8338   -3.9170    0.5831 H   0  0  0  0  0  0  0  0  0  0  0  0
   -2.8755   -2.8929    0.2017 C   0  0  0  0  0  0  0  0  0  0  0  0
   -3.4730   -2.2862    0.8866 H   0  0  0  0  0  0  0  0  0  0  0  0
   -3.3564   -2.9012   -0.7795 H   0  0  0  0  0  0  0  0  0  0  0  0
   -1.4759   -2.3191    0.0874 C   0  0  0  0  0  0  0  0  0  0  0  0
   -0.4985   -3.0161    0.3246 O   0  0  0  0  0  0  0  0  0  0  0  0
   -1.2917   -1.0158   -0.3257 N   0  0  0  0  0  0  0  0  0  0  0  0
   -2.1226   -0.4353   -0.4396 H   0  0  0  0  0  0  0  0  0  0  0  0
   -0.0015   -0.3194   -0.2464 C   0  0  1  0  0  0  0  0  0  0  0  0
    0.6293   -0.8429    0.4795 H   0  0  0  0  0  0  0  0  0  0  0  0
    0.6641   -0.3324   -1.6358 C   0  0  0  0  0  0  0  0  0  0  0  0
    0.1840   -1.0732   -2.2808 H   0  0  0  0  0  0  0  0  0  0  0  0
    0.5593    0.6433   -2.1204 H   0  0  0  0  0  0  0  0  0  0  0  0
    2.1354   -0.6977   -1.5277 C   0  0  0  0  0  0  0  0  0  0  0  0
    2.9941   -0.0852   -2.1301 O   0  0  0  0  0  0  0  0  0  0  0  0
    2.5426   -1.8272   -0.8742 N   0  0  0  0  0  0  0  0  0  0  0  0
    3.4824   -2.1466   -1.0902 H   0  0  0  0  0  0  0  0  0  0  0  0
    1.8308   -2.5021   -0.5950 H   0  0  0  0  0  0  0  0  0  0  0  0
   -0.1548    1.1085    0.3120 C   0  0  0  0  0  0  0  0  0  0  0  0
   -1.1258    1.7796   -0.0152 O   0  0  0  0  0  0  0  0  0  0  0  0
    0.7159    1.5886    1.2728 N   0  0  0  0  0  0  0  0  0  0  0  0
    1.5323    1.0256    1.4955 H   0  0  0  0  0  0  0  0  0  0  0  0
    0.6156    2.9284    1.8389 C   0  0  0  0  0  0  0  0  0  0  0  0
   -0.3512    3.0648    2.3350 H   0  0  0  0  0  0  0  0  0  0  0  0
    1.4072    3.0865    2.5777 H   0  0  0  0  0  0  0  0  0  0  0  0
    0.7191    3.6847    1.0535 H   0  0  0  0  0  0  0  0  0  0  0  0
  1  2  1  0  0  0  0
  2  3  1  0  0  0  0
  2  4  1  0  0  0  0
  2  5  1  0  0  0  0
  5  6  2  0  0  0  0
  5  7  1  0  0  0  0
  7  8  1  0  0  0  0
  7  9  1  0  0  0  0
  9 10  1  0  0  0  0
  9 11  1  0  0  0  0
  9 19  1  0  0  0  0
 11 12  1  0  0  0  0
 11 13  1  0  0  0  0
 11 14  1  0  0  0  0
 14 15  2  0  0  0  0
 14 16  1  0  0  0  0
 16 17  1  0  0  0  0
 16 18  1  0  0  0  0
 19 20  2  0  0  0  0
 19 21  1  0  0  0  0
 21 22  1  0  0  0  0
 21 23  1  0  0  0  0
 23 24  1  0  0  0  0
 23 25  1  0  0  0  0
 23 26  1  0  0  0  0
M  END
$$$$

  -OEChem-04042215573D

 26 25  0     1  0  0  0  0  0999 V2000
   -2.8445   -3.9189    0.5882 H   0  0  0  0  0  0  0  0  0  0  0  0
   -2.8884   -2.8983    0.1977 C   0  0  0  0  0  0  0  0  0  0  0  0
   -3.4737   -2.2835    0.8859 H   0  0  0  0  0  0  0  0  0  0  0  0
   -3.3835   -2.9137   -0.7764 H   0  0  0  0  0  0  0  0  0  0  0  0
   -1.4884   -2.3313    0.0569 C   0  0  0  0  0  0  0  0  0  0  0  0
   -0.5107   -3.0413    0.2487 O   0  0  0  0  0  0  0  0  0  0  0  0
   -1.3067   -1.0233   -0.3417 N   0  0  0  0  0  0  0  0  0  0  0  0
   -2.1374   -0.4363   -0.4183 H   0  0  0  0  0  0  0  0  0  0  0  0
   -0.0138   -0.3301   -0.2755 C   0  0  1  0  0  0  0  0  0  0  0  0
    0.6264   -0.8667    0.4333 H   0  0  0  0  0  0  0  0  0  0  0  0
    0.6358   -0.3354   -1.6702 C   0  0  0  0  0  0  0  0  0  0  0  0
    0.1518   -1.0728   -2.3163 H   0  0  0  0  0  0  0  0  0  0  0  0
    0.5301    0.6429   -2.1494 H   0  0  0  0  0  0  0  0  0  0  0  0
    2.1045   -0.7045   -1.5595 C   0  0  0  0  0  0  0  0  0  0  0  0
    2.9858    0.0458   -1.9287 O   0  0  0  0  0  0  0  0  0  0  0  0
    2.4926   -1.9120   -1.0508 N   0  0  0  0  0  0  0  0  0  0  0  0
    3.4642   -2.1761   -1.1837 H   0  0  0  0  0  0  0  0  0  0  0  0
    1.7838   -2.6199   -0.8609 H   0  0  0  0  0  0  0  0  0  0  0  0
   -0.1497    1.0913    0.3031 C   0  0  0  0  0  0  0  0  0  0  0  0
   -1.1305    1.7647    0.0112 O   0  0  0  0  0  0  0  0  0  0  0  0
    0.7404    1.5561    1.2535 N   0  0  0  0  0  0  0  0  0  0  0  0
    1.5761    1.0033    1.4256 H   0  0  0  0  0  0  0  0  0  0  0  0
    0.6562    2.8908    1.8339 C   0  0  0  0  0  0  0  0  0  0  0  0
   -0.3061    3.0310    2.3374 H   0  0  0  0  0  0  0  0  0  0  0  0
    1.4534    3.0338    2.5696 H   0  0  0  0  0  0  0  0  0  0  0  0
    0.7612    3.6540    1.0557 H   0  0  0  0  0  0  0  0  0  0  0  0
  1  2  1  0  0  0  0
  2  3  1  0  0  0  0
  2  4  1  0  0  0  0
  2  5  1  0  0  0  0
  5  6  2  0  0  0  0
  5  7  1  0  0  0  0
  7  8  1  0  0  0  0
  7  9  1  0  0  0  0
  9 10  1  0  0  0  0
  9 11  1  0  0  0  0
  9 19  1  0  0  0  0
 11 12  1  0  0  0  0
 11 13  1  0  0  0  0
 11 14  1  0  0  0  0
 14 15  2  0  0  0  0
 14 16  1  0  0  0  0
 16 17  1  0  0  0  0
 16 18  1  0  0  0  0
 19 20  2  0  0  0  0
 19 21  1  0  0  0  0
 21 22  1  0  0  0  0
 21 23  1  0  0  0  0
 23 24  1  0  0  0  0
 23 25  1  0  0  0  0
 23 26  1  0  0  0  0
M  END
$$$$

  -OEChem-04042215573D

 26 25  0     1  0  0  0  0  0999 V2000
   -2.8305   -3.9286    0.5832 H   0  0  0  0  0  0  0  0  0  0  0  0
   -2.8849   -2.9085    0.1928 C   0  0  0  0  0  0  0  0  0  0  0  0
   -3.4508   -2.2925    0.8962 H   0  0  0  0  0  0  0  0  0  0  0  0
   -3.4069   -2.9249   -0.7672 H   0  0  0  0  0  0  0  0  0  0  0  0
   -1.4890   -2.3421    0.0135 C   0  0  0  0  0  0  0  0  0  0  0  0
   -0.5062   -3.0553    0.1653 O   0  0  0  0  0  0  0  0  0  0  0  0
   -1.3172   -1.0272   -0.3666 N   0  0  0  0  0  0  0  0  0  0  0  0
   -2.1485   -0.4373   -0.4052 H   0  0  0  0  0  0  0  0  0  0  0  0
   -0.0217   -0.3376   -0.3191 C   0  0  1  0  0  0  0  0  0  0  0  0
    0.6356   -0.8883    0.3636 H   0  0  0  0  0  0  0  0  0  0  0  0
    0.5982   -0.3161   -1.7254 C   0  0  0  0  0  0  0  0  0  0  0  0
    0.1020   -1.0383   -2.3794 H   0  0  0  0  0  0  0  0  0  0  0  0
    0.4925    0.6720   -2.1841 H   0  0  0  0  0  0  0  0  0  0  0  0
    2.0648   -0.6917   -1.6290 C   0  0  0  0  0  0  0  0  0  0  0  0
    2.9486    0.1361   -1.7319 O   0  0  0  0  0  0  0  0  0  0  0  0
    2.4405   -1.9765   -1.3556 N   0  0  0  0  0  0  0  0  0  0  0  0
    3.4206   -2.1344   -1.1420 H   0  0  0  0  0  0  0  0  0  0  0  0
    1.7310   -2.6438   -1.0538 H   0  0  0  0  0  0  0  0  0  0  0  0
   -0.1424    1.0735    0.2885 C   0  0  0  0  0  0  0  0  0  0  0  0
   -1.1369    1.7462    0.0444 O   0  0  0  0  0  0  0  0  0  0  0  0
    0.7712    1.5191    1.2254 N   0  0  0  0  0  0  0  0  0  0  0  0
    1.6287    0.9836    1.3327 H   0  0  0  0  0  0  0  0  0  0  0  0
    0.7002    2.8431    1.8316 C   0  0  0  0  0  0  0  0  0  0  0  0
   -0.2568    2.9794    2.3464 H   0  0  0  0  0  0  0  0  0  0  0  0
    1.5043    2.9675    2.5634 H   0  0  0  0  0  0  0  0  0  0  0  0
    0.8033    3.6201    1.0668 H   0  0  0  0  0  0  0  0  0  0  0  0
  1  2  1  0  0  0  0
  2  3  1  0  0  0  0
  2  4  1  0  0  0  0
  2  5  1  0  0  0  0
  5  6  2  0  0  0  0
  5  7  1  0  0  0  0
  7  8  1  0  0  0  0
  7  9  1  0  0  0  0
  9 10  1  0  0  0  0
  9 11  1  0  0  0  0
  9 19  1  0  0  0  0
 11 12  1  0  0  0  0
 11 13  1  0  0  0  0
 11 14  1  0  0  0  0
 14 15  2  0  0  0  0
 14 16  1  0  0  0  0
 16 17  1  0  0  0  0
 16 18  1  0  0  0  0
 19 20  2  0  0  0  0
 19 21  1  0  0  0  0
 21 22  1  0  0  0  0
 21 23  1  0  0  0  0
 23 24  1  0  0  0  0
 23 25  1  0  0  0  0
 23 26  1  0  0  0  0
M  END
$$$$

  -OEChem-04042215573D

 26 25  0     1  0  0  0  0  0999 V2000
   -2.8149   -3.9559    0.5286 H   0  0  0  0  0  0  0  0  0  0  0  0
   -2.8789   -2.9198    0.1844 C   0  0  0  0  0  0  0  0  0  0  0  0
   -3.4187   -2.3336    0.9322 H   0  0  0  0  0  0  0  0  0  0  0  0
   -3.4324   -2.8940   -0.7574 H   0  0  0  0  0  0  0  0  0  0  0  0
   -1.4883   -2.3487   -0.0175 C   0  0  0  0  0  0  0  0  0  0  0  0
   -0.5025   -3.0644    0.0946 O   0  0  0  0  0  0  0  0  0  0  0  0
   -1.3287   -1.0281   -0.3820 N   0  0  0  0  0  0  0  0  0  0  0  0
   -2.1628   -0.4409   -0.3862 H   0  0  0  0  0  0  0  0  0  0  0  0
   -0.0368   -0.3306   -0.3501 C   0  0  1  0  0  0  0  0  0  0  0  0
    0.6298   -0.8895    0.3174 H   0  0  0  0  0  0  0  0  0  0  0  0
    0.5718   -0.2950   -1.7592 C   0  0  0  0  0  0  0  0  0  0  0  0
    0.0770   -1.0168   -2.4148 H   0  0  0  0  0  0  0  0  0  0  0  0
    0.4585    0.6951   -2.2111 H   0  0  0  0  0  0  0  0  0  0  0  0
    2.0406   -0.6602   -1.6625 C   0  0  0  0  0  0  0  0  0  0  0  0
    2.8950    0.1878   -1.4923 O   0  0  0  0  0  0  0  0  0  0  0  0
    2.4342   -1.9644   -1.5724 N   0  0  0  0  0  0  0  0  0  0  0  0
    3.3870   -2.1206   -1.2573 H   0  0  0  0  0  0  0  0  0  0  0  0
    1.7191   -2.6647   -1.3823 H   0  0  0  0  0  0  0  0  0  0  0  0
   -0.1427    1.0725    0.2769 C   0  0  0  0  0  0  0  0  0  0  0  0
   -1.1512    1.7397    0.0784 O   0  0  0  0  0  0  0  0  0  0  0  0
    0.7942    1.5029    1.1976 N   0  0  0  0  0  0  0  0  0  0  0  0
    1.6752    0.9948    1.2280 H   0  0  0  0  0  0  0  0  0  0  0  0
    0.7341    2.8165    1.8266 C   0  0  0  0  0  0  0  0  0  0  0  0
   -0.2121    2.9424    2.3633 H   0  0  0  0  0  0  0  0  0  0  0  0
    1.5528    2.9291    2.5437 H   0  0  0  0  0  0  0  0  0  0  0  0
    0.8202    3.6064    1.0732 H   0  0  0  0  0  0  0  0  0  0  0  0
  1  2  1  0  0  0  0
  2  3  1  0  0  0  0
  2  4  1  0  0  0  0
  2  5  1  0  0  0  0
  5  6  2  0  0  0  0
  5  7  1  0  0  0  0
  7  8  1  0  0  0  0
  7  9  1  0  0  0  0
  9 10  1  0  0  0  0
  9 11  1  0  0  0  0
  9 19  1  0  0  0  0
 11 12  1  0  0  0  0
 11 13  1  0  0  0  0
 11 14  1  0  0  0  0
 14 15  2  0  0  0  0
 14 16  1  0  0  0  0
 16 17  1  0  0  0  0
 16 18  1  0  0  0  0
 19 20  2  0  0  0  0
 19 21  1  0  0  0  0
 21 22  1  0  0  0  0
 21 23  1  0  0  0  0
 23 24  1  0  0  0  0
 23 25  1  0  0  0  0
 23 26  1  0  0  0  0
M  END
$$$$

  -OEChem-04042215573D

 26 25  0     1  0  0  0  0  0999 V2000
   -2.8018   -3.9780    0.4804 H   0  0  0  0  0  0  0  0  0  0  0  0
   -2.8742   -2.9277    0.1850 C   0  0  0  0  0  0  0  0  0  0  0  0
   -3.3857   -2.3743    0.9764 H   0  0  0  0  0  0  0  0  0  0  0  0
   -3.4602   -2.8593   -0.7348 H   0  0  0  0  0  0  0  0  0  0  0  0
   -1.4892   -2.3511   -0.0397 C   0  0  0  0  0  0  0  0  0  0  0  0
   -0.5018   -3.0681    0.0403 O   0  0  0  0  0  0  0  0  0  0  0  0
   -1.3401   -1.0255   -0.3911 N   0  0  0  0  0  0  0  0  0  0  0  0
   -2.1769   -0.4429   -0.3698 H   0  0  0  0  0  0  0  0  0  0  0  0
   -0.0531   -0.3172   -0.3667 C   0  0  1  0  0  0  0  0  0  0  0  0
    0.6184   -0.8805    0.2924 H   0  0  0  0  0  0  0  0  0  0  0  0
    0.5569   -0.2703   -1.7744 C   0  0  0  0  0  0  0  0  0  0  0  0
    0.0672   -0.9934   -2.4322 H   0  0  0  0  0  0  0  0  0  0  0  0
    0.4362    0.7204   -2.2230 H   0  0  0  0  0  0  0  0  0  0  0  0
    2.0300   -0.6207   -1.6735 C   0  0  0  0  0  0  0  0  0  0  0  0
    2.8336    0.1809   -1.2349 O   0  0  0  0  0  0  0  0  0  0  0  0
    2.4674   -1.9045   -1.8259 N   0  0  0  0  0  0  0  0  0  0  0  0
    3.3940   -2.0948   -1.4561 H   0  0  0  0  0  0  0  0  0  0  0  0
    1.7667   -2.6421   -1.8125 H   0  0  0  0  0  0  0  0  0  0  0  0
   -0.1526    1.0797    0.2743 C   0  0  0  0  0  0  0  0  0  0  0  0
   -1.1677    1.7446    0.1020 O   0  0  0  0  0  0  0  0  0  0  0  0
    0.7993    1.4988    1.1842 N   0  0  0  0  0  0  0  0  0  0  0  0
    1.6910    1.0072    1.1627 H   0  0  0  0  0  0  0  0  0  0  0  0
    0.7531    2.8081    1.8229 C   0  0  0  0  0  0  0  0  0  0  0  0
   -0.1792    2.9289    2.3845 H   0  0  0  0  0  0  0  0  0  0  0  0
    1.5899    2.9175    2.5195 H   0  0  0  0  0  0  0  0  0  0  0  0
    0.8190    3.6031    1.0727 H   0  0  0  0  0  0  0  0  0  0  0  0
  1  2  1  0  0  0  0
  2  3  1  0  0  0  0
  2  4  1  0  0  0  0
  2  5  1  0  0  0  0
  5  6  2  0  0  0  0
  5  7  1  0  0  0  0
  7  8  1  0  0  0  0
  7  9  1  0  0  0  0
  9 10  1  0  0  0  0
  9 11  1  0  0  0  0
  9 19  1  0  0  0  0
 11 12  1  0  0  0  0
 11 13  1  0  0  0  0
 11 14  1  0  0  0  0
 14 15  2  0  0  0  0
 14 16  1  0  0  0  0
 16 17  1  0  0  0  0
 16 18  1  0  0  0  0
 19 20  2  0  0  0  0
 19 21  1  0  0  0  0
 21 22  1  0  0  0  0
 21 23  1  0  0  0  0
 23 24  1  0  0  0  0
 23 25  1  0  0  0  0
 23 26  1  0  0  0  0
M  END
$$$$

  -OEChem-04042215573D

 26 25  0     1  0  0  0  0  0999 V2000
   -2.8139   -3.9637    0.5362 H   0  0  0  0  0  0  0  0  0  0  0  0
   -2.8832   -2.9282    0.1912 C   0  0  0  0  0  0  0  0  0  0  0  0
   -3.4189   -2.3428    0.9425 H   0  0  0  0  0  0  0  0  0  0  0  0
   -3.4440   -2.9047   -0.7464 H   0  0  0  0  0  0  0  0  0  0  0  0
   -1.4954   -2.3533   -0.0213 C   0  0  0  0  0  0  0  0  0  0  0  0
   -0.5110   -3.0703    0.0793 O   0  0  0  0  0  0  0  0  0  0  0  0
   -1.3443   -1.0281   -0.3731 N   0  0  0  0  0  0  0  0  0  0  0  0
   -2.1837   -0.4490   -0.3635 H   0  0  0  0  0  0  0  0  0  0  0  0
   -0.0608   -0.3118   -0.3514 C   0  0  1  0  0  0  0  0  0  0  0  0
    0.6130   -0.8739    0.3069 H   0  0  0  0  0  0  0  0  0  0  0  0
    0.5557   -0.2567   -1.7576 C   0  0  0  0  0  0  0  0  0  0  0  0
    0.0688   -0.9819   -2.4146 H   0  0  0  0  0  0  0  0  0  0  0  0
    0.4269    0.7334   -2.2044 H   0  0  0  0  0  0  0  0  0  0  0  0
    2.0346   -0.5935   -1.6670 C   0  0  0  0  0  0  0  0  0  0  0  0
    2.7872    0.0870   -0.9926 O   0  0  0  0  0  0  0  0  0  0  0  0
    2.5395   -1.7665   -2.1481 N   0  0  0  0  0  0  0  0  0  0  0  0
    3.4547   -2.0226   -1.7891 H   0  0  0  0  0  0  0  0  0  0  0  0
    1.8778   -2.4995   -2.3859 H   0  0  0  0  0  0  0  0  0  0  0  0
   -0.1645    1.0849    0.2873 C   0  0  0  0  0  0  0  0  0  0  0  0
   -1.1793    1.7498    0.1118 O   0  0  0  0  0  0  0  0  0  0  0  0
    0.7899    1.5048    1.1934 N   0  0  0  0  0  0  0  0  0  0  0  0
    1.6823    1.0128    1.1610 H   0  0  0  0  0  0  0  0  0  0  0  0
    0.7509    2.8173    1.8256 C   0  0  0  0  0  0  0  0  0  0  0  0
   -0.1884    2.9533    2.3719 H   0  0  0  0  0  0  0  0  0  0  0  0
    1.5778    2.9185    2.5351 H   0  0  0  0  0  0  0  0  0  0  0  0
    0.8387    3.6077    1.0731 H   0  0  0  0  0  0  0  0  0  0  0  0
  1  2  1  0  0  0  0
  2  3  1  0  0  0  0
  2  4  1  0  0  0  0
  2  5  1  0  0  0  0
  5  6  2  0  0  0  0
  5  7  1  0  0  0  0
  7  8  1  0  0  0  0
  7  9  1  0  0  0  0
  9 10  1  0  0  0  0
  9 11  1  0  0  0  0
  9 19  1  0  0  0  0
 11 12  1  0  0  0  0
 11 13  1  0  0  0  0
 11 14  1  0  0  0  0
 14 15  2  0  0  0  0
 14 16  1  0  0  0  0
 16 17  1  0  0  0  0
 16 18  1  0  0  0  0
 19 20  2  0  0  0  0
 19 21  1  0  0  0  0
 21 22  1  0  0  0  0
 21 23  1  0  0  0  0
 23 24  1  0  0  0  0
 23 25  1  0  0  0  0
 23 26  1  0  0  0  0
M  END
$$$$

  -OEChem-04042215573D

 26 25  0     1  0  0  0  0  0999 V2000
   -2.8427   -3.9606    0.5533 H   0  0  0  0  0  0  0  0  0  0  0  0
   -2.9030   -2.9273    0.2001 C   0  0  0  0  0  0  0  0  0  0  0  0
   -3.4515   -2.3354    0.9371 H   0  0  0  0  0  0  0  0  0  0  0  0
   -3.4455   -2.9092   -0.7482 H   0  0  0  0  0  0  0  0  0  0  0  0
   -1.5101   -2.3568    0.0109 C   0  0  0  0  0  0  0  0  0  0  0  0
   -0.5304   -3.0735    0.1458 O   0  0  0  0  0  0  0  0  0  0  0  0
   -1.3529   -1.0346   -0.3500 N   0  0  0  0  0  0  0  0  0  0  0  0
   -2.1936   -0.4581   -0.3633 H   0  0  0  0  0  0  0  0  0  0  0  0
   -0.0716   -0.3140   -0.3226 C   0  0  1  0  0  0  0  0  0  0  0  0
    0.5922   -0.8730    0.3479 H   0  0  0  0  0  0  0  0  0  0  0  0
    0.5634   -0.2709   -1.7235 C   0  0  0  0  0  0  0  0  0  0  0  0
    0.0825   -1.0084   -2.3712 H   0  0  0  0  0  0  0  0  0  0  0  0
    0.4277    0.7120   -2.1837 H   0  0  0  0  0  0  0  0  0  0  0  0
    2.0475   -0.5972   -1.6379 C   0  0  0  0  0  0  0  0  0  0  0  0
    2.7544   -0.0955   -0.7802 O   0  0  0  0  0  0  0  0  0  0  0  0
    2.6349   -1.5339   -2.4383 N   0  0  0  0  0  0  0  0  0  0  0  0
    3.5549   -1.8457   -2.1402 H   0  0  0  0  0  0  0  0  0  0  0  0
    2.0324   -2.1706   -2.9499 H   0  0  0  0  0  0  0  0  0  0  0  0
   -0.1770    1.0882    0.3013 C   0  0  0  0  0  0  0  0  0  0  0  0
   -1.1786    1.7640    0.0959 O   0  0  0  0  0  0  0  0  0  0  0  0
    0.7729    1.5122    1.2097 N   0  0  0  0  0  0  0  0  0  0  0  0
    1.6550    0.9998    1.2039 H   0  0  0  0  0  0  0  0  0  0  0  0
    0.7450    2.8346    1.8205 C   0  0  0  0  0  0  0  0  0  0  0  0
   -0.1957    2.9893    2.3594 H   0  0  0  0  0  0  0  0  0  0  0  0
    1.5693    2.9386    2.5328 H   0  0  0  0  0  0  0  0  0  0  0  0
    0.8453    3.6114    1.0554 H   0  0  0  0  0  0  0  0  0  0  0  0
  1  2  1  0  0  0  0
  2  3  1  0  0  0  0
  2  4  1  0  0  0  0
  2  5  1  0  0  0  0
  5  6  2  0  0  0  0
  5  7  1  0  0  0  0
  7  8  1  0  0  0  0
  7  9  1  0  0  0  0
  9 10  1  0  0  0  0
  9 11  1  0  0  0  0
  9 19  1  0  0  0  0
 11 12  1  0  0  0  0
 11 13  1  0  0  0  0
 11 14  1  0  0  0  0
 14 15  2  0  0  0  0
 14 16  1  0  0  0  0
 16 17  1  0  0  0  0
 16 18  1  0  0  0  0
 19 20  2  0  0  0  0
 19 21  1  0  0  0  0
 21 22  1  0  0  0  0
 21 23  1  0  0  0  0
 23 24  1  0  0  0  0
 23 25  1  0  0  0  0
 23 26  1  0  0  0  0
M  END
$$$$

  -OEChem-04042215573D

 26 25  0     1  0  0  0  0  0999 V2000
   -2.8678   -3.9572    0.5716 H   0  0  0  0  0  0  0  0  0  0  0  0
   -2.9182   -2.9285    0.2039 C   0  0  0  0  0  0  0  0  0  0  0  0
   -3.4868   -2.3278    0.9179 H   0  0  0  0  0  0  0  0  0  0  0  0
   -3.4343   -2.9222   -0.7591 H   0  0  0  0  0  0  0  0  0  0  0  0
   -1.5203   -2.3607    0.0452 C   0  0  0  0  0  0  0  0  0  0  0  0
   -0.5467   -3.0762    0.2189 O   0  0  0  0  0  0  0  0  0  0  0  0
   -1.3552   -1.0430   -0.3288 N   0  0  0  0  0  0  0  0  0  0  0  0
   -2.1967   -0.4700   -0.3763 H   0  0  0  0  0  0  0  0  0  0  0  0
   -0.0755   -0.3188   -0.2960 C   0  0  1  0  0  0  0  0  0  0  0  0
    0.5760   -0.8727    0.3899 H   0  0  0  0  0  0  0  0  0  0  0  0
    0.5744   -0.2954   -1.6932 C   0  0  0  0  0  0  0  0  0  0  0  0
    0.0986   -1.0475   -2.3277 H   0  0  0  0  0  0  0  0  0  0  0  0
    0.4287    0.6782   -2.1700 H   0  0  0  0  0  0  0  0  0  0  0  0
    2.0639   -0.6124   -1.6253 C   0  0  0  0  0  0  0  0  0  0  0  0
    2.7407   -0.3306   -0.6506 O   0  0  0  0  0  0  0  0  0  0  0  0
    2.7138   -1.2452   -2.6457 N   0  0  0  0  0  0  0  0  0  0  0  0
    3.6440   -1.5899   -2.4260 H   0  0  0  0  0  0  0  0  0  0  0  0
    2.1597   -1.7084   -3.3582 H   0  0  0  0  0  0  0  0  0  0  0  0
   -0.1824    1.0912    0.3077 C   0  0  0  0  0  0  0  0  0  0  0  0
   -1.1685    1.7779    0.0672 O   0  0  0  0  0  0  0  0  0  0  0  0
    0.7611    1.5230    1.2191 N   0  0  0  0  0  0  0  0  0  0  0  0
    1.6233    0.9802    1.2668 H   0  0  0  0  0  0  0  0  0  0  0  0
    0.7390    2.8511    1.8179 C   0  0  0  0  0  0  0  0  0  0  0  0
   -0.2037    3.0167    2.3500 H   0  0  0  0  0  0  0  0  0  0  0  0
    1.5602    2.9556    2.5336 H   0  0  0  0  0  0  0  0  0  0  0  0
    0.8492    3.6207    1.0469 H   0  0  0  0  0  0  0  0  0  0  0  0
  1  2  1  0  0  0  0
  2  3  1  0  0  0  0
  2  4  1  0  0  0  0
  2  5  1  0  0  0  0
  5  6  2  0  0  0  0
  5  7  1  0  0  0  0
  7  8  1  0  0  0  0
  7  9  1  0  0  0  0
  9 10  1  0  0  0  0
  9 11  1  0  0  0  0
  9 19  1  0  0  0  0
 11 12  1  0  0  0  0
 11 13  1  0  0  0  0
 11 14  1  0  0  0  0
 14 15  2  0  0  0  0
 14 16  1  0  0  0  0
 16 17  1  0  0  0  0
 16 18  1  0  0  0  0
 19 20  2  0  0  0  0
 19 21  1  0  0  0  0
 21 22  1  0  0  0  0
 21 23  1  0  0  0  0
 23 24  1  0  0  0  0
 23 25  1  0  0  0  0
 23 26  1  0  0  0  0
M  END
$$$$

  -OEChem-04042215573D

 26 25  0     1  0  0  0  0  0999 V2000
   -2.8826   -3.9599    0.5588 H   0  0  0  0  0  0  0  0  0  0  0  0
   -2.9234   -2.9275    0.1998 C   0  0  0  0  0  0  0  0  0  0  0  0
   -3.5039   -2.3317    0.9084 H   0  0  0  0  0  0  0  0  0  0  0  0
   -3.4210   -2.9113   -0.7727 H   0  0  0  0  0  0  0  0  0  0  0  0
   -1.5213   -2.3619    0.0732 C   0  0  0  0  0  0  0  0  0  0  0  0
   -0.5547   -3.0744    0.2896 O   0  0  0  0  0  0  0  0  0  0  0  0
   -1.3461   -1.0490   -0.3135 N   0  0  0  0  0  0  0  0  0  0  0  0
   -2.1865   -0.4788   -0.3962 H   0  0  0  0  0  0  0  0  0  0  0  0
   -0.0669   -0.3233   -0.2744 C   0  0  1  0  0  0  0  0  0  0  0  0
    0.5750   -0.8713    0.4245 H   0  0  0  0  0  0  0  0  0  0  0  0
    0.5898   -0.3140   -1.6712 C   0  0  0  0  0  0  0  0  0  0  0  0
    0.1150   -1.0742   -2.2971 H   0  0  0  0  0  0  0  0  0  0  0  0
    0.4364    0.6542   -2.1562 H   0  0  0  0  0  0  0  0  0  0  0  0
    2.0823   -0.6268   -1.6281 C   0  0  0  0  0  0  0  0  0  0  0  0
    2.7382   -0.5952   -0.6013 O   0  0  0  0  0  0  0  0  0  0  0  0
    2.7724   -0.9494   -2.7610 N   0  0  0  0  0  0  0  0  0  0  0  0
    3.7084   -1.3178   -2.6177 H   0  0  0  0  0  0  0  0  0  0  0  0
    2.2513   -1.1986   -3.5948 H   0  0  0  0  0  0  0  0  0  0  0  0
   -0.1788    1.0935    0.3104 C   0  0  0  0  0  0  0  0  0  0  0  0
   -1.1493    1.7880    0.0323 O   0  0  0  0  0  0  0  0  0  0  0  0
    0.7541    1.5366    1.2274 N   0  0  0  0  0  0  0  0  0  0  0  0
    1.5906    0.9654    1.3435 H   0  0  0  0  0  0  0  0  0  0  0  0
    0.7234    2.8671    1.8201 C   0  0  0  0  0  0  0  0  0  0  0  0
   -0.2210    3.0291    2.3502 H   0  0  0  0  0  0  0  0  0  0  0  0
    1.5432    2.9802    2.5360 H   0  0  0  0  0  0  0  0  0  0  0  0
    0.8297    3.6343    1.0462 H   0  0  0  0  0  0  0  0  0  0  0  0
  1  2  1  0  0  0  0
  2  3  1  0  0  0  0
  2  4  1  0  0  0  0
  2  5  1  0  0  0  0
  5  6  2  0  0  0  0
  5  7  1  0  0  0  0
  7  8  1  0  0  0  0
  7  9  1  0  0  0  0
  9 10  1  0  0  0  0
  9 11  1  0  0  0  0
  9 19  1  0  0  0  0
 11 12  1  0  0  0  0
 11 13  1  0  0  0  0
 11 14  1  0  0  0  0
 14 15  2  0  0  0  0
 14 16  1  0  0  0  0
 16 17  1  0  0  0  0
 16 18  1  0  0  0  0
 19 20  2  0  0  0  0
 19 21  1  0  0  0  0
 21 22  1  0  0  0  0
 21 23  1  0  0  0  0
 23 24  1  0  0  0  0
 23 25  1  0  0  0  0
 23 26  1  0  0  0  0
M  END
$$$$

  -OEChem-04042215573D

 26 25  0     1  0  0  0  0  0999 V2000
   -2.8857   -3.9537    0.5552 H   0  0  0  0  0  0  0  0  0  0  0  0
   -2.9173   -2.9244    0.1870 C   0  0  0  0  0  0  0  0  0  0  0  0
   -3.5182   -2.3239    0.8742 H   0  0  0  0  0  0  0  0  0  0  0  0
   -3.3868   -2.9169   -0.7996 H   0  0  0  0  0  0  0  0  0  0  0  0
   -1.5128   -2.3579    0.0958 C   0  0  0  0  0  0  0  0  0  0  0  0
   -0.5540   -3.0651    0.3572 O   0  0  0  0  0  0  0  0  0  0  0  0
   -1.3289   -1.0489   -0.3006 N   0  0  0  0  0  0  0  0  0  0  0  0
   -2.1673   -0.4824   -0.4199 H   0  0  0  0  0  0  0  0  0  0  0  0
   -0.0490   -0.3244   -0.2558 C   0  0  1  0  0  0  0  0  0  0  0  0
    0.5914   -0.8666    0.4483 H   0  0  0  0  0  0  0  0  0  0  0  0
    0.6039   -0.3194   -1.6563 C   0  0  0  0  0  0  0  0  0  0  0  0
    0.1240   -1.0781   -2.2802 H   0  0  0  0  0  0  0  0  0  0  0  0
    0.4457    0.6492   -2.1387 H   0  0  0  0  0  0  0  0  0  0  0  0
    2.0974   -0.6338   -1.6390 C   0  0  0  0  0  0  0  0  0  0  0  0
    2.7295   -0.8662   -0.6246 O   0  0  0  0  0  0  0  0  0  0  0  0
    2.8196   -0.6720   -2.7968 N   0  0  0  0  0  0  0  0  0  0  0  0
    3.7516   -1.0699   -2.7217 H   0  0  0  0  0  0  0  0  0  0  0  0
    2.3240   -0.7024   -3.6813 H   0  0  0  0  0  0  0  0  0  0  0  0
   -0.1705    1.0969    0.3160 C   0  0  0  0  0  0  0  0  0  0  0  0
   -1.1256    1.7972    0.0016 O   0  0  0  0  0  0  0  0  0  0  0  0
    0.7498    1.5521    1.2402 N   0  0  0  0  0  0  0  0  0  0  0  0
    1.5566    0.9580    1.4251 H   0  0  0  0  0  0  0  0  0  0  0  0
    0.7005    2.8818    1.8337 C   0  0  0  0  0  0  0  0  0  0  0  0
   -0.2481    3.0316    2.3598 H   0  0  0  0  0  0  0  0  0  0  0  0
    1.5162    3.0049    2.5527 H   0  0  0  0  0  0  0  0  0  0  0  0
    0.8005    3.6503    1.0603 H   0  0  0  0  0  0  0  0  0  0  0  0
  1  2  1  0  0  0  0
  2  3  1  0  0  0  0
  2  4  1  0  0  0  0
  2  5  1  0  0  0  0
  5  6  2  0  0  0  0
  5  7  1  0  0  0  0
  7  8  1  0  0  0  0
  7  9  1  0  0  0  0
  9 10  1  0  0  0  0
  9 11  1  0  0  0  0
  9 19  1  0  0  0  0
 11 12  1  0  0  0  0
 11 13  1  0  0  0  0
 11 14  1  0  0  0  0
 14 15  2  0  0  0  0
 14 16  1  0  0  0  0
 16 17  1  0  0  0  0
 16 18  1  0  0  0  0
 19 20  2  0  0  0  0
 19 21  1  0  0  0  0
 21 22  1  0  0  0  0
 21 23  1  0  0  0  0
 23 24  1  0  0  0  0
 23 25  1  0  0  0  0
 23 26  1  0  0  0  0
M  END
$$$$

  -OEChem-04042215573D

 26 25  0     1  0  0  0  0  0999 V2000
   -2.8959   -3.9424    0.5539 H   0  0  0  0  0  0  0  0  0  0  0  0
   -2.9132   -2.9183    0.1704 C   0  0  0  0  0  0  0  0  0  0  0  0
   -3.5379   -2.3077    0.8268 H   0  0  0  0  0  0  0  0  0  0  0  0
   -3.3468   -2.9247   -0.8324 H   0  0  0  0  0  0  0  0  0  0  0  0
   -1.5055   -2.3541    0.1219 C   0  0  0  0  0  0  0  0  0  0  0  0
   -0.5590   -3.0561    0.4356 O   0  0  0  0  0  0  0  0  0  0  0  0
   -1.3074   -1.0496   -0.2829 N   0  0  0  0  0  0  0  0  0  0  0  0
   -2.1403   -0.4849   -0.4420 H   0  0  0  0  0  0  0  0  0  0  0  0
   -0.0243   -0.3305   -0.2360 C   0  0  1  0  0  0  0  0  0  0  0  0
    0.6225   -0.8686    0.4654 H   0  0  0  0  0  0  0  0  0  0  0  0
    0.6153   -0.3231   -1.6441 C   0  0  0  0  0  0  0  0  0  0  0  0
    0.1268   -1.0754   -2.2691 H   0  0  0  0  0  0  0  0  0  0  0  0
    0.4557    0.6492   -2.1189 H   0  0  0  0  0  0  0  0  0  0  0  0
    2.1068   -0.6457   -1.6494 C   0  0  0  0  0  0  0  0  0  0  0  0
    2.7026   -1.1380   -0.7101 O   0  0  0  0  0  0  0  0  0  0  0  0
    2.8686   -0.4057   -2.7566 N   0  0  0  0  0  0  0  0  0  0  0  0
    3.7956   -0.8220   -2.7521 H   0  0  0  0  0  0  0  0  0  0  0  0
    2.4045   -0.2065   -3.6364 H   0  0  0  0  0  0  0  0  0  0  0  0
   -0.1572    1.0947    0.3256 C   0  0  0  0  0  0  0  0  0  0  0  0
   -1.1002    1.7963   -0.0207 O   0  0  0  0  0  0  0  0  0  0  0  0
    0.7491    1.5651    1.2564 N   0  0  0  0  0  0  0  0  0  0  0  0
    1.5258    0.9554    1.5048 H   0  0  0  0  0  0  0  0  0  0  0  0
    0.6763    2.8953    1.8478 C   0  0  0  0  0  0  0  0  0  0  0  0
   -0.2813    3.0359    2.3601 H   0  0  0  0  0  0  0  0  0  0  0  0
    1.4803    3.0282    2.5783 H   0  0  0  0  0  0  0  0  0  0  0  0
    0.7795    3.6644    1.0753 H   0  0  0  0  0  0  0  0  0  0  0  0
  1  2  1  0  0  0  0
  2  3  1  0  0  0  0
  2  4  1  0  0  0  0
  2  5  1  0  0  0  0
  5  6  2  0  0  0  0
  5  7  1  0  0  0  0
  7  8  1  0  0  0  0
  7  9  1  0  0  0  0
  9 10  1  0  0  0  0
  9 11  1  0  0  0  0
  9 19  1  0  0  0  0
 11 12  1  0  0  0  0
 11 13  1  0  0  0  0
 11 14  1  0  0  0  0
 14 15  2  0  0  0  0
 14 16  1  0  0  0  0
 16 17  1  0  0  0  0
 16 18  1  0  0  0  0
 19 20  2  0  0  0  0
 19 21  1  0  0  0  0
 21 22  1  0  0  0  0
 21 23  1  0  0  0  0
 23 24  1  0  0  0  0
 23 25  1  0  0  0  0
 23 26  1  0  0  0  0
M  END
$$$$

  -OEChem-04042215573D

 26 25  0     1  0  0  0  0  0999 V2000
   -2.9026   -3.9426    0.5443 H   0  0  0  0  0  0  0  0  0  0  0  0
   -2.9135   -2.9171    0.1647 C   0  0  0  0  0  0  0  0  0  0  0  0
   -3.5494   -2.3093    0.8128 H   0  0  0  0  0  0  0  0  0  0  0  0
   -3.3297   -2.9199   -0.8455 H   0  0  0  0  0  0  0  0  0  0  0  0
   -1.5055   -2.3522    0.1436 C   0  0  0  0  0  0  0  0  0  0  0  0
   -0.5691   -3.0447    0.5035 O   0  0  0  0  0  0  0  0  0  0  0  0
   -1.2996   -1.0519   -0.2701 N   0  0  0  0  0  0  0  0  0  0  0  0
   -2.1281   -0.4916   -0.4636 H   0  0  0  0  0  0  0  0  0  0  0  0
   -0.0133   -0.3383   -0.2290 C   0  0  1  0  0  0  0  0  0  0  0  0
    0.6431   -0.8740    0.4660 H   0  0  0  0  0  0  0  0  0  0  0  0
    0.6131   -0.3289   -1.6430 C   0  0  0  0  0  0  0  0  0  0  0  0
    0.1190   -1.0775   -2.2681 H   0  0  0  0  0  0  0  0  0  0  0  0
    0.4530    0.6451   -2.1145 H   0  0  0  0  0  0  0  0  0  0  0  0
    2.1016   -0.6600   -1.6519 C   0  0  0  0  0  0  0  0  0  0  0  0
    2.6404   -1.3839   -0.8377 O   0  0  0  0  0  0  0  0  0  0  0  0
    2.9296   -0.1452   -2.6078 N   0  0  0  0  0  0  0  0  0  0  0  0
    3.8584   -0.5549   -2.6548 H   0  0  0  0  0  0  0  0  0  0  0  0
    2.5218    0.2888   -3.4291 H   0  0  0  0  0  0  0  0  0  0  0  0
   -0.1489    1.0903    0.3245 C   0  0  0  0  0  0  0  0  0  0  0  0
   -1.0808    1.7966   -0.0415 O   0  0  0  0  0  0  0  0  0  0  0  0
    0.7547    1.5681    1.2545 N   0  0  0  0  0  0  0  0  0  0  0  0
    1.5055    0.9451    1.5444 H   0  0  0  0  0  0  0  0  0  0  0  0
    0.6705    2.8970    1.8472 C   0  0  0  0  0  0  0  0  0  0  0  0
   -0.2890    3.0291    2.3582 H   0  0  0  0  0  0  0  0  0  0  0  0
    1.4726    3.0357    2.5787 H   0  0  0  0  0  0  0  0  0  0  0  0
    0.7685    3.6676    1.0754 H   0  0  0  0  0  0  0  0  0  0  0  0
  1  2  1  0  0  0  0
  2  3  1  0  0  0  0
  2  4  1  0  0  0  0
  2  5  1  0  0  0  0
  5  6  2  0  0  0  0
  5  7  1  0  0  0  0
  7  8  1  0  0  0  0
  7  9  1  0  0  0  0
  9 10  1  0  0  0  0
  9 11  1  0  0  0  0
  9 19  1  0  0  0  0
 11 12  1  0  0  0  0
 11 13  1  0  0  0  0
 11 14  1  0  0  0  0
 14 15  2  0  0  0  0
 14 16  1  0  0  0  0
 16 17  1  0  0  0  0
 16 18  1  0  0  0  0
 19 20  2  0  0  0  0
 19 21  1  0  0  0  0
 21 22  1  0  0  0  0
 21 23  1  0  0  0  0
 23 24  1  0  0  0  0
 23 25  1  0  0  0  0
 23 26  1  0  0  0  0
M  END
$$$$

  -OEChem-04042215573D

 26 25  0     1  0  0  0  0  0999 V2000
   -2.9042   -3.9566    0.5167 H   0  0  0  0  0  0  0  0  0  0  0  0
   -2.9135   -2.9261    0.1503 C   0  0  0  0  0  0  0  0  0  0  0  0
   -3.5692   -2.3307    0.7903 H   0  0  0  0  0  0  0  0  0  0  0  0
   -3.3058   -2.9190   -0.8694 H   0  0  0  0  0  0  0  0  0  0  0  0
   -1.5092   -2.3517    0.1693 C   0  0  0  0  0  0  0  0  0  0  0  0
   -0.5825   -3.0305    0.5773 O   0  0  0  0  0  0  0  0  0  0  0  0
   -1.2985   -1.0545   -0.2521 N   0  0  0  0  0  0  0  0  0  0  0  0
   -2.1221   -0.5030   -0.4865 H   0  0  0  0  0  0  0  0  0  0  0  0
   -0.0091   -0.3462   -0.2236 C   0  0  1  0  0  0  0  0  0  0  0  0
    0.6614   -0.8822    0.4583 H   0  0  0  0  0  0  0  0  0  0  0  0
    0.5974   -0.3330   -1.6451 C   0  0  0  0  0  0  0  0  0  0  0  0
    0.0964   -1.0792   -2.2676 H   0  0  0  0  0  0  0  0  0  0  0  0
    0.4366    0.6416   -2.1149 H   0  0  0  0  0  0  0  0  0  0  0  0
    2.0824   -0.6727   -1.6541 C   0  0  0  0  0  0  0  0  0  0  0  0
    2.5624   -1.5898   -1.0188 O   0  0  0  0  0  0  0  0  0  0  0  0
    2.9765    0.0776   -2.3628 N   0  0  0  0  0  0  0  0  0  0  0  0
    3.9115   -0.3116   -2.4464 H   0  0  0  0  0  0  0  0  0  0  0  0
    2.6298    0.7257   -3.0620 H   0  0  0  0  0  0  0  0  0  0  0  0
   -0.1408    1.0851    0.3247 C   0  0  0  0  0  0  0  0  0  0  0  0
   -1.0630    1.7975   -0.0540 O   0  0  0  0  0  0  0  0  0  0  0  0
    0.7675    1.5676    1.2477 N   0  0  0  0  0  0  0  0  0  0  0  0
    1.5008    0.9362    1.5621 H   0  0  0  0  0  0  0  0  0  0  0  0
    0.6836    2.8997    1.8330 C   0  0  0  0  0  0  0  0  0  0  0  0
   -0.2625    3.0229    2.3706 H   0  0  0  0  0  0  0  0  0  0  0  0
    1.5051    3.0550    2.5390 H   0  0  0  0  0  0  0  0  0  0  0  0
    0.7487    3.6655    1.0531 H   0  0  0  0  0  0  0  0  0  0  0  0
  1  2  1  0  0  0  0
  2  3  1  0  0  0  0
  2  4  1  0  0  0  0
  2  5  1  0  0  0  0
  5  6  2  0  0  0  0
  5  7  1  0  0  0  0
  7  8  1  0  0  0  0
  7  9  1  0  0  0  0
  9 10  1  0  0  0  0
  9 11  1  0  0  0  0
  9 19  1  0  0  0  0
 11 12  1  0  0  0  0
 11 13  1  0  0  0  0
 11 14  1  0  0  0  0
 14 15  2  0  0  0  0
 14 16  1  0  0  0  0
 16 17  1  0  0  0  0
 16 18  1  0  0  0  0
 19 20  2  0  0  0  0
 19 21  1  0  0  0  0
 21 22  1  0  0  0  0
 21 23  1  0  0  0  0
 23 24  1  0  0  0  0
 23 25  1  0  0  0  0
 23 26  1  0  0  0  0
M  END
$$$$

  -OEChem-04042215573D

 26 25  0     1  0  0  0  0  0999 V2000
   -2.8954   -3.9703    0.5027 H   0  0  0  0  0  0  0  0  0  0  0  0
   -2.9084   -2.9394    0.1377 C   0  0  0  0  0  0  0  0  0  0  0  0
   -3.5813   -2.3513    0.7663 H   0  0  0  0  0  0  0  0  0  0  0  0
   -3.2818   -2.9347   -0.8890 H   0  0  0  0  0  0  0  0  0  0  0  0
   -1.5105   -2.3512    0.1836 C   0  0  0  0  0  0  0  0  0  0  0  0
   -0.5881   -3.0139    0.6267 O   0  0  0  0  0  0  0  0  0  0  0  0
   -1.3022   -1.0550   -0.2426 N   0  0  0  0  0  0  0  0  0  0  0  0
   -2.1235   -0.5147   -0.5082 H   0  0  0  0  0  0  0  0  0  0  0  0
   -0.0121   -0.3479   -0.2260 C   0  0  1  0  0  0  0  0  0  0  0  0
    0.6690   -0.8861    0.4441 H   0  0  0  0  0  0  0  0  0  0  0  0
    0.5785   -0.3332   -1.6527 C   0  0  0  0  0  0  0  0  0  0  0  0
    0.0760   -1.0816   -2.2717 H   0  0  0  0  0  0  0  0  0  0  0  0
    0.4164    0.6391   -2.1264 H   0  0  0  0  0  0  0  0  0  0  0  0
    2.0605   -0.6766   -1.6538 C   0  0  0  0  0  0  0  0  0  0  0  0
    2.4936   -1.7318   -1.2381 O   0  0  0  0  0  0  0  0  0  0  0  0
    2.9995    0.2316   -2.0515 N   0  0  0  0  0  0  0  0  0  0  0  0
    3.9439   -0.1282   -2.1592 H   0  0  0  0  0  0  0  0  0  0  0  0
    2.7022    1.0473   -2.5769 H   0  0  0  0  0  0  0  0  0  0  0  0
   -0.1363    1.0852    0.3203 C   0  0  0  0  0  0  0  0  0  0  0  0
   -1.0499    1.8053   -0.0642 O   0  0  0  0  0  0  0  0  0  0  0  0
    0.7813    1.5673    1.2347 N   0  0  0  0  0  0  0  0  0  0  0  0
    1.5004    0.9270    1.5630 H   0  0  0  0  0  0  0  0  0  0  0  0
    0.7056    2.9009    1.8181 C   0  0  0  0  0  0  0  0  0  0  0  0
   -0.2294    3.0229    2.3749 H   0  0  0  0  0  0  0  0  0  0  0  0
    1.5413    3.0606    2.5062 H   0  0  0  0  0  0  0  0  0  0  0  0
    0.7526    3.6654    1.0354 H   0  0  0  0  0  0  0  0  0  0  0  0
  1  2  1  0  0  0  0
  2  3  1  0  0  0  0
  2  4  1  0  0  0  0
  2  5  1  0  0  0  0
  5  6  2  0  0  0  0
  5  7  1  0  0  0  0
  7  8  1  0  0  0  0
  7  9  1  0  0  0  0
  9 10  1  0  0  0  0
  9 11  1  0  0  0  0
  9 19  1  0  0  0  0
 11 12  1  0  0  0  0
 11 13  1  0  0  0  0
 11 14  1  0  0  0  0
 14 15  2  0  0  0  0
 14 16  1  0  0  0  0
 16 17  1  0  0  0  0
 16 18  1  0  0  0  0
 19 20  2  0  0  0  0
 19 21  1  0  0  0  0
 21 22  1  0  0  0  0
 21 23  1  0  0  0  0
 23 24  1  0  0  0  0
 23 25  1  0  0  0  0
 23 26  1  0  0  0  0
M  END
$$$$

  -OEChem-04042215573D

 26 25  0     1  0  0  0  0  0999 V2000
   -2.8837   -3.9755    0.4938 H   0  0  0  0  0  0  0  0  0  0  0  0
   -2.9003   -2.9441    0.1302 C   0  0  0  0  0  0  0  0  0  0  0  0
   -3.5851   -2.3621    0.7517 H   0  0  0  0  0  0  0  0  0  0  0  0
   -3.2618   -2.9408   -0.9009 H   0  0  0  0  0  0  0  0  0  0  0  0
   -1.5075   -2.3456    0.1926 C   0  0  0  0  0  0  0  0  0  0  0  0
   -0.5868   -2.9970    0.6563 O   0  0  0  0  0  0  0  0  0  0  0  0
   -1.3015   -1.0504   -0.2378 N   0  0  0  0  0  0  0  0  0  0  0  0
   -2.1203   -0.5177   -0.5254 H   0  0  0  0  0  0  0  0  0  0  0  0
   -0.0106   -0.3461   -0.2284 C   0  0  1  0  0  0  0  0  0  0  0  0
    0.6762   -0.8853    0.4353 H   0  0  0  0  0  0  0  0  0  0  0  0
    0.5701   -0.3316   -1.6580 C   0  0  0  0  0  0  0  0  0  0  0  0
    0.0642   -1.0801   -2.2746 H   0  0  0  0  0  0  0  0  0  0  0  0
    0.4120    0.6399   -2.1343 H   0  0  0  0  0  0  0  0  0  0  0  0
    2.0490   -0.6797   -1.6530 C   0  0  0  0  0  0  0  0  0  0  0  0
    2.4543   -1.8118   -1.4887 O   0  0  0  0  0  0  0  0  0  0  0  0
    3.0058    0.2914   -1.7355 N   0  0  0  0  0  0  0  0  0  0  0  0
    3.9578   -0.0391   -1.8677 H   0  0  0  0  0  0  0  0  0  0  0  0
    2.7391    1.2160   -2.0582 H   0  0  0  0  0  0  0  0  0  0  0  0
   -0.1294    1.0887    0.3158 C   0  0  0  0  0  0  0  0  0  0  0  0
   -1.0373    1.8135   -0.0723 O   0  0  0  0  0  0  0  0  0  0  0  0
    0.7928    1.5715    1.2253 N   0  0  0  0  0  0  0  0  0  0  0  0
    1.4988    0.9248    1.5684 H   0  0  0  0  0  0  0  0  0  0  0  0
    0.7108    2.9017    1.8163 C   0  0  0  0  0  0  0  0  0  0  0  0
   -0.2251    3.0167    2.3732 H   0  0  0  0  0  0  0  0  0  0  0  0
    1.5455    3.0611    2.5058 H   0  0  0  0  0  0  0  0  0  0  0  0
    0.7545    3.6707    1.0379 H   0  0  0  0  0  0  0  0  0  0  0  0
  1  2  1  0  0  0  0
  2  3  1  0  0  0  0
  2  4  1  0  0  0  0
  2  5  1  0  0  0  0
  5  6  2  0  0  0  0
  5  7  1  0  0  0  0
  7  8  1  0  0  0  0
  7  9  1  0  0  0  0
  9 10  1  0  0  0  0
  9 11  1  0  0  0  0
  9 19  1  0  0  0  0
 11 12  1  0  0  0  0
 11 13  1  0  0  0  0
 11 14  1  0  0  0  0
 14 15  2  0  0  0  0
 14 16  1  0  0  0  0
 16 17  1  0  0  0  0
 16 18  1  0  0  0  0
 19 20  2  0  0  0  0
 19 21  1  0  0  0  0
 21 22  1  0  0  0  0
 21 23  1  0  0  0  0
 23 24  1  0  0  0  0
 23 25  1  0  0  0  0
 23 26  1  0  0  0  0
M  END
$$$$

  -OEChem-04042215573D

 26 25  0     1  0  0  0  0  0999 V2000
   -2.8800   -3.9755    0.4860 H   0  0  0  0  0  0  0  0  0  0  0  0
   -2.8985   -2.9437    0.1237 C   0  0  0  0  0  0  0  0  0  0  0  0
   -3.5892   -2.3650    0.7417 H   0  0  0  0  0  0  0  0  0  0  0  0
   -3.2538   -2.9406   -0.9096 H   0  0  0  0  0  0  0  0  0  0  0  0
   -1.5084   -2.3399    0.1955 C   0  0  0  0  0  0  0  0  0  0  0  0
   -0.5880   -2.9858    0.6684 O   0  0  0  0  0  0  0  0  0  0  0  0
   -1.3013   -1.0454   -0.2365 N   0  0  0  0  0  0  0  0  0  0  0  0
   -2.1171   -0.5160   -0.5383 H   0  0  0  0  0  0  0  0  0  0  0  0
   -0.0091   -0.3441   -0.2239 C   0  0  1  0  0  0  0  0  0  0  0  0
    0.6755   -0.8834    0.4418 H   0  0  0  0  0  0  0  0  0  0  0  0
    0.5752   -0.3329   -1.6516 C   0  0  0  0  0  0  0  0  0  0  0  0
    0.0679   -1.0793   -2.2698 H   0  0  0  0  0  0  0  0  0  0  0  0
    0.4266    0.6390   -2.1307 H   0  0  0  0  0  0  0  0  0  0  0  0
    2.0523   -0.6858   -1.6340 C   0  0  0  0  0  0  0  0  0  0  0  0
    2.4529   -1.8275   -1.7307 O   0  0  0  0  0  0  0  0  0  0  0  0
    3.0066    0.2734   -1.4466 N   0  0  0  0  0  0  0  0  0  0  0  0
    3.9641   -0.0256   -1.6110 H   0  0  0  0  0  0  0  0  0  0  0  0
    2.7504    1.2468   -1.5778 H   0  0  0  0  0  0  0  0  0  0  0  0
   -0.1271    1.0915    0.3183 C   0  0  0  0  0  0  0  0  0  0  0  0
   -1.0275    1.8204   -0.0788 O   0  0  0  0  0  0  0  0  0  0  0  0
    0.7929    1.5736    1.2304 N   0  0  0  0  0  0  0  0  0  0  0  0
    1.4849    0.9208    1.5903 H   0  0  0  0  0  0  0  0  0  0  0  0
    0.7060    2.9023    1.8240 C   0  0  0  0  0  0  0  0  0  0  0  0
   -0.2317    3.0137    2.3788 H   0  0  0  0  0  0  0  0  0  0  0  0
    1.5385    3.0626    2.5160 H   0  0  0  0  0  0  0  0  0  0  0  0
    0.7495    3.6731    1.0474 H   0  0  0  0  0  0  0  0  0  0  0  0
  1  2  1  0  0  0  0
  2  3  1  0  0  0  0
  2  4  1  0  0  0  0
  2  5  1  0  0  0  0
  5  6  2  0  0  0  0
  5  7  1  0  0  0  0
  7  8  1  0  0  0  0
  7  9  1  0  0  0  0
  9 10  1  0  0  0  0
  9 11  1  0  0  0  0
  9 19  1  0  0  0  0
 11 12  1  0  0  0  0
 11 13  1  0  0  0  0
 11 14  1  0  0  0  0
 14 15  2  0  0  0  0
 14 16  1  0  0  0  0
 16 17  1  0  0  0  0
 16 18  1  0  0  0  0
 19 20  2  0  0  0  0
 19 21  1  0  0  0  0
 21 22  1  0  0  0  0
 21 23  1  0  0  0  0
 23 24  1  0  0  0  0
 23 25  1  0  0  0  0
 23 26  1  0  0  0  0
M  END
$$$$

  -OEChem-04042215573D

 26 25  0     1  0  0  0  0  0999 V2000
   -2.8947   -3.9685    0.4796 H   0  0  0  0  0  0  0  0  0  0  0  0
   -2.9084   -2.9366    0.1177 C   0  0  0  0  0  0  0  0  0  0  0  0
   -3.6001   -2.3563    0.7332 H   0  0  0  0  0  0  0  0  0  0  0  0
   -3.2591   -2.9316   -0.9172 H   0  0  0  0  0  0  0  0  0  0  0  0
   -1.5168   -2.3372    0.1966 C   0  0  0  0  0  0  0  0  0  0  0  0
   -0.6001   -2.9839    0.6760 O   0  0  0  0  0  0  0  0  0  0  0  0
   -1.3029   -1.0443   -0.2366 N   0  0  0  0  0  0  0  0  0  0  0  0
   -2.1144   -0.5139   -0.5486 H   0  0  0  0  0  0  0  0  0  0  0  0
   -0.0088   -0.3470   -0.2140 C   0  0  1  0  0  0  0  0  0  0  0  0
    0.6666   -0.8856    0.4613 H   0  0  0  0  0  0  0  0  0  0  0  0
    0.5907   -0.3458   -1.6356 C   0  0  0  0  0  0  0  0  0  0  0  0
    0.0853   -1.0923   -2.2557 H   0  0  0  0  0  0  0  0  0  0  0  0
    0.4529    0.6248   -2.1204 H   0  0  0  0  0  0  0  0  0  0  0  0
    2.0667   -0.7034   -1.6009 C   0  0  0  0  0  0  0  0  0  0  0  0
    2.4852   -1.7891   -1.9468 O   0  0  0  0  0  0  0  0  0  0  0  0
    3.0050    0.2028   -1.1947 N   0  0  0  0  0  0  0  0  0  0  0  0
    3.9675   -0.0541   -1.3973 H   0  0  0  0  0  0  0  0  0  0  0  0
    2.7434    1.1830   -1.1582 H   0  0  0  0  0  0  0  0  0  0  0  0
   -0.1266    1.0902    0.3238 C   0  0  0  0  0  0  0  0  0  0  0  0
   -1.0193    1.8226   -0.0835 O   0  0  0  0  0  0  0  0  0  0  0  0
    0.7883    1.5696    1.2429 N   0  0  0  0  0  0  0  0  0  0  0  0
    1.4619    0.9088    1.6226 H   0  0  0  0  0  0  0  0  0  0  0  0
    0.6983    2.8983    1.8365 C   0  0  0  0  0  0  0  0  0  0  0  0
   -0.2406    3.0083    2.3892 H   0  0  0  0  0  0  0  0  0  0  0  0
    1.5293    3.0599    2.5298 H   0  0  0  0  0  0  0  0  0  0  0  0
    0.7419    3.6691    1.0600 H   0  0  0  0  0  0  0  0  0  0  0  0
  1  2  1  0  0  0  0
  2  3  1  0  0  0  0
  2  4  1  0  0  0  0
  2  5  1  0  0  0  0
  5  6  2  0  0  0  0
  5  7  1  0  0  0  0
  7  8  1  0  0  0  0
  7  9  1  0  0  0  0
  9 10  1  0  0  0  0
  9 11  1  0  0  0  0
  9 19  1  0  0  0  0
 11 12  1  0  0  0  0
 11 13  1  0  0  0  0
 11 14  1  0  0  0  0
 14 15  2  0  0  0  0
 14 16  1  0  0  0  0
 16 17  1  0  0  0  0
 16 18  1  0  0  0  0
 19 20  2  0  0  0  0
 19 21  1  0  0  0  0
 21 22  1  0  0  0  0
 21 23  1  0  0  0  0
 23 24  1  0  0  0  0
 23 25  1  0  0  0  0
 23 26  1  0  0  0  0
M  END
$$$$

  -OEChem-04042215573D

 26 25  0     1  0  0  0  0  0999 V2000
   -2.9140   -3.9608    0.4763 H   0  0  0  0  0  0  0  0  0  0  0  0
   -2.9223   -2.9294    0.1124 C   0  0  0  0  0  0  0  0  0  0  0  0
   -3.6172   -2.3462    0.7215 H   0  0  0  0  0  0  0  0  0  0  0  0
   -3.2653   -2.9260   -0.9251 H   0  0  0  0  0  0  0  0  0  0  0  0
   -1.5301   -2.3330    0.1999 C   0  0  0  0  0  0  0  0  0  0  0  0
   -0.6160   -2.9833    0.6798 O   0  0  0  0  0  0  0  0  0  0  0  0
   -1.3075   -1.0426   -0.2364 N   0  0  0  0  0  0  0  0  0  0  0  0
   -2.1134   -0.5098   -0.5590 H   0  0  0  0  0  0  0  0  0  0  0  0
   -0.0098   -0.3529   -0.2040 C   0  0  1  0  0  0  0  0  0  0  0  0
    0.6549   -0.8918    0.4815 H   0  0  0  0  0  0  0  0  0  0  0  0
    0.6026   -0.3681   -1.6203 C   0  0  0  0  0  0  0  0  0  0  0  0
    0.0956   -1.1149   -2.2390 H   0  0  0  0  0  0  0  0  0  0  0  0
    0.4780    0.6006   -2.1125 H   0  0  0  0  0  0  0  0  0  0  0  0
    2.0763   -0.7352   -1.5722 C   0  0  0  0  0  0  0  0  0  0  0  0
    2.5241   -1.7087   -2.1433 O   0  0  0  0  0  0  0  0  0  0  0  0
    2.9927    0.0829   -0.9732 N   0  0  0  0  0  0  0  0  0  0  0  0
    3.9613   -0.1274   -1.1996 H   0  0  0  0  0  0  0  0  0  0  0  0
    2.7219    1.0422   -0.7802 H   0  0  0  0  0  0  0  0  0  0  0  0
   -0.1218    1.0872    0.3273 C   0  0  0  0  0  0  0  0  0  0  0  0
   -1.0017    1.8266   -0.0938 O   0  0  0  0  0  0  0  0  0  0  0  0
    0.7892    1.5622    1.2532 N   0  0  0  0  0  0  0  0  0  0  0  0
    1.4302    0.8885    1.6656 H   0  0  0  0  0  0  0  0  0  0  0  0
    0.6951    2.8903    1.8481 C   0  0  0  0  0  0  0  0  0  0  0  0
   -0.2434    2.9962    2.4024 H   0  0  0  0  0  0  0  0  0  0  0  0
    1.5267    3.0546    2.5400 H   0  0  0  0  0  0  0  0  0  0  0  0
    0.7351    3.6626    1.0727 H   0  0  0  0  0  0  0  0  0  0  0  0
  1  2  1  0  0  0  0
  2  3  1  0  0  0  0
  2  4  1  0  0  0  0
  2  5  1  0  0  0  0
  5  6  2  0  0  0  0
  5  7  1  0  0  0  0
  7  8  1  0  0  0  0
  7  9  1  0  0  0  0
  9 10  1  0  0  0  0
  9 11  1  0  0  0  0
  9 19  1  0  0  0  0
 11 12  1  0  0  0  0
 11 13  1  0  0  0  0
 11 14  1  0  0  0  0
 14 15  2  0  0  0  0
 14 16  1  0  0  0  0
 16 17  1  0  0  0  0
 16 18  1  0  0  0  0
 19 20  2  0  0  0  0
 19 21  1  0  0  0  0
 21 22  1  0  0  0  0
 21 23  1  0  0  0  0
 23 24  1  0  0  0  0
 23 25  1  0  0  0  0
 23 26  1  0  0  0  0
M  END
$$$$

  -OEChem-04042215573D

 26 25  0     1  0  0  0  0  0999 V2000
   -2.9487   -3.9492    0.4759 H   0  0  0  0  0  0  0  0  0  0  0  0
   -2.9484   -2.9185    0.1103 C   0  0  0  0  0  0  0  0  0  0  0  0
   -3.6397   -2.3290    0.7172 H   0  0  0  0  0  0  0  0  0  0  0  0
   -3.2902   -2.9142   -0.9276 H   0  0  0  0  0  0  0  0  0  0  0  0
   -1.5514   -2.3329    0.1990 C   0  0  0  0  0  0  0  0  0  0  0  0
   -0.6424   -2.9904    0.6793 O   0  0  0  0  0  0  0  0  0  0  0  0
   -1.3153   -1.0457   -0.2398 N   0  0  0  0  0  0  0  0  0  0  0  0
   -2.1148   -0.5061   -0.5673 H   0  0  0  0  0  0  0  0  0  0  0  0
   -0.0127   -0.3660   -0.1952 C   0  0  1  0  0  0  0  0  0  0  0  0
    0.6366   -0.9074    0.5024 H   0  0  0  0  0  0  0  0  0  0  0  0
    0.6172   -0.4014   -1.6043 C   0  0  0  0  0  0  0  0  0  0  0  0
    0.1096   -1.1491   -2.2214 H   0  0  0  0  0  0  0  0  0  0  0  0
    0.5068    0.5645   -2.1051 H   0  0  0  0  0  0  0  0  0  0  0  0
    2.0883   -0.7794   -1.5436 C   0  0  0  0  0  0  0  0  0  0  0  0
    2.5789   -1.5905   -2.3028 O   0  0  0  0  0  0  0  0  0  0  0  0
    2.9781   -0.0622   -0.7937 N   0  0  0  0  0  0  0  0  0  0  0  0
    3.9519   -0.2159   -1.0428 H   0  0  0  0  0  0  0  0  0  0  0  0
    2.6895    0.8557   -0.4705 H   0  0  0  0  0  0  0  0  0  0  0  0
   -0.1157    1.0771    0.3288 C   0  0  0  0  0  0  0  0  0  0  0  0
   -0.9814    1.8248   -0.1060 O   0  0  0  0  0  0  0  0  0  0  0  0
    0.7917    1.5442    1.2626 N   0  0  0  0  0  0  0  0  0  0  0  0
    1.3935    0.8565    1.7095 H   0  0  0  0  0  0  0  0  0  0  0  0
    0.6979    2.8732    1.8558 C   0  0  0  0  0  0  0  0  0  0  0  0
   -0.2437    2.9822    2.4043 H   0  0  0  0  0  0  0  0  0  0  0  0
    1.5259    3.0365    2.5525 H   0  0  0  0  0  0  0  0  0  0  0  0
    0.7447    3.6446    1.0798 H   0  0  0  0  0  0  0  0  0  0  0  0
  1  2  1  0  0  0  0
  2  3  1  0  0  0  0
  2  4  1  0  0  0  0
  2  5  1  0  0  0  0
  5  6  2  0  0  0  0
  5  7  1  0  0  0  0
  7  8  1  0  0  0  0
  7  9  1  0  0  0  0
  9 10  1  0  0  0  0
  9 11  1  0  0  0  0
  9 19  1  0  0  0  0
 11 12  1  0  0  0  0
 11 13  1  0  0  0  0
 11 14  1  0  0  0  0
 14 15  2  0  0  0  0
 14 16  1  0  0  0  0
 16 17  1  0  0  0  0
 16 18  1  0  0  0  0
 19 20  2  0  0  0  0
 19 21  1  0  0  0  0
 21 22  1  0  0  0  0
 21 23  1  0  0  0  0
 23 24  1  0  0  0  0
 23 25  1  0  0  0  0
 23 26  1  0  0  0  0
M  END
$$$$

  -OEChem-04042215573D

 26 25  0     1  0  0  0  0  0999 V2000
   -2.9952   -3.9307    0.4814 H   0  0  0  0  0  0  0  0  0  0  0  0
   -2.9807   -2.9014    0.1119 C   0  0  0  0  0  0  0  0  0  0  0  0
   -3.6620   -2.2995    0.7183 H   0  0  0  0  0  0  0  0  0  0  0  0
   -3.3248   -2.8956   -0.9252 H   0  0  0  0  0  0  0  0  0  0  0  0
   -1.5750   -2.3361    0.1957 C   0  0  0  0  0  0  0  0  0  0  0  0
   -0.6736   -3.0057    0.6739 O   0  0  0  0  0  0  0  0  0  0  0  0
   -1.3215   -1.0529   -0.2451 N   0  0  0  0  0  0  0  0  0  0  0  0
   -2.1143   -0.5022   -0.5707 H   0  0  0  0  0  0  0  0  0  0  0  0
   -0.0128   -0.3858   -0.1891 C   0  0  1  0  0  0  0  0  0  0  0  0
    0.6224   -0.9313    0.5179 H   0  0  0  0  0  0  0  0  0  0  0  0
    0.6297   -0.4372   -1.5932 C   0  0  0  0  0  0  0  0  0  0  0  0
    0.1174   -1.1823   -2.2095 H   0  0  0  0  0  0  0  0  0  0  0  0
    0.5302    0.5283   -2.0977 H   0  0  0  0  0  0  0  0  0  0  0  0
    2.0988   -0.8289   -1.5386 C   0  0  0  0  0  0  0  0  0  0  0  0
    2.6313   -1.4314   -2.4490 O   0  0  0  0  0  0  0  0  0  0  0  0
    2.9670   -0.2501   -0.6553 N   0  0  0  0  0  0  0  0  0  0  0  0
    3.9442   -0.3479   -0.9186 H   0  0  0  0  0  0  0  0  0  0  0  0
    2.6670    0.6055   -0.2005 H   0  0  0  0  0  0  0  0  0  0  0  0
   -0.1099    1.0597    0.3286 C   0  0  0  0  0  0  0  0  0  0  0  0
   -0.9662    1.8117   -0.1168 O   0  0  0  0  0  0  0  0  0  0  0  0
    0.7913    1.5213    1.2713 N   0  0  0  0  0  0  0  0  0  0  0  0
    1.3568    0.8244    1.7498 H   0  0  0  0  0  0  0  0  0  0  0  0
    0.6998    2.8548    1.8554 C   0  0  0  0  0  0  0  0  0  0  0  0
   -0.2454    2.9730    2.3957 H   0  0  0  0  0  0  0  0  0  0  0  0
    1.5234    3.0177    2.5572 H   0  0  0  0  0  0  0  0  0  0  0  0
    0.7571    3.6211    1.0749 H   0  0  0  0  0  0  0  0  0  0  0  0
  1  2  1  0  0  0  0
  2  3  1  0  0  0  0
  2  4  1  0  0  0  0
  2  5  1  0  0  0  0
  5  6  2  0  0  0  0
  5  7  1  0  0  0  0
  7  8  1  0  0  0  0
  7  9  1  0  0  0  0
  9 10  1  0  0  0  0
  9 11  1  0  0  0  0
  9 19  1  0  0  0  0
 11 12  1  0  0  0  0
 11 13  1  0  0  0  0
 11 14  1  0  0  0  0
 14 15  2  0  0  0  0
 14 16  1  0  0  0  0
 16 17  1  0  0  0  0
 16 18  1  0  0  0  0
 19 20  2  0  0  0  0
 19 21  1  0  0  0  0
 21 22  1  0  0  0  0
 21 23  1  0  0  0  0
 23 24  1  0  0  0  0
 23 25  1  0  0  0  0
 23 26  1  0  0  0  0
M  END
$$$$

  -OEChem-04042215573D

 26 25  0     1  0  0  0  0  0999 V2000
   -2.8517   -3.9399    0.5143 H   0  0  0  0  0  0  0  0  0  0  0  0
   -2.8759   -2.9110    0.1446 C   0  0  0  0  0  0  0  0  0  0  0  0
   -3.5504   -2.3258    0.7744 H   0  0  0  0  0  0  0  0  0  0  0  0
   -3.2563   -2.9142   -0.8798 H   0  0  0  0  0  0  0  0  0  0  0  0
   -1.4832   -2.3105    0.1773 C   0  0  0  0  0  0  0  0  0  0  0  0
   -0.5389   -2.9671    0.5896 O   0  0  0  0  0  0  0  0  0  0  0  0
   -1.2788   -1.0156   -0.2535 N   0  0  0  0  0  0  0  0  0  0  0  0
   -2.0992   -0.4652   -0.5055 H   0  0  0  0  0  0  0  0  0  0  0  0
    0.0111   -0.3139   -0.1995 C   0  0  1  0  0  0  0  0  0  0  0  0
    0.6578   -0.8406    0.5060 H   0  0  0  0  0  0  0  0  0  0  0  0
    0.6386   -0.3009   -1.6130 C   0  0  0  0  0  0  0  0  0  0  0  0
    0.1243   -1.0330   -2.2426 H   0  0  0  0  0  0  0  0  0  0  0  0
    0.4952    0.6795   -2.0771 H   0  0  0  0  0  0  0  0  0  0  0  0
    2.1241   -0.6484   -1.6643 C   0  0  0  0  0  0  0  0  0  0  0  0
    2.6555   -0.9315   -2.7192 O   0  0  0  0  0  0  0  0  0  0  0  0
    2.9365   -0.7877   -0.5729 N   0  0  0  0  0  0  0  0  0  0  0  0
    3.8292   -1.2230   -0.7921 H   0  0  0  0  0  0  0  0  0  0  0  0
    2.4941   -1.0225    0.3073 H   0  0  0  0  0  0  0  0  0  0  0  0
   -0.1571    1.1216    0.3396 C   0  0  0  0  0  0  0  0  0  0  0  0
   -1.1113    1.7943   -0.0301 O   0  0  0  0  0  0  0  0  0  0  0  0
    0.7092    1.6350    1.2880 N   0  0  0  0  0  0  0  0  0  0  0  0
    1.4937    1.0617    1.5820 H   0  0  0  0  0  0  0  0  0  0  0  0
    0.5770    2.9772    1.8431 C   0  0  0  0  0  0  0  0  0  0  0  0
   -0.3893    3.0912    2.3456 H   0  0  0  0  0  0  0  0  0  0  0  0
    1.3696    3.1648    2.5739 H   0  0  0  0  0  0  0  0  0  0  0  0
    0.6531    3.7291    1.0504 H   0  0  0  0  0  0  0  0  0  0  0  0
  1  2  1  0  0  0  0
  2  3  1  0  0  0  0
  2  4  1  0  0  0  0
  2  5  1  0  0  0  0
  5  6  2  0  0  0  0
  5  7  1  0  0  0  0
  7  8  1  0  0  0  0
  7  9  1  0  0  0  0
  9 10  1  0  0  0  0
  9 11  1  0  0  0  0
  9 19  1  0  0  0  0
 11 12  1  0  0  0  0
 11 13  1  0  0  0  0
 11 14  1  0  0  0  0
 14 15  2  0  0  0  0
 14 16  1  0  0  0  0
 16 17  1  0  0  0  0
 16 18  1  0  0  0  0
 19 20  2  0  0  0  0
 19 21  1  0  0  0  0
 21 22  1  0  0  0  0
 21 23  1  0  0  0  0
 23 24  1  0  0  0  0
 23 25  1  0  0  0  0
 23 26  1  0  0  0  0
M  END
$$$$

  -OEChem-04042215573D

 26 25  0     1  0  0  0  0  0999 V2000
   -2.7443   -3.9179    0.5825 H   0  0  0  0  0  0  0  0  0  0  0  0
   -2.7950   -2.8937    0.2028 C   0  0  0  0  0  0  0  0  0  0  0  0
   -3.4422   -2.3066    0.8590 H   0  0  0  0  0  0  0  0  0  0  0  0
   -3.2260   -2.9117   -0.8012 H   0  0  0  0  0  0  0  0  0  0  0  0
   -1.4074   -2.2821    0.1591 C   0  0  0  0  0  0  0  0  0  0  0  0
   -0.4282   -2.9367    0.4925 O   0  0  0  0  0  0  0  0  0  0  0  0
   -1.2290   -0.9879   -0.2838 N   0  0  0  0  0  0  0  0  0  0  0  0
   -2.0603   -0.4276   -0.4727 H   0  0  0  0  0  0  0  0  0  0  0  0
    0.0552   -0.2823   -0.1978 C   0  0  1  0  0  0  0  0  0  0  0  0
    0.6893   -0.7621    0.5520 H   0  0  0  0  0  0  0  0  0  0  0  0
    0.7274   -0.2845   -1.5913 C   0  0  0  0  0  0  0  0  0  0  0  0
    0.0833   -0.7883   -2.3178 H   0  0  0  0  0  0  0  0  0  0  0  0
    0.8657    0.7428   -1.9416 H   0  0  0  0  0  0  0  0  0  0  0  0
    2.0864   -0.9763   -1.6142 C   0  0  0  0  0  0  0  0  0  0  0  0
    2.7242   -1.0446   -2.6458 O   0  0  0  0  0  0  0  0  0  0  0  0
    2.4623   -1.9056   -0.6847 N   0  0  0  0  0  0  0  0  0  0  0  0
    3.1819   -2.5391   -1.0212 H   0  0  0  0  0  0  0  0  0  0  0  0
    1.7116   -2.3010   -0.1175 H   0  0  0  0  0  0  0  0  0  0  0  0
   -0.1493    1.1534    0.3262 C   0  0  0  0  0  0  0  0  0  0  0  0
   -1.1102    1.8063   -0.0613 O   0  0  0  0  0  0  0  0  0  0  0  0
    0.6828    1.6772    1.2987 N   0  0  0  0  0  0  0  0  0  0  0  0
    1.4704    1.1139    1.6071 H   0  0  0  0  0  0  0  0  0  0  0  0
    0.5170    3.0152    1.8540 C   0  0  0  0  0  0  0  0  0  0  0  0
   -0.4649    3.1148    2.3285 H   0  0  0  0  0  0  0  0  0  0  0  0
    1.2856    3.2099    2.6082 H   0  0  0  0  0  0  0  0  0  0  0  0
    0.6062    3.7709    1.0665 H   0  0  0  0  0  0  0  0  0  0  0  0
  1  2  1  0  0  0  0
  2  3  1  0  0  0  0
  2  4  1  0  0  0  0
  2  5  1  0  0  0  0
  5  6  2  0  0  0  0
  5  7  1  0  0  0  0
  7  8  1  0  0  0  0
  7  9  1  0  0  0  0
  9 10  1  0  0  0  0
  9 11  1  0  0  0  0
  9 19  1  0  0  0  0
 11 12  1  0  0  0  0
 11 13  1  0  0  0  0
 11 14  1  0  0  0  0
 14 15  2  0  0  0  0
 14 16  1  0  0  0  0
 16 17  1  0  0  0  0
 16 18  1  0  0  0  0
 19 20  2  0  0  0  0
 19 21  1  0  0  0  0
 21 22  1  0  0  0  0
 21 23  1  0  0  0  0
 23 24  1  0  0  0  0
 23 25  1  0  0  0  0
 23 26  1  0  0  0  0
M  END
$$$$

  -OEChem-04042215573D

 26 25  0     1  0  0  0  0  0999 V2000
   -2.7806   -3.9034    0.5964 H   0  0  0  0  0  0  0  0  0  0  0  0
   -2.8232   -2.8783    0.2178 C   0  0  0  0  0  0  0  0  0  0  0  0
   -3.4415   -2.2795    0.8911 H   0  0  0  0  0  0  0  0  0  0  0  0
   -3.2816   -2.8877   -0.7742 H   0  0  0  0  0  0  0  0  0  0  0  0
   -1.4267   -2.2916    0.1363 C   0  0  0  0  0  0  0  0  0  0  0  0
   -0.4485   -2.9699    0.4220 O   0  0  0  0  0  0  0  0  0  0  0  0
   -1.2399   -0.9965   -0.2997 N   0  0  0  0  0  0  0  0  0  0  0  0
   -2.0691   -0.4224   -0.4525 H   0  0  0  0  0  0  0  0  0  0  0  0
    0.0488   -0.2991   -0.2099 C   0  0  1  0  0  0  0  0  0  0  0  0
    0.6796   -0.7893    0.5375 H   0  0  0  0  0  0  0  0  0  0  0  0
    0.7242   -0.3136   -1.5996 C   0  0  0  0  0  0  0  0  0  0  0  0
    0.0854   -0.8206   -2.3280 H   0  0  0  0  0  0  0  0  0  0  0  0
    0.8742    0.7101   -1.9562 H   0  0  0  0  0  0  0  0  0  0  0  0
    2.0742   -1.0191   -1.5864 C   0  0  0  0  0  0  0  0  0  0  0  0
    2.8553   -0.8870   -2.5077 O   0  0  0  0  0  0  0  0  0  0  0  0
    2.3324   -2.0850   -0.7699 N   0  0  0  0  0  0  0  0  0  0  0  0
    3.0803   -2.6893   -1.0972 H   0  0  0  0  0  0  0  0  0  0  0  0
    1.5305   -2.5127   -0.3017 H   0  0  0  0  0  0  0  0  0  0  0  0
   -0.1439    1.1358    0.3204 C   0  0  0  0  0  0  0  0  0  0  0  0
   -1.1057    1.7929   -0.0580 O   0  0  0  0  0  0  0  0  0  0  0  0
    0.6914    1.6509    1.2947 N   0  0  0  0  0  0  0  0  0  0  0  0
    1.4824    1.0863    1.5922 H   0  0  0  0  0  0  0  0  0  0  0  0
    0.5333    2.9884    1.8539 C   0  0  0  0  0  0  0  0  0  0  0  0
   -0.4478    3.0919    2.3294 H   0  0  0  0  0  0  0  0  0  0  0  0
    1.3035    3.1767    2.6080 H   0  0  0  0  0  0  0  0  0  0  0  0
    0.6259    3.7457    1.0683 H   0  0  0  0  0  0  0  0  0  0  0  0
  1  2  1  0  0  0  0
  2  3  1  0  0  0  0
  2  4  1  0  0  0  0
  2  5  1  0  0  0  0
  5  6  2  0  0  0  0
  5  7  1  0  0  0  0
  7  8  1  0  0  0  0
  7  9  1  0  0  0  0
  9 10  1  0  0  0  0
  9 11  1  0  0  0  0
  9 19  1  0  0  0  0
 11 12  1  0  0  0  0
 11 13  1  0  0  0  0
 11 14  1  0  0  0  0
 14 15  2  0  0  0  0
 14 16  1  0  0  0  0
 16 17  1  0  0  0  0
 16 18  1  0  0  0  0
 19 20  2  0  0  0  0
 19 21  1  0  0  0  0
 21 22  1  0  0  0  0
 21 23  1  0  0  0  0
 23 24  1  0  0  0  0
 23 25  1  0  0  0  0
 23 26  1  0  0  0  0
M  END
$$$$

  -OEChem-04042215573D

 26 25  0     1  0  0  0  0  0999 V2000
   -2.8225   -3.8981    0.5972 H   0  0  0  0  0  0  0  0  0  0  0  0
   -2.8589   -2.8719    0.2208 C   0  0  0  0  0  0  0  0  0  0  0  0
   -3.4523   -2.2654    0.9095 H   0  0  0  0  0  0  0  0  0  0  0  0
   -3.3412   -2.8729   -0.7598 H   0  0  0  0  0  0  0  0  0  0  0  0
   -1.4561   -2.3056    0.1077 C   0  0  0  0  0  0  0  0  0  0  0  0
   -0.4813   -3.0047    0.3508 O   0  0  0  0  0  0  0  0  0  0  0  0
   -1.2619   -1.0080   -0.3170 N   0  0  0  0  0  0  0  0  0  0  0  0
   -2.0889   -0.4232   -0.4395 H   0  0  0  0  0  0  0  0  0  0  0  0
    0.0314   -0.3172   -0.2327 C   0  0  1  0  0  0  0  0  0  0  0  0
    0.6640   -0.8208    0.5055 H   0  0  0  0  0  0  0  0  0  0  0  0
    0.7016   -0.3349   -1.6232 C   0  0  0  0  0  0  0  0  0  0  0  0
    0.0622   -0.8422   -2.3509 H   0  0  0  0  0  0  0  0  0  0  0  0
    0.8557    0.6874   -1.9823 H   0  0  0  0  0  0  0  0  0  0  0  0
    2.0455   -1.0490   -1.5932 C   0  0  0  0  0  0  0  0  0  0  0  0
    2.9430   -0.7370   -2.3506 O   0  0  0  0  0  0  0  0  0  0  0  0
    2.2399   -2.2000   -0.8814 N   0  0  0  0  0  0  0  0  0  0  0  0
    3.0377   -2.7601   -1.1657 H   0  0  0  0  0  0  0  0  0  0  0  0
    1.4176   -2.6615   -0.4854 H   0  0  0  0  0  0  0  0  0  0  0  0
   -0.1438    1.1140    0.3112 C   0  0  0  0  0  0  0  0  0  0  0  0
   -1.1106    1.7772   -0.0431 O   0  0  0  0  0  0  0  0  0  0  0  0
    0.7066    1.6124    1.2811 N   0  0  0  0  0  0  0  0  0  0  0  0
    1.5084    1.0474    1.5475 H   0  0  0  0  0  0  0  0  0  0  0  0
    0.5684    2.9471    1.8517 C   0  0  0  0  0  0  0  0  0  0  0  0
   -0.4080    3.0586    2.3349 H   0  0  0  0  0  0  0  0  0  0  0  0
    1.3458    3.1207    2.6018 H   0  0  0  0  0  0  0  0  0  0  0  0
    0.6642    3.7090    1.0710 H   0  0  0  0  0  0  0  0  0  0  0  0
  1  2  1  0  0  0  0
  2  3  1  0  0  0  0
  2  4  1  0  0  0  0
  2  5  1  0  0  0  0
  5  6  2  0  0  0  0
  5  7  1  0  0  0  0
  7  8  1  0  0  0  0
  7  9  1  0  0  0  0
  9 10  1  0  0  0  0
  9 11  1  0  0  0  0
  9 19  1  0  0  0  0
 11 12  1  0  0  0  0
 11 13  1  0  0  0  0
 11 14  1  0  0  0  0
 14 15  2  0  0  0  0
 14 16  1  0  0  0  0
 16 17  1  0  0  0  0
 16 18  1  0  0  0  0
 19 20  2  0  0  0  0
 19 21  1  0  0  0  0
 21 22  1  0  0  0  0
 21 23  1  0  0  0  0
 23 24  1  0  0  0  0
 23 25  1  0  0  0  0
 23 26  1  0  0  0  0
M  END
$$$$

  -OEChem-04042215573D

 26 25  0     1  0  0  0  0  0999 V2000
   -2.8444   -3.9023    0.5837 H   0  0  0  0  0  0  0  0  0  0  0  0
   -2.8814   -2.8715    0.2202 C   0  0  0  0  0  0  0  0  0  0  0  0
   -3.4467   -2.2671    0.9339 H   0  0  0  0  0  0  0  0  0  0  0  0
   -3.3934   -2.8565   -0.7452 H   0  0  0  0  0  0  0  0  0  0  0  0
   -1.4769   -2.3184    0.0702 C   0  0  0  0  0  0  0  0  0  0  0  0
   -0.5040   -3.0344    0.2659 O   0  0  0  0  0  0  0  0  0  0  0  0
   -1.2823   -1.0161   -0.3401 N   0  0  0  0  0  0  0  0  0  0  0  0
   -2.1087   -0.4239   -0.4263 H   0  0  0  0  0  0  0  0  0  0  0  0
    0.0141   -0.3286   -0.2648 C   0  0  1  0  0  0  0  0  0  0  0  0
    0.6522   -0.8470    0.4593 H   0  0  0  0  0  0  0  0  0  0  0  0
    0.6732   -0.3429   -1.6588 C   0  0  0  0  0  0  0  0  0  0  0  0
    0.0313   -0.8496   -2.3845 H   0  0  0  0  0  0  0  0  0  0  0  0
    0.8277    0.6794   -2.0179 H   0  0  0  0  0  0  0  0  0  0  0  0
    2.0129   -1.0625   -1.6204 C   0  0  0  0  0  0  0  0  0  0  0  0
    2.9972   -0.6051   -2.1674 O   0  0  0  0  0  0  0  0  0  0  0  0
    2.1532   -2.2896   -1.0349 N   0  0  0  0  0  0  0  0  0  0  0  0
    3.0062   -2.8019   -1.2363 H   0  0  0  0  0  0  0  0  0  0  0  0
    1.3195   -2.7799   -0.7018 H   0  0  0  0  0  0  0  0  0  0  0  0
   -0.1436    1.0973    0.2983 C   0  0  0  0  0  0  0  0  0  0  0  0
   -1.1177    1.7659   -0.0252 O   0  0  0  0  0  0  0  0  0  0  0  0
    0.7249    1.5784    1.2607 N   0  0  0  0  0  0  0  0  0  0  0  0
    1.5384    1.0139    1.4906 H   0  0  0  0  0  0  0  0  0  0  0  0
    0.6035    2.9058    1.8514 C   0  0  0  0  0  0  0  0  0  0  0  0
   -0.3666    3.0180    2.3470 H   0  0  0  0  0  0  0  0  0  0  0  0
    1.3904    3.0620    2.5954 H   0  0  0  0  0  0  0  0  0  0  0  0
    0.6973    3.6781    1.0808 H   0  0  0  0  0  0  0  0  0  0  0  0
  1  2  1  0  0  0  0
  2  3  1  0  0  0  0
  2  4  1  0  0  0  0
  2  5  1  0  0  0  0
  5  6  2  0  0  0  0
  5  7  1  0  0  0  0
  7  8  1  0  0  0  0
  7  9  1  0  0  0  0
  9 10  1  0  0  0  0
  9 11  1  0  0  0  0
  9 19  1  0  0  0  0
 11 12  1  0  0  0  0
 11 13  1  0  0  0  0
 11 14  1  0  0  0  0
 14 15  2  0  0  0  0
 14 16  1  0  0  0  0
 16 17  1  0  0  0  0
 16 18  1  0  0  0  0
 19 20  2  0  0  0  0
 19 21  1  0  0  0  0
 21 22  1  0  0  0  0
 21 23  1  0  0  0  0
 23 24  1  0  0  0  0
 23 25  1  0  0  0  0
 23 26  1  0  0  0  0
M  END
$$$$

  -OEChem-04042215573D

 26 25  0     1  0  0  0  0  0999 V2000
   -2.8464   -3.9138    0.5857 H   0  0  0  0  0  0  0  0  0  0  0  0
   -2.8897   -2.8937    0.1939 C   0  0  0  0  0  0  0  0  0  0  0  0
   -3.4650   -2.2752    0.8872 H   0  0  0  0  0  0  0  0  0  0  0  0
   -3.3952   -2.9084   -0.7749 H   0  0  0  0  0  0  0  0  0  0  0  0
   -1.4889   -2.3331    0.0374 C   0  0  0  0  0  0  0  0  0  0  0  0
   -0.5112   -3.0493    0.2075 O   0  0  0  0  0  0  0  0  0  0  0  0
   -1.3029   -1.0235   -0.3533 N   0  0  0  0  0  0  0  0  0  0  0  0
   -2.1307   -0.4305   -0.4170 H   0  0  0  0  0  0  0  0  0  0  0  0
   -0.0045   -0.3386   -0.2958 C   0  0  1  0  0  0  0  0  0  0  0  0
    0.6504   -0.8736    0.4010 H   0  0  0  0  0  0  0  0  0  0  0  0
    0.6259   -0.3261   -1.7009 C   0  0  0  0  0  0  0  0  0  0  0  0
   -0.0261   -0.8205   -2.4261 H   0  0  0  0  0  0  0  0  0  0  0  0
    0.7789    0.7013   -2.0462 H   0  0  0  0  0  0  0  0  0  0  0  0
    1.9610   -1.0507   -1.6764 C   0  0  0  0  0  0  0  0  0  0  0  0
    2.9978   -0.4920   -1.9769 O   0  0  0  0  0  0  0  0  0  0  0  0
    2.0448   -2.3689   -1.3261 N   0  0  0  0  0  0  0  0  0  0  0  0
    2.9757   -2.7523   -1.1965 H   0  0  0  0  0  0  0  0  0  0  0  0
    1.2366   -2.8145   -0.8850 H   0  0  0  0  0  0  0  0  0  0  0  0
   -0.1428    1.0771    0.2966 C   0  0  0  0  0  0  0  0  0  0  0  0
   -1.1244    1.7525    0.0124 O   0  0  0  0  0  0  0  0  0  0  0  0
    0.7516    1.5366    1.2457 N   0  0  0  0  0  0  0  0  0  0  0  0
    1.5833    0.9787    1.4199 H   0  0  0  0  0  0  0  0  0  0  0  0
    0.6619    2.8622    1.8463 C   0  0  0  0  0  0  0  0  0  0  0  0
   -0.3015    2.9910    2.3508 H   0  0  0  0  0  0  0  0  0  0  0  0
    1.4577    2.9967    2.5852 H   0  0  0  0  0  0  0  0  0  0  0  0
    0.7653    3.6378    1.0800 H   0  0  0  0  0  0  0  0  0  0  0  0
  1  2  1  0  0  0  0
  2  3  1  0  0  0  0
  2  4  1  0  0  0  0
  2  5  1  0  0  0  0
  5  6  2  0  0  0  0
  5  7  1  0  0  0  0
  7  8  1  0  0  0  0
  7  9  1  0  0  0  0
  9 10  1  0  0  0  0
  9 11  1  0  0  0  0
  9 19  1  0  0  0  0
 11 12  1  0  0  0  0
 11 13  1  0  0  0  0
 11 14  1  0  0  0  0
 14 15  2  0  0  0  0
 14 16  1  0  0  0  0
 16 17  1  0  0  0  0
 16 18  1  0  0  0  0
 19 20  2  0  0  0  0
 19 21  1  0  0  0  0
 21 22  1  0  0  0  0
 21 23  1  0  0  0  0
 23 24  1  0  0  0  0
 23 25  1  0  0  0  0
 23 26  1  0  0  0  0
M  END
$$$$

  -OEChem-04042215573D

 26 25  0     1  0  0  0  0  0999 V2000
   -2.8315   -3.9459    0.4955 H   0  0  0  0  0  0  0  0  0  0  0  0
   -2.8855   -2.8989    0.1840 C   0  0  0  0  0  0  0  0  0  0  0  0
   -3.4128   -2.3298    0.9536 H   0  0  0  0  0  0  0  0  0  0  0  0
   -3.4462   -2.8380   -0.7520 H   0  0  0  0  0  0  0  0  0  0  0  0
   -1.4892   -2.3387   -0.0111 C   0  0  0  0  0  0  0  0  0  0  0  0
   -0.5088   -3.0622    0.1033 O   0  0  0  0  0  0  0  0  0  0  0  0
   -1.3134   -1.0227   -0.3841 N   0  0  0  0  0  0  0  0  0  0  0  0
   -2.1430   -0.4290   -0.4043 H   0  0  0  0  0  0  0  0  0  0  0  0
   -0.0166   -0.3334   -0.3379 C   0  0  1  0  0  0  0  0  0  0  0  0
    0.6456   -0.8781    0.3454 H   0  0  0  0  0  0  0  0  0  0  0  0
    0.6011   -0.3132   -1.7467 C   0  0  0  0  0  0  0  0  0  0  0  0
   -0.0527   -0.8067   -2.4710 H   0  0  0  0  0  0  0  0  0  0  0  0
    0.7513    0.7153   -2.0896 H   0  0  0  0  0  0  0  0  0  0  0  0
    1.9369   -1.0345   -1.7195 C   0  0  0  0  0  0  0  0  0  0  0  0
    2.9884   -0.4254   -1.7553 O   0  0  0  0  0  0  0  0  0  0  0  0
    2.0072   -2.3828   -1.5129 N   0  0  0  0  0  0  0  0  0  0  0  0
    2.9247   -2.7449   -1.2735 H   0  0  0  0  0  0  0  0  0  0  0  0
    1.1745   -2.8479   -1.1450 H   0  0  0  0  0  0  0  0  0  0  0  0
   -0.1422    1.0735    0.2772 C   0  0  0  0  0  0  0  0  0  0  0  0
   -1.1388    1.7448    0.0383 O   0  0  0  0  0  0  0  0  0  0  0  0
    0.7717    1.5165    1.2151 N   0  0  0  0  0  0  0  0  0  0  0  0
    1.6229    0.9728    1.3338 H   0  0  0  0  0  0  0  0  0  0  0  0
    0.6883    2.8272    1.8482 C   0  0  0  0  0  0  0  0  0  0  0  0
   -0.2606    2.9348    2.3843 H   0  0  0  0  0  0  0  0  0  0  0  0
    1.5048    2.9527    2.5660 H   0  0  0  0  0  0  0  0  0  0  0  0
    0.7615    3.6210    1.0974 H   0  0  0  0  0  0  0  0  0  0  0  0
  1  2  1  0  0  0  0
  2  3  1  0  0  0  0
  2  4  1  0  0  0  0
  2  5  1  0  0  0  0
  5  6  2  0  0  0  0
  5  7  1  0  0  0  0
  7  8  1  0  0  0  0
  7  9  1  0  0  0  0
  9 10  1  0  0  0  0
  9 11  1  0  0  0  0
  9 19  1  0  0  0  0
 11 12  1  0  0  0  0
 11 13  1  0  0  0  0
 11 14  1  0  0  0  0
 14 15  2  0  0  0  0
 14 16  1  0  0  0  0
 16 17  1  0  0  0  0
 16 18  1  0  0  0  0
 19 20  2  0  0  0  0
 19 21  1  0  0  0  0
 21 22  1  0  0  0  0
 21 23  1  0  0  0  0
 23 24  1  0  0  0  0
 23 25  1  0  0  0  0
 23 26  1  0  0  0  0
M  END
$$$$

  -OEChem-04042215573D

 26 25  0     1  0  0  0  0  0999 V2000
   -2.8011   -3.9648    0.4601 H   0  0  0  0  0  0  0  0  0  0  0  0
   -2.8682   -2.9120    0.1717 C   0  0  0  0  0  0  0  0  0  0  0  0
   -3.3684   -2.3597    0.9710 H   0  0  0  0  0  0  0  0  0  0  0  0
   -3.4621   -2.8338   -0.7423 H   0  0  0  0  0  0  0  0  0  0  0  0
   -1.4814   -2.3436   -0.0617 C   0  0  0  0  0  0  0  0  0  0  0  0
   -0.4973   -3.0684   -0.0097 O   0  0  0  0  0  0  0  0  0  0  0  0
   -1.3235   -1.0192   -0.4119 N   0  0  0  0  0  0  0  0  0  0  0  0
   -2.1566   -0.4309   -0.3874 H   0  0  0  0  0  0  0  0  0  0  0  0
   -0.0323   -0.3189   -0.3698 C   0  0  1  0  0  0  0  0  0  0  0  0
    0.6360   -0.8726    0.3008 H   0  0  0  0  0  0  0  0  0  0  0  0
    0.5785   -0.2834   -1.7798 C   0  0  0  0  0  0  0  0  0  0  0  0
   -0.0733   -0.7781   -2.5051 H   0  0  0  0  0  0  0  0  0  0  0  0
    0.7206    0.7479   -2.1169 H   0  0  0  0  0  0  0  0  0  0  0  0
    1.9196   -0.9932   -1.7520 C   0  0  0  0  0  0  0  0  0  0  0  0
    2.9459   -0.3854   -1.5138 O   0  0  0  0  0  0  0  0  0  0  0  0
    1.9951   -2.3556   -1.7199 N   0  0  0  0  0  0  0  0  0  0  0  0
    2.8856   -2.7254   -1.4023 H   0  0  0  0  0  0  0  0  0  0  0  0
    1.1415   -2.8533   -1.4626 H   0  0  0  0  0  0  0  0  0  0  0  0
   -0.1482    1.0764    0.2709 C   0  0  0  0  0  0  0  0  0  0  0  0
   -1.1506    1.7494    0.0625 O   0  0  0  0  0  0  0  0  0  0  0  0
    0.7827    1.5014    1.2002 N   0  0  0  0  0  0  0  0  0  0  0  0
    1.6441    0.9649    1.2740 H   0  0  0  0  0  0  0  0  0  0  0  0
    0.7178    2.8052    1.8486 C   0  0  0  0  0  0  0  0  0  0  0  0
   -0.2208    2.9120    2.4025 H   0  0  0  0  0  0  0  0  0  0  0  0
    1.5474    2.9182    2.5531 H   0  0  0  0  0  0  0  0  0  0  0  0
    0.7820    3.6065    1.1050 H   0  0  0  0  0  0  0  0  0  0  0  0
  1  2  1  0  0  0  0
  2  3  1  0  0  0  0
  2  4  1  0  0  0  0
  2  5  1  0  0  0  0
  5  6  2  0  0  0  0
  5  7  1  0  0  0  0
  7  8  1  0  0  0  0
  7  9  1  0  0  0  0
  9 10  1  0  0  0  0
  9 11  1  0  0  0  0
  9 19  1  0  0  0  0
 11 12  1  0  0  0  0
 11 13  1  0  0  0  0
 11 14  1  0  0  0  0
 14 15  2  0  0  0  0
 14 16  1  0  0  0  0
 16 17  1  0  0  0  0
 16 18  1  0  0  0  0
 19 20  2  0  0  0  0
 19 21  1  0  0  0  0
 21 22  1  0  0  0  0
 21 23  1  0  0  0  0
 23 24  1  0  0  0  0
 23 25  1  0  0  0  0
 23 26  1  0  0  0  0
M  END
$$$$

  -OEChem-04042215573D

 26 25  0     1  0  0  0  0  0999 V2000
   -2.7752   -3.9812    0.4247 H   0  0  0  0  0  0  0  0  0  0  0  0
   -2.8510   -2.9223    0.1620 C   0  0  0  0  0  0  0  0  0  0  0  0
   -3.3390   -2.3905    0.9825 H   0  0  0  0  0  0  0  0  0  0  0  0
   -3.4613   -2.8252   -0.7393 H   0  0  0  0  0  0  0  0  0  0  0  0
   -1.4702   -2.3437   -0.0831 C   0  0  0  0  0  0  0  0  0  0  0  0
   -0.4838   -3.0658   -0.0569 O   0  0  0  0  0  0  0  0  0  0  0  0
   -1.3257   -1.0142   -0.4198 N   0  0  0  0  0  0  0  0  0  0  0  0
   -2.1631   -0.4337   -0.3739 H   0  0  0  0  0  0  0  0  0  0  0  0
   -0.0411   -0.3007   -0.3828 C   0  0  1  0  0  0  0  0  0  0  0  0
    0.6326   -0.8585    0.2791 H   0  0  0  0  0  0  0  0  0  0  0  0
    0.5672   -0.2527   -1.7934 C   0  0  0  0  0  0  0  0  0  0  0  0
   -0.0821   -0.7496   -2.5191 H   0  0  0  0  0  0  0  0  0  0  0  0
    0.6994    0.7813   -2.1258 H   0  0  0  0  0  0  0  0  0  0  0  0
    1.9168   -0.9465   -1.7701 C   0  0  0  0  0  0  0  0  0  0  0  0
    2.8844   -0.3997   -1.2737 O   0  0  0  0  0  0  0  0  0  0  0  0
    2.0240   -2.2914   -1.9715 N   0  0  0  0  0  0  0  0  0  0  0  0
    2.8773   -2.7006   -1.6031 H   0  0  0  0  0  0  0  0  0  0  0  0
    1.1612   -2.8260   -1.8867 H   0  0  0  0  0  0  0  0  0  0  0  0
   -0.1540    1.0876    0.2721 C   0  0  0  0  0  0  0  0  0  0  0  0
   -1.1619    1.7584    0.0841 O   0  0  0  0  0  0  0  0  0  0  0  0
    0.7885    1.5050    1.1926 N   0  0  0  0  0  0  0  0  0  0  0  0
    1.6561    0.9742    1.2374 H   0  0  0  0  0  0  0  0  0  0  0  0
    0.7319    2.8036    1.8527 C   0  0  0  0  0  0  0  0  0  0  0  0
   -0.1990    2.9052    2.4204 H   0  0  0  0  0  0  0  0  0  0  0  0
    1.5710    2.9112    2.5468 H   0  0  0  0  0  0  0  0  0  0  0  0
    0.7855    3.6114    1.1153 H   0  0  0  0  0  0  0  0  0  0  0  0
  1  2  1  0  0  0  0
  2  3  1  0  0  0  0
  2  4  1  0  0  0  0
  2  5  1  0  0  0  0
  5  6  2  0  0  0  0
  5  7  1  0  0  0  0
  7  8  1  0  0  0  0
  7  9  1  0  0  0  0
  9 10  1  0  0  0  0
  9 11  1  0  0  0  0
  9 19  1  0  0  0  0
 11 12  1  0  0  0  0
 11 13  1  0  0  0  0
 11 14  1  0  0  0  0
 14 15  2  0  0  0  0
 14 16  1  0  0  0  0
 16 17  1  0  0  0  0
 16 18  1  0  0  0  0
 19 20  2  0  0  0  0
 19 21  1  0  0  0  0
 21 22  1  0  0  0  0
 21 23  1  0  0  0  0
 23 24  1  0  0  0  0
 23 25  1  0  0  0  0
 23 26  1  0  0  0  0
M  END
$$$$

  -OEChem-04042215573D

 26 25  0     1  0  0  0  0  0999 V2000
   -2.7957   -3.9643    0.4857 H   0  0  0  0  0  0  0  0  0  0  0  0
   -2.8637   -2.9189    0.1712 C   0  0  0  0  0  0  0  0  0  0  0  0
   -3.3904   -2.3528    0.9434 H   0  0  0  0  0  0  0  0  0  0  0  0
   -3.4325   -2.8669   -0.7604 H   0  0  0  0  0  0  0  0  0  0  0  0
   -1.4752   -2.3440   -0.0363 C   0  0  0  0  0  0  0  0  0  0  0  0
   -0.4924   -3.0633    0.0553 O   0  0  0  0  0  0  0  0  0  0  0  0
   -1.3231   -1.0185   -0.3858 N   0  0  0  0  0  0  0  0  0  0  0  0
   -2.1635   -0.4410   -0.3788 H   0  0  0  0  0  0  0  0  0  0  0  0
   -0.0414   -0.2993   -0.3480 C   0  0  1  0  0  0  0  0  0  0  0  0
    0.6306   -0.8522    0.3200 H   0  0  0  0  0  0  0  0  0  0  0  0
    0.5766   -0.2476   -1.7568 C   0  0  0  0  0  0  0  0  0  0  0  0
   -0.0722   -0.7464   -2.4815 H   0  0  0  0  0  0  0  0  0  0  0  0
    0.7011    0.7873   -2.0889 H   0  0  0  0  0  0  0  0  0  0  0  0
    1.9346   -0.9290   -1.7464 C   0  0  0  0  0  0  0  0  0  0  0  0
    2.8282   -0.5159   -1.0288 O   0  0  0  0  0  0  0  0  0  0  0  0
    2.1404   -2.1437   -2.3328 N   0  0  0  0  0  0  0  0  0  0  0  0
    2.9612   -2.6388   -1.9967 H   0  0  0  0  0  0  0  0  0  0  0  0
    1.3148   -2.6813   -2.5784 H   0  0  0  0  0  0  0  0  0  0  0  0
   -0.1626    1.0954    0.2900 C   0  0  0  0  0  0  0  0  0  0  0  0
   -1.1607    1.7722    0.0721 O   0  0  0  0  0  0  0  0  0  0  0  0
    0.7744    1.5225    1.2114 N   0  0  0  0  0  0  0  0  0  0  0  0
    1.6334    0.9793    1.2805 H   0  0  0  0  0  0  0  0  0  0  0  0
    0.7189    2.8280    1.8569 C   0  0  0  0  0  0  0  0  0  0  0  0
   -0.2235    2.9472    2.4019 H   0  0  0  0  0  0  0  0  0  0  0  0
    1.5429    2.9321    2.5693 H   0  0  0  0  0  0  0  0  0  0  0  0
    0.7998    3.6270    1.1126 H   0  0  0  0  0  0  0  0  0  0  0  0
  1  2  1  0  0  0  0
  2  3  1  0  0  0  0
  2  4  1  0  0  0  0
  2  5  1  0  0  0  0
  5  6  2  0  0  0  0
  5  7  1  0  0  0  0
  7  8  1  0  0  0  0
  7  9  1  0  0  0  0
  9 10  1  0  0  0  0
  9 11  1  0  0  0  0
  9 19  1  0  0  0  0
 11 12  1  0  0  0  0
 11 13  1  0  0  0  0
 11 14  1  0  0  0  0
 14 15  2  0  0  0  0
 14 16  1  0  0  0  0
 16 17  1  0  0  0  0
 16 18  1  0  0  0  0
 19 20  2  0  0  0  0
 19 21  1  0  0  0  0
 21 22  1  0  0  0  0
 21 23  1  0  0  0  0
 23 24  1  0  0  0  0
 23 25  1  0  0  0  0
 23 26  1  0  0  0  0
M  END
$$$$

  -OEChem-04042215573D

 26 25  0     1  0  0  0  0  0999 V2000
   -2.8413   -3.9507    0.5218 H   0  0  0  0  0  0  0  0  0  0  0  0
   -2.8918   -2.9111    0.1859 C   0  0  0  0  0  0  0  0  0  0  0  0
   -3.4463   -2.3294    0.9264 H   0  0  0  0  0  0  0  0  0  0  0  0
   -3.4223   -2.8740   -0.7686 H   0  0  0  0  0  0  0  0  0  0  0  0
   -1.4933   -2.3459    0.0236 C   0  0  0  0  0  0  0  0  0  0  0  0
   -0.5202   -3.0645    0.1862 O   0  0  0  0  0  0  0  0  0  0  0  0
   -1.3243   -1.0281   -0.3469 N   0  0  0  0  0  0  0  0  0  0  0  0
   -2.1633   -0.4505   -0.3884 H   0  0  0  0  0  0  0  0  0  0  0  0
   -0.0416   -0.3098   -0.3069 C   0  0  1  0  0  0  0  0  0  0  0  0
    0.6187   -0.8557    0.3772 H   0  0  0  0  0  0  0  0  0  0  0  0
    0.5930   -0.2736   -1.7125 C   0  0  0  0  0  0  0  0  0  0  0  0
   -0.0568   -0.7802   -2.4308 H   0  0  0  0  0  0  0  0  0  0  0  0
    0.7122    0.7583   -2.0549 H   0  0  0  0  0  0  0  0  0  0  0  0
    1.9575   -0.9481   -1.7179 C   0  0  0  0  0  0  0  0  0  0  0  0
    2.7758   -0.7284   -0.8419 O   0  0  0  0  0  0  0  0  0  0  0  0
    2.2948   -1.9010   -2.6350 N   0  0  0  0  0  0  0  0  0  0  0  0
    3.1108   -2.4569   -2.3951 H   0  0  0  0  0  0  0  0  0  0  0  0
    1.5469   -2.3236   -3.1746 H   0  0  0  0  0  0  0  0  0  0  0  0
   -0.1687    1.0958    0.3036 C   0  0  0  0  0  0  0  0  0  0  0  0
   -1.1545    1.7779    0.0492 O   0  0  0  0  0  0  0  0  0  0  0  0
    0.7586    1.5360    1.2281 N   0  0  0  0  0  0  0  0  0  0  0  0
    1.6010    0.9742    1.3410 H   0  0  0  0  0  0  0  0  0  0  0  0
    0.7022    2.8515    1.8523 C   0  0  0  0  0  0  0  0  0  0  0  0
   -0.2462    2.9835    2.3838 H   0  0  0  0  0  0  0  0  0  0  0  0
    1.5185    2.9626    2.5727 H   0  0  0  0  0  0  0  0  0  0  0  0
    0.7958    3.6385    1.0967 H   0  0  0  0  0  0  0  0  0  0  0  0
  1  2  1  0  0  0  0
  2  3  1  0  0  0  0
  2  4  1  0  0  0  0
  2  5  1  0  0  0  0
  5  6  2  0  0  0  0
  5  7  1  0  0  0  0
  7  8  1  0  0  0  0
  7  9  1  0  0  0  0
  9 10  1  0  0  0  0
  9 11  1  0  0  0  0
  9 19  1  0  0  0  0
 11 12  1  0  0  0  0
 11 13  1  0  0  0  0
 11 14  1  0  0  0  0
 14 15  2  0  0  0  0
 14 16  1  0  0  0  0
 16 17  1  0  0  0  0
 16 18  1  0  0  0  0
 19 20  2  0  0  0  0
 19 21  1  0  0  0  0
 21 22  1  0  0  0  0
 21 23  1  0  0  0  0
 23 24  1  0  0  0  0
 23 25  1  0  0  0  0
 23 26  1  0  0  0  0
M  END
$$$$

  -OEChem-04042215573D

 26 25  0     1  0  0  0  0  0999 V2000
   -2.8760   -3.9319    0.5720 H   0  0  0  0  0  0  0  0  0  0  0  0
   -2.9099   -2.9073    0.1911 C   0  0  0  0  0  0  0  0  0  0  0  0
   -3.4975   -2.2959    0.8803 H   0  0  0  0  0  0  0  0  0  0  0  0
   -3.3959   -2.9110   -0.7875 H   0  0  0  0  0  0  0  0  0  0  0  0
   -1.5044   -2.3482    0.0703 C   0  0  0  0  0  0  0  0  0  0  0  0
   -0.5426   -3.0652    0.2925 O   0  0  0  0  0  0  0  0  0  0  0  0
   -1.3182   -1.0375   -0.3182 N   0  0  0  0  0  0  0  0  0  0  0  0
   -2.1533   -0.4594   -0.4033 H   0  0  0  0  0  0  0  0  0  0  0  0
   -0.0323   -0.3240   -0.2710 C   0  0  1  0  0  0  0  0  0  0  0  0
    0.6170   -0.8634    0.4277 H   0  0  0  0  0  0  0  0  0  0  0  0
    0.6095   -0.3035   -1.6775 C   0  0  0  0  0  0  0  0  0  0  0  0
   -0.0455   -0.8146   -2.3879 H   0  0  0  0  0  0  0  0  0  0  0  0
    0.7244    0.7262   -2.0279 H   0  0  0  0  0  0  0  0  0  0  0  0
    1.9766   -0.9773   -1.7141 C   0  0  0  0  0  0  0  0  0  0  0  0
    2.7239   -0.9939   -0.7522 O   0  0  0  0  0  0  0  0  0  0  0  0
    2.4322   -1.6152   -2.8320 N   0  0  0  0  0  0  0  0  0  0  0  0
    3.2483   -2.2045   -2.6933 H   0  0  0  0  0  0  0  0  0  0  0  0
    1.7666   -1.8414   -3.5630 H   0  0  0  0  0  0  0  0  0  0  0  0
   -0.1651    1.0913    0.3151 C   0  0  0  0  0  0  0  0  0  0  0  0
   -1.1302    1.7834    0.0127 O   0  0  0  0  0  0  0  0  0  0  0  0
    0.7476    1.5457    1.2474 N   0  0  0  0  0  0  0  0  0  0  0  0
    1.5612    0.9600    1.4269 H   0  0  0  0  0  0  0  0  0  0  0  0
    0.6858    2.8714    1.8490 C   0  0  0  0  0  0  0  0  0  0  0  0
   -0.2692    3.0134    2.3659 H   0  0  0  0  0  0  0  0  0  0  0  0
    1.4932    2.9938    2.5776 H   0  0  0  0  0  0  0  0  0  0  0  0
    0.7907    3.6454    1.0813 H   0  0  0  0  0  0  0  0  0  0  0  0
  1  2  1  0  0  0  0
  2  3  1  0  0  0  0
  2  4  1  0  0  0  0
  2  5  1  0  0  0  0
  5  6  2  0  0  0  0
  5  7  1  0  0  0  0
  7  8  1  0  0  0  0
  7  9  1  0  0  0  0
  9 10  1  0  0  0  0
  9 11  1  0  0  0  0
  9 19  1  0  0  0  0
 11 12  1  0  0  0  0
 11 13  1  0  0  0  0
 11 14  1  0  0  0  0
 14 15  2  0  0  0  0
 14 16  1  0  0  0  0
 16 17  1  0  0  0  0
 16 18  1  0  0  0  0
 19 20  2  0  0  0  0
 19 21  1  0  0  0  0
 21 22  1  0  0  0  0
 21 23  1  0  0  0  0
 23 24  1  0  0  0  0
 23 25  1  0  0  0  0
 23 26  1  0  0  0  0
M  END
$$$$

  -OEChem-04042215573D

 26 25  0     1  0  0  0  0  0999 V2000
   -2.8991   -3.9268    0.5644 H   0  0  0  0  0  0  0  0  0  0  0  0
   -2.9156   -2.9017    0.1833 C   0  0  0  0  0  0  0  0  0  0  0  0
   -3.5231   -2.2879    0.8528 H   0  0  0  0  0  0  0  0  0  0  0  0
   -3.3684   -2.9027   -0.8111 H   0  0  0  0  0  0  0  0  0  0  0  0
   -1.5046   -2.3483    0.1091 C   0  0  0  0  0  0  0  0  0  0  0  0
   -0.5569   -3.0610    0.3935 O   0  0  0  0  0  0  0  0  0  0  0  0
   -1.3014   -1.0449   -0.2953 N   0  0  0  0  0  0  0  0  0  0  0  0
   -2.1315   -0.4688   -0.4274 H   0  0  0  0  0  0  0  0  0  0  0  0
   -0.0128   -0.3360   -0.2439 C   0  0  1  0  0  0  0  0  0  0  0  0
    0.6335   -0.8676    0.4629 H   0  0  0  0  0  0  0  0  0  0  0  0
    0.6278   -0.3226   -1.6535 C   0  0  0  0  0  0  0  0  0  0  0  0
   -0.0333   -0.8320   -2.3593 H   0  0  0  0  0  0  0  0  0  0  0  0
    0.7395    0.7075   -2.0038 H   0  0  0  0  0  0  0  0  0  0  0  0
    1.9949   -0.9966   -1.7230 C   0  0  0  0  0  0  0  0  0  0  0  0
    2.6644   -1.2661   -0.7428 O   0  0  0  0  0  0  0  0  0  0  0  0
    2.5526   -1.3362   -2.9221 N   0  0  0  0  0  0  0  0  0  0  0  0
    3.3642   -1.9453   -2.8688 H   0  0  0  0  0  0  0  0  0  0  0  0
    1.9615   -1.3512   -3.7462 H   0  0  0  0  0  0  0  0  0  0  0  0
   -0.1559    1.0873    0.3210 C   0  0  0  0  0  0  0  0  0  0  0  0
   -1.1037    1.7836   -0.0234 O   0  0  0  0  0  0  0  0  0  0  0  0
    0.7420    1.5577    1.2600 N   0  0  0  0  0  0  0  0  0  0  0  0
    1.5275    0.9559    1.4995 H   0  0  0  0  0  0  0  0  0  0  0  0
    0.6641    2.8876    1.8510 C   0  0  0  0  0  0  0  0  0  0  0  0
   -0.2949    3.0254    2.3614 H   0  0  0  0  0  0  0  0  0  0  0  0
    1.4662    3.0226    2.5829 H   0  0  0  0  0  0  0  0  0  0  0  0
    0.7665    3.6567    1.0784 H   0  0  0  0  0  0  0  0  0  0  0  0
  1  2  1  0  0  0  0
  2  3  1  0  0  0  0
  2  4  1  0  0  0  0
  2  5  1  0  0  0  0
  5  6  2  0  0  0  0
  5  7  1  0  0  0  0
  7  8  1  0  0  0  0
  7  9  1  0  0  0  0
  9 10  1  0  0  0  0
  9 11  1  0  0  0  0
  9 19  1  0  0  0  0
 11 12  1  0  0  0  0
 11 13  1  0  0  0  0
 11 14  1  0  0  0  0
 14 15  2  0  0  0  0
 14 16  1  0  0  0  0
 16 17  1  0  0  0  0
 16 18  1  0  0  0  0
 19 20  2  0  0  0  0
 19 21  1  0  0  0  0
 21 22  1  0  0  0  0
 21 23  1  0  0  0  0
 23 24  1  0  0  0  0
 23 25  1  0  0  0  0
 23 26  1  0  0  0  0
M  END
$$$$

  -OEChem-04042215573D

 26 25  0     1  0  0  0  0  0999 V2000
   -2.9149   -3.9233    0.5515 H   0  0  0  0  0  0  0  0  0  0  0  0
   -2.9174   -2.8985    0.1695 C   0  0  0  0  0  0  0  0  0  0  0  0
   -3.5443   -2.2827    0.8192 H   0  0  0  0  0  0  0  0  0  0  0  0
   -3.3388   -2.8992   -0.8387 H   0  0  0  0  0  0  0  0  0  0  0  0
   -1.5035   -2.3484    0.1395 C   0  0  0  0  0  0  0  0  0  0  0  0
   -0.5709   -3.0544    0.4827 O   0  0  0  0  0  0  0  0  0  0  0  0
   -1.2856   -1.0502   -0.2743 N   0  0  0  0  0  0  0  0  0  0  0  0
   -2.1095   -0.4773   -0.4506 H   0  0  0  0  0  0  0  0  0  0  0  0
    0.0064   -0.3471   -0.2218 C   0  0  1  0  0  0  0  0  0  0  0  0
    0.6564   -0.8746    0.4847 H   0  0  0  0  0  0  0  0  0  0  0  0
    0.6411   -0.3312   -1.6358 C   0  0  0  0  0  0  0  0  0  0  0  0
   -0.0265   -0.8325   -2.3415 H   0  0  0  0  0  0  0  0  0  0  0  0
    0.7530    0.7013   -1.9791 H   0  0  0  0  0  0  0  0  0  0  0  0
    2.0056   -1.0090   -1.7297 C   0  0  0  0  0  0  0  0  0  0  0  0
    2.5790   -1.5277   -0.7911 O   0  0  0  0  0  0  0  0  0  0  0  0
    2.6746   -1.0672   -2.9185 N   0  0  0  0  0  0  0  0  0  0  0  0
    3.4739   -1.6942   -2.9407 H   0  0  0  0  0  0  0  0  0  0  0  0
    2.1712   -0.8555   -3.7732 H   0  0  0  0  0  0  0  0  0  0  0  0
   -0.1466    1.0805    0.3312 C   0  0  0  0  0  0  0  0  0  0  0  0
   -1.0819    1.7784   -0.0437 O   0  0  0  0  0  0  0  0  0  0  0  0
    0.7393    1.5643    1.2750 N   0  0  0  0  0  0  0  0  0  0  0  0
    1.5002    0.9529    1.5630 H   0  0  0  0  0  0  0  0  0  0  0  0
    0.6484    2.9001    1.8511 C   0  0  0  0  0  0  0  0  0  0  0  0
   -0.3160    3.0376    2.3512 H   0  0  0  0  0  0  0  0  0  0  0  0
    1.4434    3.0487    2.5882 H   0  0  0  0  0  0  0  0  0  0  0  0
    0.7528    3.6612    1.0710 H   0  0  0  0  0  0  0  0  0  0  0  0
  1  2  1  0  0  0  0
  2  3  1  0  0  0  0
  2  4  1  0  0  0  0
  2  5  1  0  0  0  0
  5  6  2  0  0  0  0
  5  7  1  0  0  0  0
  7  8  1  0  0  0  0
  7  9  1  0  0  0  0
  9 10  1  0  0  0  0
  9 11  1  0  0  0  0
  9 19  1  0  0  0  0
 11 12  1  0  0  0  0
 11 13  1  0  0  0  0
 11 14  1  0  0  0  0
 14 15  2  0  0  0  0
 14 16  1  0  0  0  0
 16 17  1  0  0  0  0
 16 18  1  0  0  0  0
 19 20  2  0  0  0  0
 19 21  1  0  0  0  0
 21 22  1  0  0  0  0
 21 23  1  0  0  0  0
 23 24  1  0  0  0  0
 23 25  1  0  0  0  0
 23 26  1  0  0  0  0
M  END
$$$$

  -OEChem-04042215573D

 26 25  0     1  0  0  0  0  0999 V2000
   -2.9169   -3.9296    0.5195 H   0  0  0  0  0  0  0  0  0  0  0  0
   -2.9136   -2.8999    0.1510 C   0  0  0  0  0  0  0  0  0  0  0  0
   -3.5603   -2.2950    0.7911 H   0  0  0  0  0  0  0  0  0  0  0  0
   -3.3073   -2.8896   -0.8681 H   0  0  0  0  0  0  0  0  0  0  0  0
   -1.5019   -2.3438    0.1667 C   0  0  0  0  0  0  0  0  0  0  0  0
   -0.5838   -3.0355    0.5715 O   0  0  0  0  0  0  0  0  0  0  0  0
   -1.2753   -1.0497   -0.2556 N   0  0  0  0  0  0  0  0  0  0  0  0
   -2.0936   -0.4841   -0.4751 H   0  0  0  0  0  0  0  0  0  0  0  0
    0.0187   -0.3503   -0.2075 C   0  0  1  0  0  0  0  0  0  0  0  0
    0.6765   -0.8750    0.4944 H   0  0  0  0  0  0  0  0  0  0  0  0
    0.6436   -0.3319   -1.6266 C   0  0  0  0  0  0  0  0  0  0  0  0
   -0.0280   -0.8278   -2.3324 H   0  0  0  0  0  0  0  0  0  0  0  0
    0.7570    0.7021   -1.9648 H   0  0  0  0  0  0  0  0  0  0  0  0
    2.0045   -1.0142   -1.7300 C   0  0  0  0  0  0  0  0  0  0  0  0
    2.4661   -1.7555   -0.8852 O   0  0  0  0  0  0  0  0  0  0  0  0
    2.7951   -0.8310   -2.8280 N   0  0  0  0  0  0  0  0  0  0  0  0
    3.5886   -1.4610   -2.9072 H   0  0  0  0  0  0  0  0  0  0  0  0
    2.3901   -0.4156   -3.6600 H   0  0  0  0  0  0  0  0  0  0  0  0
   -0.1384    1.0806    0.3365 C   0  0  0  0  0  0  0  0  0  0  0  0
   -1.0639    1.7810   -0.0571 O   0  0  0  0  0  0  0  0  0  0  0  0
    0.7439    1.5727    1.2796 N   0  0  0  0  0  0  0  0  0  0  0  0
    1.4827    0.9522    1.6027 H   0  0  0  0  0  0  0  0  0  0  0  0
    0.6397    2.9073    1.8565 C   0  0  0  0  0  0  0  0  0  0  0  0
   -0.3208    3.0304    2.3676 H   0  0  0  0  0  0  0  0  0  0  0  0
    1.4414    3.0681    2.5838 H   0  0  0  0  0  0  0  0  0  0  0  0
    0.7237    3.6698    1.0751 H   0  0  0  0  0  0  0  0  0  0  0  0
  1  2  1  0  0  0  0
  2  3  1  0  0  0  0
  2  4  1  0  0  0  0
  2  5  1  0  0  0  0
  5  6  2  0  0  0  0
  5  7  1  0  0  0  0
  7  8  1  0  0  0  0
  7  9  1  0  0  0  0
  9 10  1  0  0  0  0
  9 11  1  0  0  0  0
  9 19  1  0  0  0  0
 11 12  1  0  0  0  0
 11 13  1  0  0  0  0
 11 14  1  0  0  0  0
 14 15  2  0  0  0  0
 14 16  1  0  0  0  0
 16 17  1  0  0  0  0
 16 18  1  0  0  0  0
 19 20  2  0  0  0  0
 19 21  1  0  0  0  0
 21 22  1  0  0  0  0
 21 23  1  0  0  0  0
 23 24  1  0  0  0  0
 23 25  1  0  0  0  0
 23 26  1  0  0  0  0
M  END
$$$$

  -OEChem-04042215573D

 26 25  0     1  0  0  0  0  0999 V2000
   -2.9141   -3.9397    0.4975 H   0  0  0  0  0  0  0  0  0  0  0  0
   -2.9087   -2.9084    0.1334 C   0  0  0  0  0  0  0  0  0  0  0  0
   -3.5810   -2.3118    0.7545 H   0  0  0  0  0  0  0  0  0  0  0  0
   -3.2697   -2.8979   -0.8978 H   0  0  0  0  0  0  0  0  0  0  0  0
   -1.5037   -2.3390    0.1967 C   0  0  0  0  0  0  0  0  0  0  0  0
   -0.5997   -3.0095    0.6639 O   0  0  0  0  0  0  0  0  0  0  0  0
   -1.2728   -1.0486   -0.2344 N   0  0  0  0  0  0  0  0  0  0  0  0
   -2.0847   -0.4967   -0.5055 H   0  0  0  0  0  0  0  0  0  0  0  0
    0.0238   -0.3536   -0.1974 C   0  0  1  0  0  0  0  0  0  0  0  0
    0.6942   -0.8782    0.4931 H   0  0  0  0  0  0  0  0  0  0  0  0
    0.6311   -0.3325   -1.6236 C   0  0  0  0  0  0  0  0  0  0  0  0
   -0.0467   -0.8264   -2.3249 H   0  0  0  0  0  0  0  0  0  0  0  0
    0.7441    0.7015   -1.9622 H   0  0  0  0  0  0  0  0  0  0  0  0
    1.9862   -1.0225   -1.7303 C   0  0  0  0  0  0  0  0  0  0  0  0
    2.3313   -1.9530   -1.0307 O   0  0  0  0  0  0  0  0  0  0  0  0
    2.9100   -0.6176   -2.6507 N   0  0  0  0  0  0  0  0  0  0  0  0
    3.7053   -1.2373   -2.7783 H   0  0  0  0  0  0  0  0  0  0  0  0
    2.6186   -0.0008   -3.4015 H   0  0  0  0  0  0  0  0  0  0  0  0
   -0.1309    1.0807    0.3398 C   0  0  0  0  0  0  0  0  0  0  0  0
   -1.0474    1.7863   -0.0655 O   0  0  0  0  0  0  0  0  0  0  0  0
    0.7553    1.5773    1.2770 N   0  0  0  0  0  0  0  0  0  0  0  0
    1.4749    0.9479    1.6244 H   0  0  0  0  0  0  0  0  0  0  0  0
    0.6448    2.9105    1.8559 C   0  0  0  0  0  0  0  0  0  0  0  0
   -0.3132    3.0252    2.3740 H   0  0  0  0  0  0  0  0  0  0  0  0
    1.4504    3.0770    2.5775 H   0  0  0  0  0  0  0  0  0  0  0  0
    0.7172    3.6744    1.0747 H   0  0  0  0  0  0  0  0  0  0  0  0
  1  2  1  0  0  0  0
  2  3  1  0  0  0  0
  2  4  1  0  0  0  0
  2  5  1  0  0  0  0
  5  6  2  0  0  0  0
  5  7  1  0  0  0  0
  7  8  1  0  0  0  0
  7  9  1  0  0  0  0
  9 10  1  0  0  0  0
  9 11  1  0  0  0  0
  9 19  1  0  0  0  0
 11 12  1  0  0  0  0
 11 13  1  0  0  0  0
 11 14  1  0  0  0  0
 14 15  2  0  0  0  0
 14 16  1  0  0  0  0
 16 17  1  0  0  0  0
 16 18  1  0  0  0  0
 19 20  2  0  0  0  0
 19 21  1  0  0  0  0
 21 22  1  0  0  0  0
 21 23  1  0  0  0  0
 23 24  1  0  0  0  0
 23 25  1  0  0  0  0
 23 26  1  0  0  0  0
M  END
$$$$

  -OEChem-04042215573D

 26 25  0     1  0  0  0  0  0999 V2000
   -2.9009   -3.9573    0.4714 H   0  0  0  0  0  0  0  0  0  0  0  0
   -2.8995   -2.9244    0.1122 C   0  0  0  0  0  0  0  0  0  0  0  0
   -3.5980   -2.3397    0.7155 H   0  0  0  0  0  0  0  0  0  0  0  0
   -3.2297   -2.9139   -0.9292 H   0  0  0  0  0  0  0  0  0  0  0  0
   -1.5051   -2.3363    0.2197 C   0  0  0  0  0  0  0  0  0  0  0  0
   -0.6127   -2.9848    0.7382 O   0  0  0  0  0  0  0  0  0  0  0  0
   -1.2757   -1.0469   -0.2156 N   0  0  0  0  0  0  0  0  0  0  0  0
   -2.0814   -0.5111   -0.5325 H   0  0  0  0  0  0  0  0  0  0  0  0
    0.0221   -0.3547   -0.1891 C   0  0  1  0  0  0  0  0  0  0  0  0
    0.7043   -0.8834    0.4873 H   0  0  0  0  0  0  0  0  0  0  0  0
    0.6112   -0.3276   -1.6218 C   0  0  0  0  0  0  0  0  0  0  0  0
   -0.0713   -0.8200   -2.3200 H   0  0  0  0  0  0  0  0  0  0  0  0
    0.7223    0.7064   -1.9609 H   0  0  0  0  0  0  0  0  0  0  0  0
    1.9611   -1.0243   -1.7272 C   0  0  0  0  0  0  0  0  0  0  0  0
    2.1977   -2.1017   -1.2210 O   0  0  0  0  0  0  0  0  0  0  0  0
    3.0031   -0.4536   -2.4008 N   0  0  0  0  0  0  0  0  0  0  0  0
    3.8028   -1.0582   -2.5675 H   0  0  0  0  0  0  0  0  0  0  0  0
    2.8187    0.3287   -3.0196 H   0  0  0  0  0  0  0  0  0  0  0  0
   -0.1280    1.0808    0.3479 C   0  0  0  0  0  0  0  0  0  0  0  0
   -1.0328    1.7946   -0.0690 O   0  0  0  0  0  0  0  0  0  0  0  0
    0.7644    1.5787    1.2786 N   0  0  0  0  0  0  0  0  0  0  0  0
    1.4641    0.9397    1.6482 H   0  0  0  0  0  0  0  0  0  0  0  0
    0.6608    2.9165    1.8488 C   0  0  0  0  0  0  0  0  0  0  0  0
   -0.2881    3.0332    2.3829 H   0  0  0  0  0  0  0  0  0  0  0  0
    1.4787    3.0917    2.5543 H   0  0  0  0  0  0  0  0  0  0  0  0
    0.7173    3.6746    1.0606 H   0  0  0  0  0  0  0  0  0  0  0  0
  1  2  1  0  0  0  0
  2  3  1  0  0  0  0
  2  4  1  0  0  0  0
  2  5  1  0  0  0  0
  5  6  2  0  0  0  0
  5  7  1  0  0  0  0
  7  8  1  0  0  0  0
  7  9  1  0  0  0  0
  9 10  1  0  0  0  0
  9 11  1  0  0  0  0
  9 19  1  0  0  0  0
 11 12  1  0  0  0  0
 11 13  1  0  0  0  0
 11 14  1  0  0  0  0
 14 15  2  0  0  0  0
 14 16  1  0  0  0  0
 16 17  1  0  0  0  0
 16 18  1  0  0  0  0
 19 20  2  0  0  0  0
 19 21  1  0  0  0  0
 21 22  1  0  0  0  0
 21 23  1  0  0  0  0
 23 24  1  0  0  0  0
 23 25  1  0  0  0  0
 23 26  1  0  0  0  0
M  END
$$$$

  -OEChem-04042215573D

 26 25  0     1  0  0  0  0  0999 V2000
   -2.8838   -3.9677    0.4707 H   0  0  0  0  0  0  0  0  0  0  0  0
   -2.8910   -2.9348    0.1112 C   0  0  0  0  0  0  0  0  0  0  0  0
   -3.6002   -2.3579    0.7096 H   0  0  0  0  0  0  0  0  0  0  0  0
   -3.2140   -2.9284   -0.9326 H   0  0  0  0  0  0  0  0  0  0  0  0
   -1.5039   -2.3315    0.2285 C   0  0  0  0  0  0  0  0  0  0  0  0
   -0.6111   -2.9640    0.7668 O   0  0  0  0  0  0  0  0  0  0  0  0
   -1.2818   -1.0424   -0.2115 N   0  0  0  0  0  0  0  0  0  0  0  0
   -2.0858   -0.5176   -0.5503 H   0  0  0  0  0  0  0  0  0  0  0  0
    0.0169   -0.3526   -0.1982 C   0  0  1  0  0  0  0  0  0  0  0  0
    0.7081   -0.8837    0.4674 H   0  0  0  0  0  0  0  0  0  0  0  0
    0.5902   -0.3237   -1.6359 C   0  0  0  0  0  0  0  0  0  0  0  0
   -0.0960   -0.8198   -2.3278 H   0  0  0  0  0  0  0  0  0  0  0  0
    0.6998    0.7079   -1.9826 H   0  0  0  0  0  0  0  0  0  0  0  0
    1.9350   -1.0270   -1.7349 C   0  0  0  0  0  0  0  0  0  0  0  0
    2.0856   -2.1989   -1.4589 O   0  0  0  0  0  0  0  0  0  0  0  0
    3.0699   -0.3506   -2.0812 N   0  0  0  0  0  0  0  0  0  0  0  0
    3.8858   -0.9277   -2.2665 H   0  0  0  0  0  0  0  0  0  0  0  0
    2.9845    0.5635   -2.5130 H   0  0  0  0  0  0  0  0  0  0  0  0
   -0.1251    1.0835    0.3392 C   0  0  0  0  0  0  0  0  0  0  0  0
   -1.0276    1.8020   -0.0740 O   0  0  0  0  0  0  0  0  0  0  0  0
    0.7778    1.5795    1.2610 N   0  0  0  0  0  0  0  0  0  0  0  0
    1.4693    0.9346    1.6352 H   0  0  0  0  0  0  0  0  0  0  0  0
    0.6732    2.9127    1.8420 C   0  0  0  0  0  0  0  0  0  0  0  0
   -0.2746    3.0232    2.3794 H   0  0  0  0  0  0  0  0  0  0  0  0
    1.4925    3.0832    2.5471 H   0  0  0  0  0  0  0  0  0  0  0  0
    0.7264    3.6774    1.0600 H   0  0  0  0  0  0  0  0  0  0  0  0
  1  2  1  0  0  0  0
  2  3  1  0  0  0  0
  2  4  1  0  0  0  0
  2  5  1  0  0  0  0
  5  6  2  0  0  0  0
  5  7  1  0  0  0  0
  7  8  1  0  0  0  0
  7  9  1  0  0  0  0
  9 10  1  0  0  0  0
  9 11  1  0  0  0  0
  9 19  1  0  0  0  0
 11 12  1  0  0  0  0
 11 13  1  0  0  0  0
 11 14  1  0  0  0  0
 14 15  2  0  0  0  0
 14 16  1  0  0  0  0
 16 17  1  0  0  0  0
 16 18  1  0  0  0  0
 19 20  2  0  0  0  0
 19 21  1  0  0  0  0
 21 22  1  0  0  0  0
 21 23  1  0  0  0  0
 23 24  1  0  0  0  0
 23 25  1  0  0  0  0
 23 26  1  0  0  0  0
M  END
$$$$

  -OEChem-04042215573D

 26 25  0     1  0  0  0  0  0999 V2000
   -2.8688   -3.9742    0.4688 H   0  0  0  0  0  0  0  0  0  0  0  0
   -2.8828   -2.9428    0.1052 C   0  0  0  0  0  0  0  0  0  0  0  0
   -3.6017   -2.3700    0.6959 H   0  0  0  0  0  0  0  0  0  0  0  0
   -3.1983   -2.9438   -0.9409 H   0  0  0  0  0  0  0  0  0  0  0  0
   -1.5019   -2.3267    0.2293 C   0  0  0  0  0  0  0  0  0  0  0  0
   -0.6045   -2.9511    0.7700 O   0  0  0  0  0  0  0  0  0  0  0  0
   -1.2863   -1.0365   -0.2115 N   0  0  0  0  0  0  0  0  0  0  0  0
   -2.0894   -0.5191   -0.5635 H   0  0  0  0  0  0  0  0  0  0  0  0
    0.0119   -0.3466   -0.2012 C   0  0  1  0  0  0  0  0  0  0  0  0
    0.7049   -0.8775    0.4625 H   0  0  0  0  0  0  0  0  0  0  0  0
    0.5815   -0.3214   -1.6390 C   0  0  0  0  0  0  0  0  0  0  0  0
   -0.1045   -0.8208   -2.3291 H   0  0  0  0  0  0  0  0  0  0  0  0
    0.6945    0.7074   -1.9929 H   0  0  0  0  0  0  0  0  0  0  0  0
    1.9238   -1.0283   -1.7230 C   0  0  0  0  0  0  0  0  0  0  0  0
    2.0261   -2.2373   -1.6980 O   0  0  0  0  0  0  0  0  0  0  0  0
    3.0966   -0.3292   -1.7633 N   0  0  0  0  0  0  0  0  0  0  0  0
    3.9270   -0.8787   -1.9671 H   0  0  0  0  0  0  0  0  0  0  0  0
    3.0703    0.6574   -1.9984 H   0  0  0  0  0  0  0  0  0  0  0  0
   -0.1246    1.0900    0.3369 C   0  0  0  0  0  0  0  0  0  0  0  0
   -1.0231    1.8129   -0.0765 O   0  0  0  0  0  0  0  0  0  0  0  0
    0.7832    1.5834    1.2555 N   0  0  0  0  0  0  0  0  0  0  0  0
    1.4647    0.9325    1.6374 H   0  0  0  0  0  0  0  0  0  0  0  0
    0.6798    2.9145    1.8412 C   0  0  0  0  0  0  0  0  0  0  0  0
   -0.2629    3.0201    2.3883 H   0  0  0  0  0  0  0  0  0  0  0  0
    1.5056    3.0859    2.5383 H   0  0  0  0  0  0  0  0  0  0  0  0
    0.7225    3.6819    1.0611 H   0  0  0  0  0  0  0  0  0  0  0  0
  1  2  1  0  0  0  0
  2  3  1  0  0  0  0
  2  4  1  0  0  0  0
  2  5  1  0  0  0  0
  5  6  2  0  0  0  0
  5  7  1  0  0  0  0
  7  8  1  0  0  0  0
  7  9  1  0  0  0  0
  9 10  1  0  0  0  0
  9 11  1  0  0  0  0
  9 19  1  0  0  0  0
 11 12  1  0  0  0  0
 11 13  1  0  0  0  0
 11 14  1  0  0  0  0
 14 15  2  0  0  0  0
 14 16  1  0  0  0  0
 16 17  1  0  0  0  0
 16 18  1  0  0  0  0
 19 20  2  0  0  0  0
 19 21  1  0  0  0  0
 21 22  1  0  0  0  0
 21 23  1  0  0  0  0
 23 24  1  0  0  0  0
 23 25  1  0  0  0  0
 23 26  1  0  0  0  0
M  END
$$$$

  -OEChem-04042215573D

 26 25  0     1  0  0  0  0  0999 V2000
   -2.8698   -3.9723    0.4656 H   0  0  0  0  0  0  0  0  0  0  0  0
   -2.8843   -2.9410    0.1019 C   0  0  0  0  0  0  0  0  0  0  0  0
   -3.6055   -2.3692    0.6907 H   0  0  0  0  0  0  0  0  0  0  0  0
   -3.1972   -2.9423   -0.9450 H   0  0  0  0  0  0  0  0  0  0  0  0
   -1.5046   -2.3226    0.2289 C   0  0  0  0  0  0  0  0  0  0  0  0
   -0.6040   -2.9471    0.7652 O   0  0  0  0  0  0  0  0  0  0  0  0
   -1.2886   -1.0331   -0.2134 N   0  0  0  0  0  0  0  0  0  0  0  0
   -2.0904   -0.5168   -0.5705 H   0  0  0  0  0  0  0  0  0  0  0  0
    0.0101   -0.3444   -0.1981 C   0  0  1  0  0  0  0  0  0  0  0  0
    0.6982   -0.8741    0.4712 H   0  0  0  0  0  0  0  0  0  0  0  0
    0.5868   -0.3284   -1.6323 C   0  0  0  0  0  0  0  0  0  0  0  0
   -0.0966   -0.8300   -2.3236 H   0  0  0  0  0  0  0  0  0  0  0  0
    0.7070    0.6970   -1.9930 H   0  0  0  0  0  0  0  0  0  0  0  0
    1.9276   -1.0390   -1.6976 C   0  0  0  0  0  0  0  0  0  0  0  0
    2.0232   -2.2269   -1.9283 O   0  0  0  0  0  0  0  0  0  0  0  0
    3.0984   -0.3717   -1.4728 N   0  0  0  0  0  0  0  0  0  0  0  0
    3.9436   -0.8884   -1.7014 H   0  0  0  0  0  0  0  0  0  0  0  0
    3.0972    0.6419   -1.5188 H   0  0  0  0  0  0  0  0  0  0  0  0
   -0.1242    1.0934    0.3365 C   0  0  0  0  0  0  0  0  0  0  0  0
   -1.0184    1.8187   -0.0814 O   0  0  0  0  0  0  0  0  0  0  0  0
    0.7819    1.5852    1.2579 N   0  0  0  0  0  0  0  0  0  0  0  0
    1.4520    0.9298    1.6518 H   0  0  0  0  0  0  0  0  0  0  0  0
    0.6757    2.9156    1.8453 C   0  0  0  0  0  0  0  0  0  0  0  0
   -0.2663    3.0178    2.3945 H   0  0  0  0  0  0  0  0  0  0  0  0
    1.5026    3.0886    2.5408 H   0  0  0  0  0  0  0  0  0  0  0  0
    0.7143    3.6842    1.0661 H   0  0  0  0  0  0  0  0  0  0  0  0
  1  2  1  0  0  0  0
  2  3  1  0  0  0  0
  2  4  1  0  0  0  0
  2  5  1  0  0  0  0
  5  6  2  0  0  0  0
  5  7  1  0  0  0  0
  7  8  1  0  0  0  0
  7  9  1  0  0  0  0
  9 10  1  0  0  0  0
  9 11  1  0  0  0  0
  9 19  1  0  0  0  0
 11 12  1  0  0  0  0
 11 13  1  0  0  0  0
 11 14  1  0  0  0  0
 14 15  2  0  0  0  0
 14 16  1  0  0  0  0
 16 17  1  0  0  0  0
 16 18  1  0  0  0  0
 19 20  2  0  0  0  0
 19 21  1  0  0  0  0
 21 22  1  0  0  0  0
 21 23  1  0  0  0  0
 23 24  1  0  0  0  0
 23 25  1  0  0  0  0
 23 26  1  0  0  0  0
M  END
$$$$

  -OEChem-04042215573D

 26 25  0     1  0  0  0  0  0999 V2000
   -2.8868   -3.9609    0.4739 H   0  0  0  0  0  0  0  0  0  0  0  0
   -2.8975   -2.9303    0.1077 C   0  0  0  0  0  0  0  0  0  0  0  0
   -3.6098   -2.3521    0.7012 H   0  0  0  0  0  0  0  0  0  0  0  0
   -3.2194   -2.9320   -0.9366 H   0  0  0  0  0  0  0  0  0  0  0  0
   -1.5127   -2.3211    0.2214 C   0  0  0  0  0  0  0  0  0  0  0  0
   -0.6088   -2.9532    0.7433 O   0  0  0  0  0  0  0  0  0  0  0  0
   -1.2910   -1.0328   -0.2213 N   0  0  0  0  0  0  0  0  0  0  0  0
   -2.0918   -0.5094   -0.5706 H   0  0  0  0  0  0  0  0  0  0  0  0
    0.0093   -0.3482   -0.1960 C   0  0  1  0  0  0  0  0  0  0  0  0
    0.6882   -0.8770    0.4833 H   0  0  0  0  0  0  0  0  0  0  0  0
    0.5997   -0.3441   -1.6244 C   0  0  0  0  0  0  0  0  0  0  0  0
   -0.0802   -0.8453   -2.3199 H   0  0  0  0  0  0  0  0  0  0  0  0
    0.7315    0.6783   -1.9895 H   0  0  0  0  0  0  0  0  0  0  0  0
    1.9383   -1.0607   -1.6681 C   0  0  0  0  0  0  0  0  0  0  0  0
    2.0648   -2.1718   -2.1413 O   0  0  0  0  0  0  0  0  0  0  0  0
    3.0808   -0.4633   -1.2151 N   0  0  0  0  0  0  0  0  0  0  0  0
    3.9438   -0.9402   -1.4632 H   0  0  0  0  0  0  0  0  0  0  0  0
    3.0815    0.5425   -1.0833 H   0  0  0  0  0  0  0  0  0  0  0  0
   -0.1234    1.0912    0.3349 C   0  0  0  0  0  0  0  0  0  0  0  0
   -1.0110    1.8193   -0.0913 O   0  0  0  0  0  0  0  0  0  0  0  0
    0.7776    1.5804    1.2630 N   0  0  0  0  0  0  0  0  0  0  0  0
    1.4282    0.9180    1.6773 H   0  0  0  0  0  0  0  0  0  0  0  0
    0.6657    2.9103    1.8511 C   0  0  0  0  0  0  0  0  0  0  0  0
   -0.2806    3.0112    2.3930 H   0  0  0  0  0  0  0  0  0  0  0  0
    1.4872    3.0844    2.5529 H   0  0  0  0  0  0  0  0  0  0  0  0
    0.7095    3.6794    1.0726 H   0  0  0  0  0  0  0  0  0  0  0  0
  1  2  1  0  0  0  0
  2  3  1  0  0  0  0
  2  4  1  0  0  0  0
  2  5  1  0  0  0  0
  5  6  2  0  0  0  0
  5  7  1  0  0  0  0
  7  8  1  0  0  0  0
  7  9  1  0  0  0  0
  9 10  1  0  0  0  0
  9 11  1  0  0  0  0
  9 19  1  0  0  0  0
 11 12  1  0  0  0  0
 11 13  1  0  0  0  0
 11 14  1  0  0  0  0
 14 15  2  0  0  0  0
 14 16  1  0  0  0  0
 16 17  1  0  0  0  0
 16 18  1  0  0  0  0
 19 20  2  0  0  0  0
 19 21  1  0  0  0  0
 21 22  1  0  0  0  0
 21 23  1  0  0  0  0
 23 24  1  0  0  0  0
 23 25  1  0  0  0  0
 23 26  1  0  0  0  0
M  END
$$$$

  -OEChem-04042215573D

 26 25  0     1  0  0  0  0  0999 V2000
   -2.9199   -3.9472    0.4746 H   0  0  0  0  0  0  0  0  0  0  0  0
   -2.9219   -2.9163    0.1096 C   0  0  0  0  0  0  0  0  0  0  0  0
   -3.6277   -2.3323    0.7050 H   0  0  0  0  0  0  0  0  0  0  0  0
   -3.2461   -2.9143   -0.9339 H   0  0  0  0  0  0  0  0  0  0  0  0
   -1.5314   -2.3201    0.2209 C   0  0  0  0  0  0  0  0  0  0  0  0
   -0.6290   -2.9633    0.7323 O   0  0  0  0  0  0  0  0  0  0  0  0
   -1.2970   -1.0350   -0.2244 N   0  0  0  0  0  0  0  0  0  0  0  0
   -2.0932   -0.5030   -0.5718 H   0  0  0  0  0  0  0  0  0  0  0  0
    0.0073   -0.3585   -0.1874 C   0  0  1  0  0  0  0  0  0  0  0  0
    0.6725   -0.8883    0.5043 H   0  0  0  0  0  0  0  0  0  0  0  0
    0.6138   -0.3719   -1.6094 C   0  0  0  0  0  0  0  0  0  0  0  0
   -0.0636   -0.8722   -2.3081 H   0  0  0  0  0  0  0  0  0  0  0  0
    0.7589    0.6471   -1.9788 H   0  0  0  0  0  0  0  0  0  0  0  0
    1.9487   -1.0972   -1.6370 C   0  0  0  0  0  0  0  0  0  0  0  0
    2.1360   -2.0807   -2.3247 O   0  0  0  0  0  0  0  0  0  0  0  0
    3.0495   -0.5919   -1.0042 N   0  0  0  0  0  0  0  0  0  0  0  0
    3.9305   -1.0205   -1.2759 H   0  0  0  0  0  0  0  0  0  0  0  0
    3.0340    0.3806   -0.7171 H   0  0  0  0  0  0  0  0  0  0  0  0
   -0.1215    1.0840    0.3358 C   0  0  0  0  0  0  0  0  0  0  0  0
   -1.0015    1.8147   -0.1010 O   0  0  0  0  0  0  0  0  0  0  0  0
    0.7726    1.5709    1.2717 N   0  0  0  0  0  0  0  0  0  0  0  0
    1.4013    0.9018    1.7082 H   0  0  0  0  0  0  0  0  0  0  0  0
    0.6580    2.9024    1.8558 C   0  0  0  0  0  0  0  0  0  0  0  0
   -0.2915    3.0054    2.3918 H   0  0  0  0  0  0  0  0  0  0  0  0
    1.4753    3.0772    2.5621 H   0  0  0  0  0  0  0  0  0  0  0  0
    0.7073    3.6699    1.0760 H   0  0  0  0  0  0  0  0  0  0  0  0
  1  2  1  0  0  0  0
  2  3  1  0  0  0  0
  2  4  1  0  0  0  0
  2  5  1  0  0  0  0
  5  6  2  0  0  0  0
  5  7  1  0  0  0  0
  7  8  1  0  0  0  0
  7  9  1  0  0  0  0
  9 10  1  0  0  0  0
  9 11  1  0  0  0  0
  9 19  1  0  0  0  0
 11 12  1  0  0  0  0
 11 13  1  0  0  0  0
 11 14  1  0  0  0  0
 14 15  2  0  0  0  0
 14 16  1  0  0  0  0
 16 17  1  0  0  0  0
 16 18  1  0  0  0  0
 19 20  2  0  0  0  0
 19 21  1  0  0  0  0
 21 22  1  0  0  0  0
 21 23  1  0  0  0  0
 23 24  1  0  0  0  0
 23 25  1  0  0  0  0
 23 26  1  0  0  0  0
M  END
$$$$

  -OEChem-04042215573D

 26 25  0     1  0  0  0  0  0999 V2000
   -2.9676   -3.9237    0.4873 H   0  0  0  0  0  0  0  0  0  0  0  0
   -2.9561   -2.8927    0.1226 C   0  0  0  0  0  0  0  0  0  0  0  0
   -3.6410   -2.2960    0.7299 H   0  0  0  0  0  0  0  0  0  0  0  0
   -3.2972   -2.8831   -0.9155 H   0  0  0  0  0  0  0  0  0  0  0  0
   -1.5534   -2.3221    0.2120 C   0  0  0  0  0  0  0  0  0  0  0  0
   -0.6541   -2.9813    0.7087 O   0  0  0  0  0  0  0  0  0  0  0  0
   -1.3022   -1.0410   -0.2350 N   0  0  0  0  0  0  0  0  0  0  0  0
   -2.0933   -0.4939   -0.5708 H   0  0  0  0  0  0  0  0  0  0  0  0
    0.0077   -0.3770   -0.1838 C   0  0  1  0  0  0  0  0  0  0  0  0
    0.6573   -0.9099    0.5199 H   0  0  0  0  0  0  0  0  0  0  0  0
    0.6295   -0.4051   -1.6000 C   0  0  0  0  0  0  0  0  0  0  0  0
   -0.0478   -0.8995   -2.3030 H   0  0  0  0  0  0  0  0  0  0  0  0
    0.7897    0.6117   -1.9696 H   0  0  0  0  0  0  0  0  0  0  0  0
    1.9590   -1.1421   -1.6224 C   0  0  0  0  0  0  0  0  0  0  0  0
    2.2283   -1.9504   -2.4883 O   0  0  0  0  0  0  0  0  0  0  0  0
    3.0088   -0.7561   -0.8369 N   0  0  0  0  0  0  0  0  0  0  0  0
    3.9093   -1.1290   -1.1261 H   0  0  0  0  0  0  0  0  0  0  0  0
    2.9669    0.1573   -0.3996 H   0  0  0  0  0  0  0  0  0  0  0  0
   -0.1190    1.0680    0.3329 C   0  0  0  0  0  0  0  0  0  0  0  0
   -0.9897    1.8017   -0.1168 O   0  0  0  0  0  0  0  0  0  0  0  0
    0.7651    1.5524    1.2799 N   0  0  0  0  0  0  0  0  0  0  0  0
    1.3662    0.8770    1.7442 H   0  0  0  0  0  0  0  0  0  0  0  0
    0.6466    2.8870    1.8563 C   0  0  0  0  0  0  0  0  0  0  0  0
   -0.3110    2.9969    2.3761 H   0  0  0  0  0  0  0  0  0  0  0  0
    1.4532    3.0620    2.5748 H   0  0  0  0  0  0  0  0  0  0  0  0
    0.7111    3.6503    1.0736 H   0  0  0  0  0  0  0  0  0  0  0  0
  1  2  1  0  0  0  0
  2  3  1  0  0  0  0
  2  4  1  0  0  0  0
  2  5  1  0  0  0  0
  5  6  2  0  0  0  0
  5  7  1  0  0  0  0
  7  8  1  0  0  0  0
  7  9  1  0  0  0  0
  9 10  1  0  0  0  0
  9 11  1  0  0  0  0
  9 19  1  0  0  0  0
 11 12  1  0  0  0  0
 11 13  1  0  0  0  0
 11 14  1  0  0  0  0
 14 15  2  0  0  0  0
 14 16  1  0  0  0  0
 16 17  1  0  0  0  0
 16 18  1  0  0  0  0
 19 20  2  0  0  0  0
 19 21  1  0  0  0  0
 21 22  1  0  0  0  0
 21 23  1  0  0  0  0
 23 24  1  0  0  0  0
 23 25  1  0  0  0  0
 23 26  1  0  0  0  0
M  END
$$$$

  -OEChem-04042215573D

 26 25  0     1  0  0  0  0  0999 V2000
   -2.8900   -3.9252    0.5148 H   0  0  0  0  0  0  0  0  0  0  0  0
   -2.8972   -2.8965    0.1437 C   0  0  0  0  0  0  0  0  0  0  0  0
   -3.5773   -2.3040    0.7604 H   0  0  0  0  0  0  0  0  0  0  0  0
   -3.2588   -2.8973   -0.8875 H   0  0  0  0  0  0  0  0  0  0  0  0
   -1.4994   -2.3096    0.2010 C   0  0  0  0  0  0  0  0  0  0  0  0
   -0.5729   -2.9668    0.6506 O   0  0  0  0  0  0  0  0  0  0  0  0
   -1.2725   -1.0226   -0.2414 N   0  0  0  0  0  0  0  0  0  0  0  0
   -2.0796   -0.4699   -0.5286 H   0  0  0  0  0  0  0  0  0  0  0  0
    0.0299   -0.3443   -0.1965 C   0  0  1  0  0  0  0  0  0  0  0  0
    0.6877   -0.8680    0.5027 H   0  0  0  0  0  0  0  0  0  0  0  0
    0.6362   -0.3401   -1.6206 C   0  0  0  0  0  0  0  0  0  0  0  0
   -0.0556   -0.8174   -2.3212 H   0  0  0  0  0  0  0  0  0  0  0  0
    0.7763    0.6891   -1.9642 H   0  0  0  0  0  0  0  0  0  0  0  0
    1.9795   -1.0522   -1.7350 C   0  0  0  0  0  0  0  0  0  0  0  0
    2.3078   -1.5954   -2.7709 O   0  0  0  0  0  0  0  0  0  0  0  0
    2.9344   -1.0604   -0.7561 N   0  0  0  0  0  0  0  0  0  0  0  0
    3.7132   -1.6888   -0.9364 H   0  0  0  0  0  0  0  0  0  0  0  0
    2.6502   -0.8890    0.1995 H   0  0  0  0  0  0  0  0  0  0  0  0
   -0.1344    1.0954    0.3334 C   0  0  0  0  0  0  0  0  0  0  0  0
   -1.0629    1.7845   -0.0699 O   0  0  0  0  0  0  0  0  0  0  0  0
    0.7315    1.6101    1.2816 N   0  0  0  0  0  0  0  0  0  0  0  0
    1.4473    0.9977    1.6593 H   0  0  0  0  0  0  0  0  0  0  0  0
    0.5891    2.9481    1.8446 C   0  0  0  0  0  0  0  0  0  0  0  0
   -0.3749    3.0493    2.3544 H   0  0  0  0  0  0  0  0  0  0  0  0
    1.3857    3.1403    2.5698 H   0  0  0  0  0  0  0  0  0  0  0  0
    0.6512    3.7050    1.0554 H   0  0  0  0  0  0  0  0  0  0  0  0
  1  2  1  0  0  0  0
  2  3  1  0  0  0  0
  2  4  1  0  0  0  0
  2  5  1  0  0  0  0
  5  6  2  0  0  0  0
  5  7  1  0  0  0  0
  7  8  1  0  0  0  0
  7  9  1  0  0  0  0
  9 10  1  0  0  0  0
  9 11  1  0  0  0  0
  9 19  1  0  0  0  0
 11 12  1  0  0  0  0
 11 13  1  0  0  0  0
 11 14  1  0  0  0  0
 14 15  2  0  0  0  0
 14 16  1  0  0  0  0
 16 17  1  0  0  0  0
 16 18  1  0  0  0  0
 19 20  2  0  0  0  0
 19 21  1  0  0  0  0
 21 22  1  0  0  0  0
 21 23  1  0  0  0  0
 23 24  1  0  0  0  0
 23 25  1  0  0  0  0
 23 26  1  0  0  0  0
M  END
$$$$

  -OEChem-04042215573D

 26 25  0     1  0  0  0  0  0999 V2000
   -2.7848   -3.9307    0.5499 H   0  0  0  0  0  0  0  0  0  0  0  0
   -2.8237   -2.9053    0.1718 C   0  0  0  0  0  0  0  0  0  0  0  0
   -3.4952   -2.3212    0.8058 H   0  0  0  0  0  0  0  0  0  0  0  0
   -3.2177   -2.9211   -0.8474 H   0  0  0  0  0  0  0  0  0  0  0  0
   -1.4363   -2.2918    0.1809 C   0  0  0  0  0  0  0  0  0  0  0  0
   -0.4766   -2.9362    0.5804 O   0  0  0  0  0  0  0  0  0  0  0  0
   -1.2458   -0.9988   -0.2610 N   0  0  0  0  0  0  0  0  0  0  0  0
   -2.0703   -0.4487   -0.5013 H   0  0  0  0  0  0  0  0  0  0  0  0
    0.0413   -0.2956   -0.1933 C   0  0  1  0  0  0  0  0  0  0  0  0
    0.6842   -0.7877    0.5389 H   0  0  0  0  0  0  0  0  0  0  0  0
    0.6892   -0.2795   -1.6000 C   0  0  0  0  0  0  0  0  0  0  0  0
    0.0245   -0.7703   -2.3171 H   0  0  0  0  0  0  0  0  0  0  0  0
    0.8149    0.7533   -1.9385 H   0  0  0  0  0  0  0  0  0  0  0  0
    2.0518   -0.9622   -1.6942 C   0  0  0  0  0  0  0  0  0  0  0  0
    2.5225   -1.2438   -2.7781 O   0  0  0  0  0  0  0  0  0  0  0  0
    2.6982   -1.5585   -0.6479 N   0  0  0  0  0  0  0  0  0  0  0  0
    3.4292   -2.1964   -0.9518 H   0  0  0  0  0  0  0  0  0  0  0  0
    2.1145   -1.8529    0.1296 H   0  0  0  0  0  0  0  0  0  0  0  0
   -0.1548    1.1402    0.3344 C   0  0  0  0  0  0  0  0  0  0  0  0
   -1.1097    1.8020   -0.0531 O   0  0  0  0  0  0  0  0  0  0  0  0
    0.6915    1.6622    1.2956 N   0  0  0  0  0  0  0  0  0  0  0  0
    1.4758    1.0933    1.6016 H   0  0  0  0  0  0  0  0  0  0  0  0
    0.5416    3.0042    1.8460 C   0  0  0  0  0  0  0  0  0  0  0  0
   -0.4326    3.1123    2.3343 H   0  0  0  0  0  0  0  0  0  0  0  0
    1.3225    3.1979    2.5875 H   0  0  0  0  0  0  0  0  0  0  0  0
    0.6240    3.7552    1.0532 H   0  0  0  0  0  0  0  0  0  0  0  0
  1  2  1  0  0  0  0
  2  3  1  0  0  0  0
  2  4  1  0  0  0  0
  2  5  1  0  0  0  0
  5  6  2  0  0  0  0
  5  7  1  0  0  0  0
  7  8  1  0  0  0  0
  7  9  1  0  0  0  0
  9 10  1  0  0  0  0
  9 11  1  0  0  0  0
  9 19  1  0  0  0  0
 11 12  1  0  0  0  0
 11 13  1  0  0  0  0
 11 14  1  0  0  0  0
 14 15  2  0  0  0  0
 14 16  1  0  0  0  0
 16 17  1  0  0  0  0
 16 18  1  0  0  0  0
 19 20  2  0  0  0  0
 19 21  1  0  0  0  0
 21 22  1  0  0  0  0
 21 23  1  0  0  0  0
 23 24  1  0  0  0  0
 23 25  1  0  0  0  0
 23 26  1  0  0  0  0
M  END
$$$$

  -OEChem-04042215573D

 26 25  0     1  0  0  0  0  0999 V2000
   -2.8036   -3.9000    0.5950 H   0  0  0  0  0  0  0  0  0  0  0  0
   -2.8272   -2.8760    0.2116 C   0  0  0  0  0  0  0  0  0  0  0  0
   -3.4663   -2.2717    0.8600 H   0  0  0  0  0  0  0  0  0  0  0  0
   -3.2494   -2.8867   -0.7962 H   0  0  0  0  0  0  0  0  0  0  0  0
   -1.4257   -2.2968    0.1790 C   0  0  0  0  0  0  0  0  0  0  0  0
   -0.4665   -2.9708    0.5288 O   0  0  0  0  0  0  0  0  0  0  0  0
   -1.2141   -1.0103   -0.2696 N   0  0  0  0  0  0  0  0  0  0  0  0
   -2.0338   -0.4372   -0.4708 H   0  0  0  0  0  0  0  0  0  0  0  0
    0.0798   -0.3206   -0.1879 C   0  0  1  0  0  0  0  0  0  0  0  0
    0.7293   -0.7990    0.5514 H   0  0  0  0  0  0  0  0  0  0  0  0
    0.7390   -0.3170   -1.5851 C   0  0  0  0  0  0  0  0  0  0  0  0
   -0.0072   -0.5299   -2.3559 H   0  0  0  0  0  0  0  0  0  0  0  0
    1.1472    0.6758   -1.7966 H   0  0  0  0  0  0  0  0  0  0  0  0
    1.8870   -1.3119   -1.7258 C   0  0  0  0  0  0  0  0  0  0  0  0
    2.4925   -1.4059   -2.7752 O   0  0  0  0  0  0  0  0  0  0  0  0
    2.1128   -2.3390   -0.8526 N   0  0  0  0  0  0  0  0  0  0  0  0
    2.6791   -3.0882   -1.2394 H   0  0  0  0  0  0  0  0  0  0  0  0
    1.3383   -2.5944   -0.2355 H   0  0  0  0  0  0  0  0  0  0  0  0
   -0.1294    1.1184    0.3261 C   0  0  0  0  0  0  0  0  0  0  0  0
   -1.0831    1.7719   -0.0787 O   0  0  0  0  0  0  0  0  0  0  0  0
    0.6959    1.6497    1.3002 N   0  0  0  0  0  0  0  0  0  0  0  0
    1.4751    1.0846    1.6260 H   0  0  0  0  0  0  0  0  0  0  0  0
    0.5283    2.9931    1.8421 C   0  0  0  0  0  0  0  0  0  0  0  0
   -0.4546    3.0968    2.3138 H   0  0  0  0  0  0  0  0  0  0  0  0
    1.2956    3.1962    2.5955 H   0  0  0  0  0  0  0  0  0  0  0  0
    0.6183    3.7405    1.0467 H   0  0  0  0  0  0  0  0  0  0  0  0
  1  2  1  0  0  0  0
  2  3  1  0  0  0  0
  2  4  1  0  0  0  0
  2  5  1  0  0  0  0
  5  6  2  0  0  0  0
  5  7  1  0  0  0  0
  7  8  1  0  0  0  0
  7  9  1  0  0  0  0
  9 10  1  0  0  0  0
  9 11  1  0  0  0  0
  9 19  1  0  0  0  0
 11 12  1  0  0  0  0
 11 13  1  0  0  0  0
 11 14  1  0  0  0  0
 14 15  2  0  0  0  0
 14 16  1  0  0  0  0
 16 17  1  0  0  0  0
 16 18  1  0  0  0  0
 19 20  2  0  0  0  0
 19 21  1  0  0  0  0
 21 22  1  0  0  0  0
 21 23  1  0  0  0  0
 23 24  1  0  0  0  0
 23 25  1  0  0  0  0
 23 26  1  0  0  0  0
M  END
$$$$

  -OEChem-04042215573D

 26 25  0     1  0  0  0  0  0999 V2000
   -2.8743   -3.8816    0.6007 H   0  0  0  0  0  0  0  0  0  0  0  0
   -2.8806   -2.8574    0.2174 C   0  0  0  0  0  0  0  0  0  0  0  0
   -3.4978   -2.2395    0.8742 H   0  0  0  0  0  0  0  0  0  0  0  0
   -3.3164   -2.8589   -0.7847 H   0  0  0  0  0  0  0  0  0  0  0  0
   -1.4673   -2.3088    0.1668 C   0  0  0  0  0  0  0  0  0  0  0  0
   -0.5192   -3.0067    0.4969 O   0  0  0  0  0  0  0  0  0  0  0  0
   -1.2369   -1.0236   -0.2755 N   0  0  0  0  0  0  0  0  0  0  0  0
   -2.0518   -0.4386   -0.4628 H   0  0  0  0  0  0  0  0  0  0  0  0
    0.0630   -0.3413   -0.2004 C   0  0  1  0  0  0  0  0  0  0  0  0
    0.7129   -0.8323    0.5313 H   0  0  0  0  0  0  0  0  0  0  0  0
    0.7198   -0.3420   -1.5984 C   0  0  0  0  0  0  0  0  0  0  0  0
   -0.0270   -0.5566   -2.3677 H   0  0  0  0  0  0  0  0  0  0  0  0
    1.1300    0.6495   -1.8133 H   0  0  0  0  0  0  0  0  0  0  0  0
    1.8619   -1.3432   -1.7319 C   0  0  0  0  0  0  0  0  0  0  0  0
    2.6411   -1.2707   -2.6618 O   0  0  0  0  0  0  0  0  0  0  0  0
    1.9931   -2.4540   -0.9469 N   0  0  0  0  0  0  0  0  0  0  0  0
    2.6152   -3.1677   -1.3138 H   0  0  0  0  0  0  0  0  0  0  0  0
    1.1846   -2.7414   -0.3899 H   0  0  0  0  0  0  0  0  0  0  0  0
   -0.1303    1.0976    0.3189 C   0  0  0  0  0  0  0  0  0  0  0  0
   -1.0866    1.7566   -0.0706 O   0  0  0  0  0  0  0  0  0  0  0  0
    0.7073    1.6181    1.2882 N   0  0  0  0  0  0  0  0  0  0  0  0
    1.4879    1.0471    1.6004 H   0  0  0  0  0  0  0  0  0  0  0  0
    0.5521    2.9585    1.8408 C   0  0  0  0  0  0  0  0  0  0  0  0
   -0.4275    3.0656    2.3184 H   0  0  0  0  0  0  0  0  0  0  0  0
    1.3247    3.1503    2.5916 H   0  0  0  0  0  0  0  0  0  0  0  0
    0.6432    3.7113    1.0507 H   0  0  0  0  0  0  0  0  0  0  0  0
  1  2  1  0  0  0  0
  2  3  1  0  0  0  0
  2  4  1  0  0  0  0
  2  5  1  0  0  0  0
  5  6  2  0  0  0  0
  5  7  1  0  0  0  0
  7  8  1  0  0  0  0
  7  9  1  0  0  0  0
  9 10  1  0  0  0  0
  9 11  1  0  0  0  0
  9 19  1  0  0  0  0
 11 12  1  0  0  0  0
 11 13  1  0  0  0  0
 11 14  1  0  0  0  0
 14 15  2  0  0  0  0
 14 16  1  0  0  0  0
 16 17  1  0  0  0  0
 16 18  1  0  0  0  0
 19 20  2  0  0  0  0
 19 21  1  0  0  0  0
 21 22  1  0  0  0  0
 21 23  1  0  0  0  0
 23 24  1  0  0  0  0
 23 25  1  0  0  0  0
 23 26  1  0  0  0  0
M  END
$$$$

  -OEChem-04042215573D

 26 25  0     1  0  0  0  0  0999 V2000
   -2.9255   -3.8778    0.5908 H   0  0  0  0  0  0  0  0  0  0  0  0
   -2.9192   -2.8539    0.2068 C   0  0  0  0  0  0  0  0  0  0  0  0
   -3.5256   -2.2274    0.8655 H   0  0  0  0  0  0  0  0  0  0  0  0
   -3.3582   -2.8500   -0.7940 H   0  0  0  0  0  0  0  0  0  0  0  0
   -1.4991   -2.3243    0.1507 C   0  0  0  0  0  0  0  0  0  0  0  0
   -0.5591   -3.0430    0.4556 O   0  0  0  0  0  0  0  0  0  0  0  0
   -1.2581   -1.0370   -0.2787 N   0  0  0  0  0  0  0  0  0  0  0  0
   -2.0709   -0.4437   -0.4473 H   0  0  0  0  0  0  0  0  0  0  0  0
    0.0448   -0.3576   -0.2125 C   0  0  1  0  0  0  0  0  0  0  0  0
    0.7016   -0.8631    0.5039 H   0  0  0  0  0  0  0  0  0  0  0  0
    0.6894   -0.3511   -1.6153 C   0  0  0  0  0  0  0  0  0  0  0  0
   -0.0629   -0.5635   -2.3796 H   0  0  0  0  0  0  0  0  0  0  0  0
    1.0966    0.6419   -1.8302 H   0  0  0  0  0  0  0  0  0  0  0  0
    1.8282   -1.3547   -1.7543 C   0  0  0  0  0  0  0  0  0  0  0  0
    2.7546   -1.1405   -2.5117 O   0  0  0  0  0  0  0  0  0  0  0  0
    1.8670   -2.5504   -1.0947 N   0  0  0  0  0  0  0  0  0  0  0  0
    2.5596   -3.2215   -1.4112 H   0  0  0  0  0  0  0  0  0  0  0  0
    1.0361   -2.8695   -0.5907 H   0  0  0  0  0  0  0  0  0  0  0  0
   -0.1355    1.0773    0.3219 C   0  0  0  0  0  0  0  0  0  0  0  0
   -1.0947    1.7426   -0.0501 O   0  0  0  0  0  0  0  0  0  0  0  0
    0.7161    1.5861    1.2850 N   0  0  0  0  0  0  0  0  0  0  0  0
    1.5048    1.0134    1.5731 H   0  0  0  0  0  0  0  0  0  0  0  0
    0.5866    2.9304    1.8348 C   0  0  0  0  0  0  0  0  0  0  0  0
   -0.3865    3.0544    2.3215 H   0  0  0  0  0  0  0  0  0  0  0  0
    1.3692    3.1121    2.5776 H   0  0  0  0  0  0  0  0  0  0  0  0
    0.6820    3.6795    1.0416 H   0  0  0  0  0  0  0  0  0  0  0  0
  1  2  1  0  0  0  0
  2  3  1  0  0  0  0
  2  4  1  0  0  0  0
  2  5  1  0  0  0  0
  5  6  2  0  0  0  0
  5  7  1  0  0  0  0
  7  8  1  0  0  0  0
  7  9  1  0  0  0  0
  9 10  1  0  0  0  0
  9 11  1  0  0  0  0
  9 19  1  0  0  0  0
 11 12  1  0  0  0  0
 11 13  1  0  0  0  0
 11 14  1  0  0  0  0
 14 15  2  0  0  0  0
 14 16  1  0  0  0  0
 16 17  1  0  0  0  0
 16 18  1  0  0  0  0
 19 20  2  0  0  0  0
 19 21  1  0  0  0  0
 21 22  1  0  0  0  0
 21 23  1  0  0  0  0
 23 24  1  0  0  0  0
 23 25  1  0  0  0  0
 23 26  1  0  0  0  0
M  END
$$$$

  -OEChem-04042215573D

 26 25  0     1  0  0  0  0  0999 V2000
   -2.9398   -3.8853    0.5801 H   0  0  0  0  0  0  0  0  0  0  0  0
   -2.9354   -2.8613    0.1958 C   0  0  0  0  0  0  0  0  0  0  0  0
   -3.5363   -2.2344    0.8593 H   0  0  0  0  0  0  0  0  0  0  0  0
   -3.3827   -2.8573   -0.8013 H   0  0  0  0  0  0  0  0  0  0  0  0
   -1.5151   -2.3328    0.1282 C   0  0  0  0  0  0  0  0  0  0  0  0
   -0.5730   -3.0530    0.4234 O   0  0  0  0  0  0  0  0  0  0  0  0
   -1.2754   -1.0416   -0.2911 N   0  0  0  0  0  0  0  0  0  0  0  0
   -2.0880   -0.4452   -0.4494 H   0  0  0  0  0  0  0  0  0  0  0  0
    0.0313   -0.3682   -0.2371 C   0  0  1  0  0  0  0  0  0  0  0  0
    0.6978   -0.8885    0.4599 H   0  0  0  0  0  0  0  0  0  0  0  0
    0.6598   -0.3417   -1.6458 C   0  0  0  0  0  0  0  0  0  0  0  0
   -0.0987   -0.5453   -2.4064 H   0  0  0  0  0  0  0  0  0  0  0  0
    1.0686    0.6521   -1.8550 H   0  0  0  0  0  0  0  0  0  0  0  0
    1.7898   -1.3521   -1.7903 C   0  0  0  0  0  0  0  0  0  0  0  0
    2.8393   -1.0454   -2.3217 O   0  0  0  0  0  0  0  0  0  0  0  0
    1.6710   -2.6574   -1.4074 N   0  0  0  0  0  0  0  0  0  0  0  0
    2.5156   -3.2195   -1.4348 H   0  0  0  0  0  0  0  0  0  0  0  0
    0.8936   -2.9294   -0.8014 H   0  0  0  0  0  0  0  0  0  0  0  0
   -0.1348    1.0614    0.3156 C   0  0  0  0  0  0  0  0  0  0  0  0
   -1.0967    1.7346   -0.0342 O   0  0  0  0  0  0  0  0  0  0  0  0
    0.7337    1.5557    1.2712 N   0  0  0  0  0  0  0  0  0  0  0  0
    1.5314    0.9822    1.5313 H   0  0  0  0  0  0  0  0  0  0  0  0
    0.6194    2.8950    1.8360 C   0  0  0  0  0  0  0  0  0  0  0  0
   -0.3491    3.0216    2.3315 H   0  0  0  0  0  0  0  0  0  0  0  0
    1.4089    3.0628    2.5749 H   0  0  0  0  0  0  0  0  0  0  0  0
    0.7148    3.6516    1.0499 H   0  0  0  0  0  0  0  0  0  0  0  0
  1  2  1  0  0  0  0
  2  3  1  0  0  0  0
  2  4  1  0  0  0  0
  2  5  1  0  0  0  0
  5  6  2  0  0  0  0
  5  7  1  0  0  0  0
  7  8  1  0  0  0  0
  7  9  1  0  0  0  0
  9 10  1  0  0  0  0
  9 11  1  0  0  0  0
  9 19  1  0  0  0  0
 11 12  1  0  0  0  0
 11 13  1  0  0  0  0
 11 14  1  0  0  0  0
 14 15  2  0  0  0  0
 14 16  1  0  0  0  0
 16 17  1  0  0  0  0
 16 18  1  0  0  0  0
 19 20  2  0  0  0  0
 19 21  1  0  0  0  0
 21 22  1  0  0  0  0
 21 23  1  0  0  0  0
 23 24  1  0  0  0  0
 23 25  1  0  0  0  0
 23 26  1  0  0  0  0
M  END
$$$$

  -OEChem-04042215573D

 26 25  0     1  0  0  0  0  0999 V2000
   -2.9383   -3.8871    0.5767 H   0  0  0  0  0  0  0  0  0  0  0  0
   -2.9405   -2.8645    0.1888 C   0  0  0  0  0  0  0  0  0  0  0  0
   -3.5211   -2.2334    0.8663 H   0  0  0  0  0  0  0  0  0  0  0  0
   -3.4146   -2.8619   -0.7958 H   0  0  0  0  0  0  0  0  0  0  0  0
   -1.5205   -2.3416    0.0811 C   0  0  0  0  0  0  0  0  0  0  0  0
   -0.5723   -3.0768    0.3114 O   0  0  0  0  0  0  0  0  0  0  0  0
   -1.2892   -1.0431   -0.3190 N   0  0  0  0  0  0  0  0  0  0  0  0
   -2.1056   -0.4409   -0.4293 H   0  0  0  0  0  0  0  0  0  0  0  0
    0.0158   -0.3653   -0.2723 C   0  0  1  0  0  0  0  0  0  0  0  0
    0.6882   -0.8972    0.4109 H   0  0  0  0  0  0  0  0  0  0  0  0
    0.6336   -0.3305   -1.6834 C   0  0  0  0  0  0  0  0  0  0  0  0
   -0.1263   -0.5366   -2.4418 H   0  0  0  0  0  0  0  0  0  0  0  0
    1.0379    0.6646   -1.8938 H   0  0  0  0  0  0  0  0  0  0  0  0
    1.7640   -1.3399   -1.8219 C   0  0  0  0  0  0  0  0  0  0  0  0
    2.8923   -0.9816   -2.0987 O   0  0  0  0  0  0  0  0  0  0  0  0
    1.5911   -2.6777   -1.6149 N   0  0  0  0  0  0  0  0  0  0  0  0
    2.4457   -3.2212   -1.5470 H   0  0  0  0  0  0  0  0  0  0  0  0
    0.7731   -2.9720   -1.0772 H   0  0  0  0  0  0  0  0  0  0  0  0
   -0.1391    1.0553    0.3051 C   0  0  0  0  0  0  0  0  0  0  0  0
   -1.1137    1.7288   -0.0078 O   0  0  0  0  0  0  0  0  0  0  0  0
    0.7463    1.5320    1.2538 N   0  0  0  0  0  0  0  0  0  0  0  0
    1.5630    0.9652    1.4667 H   0  0  0  0  0  0  0  0  0  0  0  0
    0.6445    2.8621    1.8422 C   0  0  0  0  0  0  0  0  0  0  0  0
   -0.3219    2.9884    2.3418 H   0  0  0  0  0  0  0  0  0  0  0  0
    1.4366    3.0087    2.5829 H   0  0  0  0  0  0  0  0  0  0  0  0
    0.7456    3.6315    1.0695 H   0  0  0  0  0  0  0  0  0  0  0  0
  1  2  1  0  0  0  0
  2  3  1  0  0  0  0
  2  4  1  0  0  0  0
  2  5  1  0  0  0  0
  5  6  2  0  0  0  0
  5  7  1  0  0  0  0
  7  8  1  0  0  0  0
  7  9  1  0  0  0  0
  9 10  1  0  0  0  0
  9 11  1  0  0  0  0
  9 19  1  0  0  0  0
 11 12  1  0  0  0  0
 11 13  1  0  0  0  0
 11 14  1  0  0  0  0
 14 15  2  0  0  0  0
 14 16  1  0  0  0  0
 16 17  1  0  0  0  0
 16 18  1  0  0  0  0
 19 20  2  0  0  0  0
 19 21  1  0  0  0  0
 21 22  1  0  0  0  0
 21 23  1  0  0  0  0
 23 24  1  0  0  0  0
 23 25  1  0  0  0  0
 23 26  1  0  0  0  0
M  END
$$$$

  -OEChem-04042215573D

 26 25  0     1  0  0  0  0  0999 V2000
   -2.9152   -3.9058    0.5066 H   0  0  0  0  0  0  0  0  0  0  0  0
   -2.9301   -2.8593    0.1890 C   0  0  0  0  0  0  0  0  0  0  0  0
   -3.4562   -2.2702    0.9443 H   0  0  0  0  0  0  0  0  0  0  0  0
   -3.4680   -2.7865   -0.7594 H   0  0  0  0  0  0  0  0  0  0  0  0
   -1.5138   -2.3421    0.0225 C   0  0  0  0  0  0  0  0  0  0  0  0
   -0.5610   -3.0902    0.1784 O   0  0  0  0  0  0  0  0  0  0  0  0
   -1.2939   -1.0366   -0.3607 N   0  0  0  0  0  0  0  0  0  0  0  0
   -2.1131   -0.4308   -0.4173 H   0  0  0  0  0  0  0  0  0  0  0  0
    0.0092   -0.3543   -0.3162 C   0  0  1  0  0  0  0  0  0  0  0  0
    0.6836   -0.8942    0.3591 H   0  0  0  0  0  0  0  0  0  0  0  0
    0.6233   -0.3142   -1.7272 C   0  0  0  0  0  0  0  0  0  0  0  0
   -0.1349   -0.5207   -2.4873 H   0  0  0  0  0  0  0  0  0  0  0  0
    1.0277    0.6812   -1.9362 H   0  0  0  0  0  0  0  0  0  0  0  0
    1.7545   -1.3227   -1.8539 C   0  0  0  0  0  0  0  0  0  0  0  0
    2.9151   -0.9596   -1.8565 O   0  0  0  0  0  0  0  0  0  0  0  0
    1.5459   -2.6703   -1.8207 N   0  0  0  0  0  0  0  0  0  0  0  0
    2.3854   -3.2209   -1.6712 H   0  0  0  0  0  0  0  0  0  0  0  0
    0.6794   -2.9847   -1.3808 H   0  0  0  0  0  0  0  0  0  0  0  0
   -0.1391    1.0576    0.2826 C   0  0  0  0  0  0  0  0  0  0  0  0
   -1.1266    1.7275    0.0043 O   0  0  0  0  0  0  0  0  0  0  0  0
    0.7572    1.5204    1.2279 N   0  0  0  0  0  0  0  0  0  0  0  0
    1.5874    0.9608    1.4053 H   0  0  0  0  0  0  0  0  0  0  0  0
    0.6490    2.8322    1.8549 C   0  0  0  0  0  0  0  0  0  0  0  0
   -0.3032    2.9255    2.3879 H   0  0  0  0  0  0  0  0  0  0  0  0
    1.4613    2.9756    2.5739 H   0  0  0  0  0  0  0  0  0  0  0  0
    0.7100    3.6238    1.1006 H   0  0  0  0  0  0  0  0  0  0  0  0
  1  2  1  0  0  0  0
  2  3  1  0  0  0  0
  2  4  1  0  0  0  0
  2  5  1  0  0  0  0
  5  6  2  0  0  0  0
  5  7  1  0  0  0  0
  7  8  1  0  0  0  0
  7  9  1  0  0  0  0
  9 10  1  0  0  0  0
  9 11  1  0  0  0  0
  9 19  1  0  0  0  0
 11 12  1  0  0  0  0
 11 13  1  0  0  0  0
 11 14  1  0  0  0  0
 14 15  2  0  0  0  0
 14 16  1  0  0  0  0
 16 17  1  0  0  0  0
 16 18  1  0  0  0  0
 19 20  2  0  0  0  0
 19 21  1  0  0  0  0
 21 22  1  0  0  0  0
 21 23  1  0  0  0  0
 23 24  1  0  0  0  0
 23 25  1  0  0  0  0
 23 26  1  0  0  0  0
M  END
$$$$

  -OEChem-04042215573D

 26 25  0     1  0  0  0  0  0999 V2000
   -2.8716   -3.9204    0.4846 H   0  0  0  0  0  0  0  0  0  0  0  0
   -2.9022   -2.8735    0.1691 C   0  0  0  0  0  0  0  0  0  0  0  0
   -3.4175   -2.2904    0.9363 H   0  0  0  0  0  0  0  0  0  0  0  0
   -3.4610   -2.8032   -0.7674 H   0  0  0  0  0  0  0  0  0  0  0  0
   -1.4945   -2.3431   -0.0264 C   0  0  0  0  0  0  0  0  0  0  0  0
   -0.5347   -3.0919    0.0691 O   0  0  0  0  0  0  0  0  0  0  0  0
   -1.2950   -1.0287   -0.3892 N   0  0  0  0  0  0  0  0  0  0  0  0
   -2.1203   -0.4287   -0.4040 H   0  0  0  0  0  0  0  0  0  0  0  0
    0.0015   -0.3341   -0.3465 C   0  0  1  0  0  0  0  0  0  0  0  0
    0.6827   -0.8799    0.3180 H   0  0  0  0  0  0  0  0  0  0  0  0
    0.6059   -0.2837   -1.7600 C   0  0  0  0  0  0  0  0  0  0  0  0
   -0.1529   -0.4944   -2.5183 H   0  0  0  0  0  0  0  0  0  0  0  0
    1.0045    0.7139   -1.9685 H   0  0  0  0  0  0  0  0  0  0  0  0
    1.7430   -1.2847   -1.8816 C   0  0  0  0  0  0  0  0  0  0  0  0
    2.8843   -0.9583   -1.6160 O   0  0  0  0  0  0  0  0  0  0  0  0
    1.5245   -2.6222   -2.0311 N   0  0  0  0  0  0  0  0  0  0  0  0
    2.3340   -3.1939   -1.8103 H   0  0  0  0  0  0  0  0  0  0  0  0
    0.6138   -2.9554   -1.7155 H   0  0  0  0  0  0  0  0  0  0  0  0
   -0.1420    1.0671    0.2765 C   0  0  0  0  0  0  0  0  0  0  0  0
   -1.1366    1.7372    0.0254 O   0  0  0  0  0  0  0  0  0  0  0  0
    0.7671    1.5152    1.2164 N   0  0  0  0  0  0  0  0  0  0  0  0
    1.6050    0.9575    1.3636 H   0  0  0  0  0  0  0  0  0  0  0  0
    0.6677    2.8162    1.8665 C   0  0  0  0  0  0  0  0  0  0  0  0
   -0.2834    2.9060    2.4019 H   0  0  0  0  0  0  0  0  0  0  0  0
    1.4813    2.9415    2.5875 H   0  0  0  0  0  0  0  0  0  0  0  0
    0.7331    3.6206    1.1263 H   0  0  0  0  0  0  0  0  0  0  0  0
  1  2  1  0  0  0  0
  2  3  1  0  0  0  0
  2  4  1  0  0  0  0
  2  5  1  0  0  0  0
  5  6  2  0  0  0  0
  5  7  1  0  0  0  0
  7  8  1  0  0  0  0
  7  9  1  0  0  0  0
  9 10  1  0  0  0  0
  9 11  1  0  0  0  0
  9 19  1  0  0  0  0
 11 12  1  0  0  0  0
 11 13  1  0  0  0  0
 11 14  1  0  0  0  0
 14 15  2  0  0  0  0
 14 16  1  0  0  0  0
 16 17  1  0  0  0  0
 16 18  1  0  0  0  0
 19 20  2  0  0  0  0
 19 21  1  0  0  0  0
 21 22  1  0  0  0  0
 21 23  1  0  0  0  0
 23 24  1  0  0  0  0
 23 25  1  0  0  0  0
 23 26  1  0  0  0  0
M  END
$$$$

  -OEChem-04042215573D

 26 25  0     1  0  0  0  0  0999 V2000
   -2.8324   -3.9390    0.4383 H   0  0  0  0  0  0  0  0  0  0  0  0
   -2.8739   -2.8817    0.1618 C   0  0  0  0  0  0  0  0  0  0  0  0
   -3.3739   -2.3287    0.9608 H   0  0  0  0  0  0  0  0  0  0  0  0
   -3.4530   -2.7803   -0.7593 H   0  0  0  0  0  0  0  0  0  0  0  0
   -1.4722   -2.3395   -0.0449 C   0  0  0  0  0  0  0  0  0  0  0  0
   -0.5067   -3.0817    0.0394 O   0  0  0  0  0  0  0  0  0  0  0  0
   -1.2880   -1.0207   -0.4009 N   0  0  0  0  0  0  0  0  0  0  0  0
   -2.1177   -0.4270   -0.3984 H   0  0  0  0  0  0  0  0  0  0  0  0
    0.0033   -0.3180   -0.3505 C   0  0  1  0  0  0  0  0  0  0  0  0
    0.6825   -0.8642    0.3158 H   0  0  0  0  0  0  0  0  0  0  0  0
    0.6138   -0.2607   -1.7613 C   0  0  0  0  0  0  0  0  0  0  0  0
   -0.1402   -0.4716   -2.5242 H   0  0  0  0  0  0  0  0  0  0  0  0
    1.0117    0.7377   -1.9654 H   0  0  0  0  0  0  0  0  0  0  0  0
    1.7559   -1.2562   -1.8707 C   0  0  0  0  0  0  0  0  0  0  0  0
    2.8292   -1.0200   -1.3476 O   0  0  0  0  0  0  0  0  0  0  0  0
    1.5649   -2.5365   -2.2995 N   0  0  0  0  0  0  0  0  0  0  0  0
    2.3036   -3.1737   -2.0169 H   0  0  0  0  0  0  0  0  0  0  0  0
    0.6080   -2.8761   -2.2598 H   0  0  0  0  0  0  0  0  0  0  0  0
   -0.1445    1.0789    0.2792 C   0  0  0  0  0  0  0  0  0  0  0  0
   -1.1377    1.7505    0.0260 O   0  0  0  0  0  0  0  0  0  0  0  0
    0.7626    1.5238    1.2221 N   0  0  0  0  0  0  0  0  0  0  0  0
    1.5979    0.9621    1.3717 H   0  0  0  0  0  0  0  0  0  0  0  0
    0.6651    2.8248    1.8724 C   0  0  0  0  0  0  0  0  0  0  0  0
   -0.2792    2.9098    2.4203 H   0  0  0  0  0  0  0  0  0  0  0  0
    1.4879    2.9556    2.5819 H   0  0  0  0  0  0  0  0  0  0  0  0
    0.7162    3.6290    1.1308 H   0  0  0  0  0  0  0  0  0  0  0  0
  1  2  1  0  0  0  0
  2  3  1  0  0  0  0
  2  4  1  0  0  0  0
  2  5  1  0  0  0  0
  5  6  2  0  0  0  0
  5  7  1  0  0  0  0
  7  8  1  0  0  0  0
  7  9  1  0  0  0  0
  9 10  1  0  0  0  0
  9 11  1  0  0  0  0
  9 19  1  0  0  0  0
 11 12  1  0  0  0  0
 11 13  1  0  0  0  0
 11 14  1  0  0  0  0
 14 15  2  0  0  0  0
 14 16  1  0  0  0  0
 16 17  1  0  0  0  0
 16 18  1  0  0  0  0
 19 20  2  0  0  0  0
 19 21  1  0  0  0  0
 21 22  1  0  0  0  0
 21 23  1  0  0  0  0
 23 24  1  0  0  0  0
 23 25  1  0  0  0  0
 23 26  1  0  0  0  0
M  END
$$$$

  -OEChem-04042215573D

 26 25  0     1  0  0  0  0  0999 V2000
   -2.8312   -3.9240    0.5089 H   0  0  0  0  0  0  0  0  0  0  0  0
   -2.8700   -2.8862    0.1663 C   0  0  0  0  0  0  0  0  0  0  0  0
   -3.4183   -2.2935    0.9027 H   0  0  0  0  0  0  0  0  0  0  0  0
   -3.3999   -2.8493   -0.7886 H   0  0  0  0  0  0  0  0  0  0  0  0
   -1.4653   -2.3373    0.0009 C   0  0  0  0  0  0  0  0  0  0  0  0
   -0.5000   -3.0677    0.1549 O   0  0  0  0  0  0  0  0  0  0  0  0
   -1.2805   -1.0221   -0.3702 N   0  0  0  0  0  0  0  0  0  0  0  0
   -2.1129   -0.4342   -0.4074 H   0  0  0  0  0  0  0  0  0  0  0  0
    0.0088   -0.3163   -0.3177 C   0  0  1  0  0  0  0  0  0  0  0  0
    0.6845   -0.8551    0.3579 H   0  0  0  0  0  0  0  0  0  0  0  0
    0.6239   -0.2624   -1.7289 C   0  0  0  0  0  0  0  0  0  0  0  0
   -0.1328   -0.4722   -2.4894 H   0  0  0  0  0  0  0  0  0  0  0  0
    1.0209    0.7360   -1.9337 H   0  0  0  0  0  0  0  0  0  0  0  0
    1.7716   -1.2520   -1.8472 C   0  0  0  0  0  0  0  0  0  0  0  0
    2.7470   -1.1638   -1.1234 O   0  0  0  0  0  0  0  0  0  0  0  0
    1.6882   -2.3749   -2.6177 N   0  0  0  0  0  0  0  0  0  0  0  0
    2.3609   -3.0964   -2.3747 H   0  0  0  0  0  0  0  0  0  0  0  0
    0.7619   -2.6560   -2.9210 H   0  0  0  0  0  0  0  0  0  0  0  0
   -0.1465    1.0872    0.2938 C   0  0  0  0  0  0  0  0  0  0  0  0
   -1.1303    1.7621    0.0135 O   0  0  0  0  0  0  0  0  0  0  0  0
    0.7542    1.5409    1.2385 N   0  0  0  0  0  0  0  0  0  0  0  0
    1.5778    0.9690    1.4131 H   0  0  0  0  0  0  0  0  0  0  0  0
    0.6556    2.8472    1.8773 C   0  0  0  0  0  0  0  0  0  0  0  0
   -0.3039    2.9502    2.3950 H   0  0  0  0  0  0  0  0  0  0  0  0
    1.4574    2.9696    2.6119 H   0  0  0  0  0  0  0  0  0  0  0  0
    0.7424    3.6455    1.1328 H   0  0  0  0  0  0  0  0  0  0  0  0
  1  2  1  0  0  0  0
  2  3  1  0  0  0  0
  2  4  1  0  0  0  0
  2  5  1  0  0  0  0
  5  6  2  0  0  0  0
  5  7  1  0  0  0  0
  7  8  1  0  0  0  0
  7  9  1  0  0  0  0
  9 10  1  0  0  0  0
  9 11  1  0  0  0  0
  9 19  1  0  0  0  0
 11 12  1  0  0  0  0
 11 13  1  0  0  0  0
 11 14  1  0  0  0  0
 14 15  2  0  0  0  0
 14 16  1  0  0  0  0
 16 17  1  0  0  0  0
 16 18  1  0  0  0  0
 19 20  2  0  0  0  0
 19 21  1  0  0  0  0
 21 22  1  0  0  0  0
 21 23  1  0  0  0  0
 23 24  1  0  0  0  0
 23 25  1  0  0  0  0
 23 26  1  0  0  0  0
M  END
$$$$

  -OEChem-04042215573D

 26 25  0     1  0  0  0  0  0999 V2000
   -2.8667   -3.9131    0.5500 H   0  0  0  0  0  0  0  0  0  0  0  0
   -2.8905   -2.8845    0.1791 C   0  0  0  0  0  0  0  0  0  0  0  0
   -3.4690   -2.2734    0.8761 H   0  0  0  0  0  0  0  0  0  0  0  0
   -3.3797   -2.8728   -0.7978 H   0  0  0  0  0  0  0  0  0  0  0  0
   -1.4797   -2.3395    0.0586 C   0  0  0  0  0  0  0  0  0  0  0  0
   -0.5250   -3.0644    0.2835 O   0  0  0  0  0  0  0  0  0  0  0  0
   -1.2804   -1.0318   -0.3319 N   0  0  0  0  0  0  0  0  0  0  0  0
   -2.1099   -0.4454   -0.4173 H   0  0  0  0  0  0  0  0  0  0  0  0
    0.0109   -0.3296   -0.2752 C   0  0  1  0  0  0  0  0  0  0  0  0
    0.6758   -0.8603    0.4162 H   0  0  0  0  0  0  0  0  0  0  0  0
    0.6350   -0.2912   -1.6865 C   0  0  0  0  0  0  0  0  0  0  0  0
   -0.1259   -0.5030   -2.4420 H   0  0  0  0  0  0  0  0  0  0  0  0
    1.0288    0.7073   -1.8968 H   0  0  0  0  0  0  0  0  0  0  0  0
    1.7878   -1.2759   -1.8279 C   0  0  0  0  0  0  0  0  0  0  0  0
    2.6477   -1.3826   -0.9723 O   0  0  0  0  0  0  0  0  0  0  0  0
    1.8786   -2.1392   -2.8815 N   0  0  0  0  0  0  0  0  0  0  0  0
    2.5304   -2.9072   -2.7482 H   0  0  0  0  0  0  0  0  0  0  0  0
    1.0526   -2.2801   -3.4525 H   0  0  0  0  0  0  0  0  0  0  0  0
   -0.1477    1.0846    0.3101 C   0  0  0  0  0  0  0  0  0  0  0  0
   -1.1117    1.7688   -0.0131 O   0  0  0  0  0  0  0  0  0  0  0  0
    0.7422    1.5516    1.2585 N   0  0  0  0  0  0  0  0  0  0  0  0
    1.5405    0.9618    1.4835 H   0  0  0  0  0  0  0  0  0  0  0  0
    0.6458    2.8717    1.8685 C   0  0  0  0  0  0  0  0  0  0  0  0
   -0.3172    2.9914    2.3760 H   0  0  0  0  0  0  0  0  0  0  0  0
    1.4427    3.0056    2.6065 H   0  0  0  0  0  0  0  0  0  0  0  0
    0.7430    3.6531    1.1076 H   0  0  0  0  0  0  0  0  0  0  0  0
  1  2  1  0  0  0  0
  2  3  1  0  0  0  0
  2  4  1  0  0  0  0
  2  5  1  0  0  0  0
  5  6  2  0  0  0  0
  5  7  1  0  0  0  0
  7  8  1  0  0  0  0
  7  9  1  0  0  0  0
  9 10  1  0  0  0  0
  9 11  1  0  0  0  0
  9 19  1  0  0  0  0
 11 12  1  0  0  0  0
 11 13  1  0  0  0  0
 11 14  1  0  0  0  0
 14 15  2  0  0  0  0
 14 16  1  0  0  0  0
 16 17  1  0  0  0  0
 16 18  1  0  0  0  0
 19 20  2  0  0  0  0
 19 21  1  0  0  0  0
 21 22  1  0  0  0  0
 21 23  1  0  0  0  0
 23 24  1  0  0  0  0
 23 25  1  0  0  0  0
 23 26  1  0  0  0  0
M  END
$$$$

  -OEChem-04042215573D

 26 25  0     1  0  0  0  0  0999 V2000
   -2.9036   -3.9076    0.5563 H   0  0  0  0  0  0  0  0  0  0  0  0
   -2.9078   -2.8805    0.1805 C   0  0  0  0  0  0  0  0  0  0  0  0
   -3.5099   -2.2631    0.8516 H   0  0  0  0  0  0  0  0  0  0  0  0
   -3.3583   -2.8714   -0.8150 H   0  0  0  0  0  0  0  0  0  0  0  0
   -1.4906   -2.3426    0.1132 C   0  0  0  0  0  0  0  0  0  0  0  0
   -0.5534   -3.0610    0.4152 O   0  0  0  0  0  0  0  0  0  0  0  0
   -1.2708   -1.0441   -0.2968 N   0  0  0  0  0  0  0  0  0  0  0  0
   -2.0939   -0.4594   -0.4364 H   0  0  0  0  0  0  0  0  0  0  0  0
    0.0247   -0.3488   -0.2389 C   0  0  1  0  0  0  0  0  0  0  0  0
    0.6852   -0.8716    0.4621 H   0  0  0  0  0  0  0  0  0  0  0  0
    0.6491   -0.3198   -1.6538 C   0  0  0  0  0  0  0  0  0  0  0  0
   -0.1196   -0.5277   -2.4026 H   0  0  0  0  0  0  0  0  0  0  0  0
    1.0420    0.6786   -1.8656 H   0  0  0  0  0  0  0  0  0  0  0  0
    1.8020   -1.3017   -1.8303 C   0  0  0  0  0  0  0  0  0  0  0  0
    2.5346   -1.6326   -0.9168 O   0  0  0  0  0  0  0  0  0  0  0  0
    2.0702   -1.8779   -3.0386 N   0  0  0  0  0  0  0  0  0  0  0  0
    2.7125   -2.6647   -3.0090 H   0  0  0  0  0  0  0  0  0  0  0  0
    1.3621   -1.8326   -3.7630 H   0  0  0  0  0  0  0  0  0  0  0  0
   -0.1407    1.0752    0.3207 C   0  0  0  0  0  0  0  0  0  0  0  0
   -1.0858    1.7643   -0.0458 O   0  0  0  0  0  0  0  0  0  0  0  0
    0.7359    1.5593    1.2729 N   0  0  0  0  0  0  0  0  0  0  0  0
    1.5081    0.9576    1.5505 H   0  0  0  0  0  0  0  0  0  0  0  0
    0.6312    2.8900    1.8582 C   0  0  0  0  0  0  0  0  0  0  0  0
   -0.3339    3.0130    2.3609 H   0  0  0  0  0  0  0  0  0  0  0  0
    1.4258    3.0423    2.5950 H   0  0  0  0  0  0  0  0  0  0  0  0
    0.7260    3.6579    1.0833 H   0  0  0  0  0  0  0  0  0  0  0  0
  1  2  1  0  0  0  0
  2  3  1  0  0  0  0
  2  4  1  0  0  0  0
  2  5  1  0  0  0  0
  5  6  2  0  0  0  0
  5  7  1  0  0  0  0
  7  8  1  0  0  0  0
  7  9  1  0  0  0  0
  9 10  1  0  0  0  0
  9 11  1  0  0  0  0
  9 19  1  0  0  0  0
 11 12  1  0  0  0  0
 11 13  1  0  0  0  0
 11 14  1  0  0  0  0
 14 15  2  0  0  0  0
 14 16  1  0  0  0  0
 16 17  1  0  0  0  0
 16 18  1  0  0  0  0
 19 20  2  0  0  0  0
 19 21  1  0  0  0  0
 21 22  1  0  0  0  0
 21 23  1  0  0  0  0
 23 24  1  0  0  0  0
 23 25  1  0  0  0  0
 23 26  1  0  0  0  0
M  END
$$$$

  -OEChem-04042215573D

 26 25  0     1  0  0  0  0  0999 V2000
   -2.9300   -3.9101    0.5473 H   0  0  0  0  0  0  0  0  0  0  0  0
   -2.9188   -2.8838    0.1693 C   0  0  0  0  0  0  0  0  0  0  0  0
   -3.5507   -2.2651    0.8113 H   0  0  0  0  0  0  0  0  0  0  0  0
   -3.3246   -2.8777   -0.8452 H   0  0  0  0  0  0  0  0  0  0  0  0
   -1.5001   -2.3448    0.1639 C   0  0  0  0  0  0  0  0  0  0  0  0
   -0.5836   -3.0487    0.5505 O   0  0  0  0  0  0  0  0  0  0  0  0
   -1.2627   -1.0546   -0.2633 N   0  0  0  0  0  0  0  0  0  0  0  0
   -2.0776   -0.4770   -0.4650 H   0  0  0  0  0  0  0  0  0  0  0  0
    0.0367   -0.3659   -0.2091 C   0  0  1  0  0  0  0  0  0  0  0  0
    0.6993   -0.8828    0.4940 H   0  0  0  0  0  0  0  0  0  0  0  0
    0.6563   -0.3397   -1.6283 C   0  0  0  0  0  0  0  0  0  0  0  0
   -0.1187   -0.5426   -2.3719 H   0  0  0  0  0  0  0  0  0  0  0  0
    1.0487    0.6594   -1.8387 H   0  0  0  0  0  0  0  0  0  0  0  0
    1.8067   -1.3202   -1.8353 C   0  0  0  0  0  0  0  0  0  0  0  0
    2.3955   -1.8753   -0.9279 O   0  0  0  0  0  0  0  0  0  0  0  0
    2.2596   -1.6165   -3.0889 N   0  0  0  0  0  0  0  0  0  0  0  0
    2.8964   -2.4062   -3.1484 H   0  0  0  0  0  0  0  0  0  0  0  0
    1.6891   -1.3621   -3.8877 H   0  0  0  0  0  0  0  0  0  0  0  0
   -0.1326    1.0661    0.3291 C   0  0  0  0  0  0  0  0  0  0  0  0
   -1.0597    1.7599   -0.0729 O   0  0  0  0  0  0  0  0  0  0  0  0
    0.7369    1.5637    1.2810 N   0  0  0  0  0  0  0  0  0  0  0  0
    1.4832    0.9519    1.6032 H   0  0  0  0  0  0  0  0  0  0  0  0
    0.6272    2.9027    1.8460 C   0  0  0  0  0  0  0  0  0  0  0  0
   -0.3432    3.0338    2.3362 H   0  0  0  0  0  0  0  0  0  0  0  0
    1.4139    3.0653    2.5891 H   0  0  0  0  0  0  0  0  0  0  0  0
    0.7314    3.6591    1.0611 H   0  0  0  0  0  0  0  0  0  0  0  0
  1  2  1  0  0  0  0
  2  3  1  0  0  0  0
  2  4  1  0  0  0  0
  2  5  1  0  0  0  0
  5  6  2  0  0  0  0
  5  7  1  0  0  0  0
  7  8  1  0  0  0  0
  7  9  1  0  0  0  0
  9 10  1  0  0  0  0
  9 11  1  0  0  0  0
  9 19  1  0  0  0  0
 11 12  1  0  0  0  0
 11 13  1  0  0  0  0
 11 14  1  0  0  0  0
 14 15  2  0  0  0  0
 14 16  1  0  0  0  0
 16 17  1  0  0  0  0
 16 18  1  0  0  0  0
 19 20  2  0  0  0  0
 19 21  1  0  0  0  0
 21 22  1  0  0  0  0
 21 23  1  0  0  0  0
 23 24  1  0  0  0  0
 23 25  1  0  0  0  0
 23 26  1  0  0  0  0
M  END
$$$$

  -OEChem-04042215573D

 26 25  0     1  0  0  0  0  0999 V2000
   -2.9342   -3.9152    0.5079 H   0  0  0  0  0  0  0  0  0  0  0  0
   -2.9121   -2.8853    0.1404 C   0  0  0  0  0  0  0  0  0  0  0  0
   -3.5767   -2.2763    0.7579 H   0  0  0  0  0  0  0  0  0  0  0  0
   -3.2703   -2.8724   -0.8917 H   0  0  0  0  0  0  0  0  0  0  0  0
   -1.4985   -2.3375    0.2049 C   0  0  0  0  0  0  0  0  0  0  0  0
   -0.6068   -3.0190    0.6792 O   0  0  0  0  0  0  0  0  0  0  0  0
   -1.2463   -1.0544   -0.2355 N   0  0  0  0  0  0  0  0  0  0  0  0
   -2.0503   -0.4886   -0.5016 H   0  0  0  0  0  0  0  0  0  0  0  0
    0.0571   -0.3733   -0.1852 C   0  0  1  0  0  0  0  0  0  0  0  0
    0.7264   -0.8872    0.5143 H   0  0  0  0  0  0  0  0  0  0  0  0
    0.6656   -0.3455   -1.6104 C   0  0  0  0  0  0  0  0  0  0  0  0
   -0.1158   -0.5378   -2.3501 H   0  0  0  0  0  0  0  0  0  0  0  0
    1.0627    0.6529   -1.8159 H   0  0  0  0  0  0  0  0  0  0  0  0
    1.8083   -1.3290   -1.8404 C   0  0  0  0  0  0  0  0  0  0  0  0
    2.2378   -2.0900   -0.9967 O   0  0  0  0  0  0  0  0  0  0  0  0
    2.4260   -1.4066   -3.0555 N   0  0  0  0  0  0  0  0  0  0  0  0
    3.0443   -2.2029   -3.1833 H   0  0  0  0  0  0  0  0  0  0  0  0
    1.9884   -0.9669   -3.8577 H   0  0  0  0  0  0  0  0  0  0  0  0
   -0.1173    1.0645    0.3376 C   0  0  0  0  0  0  0  0  0  0  0  0
   -1.0307    1.7600   -0.0922 O   0  0  0  0  0  0  0  0  0  0  0  0
    0.7446    1.5753    1.2896 N   0  0  0  0  0  0  0  0  0  0  0  0
    1.4647    0.9561    1.6536 H   0  0  0  0  0  0  0  0  0  0  0  0
    0.6155    2.9146    1.8500 C   0  0  0  0  0  0  0  0  0  0  0  0
   -0.3515    3.0291    2.3510 H   0  0  0  0  0  0  0  0  0  0  0  0
    1.4081    3.0961    2.5824 H   0  0  0  0  0  0  0  0  0  0  0  0
    0.6953    3.6692    1.0605 H   0  0  0  0  0  0  0  0  0  0  0  0
  1  2  1  0  0  0  0
  2  3  1  0  0  0  0
  2  4  1  0  0  0  0
  2  5  1  0  0  0  0
  5  6  2  0  0  0  0
  5  7  1  0  0  0  0
  7  8  1  0  0  0  0
  7  9  1  0  0  0  0
  9 10  1  0  0  0  0
  9 11  1  0  0  0  0
  9 19  1  0  0  0  0
 11 12  1  0  0  0  0
 11 13  1  0  0  0  0
 11 14  1  0  0  0  0
 14 15  2  0  0  0  0
 14 16  1  0  0  0  0
 16 17  1  0  0  0  0
 16 18  1  0  0  0  0
 19 20  2  0  0  0  0
 19 21  1  0  0  0  0
 21 22  1  0  0  0  0
 21 23  1  0  0  0  0
 23 24  1  0  0  0  0
 23 25  1  0  0  0  0
 23 26  1  0  0  0  0
M  END
$$$$

  -OEChem-04042215573D

 26 25  0     1  0  0  0  0  0999 V2000
   -2.9212   -3.9305    0.4799 H   0  0  0  0  0  0  0  0  0  0  0  0
   -2.9011   -2.9002    0.1136 C   0  0  0  0  0  0  0  0  0  0  0  0
   -3.5999   -2.3024    0.7037 H   0  0  0  0  0  0  0  0  0  0  0  0
   -3.2172   -2.8929   -0.9322 H   0  0  0  0  0  0  0  0  0  0  0  0
   -1.5005   -2.3299    0.2355 C   0  0  0  0  0  0  0  0  0  0  0  0
   -0.6290   -2.9811    0.7846 O   0  0  0  0  0  0  0  0  0  0  0  0
   -1.2469   -1.0498   -0.2134 N   0  0  0  0  0  0  0  0  0  0  0  0
   -2.0418   -0.5039   -0.5408 H   0  0  0  0  0  0  0  0  0  0  0  0
    0.0584   -0.3724   -0.1697 C   0  0  1  0  0  0  0  0  0  0  0  0
    0.7349   -0.8882    0.5216 H   0  0  0  0  0  0  0  0  0  0  0  0
    0.6582   -0.3411   -1.5989 C   0  0  0  0  0  0  0  0  0  0  0  0
   -0.1257   -0.5293   -2.3370 H   0  0  0  0  0  0  0  0  0  0  0  0
    1.0562    0.6575   -1.8017 H   0  0  0  0  0  0  0  0  0  0  0  0
    1.7957   -1.3282   -1.8349 C   0  0  0  0  0  0  0  0  0  0  0  0
    2.0554   -2.2600   -1.1017 O   0  0  0  0  0  0  0  0  0  0  0  0
    2.5975   -1.2202   -2.9349 N   0  0  0  0  0  0  0  0  0  0  0  0
    3.2049   -2.0147   -3.1155 H   0  0  0  0  0  0  0  0  0  0  0  0
    2.3109   -0.6135   -3.6954 H   0  0  0  0  0  0  0  0  0  0  0  0
   -0.1128    1.0686    0.3465 C   0  0  0  0  0  0  0  0  0  0  0  0
   -1.0122    1.7719   -0.0999 O   0  0  0  0  0  0  0  0  0  0  0  0
    0.7523    1.5812    1.2947 N   0  0  0  0  0  0  0  0  0  0  0  0
    1.4513    0.9523    1.6822 H   0  0  0  0  0  0  0  0  0  0  0  0
    0.6242    2.9217    1.8530 C   0  0  0  0  0  0  0  0  0  0  0  0
   -0.3407    3.0363    2.3583 H   0  0  0  0  0  0  0  0  0  0  0  0
    1.4199    3.1050    2.5815 H   0  0  0  0  0  0  0  0  0  0  0  0
    0.6999    3.6754    1.0622 H   0  0  0  0  0  0  0  0  0  0  0  0
  1  2  1  0  0  0  0
  2  3  1  0  0  0  0
  2  4  1  0  0  0  0
  2  5  1  0  0  0  0
  5  6  2  0  0  0  0
  5  7  1  0  0  0  0
  7  8  1  0  0  0  0
  7  9  1  0  0  0  0
  9 10  1  0  0  0  0
  9 11  1  0  0  0  0
  9 19  1  0  0  0  0
 11 12  1  0  0  0  0
 11 13  1  0  0  0  0
 11 14  1  0  0  0  0
 14 15  2  0  0  0  0
 14 16  1  0  0  0  0
 16 17  1  0  0  0  0
 16 18  1  0  0  0  0
 19 20  2  0  0  0  0
 19 21  1  0  0  0  0
 21 22  1  0  0  0  0
 21 23  1  0  0  0  0
 23 24  1  0  0  0  0
 23 25  1  0  0  0  0
 23 26  1  0  0  0  0
M  END
$$$$

  -OEChem-04042215573D

 26 25  0     1  0  0  0  0  0999 V2000
   -2.8940   -3.9512    0.4524 H   0  0  0  0  0  0  0  0  0  0  0  0
   -2.8826   -2.9215    0.0842 C   0  0  0  0  0  0  0  0  0  0  0  0
   -3.6201   -2.3391    0.6416 H   0  0  0  0  0  0  0  0  0  0  0  0
   -3.1533   -2.9245   -0.9742 H   0  0  0  0  0  0  0  0  0  0  0  0
   -1.5019   -2.3185    0.2646 C   0  0  0  0  0  0  0  0  0  0  0  0
   -0.6495   -2.9347    0.8811 O   0  0  0  0  0  0  0  0  0  0  0  0
   -1.2521   -1.0397   -0.1911 N   0  0  0  0  0  0  0  0  0  0  0  0
   -2.0352   -0.5196   -0.5815 H   0  0  0  0  0  0  0  0  0  0  0  0
    0.0555   -0.3670   -0.1567 C   0  0  1  0  0  0  0  0  0  0  0  0
    0.7413   -0.8859    0.5234 H   0  0  0  0  0  0  0  0  0  0  0  0
    0.6397   -0.3324   -1.5919 C   0  0  0  0  0  0  0  0  0  0  0  0
   -0.1493   -0.5164   -2.3259 H   0  0  0  0  0  0  0  0  0  0  0  0
    1.0402    0.6649   -1.7964 H   0  0  0  0  0  0  0  0  0  0  0  0
    1.7681   -1.3284   -1.8278 C   0  0  0  0  0  0  0  0  0  0  0  0
    1.8606   -2.3923   -1.2516 O   0  0  0  0  0  0  0  0  0  0  0  0
    2.7502   -1.0776   -2.7429 N   0  0  0  0  0  0  0  0  0  0  0  0
    3.3522   -1.8648   -2.9685 H   0  0  0  0  0  0  0  0  0  0  0  0
    2.6193   -0.3271   -3.4124 H   0  0  0  0  0  0  0  0  0  0  0  0
   -0.1090    1.0761    0.3572 C   0  0  0  0  0  0  0  0  0  0  0  0
   -0.9935    1.7897   -0.1025 O   0  0  0  0  0  0  0  0  0  0  0  0
    0.7631    1.5876    1.2999 N   0  0  0  0  0  0  0  0  0  0  0  0
    1.4376    0.9471    1.7106 H   0  0  0  0  0  0  0  0  0  0  0  0
    0.6385    2.9290    1.8571 C   0  0  0  0  0  0  0  0  0  0  0  0
   -0.3212    3.0424    2.3722 H   0  0  0  0  0  0  0  0  0  0  0  0
    1.4417    3.1159    2.5763 H   0  0  0  0  0  0  0  0  0  0  0  0
    0.7040    3.6816    1.0642 H   0  0  0  0  0  0  0  0  0  0  0  0
  1  2  1  0  0  0  0
  2  3  1  0  0  0  0
  2  4  1  0  0  0  0
  2  5  1  0  0  0  0
  5  6  2  0  0  0  0
  5  7  1  0  0  0  0
  7  8  1  0  0  0  0
  7  9  1  0  0  0  0
  9 10  1  0  0  0  0
  9 11  1  0  0  0  0
  9 19  1  0  0  0  0
 11 12  1  0  0  0  0
 11 13  1  0  0  0  0
 11 14  1  0  0  0  0
 14 15  2  0  0  0  0
 14 16  1  0  0  0  0
 16 17  1  0  0  0  0
 16 18  1  0  0  0  0
 19 20  2  0  0  0  0
 19 21  1  0  0  0  0
 21 22  1  0  0  0  0
 21 23  1  0  0  0  0
 23 24  1  0  0  0  0
 23 25  1  0  0  0  0
 23 26  1  0  0  0  0
M  END
$$$$

  -OEChem-04042215573D

 26 25  0     1  0  0  0  0  0999 V2000
   -2.8704   -3.9673    0.4449 H   0  0  0  0  0  0  0  0  0  0  0  0
   -2.8687   -2.9390    0.0726 C   0  0  0  0  0  0  0  0  0  0  0  0
   -3.6274   -2.3666    0.6117 H   0  0  0  0  0  0  0  0  0  0  0  0
   -3.1165   -2.9507   -0.9915 H   0  0  0  0  0  0  0  0  0  0  0  0
   -1.5027   -2.3118    0.2791 C   0  0  0  0  0  0  0  0  0  0  0  0
   -0.6540   -2.9057    0.9233 O   0  0  0  0  0  0  0  0  0  0  0  0
   -1.2635   -1.0320   -0.1793 N   0  0  0  0  0  0  0  0  0  0  0  0
   -2.0414   -0.5318   -0.6040 H   0  0  0  0  0  0  0  0  0  0  0  0
    0.0445   -0.3611   -0.1575 C   0  0  1  0  0  0  0  0  0  0  0  0
    0.7391   -0.8843    0.5103 H   0  0  0  0  0  0  0  0  0  0  0  0
    0.6129   -0.3244   -1.5980 C   0  0  0  0  0  0  0  0  0  0  0  0
   -0.1807   -0.5123   -2.3262 H   0  0  0  0  0  0  0  0  0  0  0  0
    1.0108    0.6722   -1.8099 H   0  0  0  0  0  0  0  0  0  0  0  0
    1.7346   -1.3274   -1.8279 C   0  0  0  0  0  0  0  0  0  0  0  0
    1.6819   -2.4791   -1.4501 O   0  0  0  0  0  0  0  0  0  0  0  0
    2.8858   -0.9750   -2.4730 N   0  0  0  0  0  0  0  0  0  0  0  0
    3.5035   -1.7426   -2.7224 H   0  0  0  0  0  0  0  0  0  0  0  0
    2.9121   -0.1074   -2.9979 H   0  0  0  0  0  0  0  0  0  0  0  0
   -0.1106    1.0819    0.3601 C   0  0  0  0  0  0  0  0  0  0  0  0
   -0.9895    1.8034   -0.0975 O   0  0  0  0  0  0  0  0  0  0  0  0
    0.7733    1.5898    1.2941 N   0  0  0  0  0  0  0  0  0  0  0  0
    1.4347    0.9411    1.7129 H   0  0  0  0  0  0  0  0  0  0  0  0
    0.6550    2.9304    1.8551 C   0  0  0  0  0  0  0  0  0  0  0  0
   -0.2995    3.0430    2.3800 H   0  0  0  0  0  0  0  0  0  0  0  0
    1.4656    3.1160    2.5665 H   0  0  0  0  0  0  0  0  0  0  0  0
    0.7124    3.6841    1.0628 H   0  0  0  0  0  0  0  0  0  0  0  0
  1  2  1  0  0  0  0
  2  3  1  0  0  0  0
  2  4  1  0  0  0  0
  2  5  1  0  0  0  0
  5  6  2  0  0  0  0
  5  7  1  0  0  0  0
  7  8  1  0  0  0  0
  7  9  1  0  0  0  0
  9 10  1  0  0  0  0
  9 11  1  0  0  0  0
  9 19  1  0  0  0  0
 11 12  1  0  0  0  0
 11 13  1  0  0  0  0
 11 14  1  0  0  0  0
 14 15  2  0  0  0  0
 14 16  1  0  0  0  0
 16 17  1  0  0  0  0
 16 18  1  0  0  0  0
 19 20  2  0  0  0  0
 19 21  1  0  0  0  0
 21 22  1  0  0  0  0
 21 23  1  0  0  0  0
 23 24  1  0  0  0  0
 23 25  1  0  0  0  0
 23 26  1  0  0  0  0
M  END
$$$$

  -OEChem-04042215573D

 26 25  0     1  0  0  0  0  0999 V2000
   -2.8436   -3.9810    0.4419 H   0  0  0  0  0  0  0  0  0  0  0  0
   -2.8530   -2.9554    0.0625 C   0  0  0  0  0  0  0  0  0  0  0  0
   -3.6277   -2.3913    0.5872 H   0  0  0  0  0  0  0  0  0  0  0  0
   -3.0862   -2.9786   -1.0046 H   0  0  0  0  0  0  0  0  0  0  0  0
   -1.4998   -2.3057    0.2826 C   0  0  0  0  0  0  0  0  0  0  0  0
   -0.6455   -2.8859    0.9329 O   0  0  0  0  0  0  0  0  0  0  0  0
   -1.2734   -1.0234   -0.1757 N   0  0  0  0  0  0  0  0  0  0  0  0
   -2.0489   -0.5383   -0.6218 H   0  0  0  0  0  0  0  0  0  0  0  0
    0.0338   -0.3517   -0.1612 C   0  0  1  0  0  0  0  0  0  0  0  0
    0.7336   -0.8762    0.4997 H   0  0  0  0  0  0  0  0  0  0  0  0
    0.5905   -0.3158   -1.6045 C   0  0  0  0  0  0  0  0  0  0  0  0
   -0.2055   -0.5105   -2.3285 H   0  0  0  0  0  0  0  0  0  0  0  0
    0.9860    0.6793   -1.8272 H   0  0  0  0  0  0  0  0  0  0  0  0
    1.7072   -1.3250   -1.8207 C   0  0  0  0  0  0  0  0  0  0  0  0
    1.5448   -2.5186   -1.6730 O   0  0  0  0  0  0  0  0  0  0  0  0
    2.9721   -0.9354   -2.1583 N   0  0  0  0  0  0  0  0  0  0  0  0
    3.6049   -1.6839   -2.4276 H   0  0  0  0  0  0  0  0  0  0  0  0
    3.1220    0.0068   -2.5025 H   0  0  0  0  0  0  0  0  0  0  0  0
   -0.1142    1.0904    0.3610 C   0  0  0  0  0  0  0  0  0  0  0  0
   -0.9901    1.8178   -0.0924 O   0  0  0  0  0  0  0  0  0  0  0  0
    0.7787    1.5933    1.2894 N   0  0  0  0  0  0  0  0  0  0  0  0
    1.4333    0.9390    1.7101 H   0  0  0  0  0  0  0  0  0  0  0  0
    0.6692    2.9337    1.8527 C   0  0  0  0  0  0  0  0  0  0  0  0
   -0.2764    3.0455    2.3934 H   0  0  0  0  0  0  0  0  0  0  0  0
    1.4914    3.1192    2.5504 H   0  0  0  0  0  0  0  0  0  0  0  0
    0.7133    3.6880    1.0600 H   0  0  0  0  0  0  0  0  0  0  0  0
  1  2  1  0  0  0  0
  2  3  1  0  0  0  0
  2  4  1  0  0  0  0
  2  5  1  0  0  0  0
  5  6  2  0  0  0  0
  5  7  1  0  0  0  0
  7  8  1  0  0  0  0
  7  9  1  0  0  0  0
  9 10  1  0  0  0  0
  9 11  1  0  0  0  0
  9 19  1  0  0  0  0
 11 12  1  0  0  0  0
 11 13  1  0  0  0  0
 11 14  1  0  0  0  0
 14 15  2  0  0  0  0
 14 16  1  0  0  0  0
 16 17  1  0  0  0  0
 16 18  1  0  0  0  0
 19 20  2  0  0  0  0
 19 21  1  0  0  0  0
 21 22  1  0  0  0  0
 21 23  1  0  0  0  0
 23 24  1  0  0  0  0
 23 25  1  0  0  0  0
 23 26  1  0  0  0  0
M  END
$$$$

  -OEChem-04042215573D

 26 25  0     1  0  0  0  0  0999 V2000
   -2.8423   -3.9776    0.4567 H   0  0  0  0  0  0  0  0  0  0  0  0
   -2.8528   -2.9541    0.0717 C   0  0  0  0  0  0  0  0  0  0  0  0
   -3.6202   -2.3846    0.6013 H   0  0  0  0  0  0  0  0  0  0  0  0
   -3.0978   -2.9823   -0.9927 H   0  0  0  0  0  0  0  0  0  0  0  0
   -1.4951   -2.3072    0.2721 C   0  0  0  0  0  0  0  0  0  0  0  0
   -0.6259   -2.8944    0.8964 O   0  0  0  0  0  0  0  0  0  0  0  0
   -1.2737   -1.0230   -0.1833 N   0  0  0  0  0  0  0  0  0  0  0  0
   -2.0543   -0.5340   -0.6164 H   0  0  0  0  0  0  0  0  0  0  0  0
    0.0318   -0.3490   -0.1702 C   0  0  1  0  0  0  0  0  0  0  0  0
    0.7335   -0.8724    0.4897 H   0  0  0  0  0  0  0  0  0  0  0  0
    0.5856   -0.3138   -1.6131 C   0  0  0  0  0  0  0  0  0  0  0  0
   -0.2106   -0.5131   -2.3359 H   0  0  0  0  0  0  0  0  0  0  0  0
    0.9813    0.6797   -1.8424 H   0  0  0  0  0  0  0  0  0  0  0  0
    1.7012   -1.3253   -1.8163 C   0  0  0  0  0  0  0  0  0  0  0  0
    1.4826   -2.5147   -1.9233 O   0  0  0  0  0  0  0  0  0  0  0  0
    3.0152   -0.9523   -1.8373 N   0  0  0  0  0  0  0  0  0  0  0  0
    3.6726   -1.6749   -2.1179 H   0  0  0  0  0  0  0  0  0  0  0  0
    3.2481    0.0263   -1.9668 H   0  0  0  0  0  0  0  0  0  0  0  0
   -0.1172    1.0916    0.3560 C   0  0  0  0  0  0  0  0  0  0  0  0
   -0.9975    1.8175   -0.0905 O   0  0  0  0  0  0  0  0  0  0  0  0
    0.7770    1.5941    1.2832 N   0  0  0  0  0  0  0  0  0  0  0  0
    1.4336    0.9405    1.7014 H   0  0  0  0  0  0  0  0  0  0  0  0
    0.6657    2.9331    1.8498 C   0  0  0  0  0  0  0  0  0  0  0  0
   -0.2787    3.0423    2.3934 H   0  0  0  0  0  0  0  0  0  0  0  0
    1.4896    3.1187    2.5456 H   0  0  0  0  0  0  0  0  0  0  0  0
    0.7062    3.6893    1.0587 H   0  0  0  0  0  0  0  0  0  0  0  0
  1  2  1  0  0  0  0
  2  3  1  0  0  0  0
  2  4  1  0  0  0  0
  2  5  1  0  0  0  0
  5  6  2  0  0  0  0
  5  7  1  0  0  0  0
  7  8  1  0  0  0  0
  7  9  1  0  0  0  0
  9 10  1  0  0  0  0
  9 11  1  0  0  0  0
  9 19  1  0  0  0  0
 11 12  1  0  0  0  0
 11 13  1  0  0  0  0
 11 14  1  0  0  0  0
 14 15  2  0  0  0  0
 14 16  1  0  0  0  0
 16 17  1  0  0  0  0
 16 18  1  0  0  0  0
 19 20  2  0  0  0  0
 19 21  1  0  0  0  0
 21 22  1  0  0  0  0
 21 23  1  0  0  0  0
 23 24  1  0  0  0  0
 23 25  1  0  0  0  0
 23 26  1  0  0  0  0
M  END
$$$$

  -OEChem-04042215573D

 26 25  0     1  0  0  0  0  0999 V2000
   -2.8495   -3.9691    0.4654 H   0  0  0  0  0  0  0  0  0  0  0  0
   -2.8592   -2.9465    0.0784 C   0  0  0  0  0  0  0  0  0  0  0  0
   -3.6178   -2.3725    0.6156 H   0  0  0  0  0  0  0  0  0  0  0  0
   -3.1163   -2.9752   -0.9831 H   0  0  0  0  0  0  0  0  0  0  0  0
   -1.4964   -2.3060    0.2625 C   0  0  0  0  0  0  0  0  0  0  0  0
   -0.6161   -2.9025    0.8624 O   0  0  0  0  0  0  0  0  0  0  0  0
   -1.2742   -1.0218   -0.1921 N   0  0  0  0  0  0  0  0  0  0  0  0
   -2.0579   -0.5253   -0.6112 H   0  0  0  0  0  0  0  0  0  0  0  0
    0.0304   -0.3470   -0.1725 C   0  0  1  0  0  0  0  0  0  0  0  0
    0.7268   -0.8673    0.4953 H   0  0  0  0  0  0  0  0  0  0  0  0
    0.5918   -0.3226   -1.6117 C   0  0  0  0  0  0  0  0  0  0  0  0
   -0.1993   -0.5284   -2.3387 H   0  0  0  0  0  0  0  0  0  0  0  0
    0.9914    0.6675   -1.8485 H   0  0  0  0  0  0  0  0  0  0  0  0
    1.7069   -1.3382   -1.7902 C   0  0  0  0  0  0  0  0  0  0  0  0
    1.4877   -2.4778   -2.1483 O   0  0  0  0  0  0  0  0  0  0  0  0
    3.0132   -1.0211   -1.5461 N   0  0  0  0  0  0  0  0  0  0  0  0
    3.6939   -1.7151   -1.8429 H   0  0  0  0  0  0  0  0  0  0  0  0
    3.2778   -0.0442   -1.4834 H   0  0  0  0  0  0  0  0  0  0  0  0
   -0.1188    1.0939    0.3518 C   0  0  0  0  0  0  0  0  0  0  0  0
   -0.9983    1.8193   -0.0965 O   0  0  0  0  0  0  0  0  0  0  0  0
    0.7726    1.5949    1.2826 N   0  0  0  0  0  0  0  0  0  0  0  0
    1.4190    0.9377    1.7110 H   0  0  0  0  0  0  0  0  0  0  0  0
    0.6577    2.9327    1.8510 C   0  0  0  0  0  0  0  0  0  0  0  0
   -0.2864    3.0375    2.3960 H   0  0  0  0  0  0  0  0  0  0  0  0
    1.4818    3.1207    2.5459 H   0  0  0  0  0  0  0  0  0  0  0  0
    0.6944    3.6900    1.0607 H   0  0  0  0  0  0  0  0  0  0  0  0
  1  2  1  0  0  0  0
  2  3  1  0  0  0  0
  2  4  1  0  0  0  0
  2  5  1  0  0  0  0
  5  6  2  0  0  0  0
  5  7  1  0  0  0  0
  7  8  1  0  0  0  0
  7  9  1  0  0  0  0
  9 10  1  0  0  0  0
  9 11  1  0  0  0  0
  9 19  1  0  0  0  0
 11 12  1  0  0  0  0
 11 13  1  0  0  0  0
 11 14  1  0  0  0  0
 14 15  2  0  0  0  0
 14 16  1  0  0  0  0
 16 17  1  0  0  0  0
 16 18  1  0  0  0  0
 19 20  2  0  0  0  0
 19 21  1  0  0  0  0
 21 22  1  0  0  0  0
 21 23  1  0  0  0  0
 23 24  1  0  0  0  0
 23 25  1  0  0  0  0
 23 26  1  0  0  0  0
M  END
$$$$

  -OEChem-04042215573D

 26 25  0     1  0  0  0  0  0999 V2000
   -2.8761   -3.9528    0.4717 H   0  0  0  0  0  0  0  0  0  0  0  0
   -2.8823   -2.9257    0.0962 C   0  0  0  0  0  0  0  0  0  0  0  0
   -3.6164   -2.3471    0.6617 H   0  0  0  0  0  0  0  0  0  0  0  0
   -3.1710   -2.9391   -0.9576 H   0  0  0  0  0  0  0  0  0  0  0  0
   -1.5061   -2.3059    0.2483 C   0  0  0  0  0  0  0  0  0  0  0  0
   -0.6166   -2.9208    0.8152 O   0  0  0  0  0  0  0  0  0  0  0  0
   -1.2754   -1.0235   -0.2063 N   0  0  0  0  0  0  0  0  0  0  0  0
   -2.0624   -0.5096   -0.5982 H   0  0  0  0  0  0  0  0  0  0  0  0
    0.0309   -0.3529   -0.1741 C   0  0  1  0  0  0  0  0  0  0  0  0
    0.7152   -0.8728    0.5060 H   0  0  0  0  0  0  0  0  0  0  0  0
    0.6087   -0.3451   -1.6064 C   0  0  0  0  0  0  0  0  0  0  0  0
   -0.1753   -0.5525   -2.3410 H   0  0  0  0  0  0  0  0  0  0  0  0
    1.0185    0.6398   -1.8474 H   0  0  0  0  0  0  0  0  0  0  0  0
    1.7218   -1.3674   -1.7597 C   0  0  0  0  0  0  0  0  0  0  0  0
    1.5556   -2.4144   -2.3530 O   0  0  0  0  0  0  0  0  0  0  0  0
    2.9859   -1.1282   -1.2992 N   0  0  0  0  0  0  0  0  0  0  0  0
    3.6945   -1.7853   -1.6144 H   0  0  0  0  0  0  0  0  0  0  0  0
    3.2473   -0.1788   -1.0580 H   0  0  0  0  0  0  0  0  0  0  0  0
   -0.1184    1.0898    0.3452 C   0  0  0  0  0  0  0  0  0  0  0  0
   -0.9970    1.8136   -0.1067 O   0  0  0  0  0  0  0  0  0  0  0  0
    0.7642    1.5911    1.2844 N   0  0  0  0  0  0  0  0  0  0  0  0
    1.4032    0.9338    1.7233 H   0  0  0  0  0  0  0  0  0  0  0  0
    0.6381    2.9275    1.8545 C   0  0  0  0  0  0  0  0  0  0  0  0
   -0.3152    3.0301    2.3836 H   0  0  0  0  0  0  0  0  0  0  0  0
    1.4499    3.1148    2.5639 H   0  0  0  0  0  0  0  0  0  0  0  0
    0.6869    3.6868    1.0667 H   0  0  0  0  0  0  0  0  0  0  0  0
  1  2  1  0  0  0  0
  2  3  1  0  0  0  0
  2  4  1  0  0  0  0
  2  5  1  0  0  0  0
  5  6  2  0  0  0  0
  5  7  1  0  0  0  0
  7  8  1  0  0  0  0
  7  9  1  0  0  0  0
  9 10  1  0  0  0  0
  9 11  1  0  0  0  0
  9 19  1  0  0  0  0
 11 12  1  0  0  0  0
 11 13  1  0  0  0  0
 11 14  1  0  0  0  0
 14 15  2  0  0  0  0
 14 16  1  0  0  0  0
 16 17  1  0  0  0  0
 16 18  1  0  0  0  0
 19 20  2  0  0  0  0
 19 21  1  0  0  0  0
 21 22  1  0  0  0  0
 21 23  1  0  0  0  0
 23 24  1  0  0  0  0
 23 25  1  0  0  0  0
 23 26  1  0  0  0  0
M  END
$$$$

  -OEChem-04042215573D

 26 25  0     1  0  0  0  0  0999 V2000
   -2.9231   -3.9314    0.4795 H   0  0  0  0  0  0  0  0  0  0  0  0
   -2.9184   -2.9001    0.1158 C   0  0  0  0  0  0  0  0  0  0  0  0
   -3.6271   -2.3142    0.7060 H   0  0  0  0  0  0  0  0  0  0  0  0
   -3.2337   -2.8954   -0.9304 H   0  0  0  0  0  0  0  0  0  0  0  0
   -1.5267   -2.3087    0.2388 C   0  0  0  0  0  0  0  0  0  0  0  0
   -0.6335   -2.9464    0.7739 O   0  0  0  0  0  0  0  0  0  0  0  0
   -1.2796   -1.0299   -0.2169 N   0  0  0  0  0  0  0  0  0  0  0  0
   -2.0665   -0.4956   -0.5819 H   0  0  0  0  0  0  0  0  0  0  0  0
    0.0309   -0.3677   -0.1727 C   0  0  1  0  0  0  0  0  0  0  0  0
    0.7014   -0.8882    0.5204 H   0  0  0  0  0  0  0  0  0  0  0  0
    0.6259   -0.3739   -1.5982 C   0  0  0  0  0  0  0  0  0  0  0  0
   -0.1529   -0.5775   -2.3392 H   0  0  0  0  0  0  0  0  0  0  0  0
    1.0470    0.6065   -1.8382 H   0  0  0  0  0  0  0  0  0  0  0  0
    1.7355   -1.4031   -1.7396 C   0  0  0  0  0  0  0  0  0  0  0  0
    1.6652   -2.3137   -2.5411 O   0  0  0  0  0  0  0  0  0  0  0  0
    2.9337   -1.2672   -1.0962 N   0  0  0  0  0  0  0  0  0  0  0  0
    3.6749   -1.8772   -1.4304 H   0  0  0  0  0  0  0  0  0  0  0  0
    3.1652   -0.3739   -0.6773 H   0  0  0  0  0  0  0  0  0  0  0  0
   -0.1183    1.0778    0.3397 C   0  0  0  0  0  0  0  0  0  0  0  0
   -0.9973    1.7979   -0.1172 O   0  0  0  0  0  0  0  0  0  0  0  0
    0.7539    1.5817    1.2875 N   0  0  0  0  0  0  0  0  0  0  0  0
    1.3872    0.9263    1.7370 H   0  0  0  0  0  0  0  0  0  0  0  0
    0.6206    2.9200    1.8518 C   0  0  0  0  0  0  0  0  0  0  0  0
   -0.3407    3.0257    2.3657 H   0  0  0  0  0  0  0  0  0  0  0  0
    1.4217    3.1083    2.5731 H   0  0  0  0  0  0  0  0  0  0  0  0
    0.6829    3.6771    1.0629 H   0  0  0  0  0  0  0  0  0  0  0  0
  1  2  1  0  0  0  0
  2  3  1  0  0  0  0
  2  4  1  0  0  0  0
  2  5  1  0  0  0  0
  5  6  2  0  0  0  0
  5  7  1  0  0  0  0
  7  8  1  0  0  0  0
  7  9  1  0  0  0  0
  9 10  1  0  0  0  0
  9 11  1  0  0  0  0
  9 19  1  0  0  0  0
 11 12  1  0  0  0  0
 11 13  1  0  0  0  0
 11 14  1  0  0  0  0
 14 15  2  0  0  0  0
 14 16  1  0  0  0  0
 16 17  1  0  0  0  0
 16 18  1  0  0  0  0
 19 20  2  0  0  0  0
 19 21  1  0  0  0  0
 21 22  1  0  0  0  0
 21 23  1  0  0  0  0
 23 24  1  0  0  0  0
 23 25  1  0  0  0  0
 23 26  1  0  0  0  0
M  END
$$$$

  -OEChem-04042215573D

 26 25  0     1  0  0  0  0  0999 V2000
   -2.8753   -3.9273    0.5155 H   0  0  0  0  0  0  0  0  0  0  0  0
   -2.8821   -2.8992    0.1427 C   0  0  0  0  0  0  0  0  0  0  0  0
   -3.5714   -2.3079    0.7503 H   0  0  0  0  0  0  0  0  0  0  0  0
   -3.2315   -2.9032   -0.8928 H   0  0  0  0  0  0  0  0  0  0  0  0
   -1.4872   -2.3069    0.2150 C   0  0  0  0  0  0  0  0  0  0  0  0
   -0.5666   -2.9535    0.6915 O   0  0  0  0  0  0  0  0  0  0  0  0
   -1.2577   -1.0227   -0.2342 N   0  0  0  0  0  0  0  0  0  0  0  0
   -2.0595   -0.4762   -0.5463 H   0  0  0  0  0  0  0  0  0  0  0  0
    0.0479   -0.3517   -0.1926 C   0  0  1  0  0  0  0  0  0  0  0  0
    0.7222   -0.8662    0.4986 H   0  0  0  0  0  0  0  0  0  0  0  0
    0.6334   -0.3375   -1.6226 C   0  0  0  0  0  0  0  0  0  0  0  0
   -0.1545   -0.5252   -2.3585 H   0  0  0  0  0  0  0  0  0  0  0  0
    1.0483    0.6498   -1.8445 H   0  0  0  0  0  0  0  0  0  0  0  0
    1.7545   -1.3486   -1.8231 C   0  0  0  0  0  0  0  0  0  0  0  0
    1.7930   -2.0529   -2.8126 O   0  0  0  0  0  0  0  0  0  0  0  0
    2.8371   -1.4474   -0.9940 N   0  0  0  0  0  0  0  0  0  0  0  0
    3.4375   -2.2486   -1.1701 H   0  0  0  0  0  0  0  0  0  0  0  0
    2.7758   -1.0652   -0.0590 H   0  0  0  0  0  0  0  0  0  0  0  0
   -0.1235    1.0886    0.3326 C   0  0  0  0  0  0  0  0  0  0  0  0
   -1.0376    1.7841   -0.0923 O   0  0  0  0  0  0  0  0  0  0  0  0
    0.7392    1.6059    1.2822 N   0  0  0  0  0  0  0  0  0  0  0  0
    1.4300    0.9823    1.6880 H   0  0  0  0  0  0  0  0  0  0  0  0
    0.5924    2.9445    1.8428 C   0  0  0  0  0  0  0  0  0  0  0  0
   -0.3736    3.0455    2.3489 H   0  0  0  0  0  0  0  0  0  0  0  0
    1.3860    3.1394    2.5706 H   0  0  0  0  0  0  0  0  0  0  0  0
    0.6563    3.7002    1.0526 H   0  0  0  0  0  0  0  0  0  0  0  0
  1  2  1  0  0  0  0
  2  3  1  0  0  0  0
  2  4  1  0  0  0  0
  2  5  1  0  0  0  0
  5  6  2  0  0  0  0
  5  7  1  0  0  0  0
  7  8  1  0  0  0  0
  7  9  1  0  0  0  0
  9 10  1  0  0  0  0
  9 11  1  0  0  0  0
  9 19  1  0  0  0  0
 11 12  1  0  0  0  0
 11 13  1  0  0  0  0
 11 14  1  0  0  0  0
 14 15  2  0  0  0  0
 14 16  1  0  0  0  0
 16 17  1  0  0  0  0
 16 18  1  0  0  0  0
 19 20  2  0  0  0  0
 19 21  1  0  0  0  0
 21 22  1  0  0  0  0
 21 23  1  0  0  0  0
 23 24  1  0  0  0  0
 23 25  1  0  0  0  0
 23 26  1  0  0  0  0
M  END
$$$$

  -OEChem-04042215573D

 26 25  0     1  0  0  0  0  0999 V2000
   -2.7972   -3.9250    0.5511 H   0  0  0  0  0  0  0  0  0  0  0  0
   -2.8243   -2.9015    0.1668 C   0  0  0  0  0  0  0  0  0  0  0  0
   -3.5048   -2.3105    0.7846 H   0  0  0  0  0  0  0  0  0  0  0  0
   -3.1993   -2.9211   -0.8596 H   0  0  0  0  0  0  0  0  0  0  0  0
   -1.4346   -2.2943    0.1978 C   0  0  0  0  0  0  0  0  0  0  0  0
   -0.4869   -2.9374    0.6263 O   0  0  0  0  0  0  0  0  0  0  0  0
   -1.2299   -1.0063   -0.2518 N   0  0  0  0  0  0  0  0  0  0  0  0
   -2.0459   -0.4544   -0.5151 H   0  0  0  0  0  0  0  0  0  0  0  0
    0.0655   -0.3193   -0.1939 C   0  0  1  0  0  0  0  0  0  0  0  0
    0.7283   -0.8083    0.5232 H   0  0  0  0  0  0  0  0  0  0  0  0
    0.6827   -0.2968   -1.6112 C   0  0  0  0  0  0  0  0  0  0  0  0
   -0.0916   -0.4891   -2.3601 H   0  0  0  0  0  0  0  0  0  0  0  0
    1.0853    0.6989   -1.8183 H   0  0  0  0  0  0  0  0  0  0  0  0
    1.8271   -1.2845   -1.8241 C   0  0  0  0  0  0  0  0  0  0  0  0
    2.0333   -1.7603   -2.9230 O   0  0  0  0  0  0  0  0  0  0  0  0
    2.5892   -1.8254   -0.8265 N   0  0  0  0  0  0  0  0  0  0  0  0
    3.1351   -2.6249   -1.1365 H   0  0  0  0  0  0  0  0  0  0  0  0
    2.1642   -1.8757    0.0932 H   0  0  0  0  0  0  0  0  0  0  0  0
   -0.1332    1.1186    0.3291 C   0  0  0  0  0  0  0  0  0  0  0  0
   -1.0773    1.7859   -0.0753 O   0  0  0  0  0  0  0  0  0  0  0  0
    0.7112    1.6462    1.2892 N   0  0  0  0  0  0  0  0  0  0  0  0
    1.4728    1.0656    1.6276 H   0  0  0  0  0  0  0  0  0  0  0  0
    0.5502    2.9850    1.8444 C   0  0  0  0  0  0  0  0  0  0  0  0
   -0.4230    3.0814    2.3375 H   0  0  0  0  0  0  0  0  0  0  0  0
    1.3325    3.1849    2.5830 H   0  0  0  0  0  0  0  0  0  0  0  0
    0.6212    3.7392    1.0535 H   0  0  0  0  0  0  0  0  0  0  0  0
  1  2  1  0  0  0  0
  2  3  1  0  0  0  0
  2  4  1  0  0  0  0
  2  5  1  0  0  0  0
  5  6  2  0  0  0  0
  5  7  1  0  0  0  0
  7  8  1  0  0  0  0
  7  9  1  0  0  0  0
  9 10  1  0  0  0  0
  9 11  1  0  0  0  0
  9 19  1  0  0  0  0
 11 12  1  0  0  0  0
 11 13  1  0  0  0  0
 11 14  1  0  0  0  0
 14 15  2  0  0  0  0
 14 16  1  0  0  0  0
 16 17  1  0  0  0  0
 16 18  1  0  0  0  0
 19 20  2  0  0  0  0
 19 21  1  0  0  0  0
 21 22  1  0  0  0  0
 21 23  1  0  0  0  0
 23 24  1  0  0  0  0
 23 25  1  0  0  0  0
 23 26  1  0  0  0  0
M  END
$$$$

  -OEChem-04042215573D

 26 25  0     1  0  0  0  0  0999 V2000
   -2.7359   -3.9189    0.5855 H   0  0  0  0  0  0  0  0  0  0  0  0
   -2.7776   -2.8961    0.2005 C   0  0  0  0  0  0  0  0  0  0  0  0
   -3.4353   -2.3047    0.8422 H   0  0  0  0  0  0  0  0  0  0  0  0
   -3.1904   -2.9176   -0.8112 H   0  0  0  0  0  0  0  0  0  0  0  0
   -1.3883   -2.2874    0.1800 C   0  0  0  0  0  0  0  0  0  0  0  0
   -0.4188   -2.9363    0.5506 O   0  0  0  0  0  0  0  0  0  0  0  0
   -1.1976   -0.9979   -0.2707 N   0  0  0  0  0  0  0  0  0  0  0  0
   -2.0226   -0.4385   -0.4875 H   0  0  0  0  0  0  0  0  0  0  0  0
    0.0907   -0.3000   -0.1888 C   0  0  1  0  0  0  0  0  0  0  0  0
    0.7437   -0.7695    0.5518 H   0  0  0  0  0  0  0  0  0  0  0  0
    0.7442   -0.2844   -1.5895 C   0  0  0  0  0  0  0  0  0  0  0  0
   -0.0066   -0.4926   -2.3576 H   0  0  0  0  0  0  0  0  0  0  0  0
    1.1466    0.7116   -1.7956 H   0  0  0  0  0  0  0  0  0  0  0  0
    1.8990   -1.2700   -1.7505 C   0  0  0  0  0  0  0  0  0  0  0  0
    2.3160   -1.5471   -2.8578 O   0  0  0  0  0  0  0  0  0  0  0  0
    2.2581   -2.1816   -0.7977 N   0  0  0  0  0  0  0  0  0  0  0  0
    2.7882   -2.9593   -1.1802 H   0  0  0  0  0  0  0  0  0  0  0  0
    1.5392   -2.4060   -0.1081 H   0  0  0  0  0  0  0  0  0  0  0  0
   -0.1301    1.1365    0.3274 C   0  0  0  0  0  0  0  0  0  0  0  0
   -1.0836    1.7872   -0.0820 O   0  0  0  0  0  0  0  0  0  0  0  0
    0.6913    1.6724    1.3024 N   0  0  0  0  0  0  0  0  0  0  0  0
    1.4668    1.1073    1.6372 H   0  0  0  0  0  0  0  0  0  0  0  0
    0.5126    3.0134    1.8470 C   0  0  0  0  0  0  0  0  0  0  0  0
   -0.4714    3.1082    2.3182 H   0  0  0  0  0  0  0  0  0  0  0  0
    1.2778    3.2210    2.6013 H   0  0  0  0  0  0  0  0  0  0  0  0
    0.5971    3.7635    1.0536 H   0  0  0  0  0  0  0  0  0  0  0  0
  1  2  1  0  0  0  0
  2  3  1  0  0  0  0
  2  4  1  0  0  0  0
  2  5  1  0  0  0  0
  5  6  2  0  0  0  0
  5  7  1  0  0  0  0
  7  8  1  0  0  0  0
  7  9  1  0  0  0  0
  9 10  1  0  0  0  0
  9 11  1  0  0  0  0
  9 19  1  0  0  0  0
 11 12  1  0  0  0  0
 11 13  1  0  0  0  0
 11 14  1  0  0  0  0
 14 15  2  0  0  0  0
 14 16  1  0  0  0  0
 16 17  1  0  0  0  0
 16 18  1  0  0  0  0
 19 20  2  0  0  0  0
 19 21  1  0  0  0  0
 21 22  1  0  0  0  0
 21 23  1  0  0  0  0
 23 24  1  0  0  0  0
 23 25  1  0  0  0  0
 23 26  1  0  0  0  0
M  END
$$$$

  -OEChem-04042215573D

 26 25  0     1  0  0  0  0  0999 V2000
   -2.9158   -3.8884    0.5791 H   0  0  0  0  0  0  0  0  0  0  0  0
   -2.9030   -2.8628    0.1997 C   0  0  0  0  0  0  0  0  0  0  0  0
   -3.5512   -2.2466    0.8277 H   0  0  0  0  0  0  0  0  0  0  0  0
   -3.2895   -2.8611   -0.8225 H   0  0  0  0  0  0  0  0  0  0  0  0
   -1.4888   -2.3147    0.2187 C   0  0  0  0  0  0  0  0  0  0  0  0
   -0.5645   -3.0007    0.6294 O   0  0  0  0  0  0  0  0  0  0  0  0
   -1.2338   -1.0389   -0.2373 N   0  0  0  0  0  0  0  0  0  0  0  0
   -2.0369   -0.4608   -0.4857 H   0  0  0  0  0  0  0  0  0  0  0  0
    0.0718   -0.3652   -0.1732 C   0  0  1  0  0  0  0  0  0  0  0  0
    0.7360   -0.8570    0.5451 H   0  0  0  0  0  0  0  0  0  0  0  0
    0.7102   -0.3508   -1.5776 C   0  0  0  0  0  0  0  0  0  0  0  0
   -0.0708   -0.2691   -2.3387 H   0  0  0  0  0  0  0  0  0  0  0  0
    1.3508    0.5310   -1.6725 H   0  0  0  0  0  0  0  0  0  0  0  0
    1.5848   -1.5605   -1.8922 C   0  0  0  0  0  0  0  0  0  0  0  0
    2.1381   -1.6517   -2.9705 O   0  0  0  0  0  0  0  0  0  0  0  0
    1.7746   -2.6211   -1.0527 N   0  0  0  0  0  0  0  0  0  0  0  0
    2.2087   -3.4295   -1.4872 H   0  0  0  0  0  0  0  0  0  0  0  0
    1.0728   -2.7776   -0.3260 H   0  0  0  0  0  0  0  0  0  0  0  0
   -0.1198    1.0804    0.3283 C   0  0  0  0  0  0  0  0  0  0  0  0
   -1.0630    1.7439   -0.0851 O   0  0  0  0  0  0  0  0  0  0  0  0
    0.7177    1.6123    1.2916 N   0  0  0  0  0  0  0  0  0  0  0  0
    1.4812    1.0345    1.6321 H   0  0  0  0  0  0  0  0  0  0  0  0
    0.5693    2.9632    1.8202 C   0  0  0  0  0  0  0  0  0  0  0  0
   -0.4087    3.0829    2.2983 H   0  0  0  0  0  0  0  0  0  0  0  0
    1.3448    3.1656    2.5653 H   0  0  0  0  0  0  0  0  0  0  0  0
    0.6614    3.7016    1.0166 H   0  0  0  0  0  0  0  0  0  0  0  0
  1  2  1  0  0  0  0
  2  3  1  0  0  0  0
  2  4  1  0  0  0  0
  2  5  1  0  0  0  0
  5  6  2  0  0  0  0
  5  7  1  0  0  0  0
  7  8  1  0  0  0  0
  7  9  1  0  0  0  0
  9 10  1  0  0  0  0
  9 11  1  0  0  0  0
  9 19  1  0  0  0  0
 11 12  1  0  0  0  0
 11 13  1  0  0  0  0
 11 14  1  0  0  0  0
 14 15  2  0  0  0  0
 14 16  1  0  0  0  0
 16 17  1  0  0  0  0
 16 18  1  0  0  0  0
 19 20  2  0  0  0  0
 19 21  1  0  0  0  0
 21 22  1  0  0  0  0
 21 23  1  0  0  0  0
 23 24  1  0  0  0  0
 23 25  1  0  0  0  0
 23 26  1  0  0  0  0
M  END
$$$$

  -OEChem-04042215573D

 26 25  0     1  0  0  0  0  0999 V2000
   -2.9871   -3.8679    0.5858 H   0  0  0  0  0  0  0  0  0  0  0  0
   -2.9544   -2.8440    0.2030 C   0  0  0  0  0  0  0  0  0  0  0  0
   -3.5881   -2.2129    0.8309 H   0  0  0  0  0  0  0  0  0  0  0  0
   -3.3437   -2.8375   -0.8181 H   0  0  0  0  0  0  0  0  0  0  0  0
   -1.5294   -2.3242    0.2170 C   0  0  0  0  0  0  0  0  0  0  0  0
   -0.6195   -3.0302    0.6232 O   0  0  0  0  0  0  0  0  0  0  0  0
   -1.2534   -1.0513   -0.2346 N   0  0  0  0  0  0  0  0  0  0  0  0
   -2.0509   -0.4630   -0.4777 H   0  0  0  0  0  0  0  0  0  0  0  0
    0.0577   -0.3845   -0.1780 C   0  0  1  0  0  0  0  0  0  0  0  0
    0.7246   -0.8879    0.5302 H   0  0  0  0  0  0  0  0  0  0  0  0
    0.6911   -0.3633   -1.5852 C   0  0  0  0  0  0  0  0  0  0  0  0
   -0.0935   -0.2756   -2.3420 H   0  0  0  0  0  0  0  0  0  0  0  0
    1.3312    0.5195   -1.6771 H   0  0  0  0  0  0  0  0  0  0  0  0
    1.5621   -1.5708   -1.9161 C   0  0  0  0  0  0  0  0  0  0  0  0
    2.3178   -1.5351   -2.8676 O   0  0  0  0  0  0  0  0  0  0  0  0
    1.6138   -2.7173   -1.1767 N   0  0  0  0  0  0  0  0  0  0  0  0
    2.1114   -3.4951   -1.5982 H   0  0  0  0  0  0  0  0  0  0  0  0
    0.8714   -2.9010   -0.4988 H   0  0  0  0  0  0  0  0  0  0  0  0
   -0.1242    1.0610    0.3268 C   0  0  0  0  0  0  0  0  0  0  0  0
   -1.0679    1.7284   -0.0793 O   0  0  0  0  0  0  0  0  0  0  0  0
    0.7217    1.5871    1.2857 N   0  0  0  0  0  0  0  0  0  0  0  0
    1.4881    1.0070    1.6154 H   0  0  0  0  0  0  0  0  0  0  0  0
    0.5860    2.9389    1.8153 C   0  0  0  0  0  0  0  0  0  0  0  0
   -0.3877    3.0653    2.3003 H   0  0  0  0  0  0  0  0  0  0  0  0
    1.3680    3.1358    2.5550 H   0  0  0  0  0  0  0  0  0  0  0  0
    0.6778    3.6765    1.0110 H   0  0  0  0  0  0  0  0  0  0  0  0
  1  2  1  0  0  0  0
  2  3  1  0  0  0  0
  2  4  1  0  0  0  0
  2  5  1  0  0  0  0
  5  6  2  0  0  0  0
  5  7  1  0  0  0  0
  7  8  1  0  0  0  0
  7  9  1  0  0  0  0
  9 10  1  0  0  0  0
  9 11  1  0  0  0  0
  9 19  1  0  0  0  0
 11 12  1  0  0  0  0
 11 13  1  0  0  0  0
 11 14  1  0  0  0  0
 14 15  2  0  0  0  0
 14 16  1  0  0  0  0
 16 17  1  0  0  0  0
 16 18  1  0  0  0  0
 19 20  2  0  0  0  0
 19 21  1  0  0  0  0
 21 22  1  0  0  0  0
 21 23  1  0  0  0  0
 23 24  1  0  0  0  0
 23 25  1  0  0  0  0
 23 26  1  0  0  0  0
M  END
$$$$

  -OEChem-04042215573D

 26 25  0     1  0  0  0  0  0999 V2000
   -3.0095   -3.8692    0.5768 H   0  0  0  0  0  0  0  0  0  0  0  0
   -2.9744   -2.8448    0.1947 C   0  0  0  0  0  0  0  0  0  0  0  0
   -3.6119   -2.2139    0.8192 H   0  0  0  0  0  0  0  0  0  0  0  0
   -3.3578   -2.8377   -0.8286 H   0  0  0  0  0  0  0  0  0  0  0  0
   -1.5492   -2.3257    0.2170 C   0  0  0  0  0  0  0  0  0  0  0  0
   -0.6421   -3.0306    0.6321 O   0  0  0  0  0  0  0  0  0  0  0  0
   -1.2694   -1.0528   -0.2317 N   0  0  0  0  0  0  0  0  0  0  0  0
   -2.0648   -0.4620   -0.4755 H   0  0  0  0  0  0  0  0  0  0  0  0
    0.0466   -0.3945   -0.1882 C   0  0  1  0  0  0  0  0  0  0  0  0
    0.7195   -0.9098    0.5061 H   0  0  0  0  0  0  0  0  0  0  0  0
    0.6716   -0.3592   -1.5992 C   0  0  0  0  0  0  0  0  0  0  0  0
   -0.1177   -0.2642   -2.3499 H   0  0  0  0  0  0  0  0  0  0  0  0
    1.3117    0.5242   -1.6884 H   0  0  0  0  0  0  0  0  0  0  0  0
    1.5338   -1.5687   -1.9435 C   0  0  0  0  0  0  0  0  0  0  0  0
    2.4716   -1.4548   -2.7087 O   0  0  0  0  0  0  0  0  0  0  0  0
    1.3103   -2.8332   -1.4817 N   0  0  0  0  0  0  0  0  0  0  0  0
    2.0289   -3.5224   -1.6785 H   0  0  0  0  0  0  0  0  0  0  0  0
    0.6608   -2.9777   -0.7069 H   0  0  0  0  0  0  0  0  0  0  0  0
   -0.1236    1.0493    0.3266 C   0  0  0  0  0  0  0  0  0  0  0  0
   -1.0689    1.7226   -0.0662 O   0  0  0  0  0  0  0  0  0  0  0  0
    0.7349    1.5681    1.2783 N   0  0  0  0  0  0  0  0  0  0  0  0
    1.5052    0.9854    1.5941 H   0  0  0  0  0  0  0  0  0  0  0  0
    0.6092    2.9180    1.8157 C   0  0  0  0  0  0  0  0  0  0  0  0
   -0.3617    3.0471    2.3060 H   0  0  0  0  0  0  0  0  0  0  0  0
    1.3957    3.1066    2.5530 H   0  0  0  0  0  0  0  0  0  0  0  0
    0.7013    3.6594    1.0148 H   0  0  0  0  0  0  0  0  0  0  0  0
  1  2  1  0  0  0  0
  2  3  1  0  0  0  0
  2  4  1  0  0  0  0
  2  5  1  0  0  0  0
  5  6  2  0  0  0  0
  5  7  1  0  0  0  0
  7  8  1  0  0  0  0
  7  9  1  0  0  0  0
  9 10  1  0  0  0  0
  9 11  1  0  0  0  0
  9 19  1  0  0  0  0
 11 12  1  0  0  0  0
 11 13  1  0  0  0  0
 11 14  1  0  0  0  0
 14 15  2  0  0  0  0
 14 16  1  0  0  0  0
 16 17  1  0  0  0  0
 16 18  1  0  0  0  0
 19 20  2  0  0  0  0
 19 21  1  0  0  0  0
 21 22  1  0  0  0  0
 21 23  1  0  0  0  0
 23 24  1  0  0  0  0
 23 25  1  0  0  0  0
 23 26  1  0  0  0  0
M  END
$$$$

  -OEChem-04042215573D

 26 25  0     1  0  0  0  0  0999 V2000
   -3.0247   -3.8585    0.5937 H   0  0  0  0  0  0  0  0  0  0  0  0
   -2.9897   -2.8363    0.2064 C   0  0  0  0  0  0  0  0  0  0  0  0
   -3.5956   -2.1950    0.8513 H   0  0  0  0  0  0  0  0  0  0  0  0
   -3.4099   -2.8272   -0.8024 H   0  0  0  0  0  0  0  0  0  0  0  0
   -1.5579   -2.3361    0.1756 C   0  0  0  0  0  0  0  0  0  0  0  0
   -0.6423   -3.0656    0.5223 O   0  0  0  0  0  0  0  0  0  0  0  0
   -1.2810   -1.0575   -0.2579 N   0  0  0  0  0  0  0  0  0  0  0  0
   -2.0811   -0.4545   -0.4519 H   0  0  0  0  0  0  0  0  0  0  0  0
    0.0344   -0.3967   -0.2160 C   0  0  1  0  0  0  0  0  0  0  0  0
    0.7082   -0.9212    0.4708 H   0  0  0  0  0  0  0  0  0  0  0  0
    0.6615   -0.3510   -1.6246 C   0  0  0  0  0  0  0  0  0  0  0  0
   -0.1259   -0.2584   -2.3776 H   0  0  0  0  0  0  0  0  0  0  0  0
    1.2973    0.5360   -1.7102 H   0  0  0  0  0  0  0  0  0  0  0  0
    1.5260   -1.5603   -1.9611 C   0  0  0  0  0  0  0  0  0  0  0  0
    2.6109   -1.4133   -2.4900 O   0  0  0  0  0  0  0  0  0  0  0  0
    1.1668   -2.8530   -1.7170 N   0  0  0  0  0  0  0  0  0  0  0  0
    1.9107   -3.5340   -1.8315 H   0  0  0  0  0  0  0  0  0  0  0  0
    0.4540   -3.0189   -1.0055 H   0  0  0  0  0  0  0  0  0  0  0  0
   -0.1316    1.0403    0.3179 C   0  0  0  0  0  0  0  0  0  0  0  0
   -1.0863    1.7143   -0.0503 O   0  0  0  0  0  0  0  0  0  0  0  0
    0.7357    1.5459    1.2687 N   0  0  0  0  0  0  0  0  0  0  0  0
    1.5186    0.9649    1.5556 H   0  0  0  0  0  0  0  0  0  0  0  0
    0.6208    2.8910    1.8196 C   0  0  0  0  0  0  0  0  0  0  0  0
   -0.3465    3.0213    2.3161 H   0  0  0  0  0  0  0  0  0  0  0  0
    1.4121    3.0675    2.5545 H   0  0  0  0  0  0  0  0  0  0  0  0
    0.7133    3.6392    1.0254 H   0  0  0  0  0  0  0  0  0  0  0  0
  1  2  1  0  0  0  0
  2  3  1  0  0  0  0
  2  4  1  0  0  0  0
  2  5  1  0  0  0  0
  5  6  2  0  0  0  0
  5  7  1  0  0  0  0
  7  8  1  0  0  0  0
  7  9  1  0  0  0  0
  9 10  1  0  0  0  0
  9 11  1  0  0  0  0
  9 19  1  0  0  0  0
 11 12  1  0  0  0  0
 11 13  1  0  0  0  0
 11 14  1  0  0  0  0
 14 15  2  0  0  0  0
 14 16  1  0  0  0  0
 16 17  1  0  0  0  0
 16 18  1  0  0  0  0
 19 20  2  0  0  0  0
 19 21  1  0  0  0  0
 21 22  1  0  0  0  0
 21 23  1  0  0  0  0
 23 24  1  0  0  0  0
 23 25  1  0  0  0  0
 23 26  1  0  0  0  0
M  END
$$$$

  -OEChem-04042215573D

 26 25  0     1  0  0  0  0  0999 V2000
   -3.0127   -3.8551    0.5889 H   0  0  0  0  0  0  0  0  0  0  0  0
   -2.9859   -2.8286    0.2125 C   0  0  0  0  0  0  0  0  0  0  0  0
   -3.5554   -2.1902    0.8925 H   0  0  0  0  0  0  0  0  0  0  0  0
   -3.4522   -2.8030   -0.7754 H   0  0  0  0  0  0  0  0  0  0  0  0
   -1.5523   -2.3410    0.1220 C   0  0  0  0  0  0  0  0  0  0  0  0
   -0.6278   -3.0933    0.3837 O   0  0  0  0  0  0  0  0  0  0  0  0
   -1.2848   -1.0550   -0.2940 N   0  0  0  0  0  0  0  0  0  0  0  0
   -2.0900   -0.4424   -0.4281 H   0  0  0  0  0  0  0  0  0  0  0  0
    0.0282   -0.3887   -0.2511 C   0  0  1  0  0  0  0  0  0  0  0  0
    0.7035   -0.9209    0.4291 H   0  0  0  0  0  0  0  0  0  0  0  0
    0.6542   -0.3387   -1.6581 C   0  0  0  0  0  0  0  0  0  0  0  0
   -0.1310   -0.2512   -2.4135 H   0  0  0  0  0  0  0  0  0  0  0  0
    1.2871    0.5502   -1.7459 H   0  0  0  0  0  0  0  0  0  0  0  0
    1.5202   -1.5506   -1.9771 C   0  0  0  0  0  0  0  0  0  0  0  0
    2.6989   -1.4141   -2.2430 O   0  0  0  0  0  0  0  0  0  0  0  0
    1.0696   -2.8369   -1.9498 N   0  0  0  0  0  0  0  0  0  0  0  0
    1.8066   -3.5335   -1.9963 H   0  0  0  0  0  0  0  0  0  0  0  0
    0.2758   -3.0231   -1.3373 H   0  0  0  0  0  0  0  0  0  0  0  0
   -0.1340    1.0403    0.3039 C   0  0  0  0  0  0  0  0  0  0  0  0
   -1.0994    1.7130   -0.0380 O   0  0  0  0  0  0  0  0  0  0  0  0
    0.7405    1.5336    1.2544 N   0  0  0  0  0  0  0  0  0  0  0  0
    1.5388    0.9585    1.5098 H   0  0  0  0  0  0  0  0  0  0  0  0
    0.6215    2.8667    1.8332 C   0  0  0  0  0  0  0  0  0  0  0  0
   -0.3437    2.9815    2.3377 H   0  0  0  0  0  0  0  0  0  0  0  0
    1.4158    3.0327    2.5674 H   0  0  0  0  0  0  0  0  0  0  0  0
    0.7052    3.6316    1.0540 H   0  0  0  0  0  0  0  0  0  0  0  0
  1  2  1  0  0  0  0
  2  3  1  0  0  0  0
  2  4  1  0  0  0  0
  2  5  1  0  0  0  0
  5  6  2  0  0  0  0
  5  7  1  0  0  0  0
  7  8  1  0  0  0  0
  7  9  1  0  0  0  0
  9 10  1  0  0  0  0
  9 11  1  0  0  0  0
  9 19  1  0  0  0  0
 11 12  1  0  0  0  0
 11 13  1  0  0  0  0
 11 14  1  0  0  0  0
 14 15  2  0  0  0  0
 14 16  1  0  0  0  0
 16 17  1  0  0  0  0
 16 18  1  0  0  0  0
 19 20  2  0  0  0  0
 19 21  1  0  0  0  0
 21 22  1  0  0  0  0
 21 23  1  0  0  0  0
 23 24  1  0  0  0  0
 23 25  1  0  0  0  0
 23 26  1  0  0  0  0
M  END
$$$$

  -OEChem-04042215573D

 26 25  0     1  0  0  0  0  0999 V2000
   -2.9781   -3.8643    0.5604 H   0  0  0  0  0  0  0  0  0  0  0  0
   -2.9654   -2.8302    0.2049 C   0  0  0  0  0  0  0  0  0  0  0  0
   -3.5054   -2.2062    0.9213 H   0  0  0  0  0  0  0  0  0  0  0  0
   -3.4724   -2.7836   -0.7620 H   0  0  0  0  0  0  0  0  0  0  0  0
   -1.5357   -2.3424    0.0658 C   0  0  0  0  0  0  0  0  0  0  0  0
   -0.6038   -3.1059    0.2562 O   0  0  0  0  0  0  0  0  0  0  0  0
   -1.2837   -1.0477   -0.3320 N   0  0  0  0  0  0  0  0  0  0  0  0
   -2.0941   -0.4327   -0.4145 H   0  0  0  0  0  0  0  0  0  0  0  0
    0.0252   -0.3736   -0.2876 C   0  0  1  0  0  0  0  0  0  0  0  0
    0.7036   -0.9124    0.3846 H   0  0  0  0  0  0  0  0  0  0  0  0
    0.6476   -0.3166   -1.6941 C   0  0  0  0  0  0  0  0  0  0  0  0
   -0.1362   -0.2326   -2.4516 H   0  0  0  0  0  0  0  0  0  0  0  0
    1.2802    0.5724   -1.7827 H   0  0  0  0  0  0  0  0  0  0  0  0
    1.5145   -1.5309   -1.9940 C   0  0  0  0  0  0  0  0  0  0  0  0
    2.7272   -1.4396   -1.9863 O   0  0  0  0  0  0  0  0  0  0  0  0
    1.0166   -2.7873   -2.1695 N   0  0  0  0  0  0  0  0  0  0  0  0
    1.7292   -3.5098   -2.1354 H   0  0  0  0  0  0  0  0  0  0  0  0
    0.1363   -2.9769   -1.6942 H   0  0  0  0  0  0  0  0  0  0  0  0
   -0.1358    1.0458    0.2902 C   0  0  0  0  0  0  0  0  0  0  0  0
   -1.1126    1.7155   -0.0241 O   0  0  0  0  0  0  0  0  0  0  0  0
    0.7459    1.5258    1.2406 N   0  0  0  0  0  0  0  0  0  0  0  0
    1.5559    0.9545    1.4674 H   0  0  0  0  0  0  0  0  0  0  0  0
    0.6244    2.8454    1.8487 C   0  0  0  0  0  0  0  0  0  0  0  0
   -0.3382    2.9443    2.3615 H   0  0  0  0  0  0  0  0  0  0  0  0
    1.4225    2.9989    2.5813 H   0  0  0  0  0  0  0  0  0  0  0  0
    0.6997    3.6273    1.0858 H   0  0  0  0  0  0  0  0  0  0  0  0
  1  2  1  0  0  0  0
  2  3  1  0  0  0  0
  2  4  1  0  0  0  0
  2  5  1  0  0  0  0
  5  6  2  0  0  0  0
  5  7  1  0  0  0  0
  7  8  1  0  0  0  0
  7  9  1  0  0  0  0
  9 10  1  0  0  0  0
  9 11  1  0  0  0  0
  9 19  1  0  0  0  0
 11 12  1  0  0  0  0
 11 13  1  0  0  0  0
 11 14  1  0  0  0  0
 14 15  2  0  0  0  0
 14 16  1  0  0  0  0
 16 17  1  0  0  0  0
 16 18  1  0  0  0  0
 19 20  2  0  0  0  0
 19 21  1  0  0  0  0
 21 22  1  0  0  0  0
 21 23  1  0  0  0  0
 23 24  1  0  0  0  0
 23 25  1  0  0  0  0
 23 26  1  0  0  0  0
M  END
$$$$

  -OEChem-04042215573D

 26 25  0     1  0  0  0  0  0999 V2000
   -2.9216   -3.8861    0.5283 H   0  0  0  0  0  0  0  0  0  0  0  0
   -2.9248   -2.8464    0.1884 C   0  0  0  0  0  0  0  0  0  0  0  0
   -3.4607   -2.2390    0.9220 H   0  0  0  0  0  0  0  0  0  0  0  0
   -3.4462   -2.7901   -0.7704 H   0  0  0  0  0  0  0  0  0  0  0  0
   -1.5026   -2.3405    0.0368 C   0  0  0  0  0  0  0  0  0  0  0  0
   -0.5608   -3.0938    0.2179 O   0  0  0  0  0  0  0  0  0  0  0  0
   -1.2728   -1.0391   -0.3546 N   0  0  0  0  0  0  0  0  0  0  0  0
   -2.0898   -0.4309   -0.4186 H   0  0  0  0  0  0  0  0  0  0  0  0
    0.0307   -0.3571   -0.3025 C   0  0  1  0  0  0  0  0  0  0  0  0
    0.7107   -0.8955    0.3687 H   0  0  0  0  0  0  0  0  0  0  0  0
    0.6511   -0.2968   -1.7079 C   0  0  0  0  0  0  0  0  0  0  0  0
   -0.1286   -0.2144   -2.4698 H   0  0  0  0  0  0  0  0  0  0  0  0
    1.2887    0.5880   -1.7977 H   0  0  0  0  0  0  0  0  0  0  0  0
    1.5153   -1.5175   -1.9777 C   0  0  0  0  0  0  0  0  0  0  0  0
    2.6993   -1.5095   -1.6989 O   0  0  0  0  0  0  0  0  0  0  0  0
    1.0054   -2.7025   -2.4188 N   0  0  0  0  0  0  0  0  0  0  0  0
    1.6383   -3.4867   -2.2919 H   0  0  0  0  0  0  0  0  0  0  0  0
    0.0199   -2.8549   -2.2304 H   0  0  0  0  0  0  0  0  0  0  0  0
   -0.1332    1.0576    0.2842 C   0  0  0  0  0  0  0  0  0  0  0  0
   -1.1106    1.7284   -0.0263 O   0  0  0  0  0  0  0  0  0  0  0  0
    0.7484    1.5313    1.2377 N   0  0  0  0  0  0  0  0  0  0  0  0
    1.5553    0.9551    1.4639 H   0  0  0  0  0  0  0  0  0  0  0  0
    0.6245    2.8438    1.8601 C   0  0  0  0  0  0  0  0  0  0  0  0
   -0.3373    2.9347    2.3758 H   0  0  0  0  0  0  0  0  0  0  0  0
    1.4236    2.9914    2.5930 H   0  0  0  0  0  0  0  0  0  0  0  0
    0.6961    3.6341    1.1054 H   0  0  0  0  0  0  0  0  0  0  0  0
  1  2  1  0  0  0  0
  2  3  1  0  0  0  0
  2  4  1  0  0  0  0
  2  5  1  0  0  0  0
  5  6  2  0  0  0  0
  5  7  1  0  0  0  0
  7  8  1  0  0  0  0
  7  9  1  0  0  0  0
  9 10  1  0  0  0  0
  9 11  1  0  0  0  0
  9 19  1  0  0  0  0
 11 12  1  0  0  0  0
 11 13  1  0  0  0  0
 11 14  1  0  0  0  0
 14 15  2  0  0  0  0
 14 16  1  0  0  0  0
 16 17  1  0  0  0  0
 16 18  1  0  0  0  0
 19 20  2  0  0  0  0
 19 21  1  0  0  0  0
 21 22  1  0  0  0  0
 21 23  1  0  0  0  0
 23 24  1  0  0  0  0
 23 25  1  0  0  0  0
 23 26  1  0  0  0  0
M  END
$$$$

  -OEChem-04042215573D

 26 25  0     1  0  0  0  0  0999 V2000
   -2.8814   -3.8996    0.5115 H   0  0  0  0  0  0  0  0  0  0  0  0
   -2.8936   -2.8624    0.1649 C   0  0  0  0  0  0  0  0  0  0  0  0
   -3.4497   -2.2575    0.8853 H   0  0  0  0  0  0  0  0  0  0  0  0
   -3.3988   -2.8193   -0.8031 H   0  0  0  0  0  0  0  0  0  0  0  0
   -1.4760   -2.3388    0.0335 C   0  0  0  0  0  0  0  0  0  0  0  0
   -0.5287   -3.0788    0.2385 O   0  0  0  0  0  0  0  0  0  0  0  0
   -1.2602   -1.0338   -0.3558 N   0  0  0  0  0  0  0  0  0  0  0  0
   -2.0824   -0.4336   -0.4224 H   0  0  0  0  0  0  0  0  0  0  0  0
    0.0385   -0.3445   -0.2991 C   0  0  1  0  0  0  0  0  0  0  0  0
    0.7209   -0.8805    0.3723 H   0  0  0  0  0  0  0  0  0  0  0  0
    0.6526   -0.2831   -1.7070 C   0  0  0  0  0  0  0  0  0  0  0  0
   -0.1293   -0.2024   -2.4667 H   0  0  0  0  0  0  0  0  0  0  0  0
    1.2913    0.6002   -1.8004 H   0  0  0  0  0  0  0  0  0  0  0  0
    1.5170   -1.5051   -1.9654 C   0  0  0  0  0  0  0  0  0  0  0  0
    2.6154   -1.6045   -1.4512 O   0  0  0  0  0  0  0  0  0  0  0  0
    1.0639   -2.5904   -2.6571 N   0  0  0  0  0  0  0  0  0  0  0  0
    1.6033   -3.4362   -2.4953 H   0  0  0  0  0  0  0  0  0  0  0  0
    0.0598   -2.6712   -2.7705 H   0  0  0  0  0  0  0  0  0  0  0  0
   -0.1293    1.0677    0.2900 C   0  0  0  0  0  0  0  0  0  0  0  0
   -1.1031    1.7410   -0.0268 O   0  0  0  0  0  0  0  0  0  0  0  0
    0.7507    1.5406    1.2450 N   0  0  0  0  0  0  0  0  0  0  0  0
    1.5542    0.9609    1.4755 H   0  0  0  0  0  0  0  0  0  0  0  0
    0.6259    2.8521    1.8687 C   0  0  0  0  0  0  0  0  0  0  0  0
   -0.3392    2.9443    2.3781 H   0  0  0  0  0  0  0  0  0  0  0  0
    1.4205    2.9969    2.6070 H   0  0  0  0  0  0  0  0  0  0  0  0
    0.7042    3.6432    1.1155 H   0  0  0  0  0  0  0  0  0  0  0  0
  1  2  1  0  0  0  0
  2  3  1  0  0  0  0
  2  4  1  0  0  0  0
  2  5  1  0  0  0  0
  5  6  2  0  0  0  0
  5  7  1  0  0  0  0
  7  8  1  0  0  0  0
  7  9  1  0  0  0  0
  9 10  1  0  0  0  0
  9 11  1  0  0  0  0
  9 19  1  0  0  0  0
 11 12  1  0  0  0  0
 11 13  1  0  0  0  0
 11 14  1  0  0  0  0
 14 15  2  0  0  0  0
 14 16  1  0  0  0  0
 16 17  1  0  0  0  0
 16 18  1  0  0  0  0
 19 20  2  0  0  0  0
 19 21  1  0  0  0  0
 21 22  1  0  0  0  0
 21 23  1  0  0  0  0
 23 24  1  0  0  0  0
 23 25  1  0  0  0  0
 23 26  1  0  0  0  0
M  END
$$$$

  -OEChem-04042215573D

 26 25  0     1  0  0  0  0  0999 V2000
   -2.8753   -3.9019    0.5244 H   0  0  0  0  0  0  0  0  0  0  0  0
   -2.8856   -2.8717    0.1574 C   0  0  0  0  0  0  0  0  0  0  0  0
   -3.4662   -2.2577    0.8503 H   0  0  0  0  0  0  0  0  0  0  0  0
   -3.3635   -2.8518   -0.8249 H   0  0  0  0  0  0  0  0  0  0  0  0
   -1.4684   -2.3398    0.0555 C   0  0  0  0  0  0  0  0  0  0  0  0
   -0.5241   -3.0707    0.3003 O   0  0  0  0  0  0  0  0  0  0  0  0
   -1.2528   -1.0358   -0.3386 N   0  0  0  0  0  0  0  0  0  0  0  0
   -2.0770   -0.4430   -0.4338 H   0  0  0  0  0  0  0  0  0  0  0  0
    0.0431   -0.3417   -0.2768 C   0  0  1  0  0  0  0  0  0  0  0  0
    0.7226   -0.8730    0.4011 H   0  0  0  0  0  0  0  0  0  0  0  0
    0.6563   -0.2861   -1.6874 C   0  0  0  0  0  0  0  0  0  0  0  0
   -0.1299   -0.2061   -2.4427 H   0  0  0  0  0  0  0  0  0  0  0  0
    1.2919    0.5989   -1.7836 H   0  0  0  0  0  0  0  0  0  0  0  0
    1.5281   -1.5022   -1.9566 C   0  0  0  0  0  0  0  0  0  0  0  0
    2.4984   -1.7427   -1.2625 O   0  0  0  0  0  0  0  0  0  0  0  0
    1.2084   -2.4361   -2.8994 N   0  0  0  0  0  0  0  0  0  0  0  0
    1.6884   -3.3249   -2.7889 H   0  0  0  0  0  0  0  0  0  0  0  0
    0.2639   -2.4270   -3.2672 H   0  0  0  0  0  0  0  0  0  0  0  0
   -0.1287    1.0737    0.3036 C   0  0  0  0  0  0  0  0  0  0  0  0
   -1.0900    1.7535   -0.0368 O   0  0  0  0  0  0  0  0  0  0  0  0
    0.7462    1.5515    1.2608 N   0  0  0  0  0  0  0  0  0  0  0  0
    1.5336    0.9607    1.5169 H   0  0  0  0  0  0  0  0  0  0  0  0
    0.6261    2.8699    1.8706 C   0  0  0  0  0  0  0  0  0  0  0  0
   -0.3419    2.9740    2.3720 H   0  0  0  0  0  0  0  0  0  0  0  0
    1.4162    3.0160    2.6134 H   0  0  0  0  0  0  0  0  0  0  0  0
    0.7162    3.6532    1.1108 H   0  0  0  0  0  0  0  0  0  0  0  0
  1  2  1  0  0  0  0
  2  3  1  0  0  0  0
  2  4  1  0  0  0  0
  2  5  1  0  0  0  0
  5  6  2  0  0  0  0
  5  7  1  0  0  0  0
  7  8  1  0  0  0  0
  7  9  1  0  0  0  0
  9 10  1  0  0  0  0
  9 11  1  0  0  0  0
  9 19  1  0  0  0  0
 11 12  1  0  0  0  0
 11 13  1  0  0  0  0
 11 14  1  0  0  0  0
 14 15  2  0  0  0  0
 14 16  1  0  0  0  0
 16 17  1  0  0  0  0
 16 18  1  0  0  0  0
 19 20  2  0  0  0  0
 19 21  1  0  0  0  0
 21 22  1  0  0  0  0
 21 23  1  0  0  0  0
 23 24  1  0  0  0  0
 23 25  1  0  0  0  0
 23 26  1  0  0  0  0
M  END
$$$$

  -OEChem-04042215573D

 26 25  0     1  0  0  0  0  0999 V2000
   -2.9030   -3.9021    0.5321 H   0  0  0  0  0  0  0  0  0  0  0  0
   -2.8971   -2.8738    0.1596 C   0  0  0  0  0  0  0  0  0  0  0  0
   -3.5061   -2.2558    0.8238 H   0  0  0  0  0  0  0  0  0  0  0  0
   -3.3331   -2.8596   -0.8422 H   0  0  0  0  0  0  0  0  0  0  0  0
   -1.4765   -2.3425    0.1153 C   0  0  0  0  0  0  0  0  0  0  0  0
   -0.5496   -3.0592    0.4499 O   0  0  0  0  0  0  0  0  0  0  0  0
   -1.2447   -1.0471   -0.2987 N   0  0  0  0  0  0  0  0  0  0  0  0
   -2.0633   -0.4599   -0.4539 H   0  0  0  0  0  0  0  0  0  0  0  0
    0.0534   -0.3569   -0.2384 C   0  0  1  0  0  0  0  0  0  0  0  0
    0.7297   -0.8799    0.4481 H   0  0  0  0  0  0  0  0  0  0  0  0
    0.6634   -0.3096   -1.6539 C   0  0  0  0  0  0  0  0  0  0  0  0
   -0.1308   -0.2260   -2.4006 H   0  0  0  0  0  0  0  0  0  0  0  0
    1.2974    0.5760   -1.7536 H   0  0  0  0  0  0  0  0  0  0  0  0
    1.5381   -1.5187   -1.9538 C   0  0  0  0  0  0  0  0  0  0  0  0
    2.3525   -1.9381   -1.1534 O   0  0  0  0  0  0  0  0  0  0  0  0
    1.4193   -2.2285   -3.1141 N   0  0  0  0  0  0  0  0  0  0  0  0
    1.8762   -3.1363   -3.1095 H   0  0  0  0  0  0  0  0  0  0  0  0
    0.5922   -2.0852   -3.6825 H   0  0  0  0  0  0  0  0  0  0  0  0
   -0.1234    1.0679    0.3158 C   0  0  0  0  0  0  0  0  0  0  0  0
   -1.0657    1.7531   -0.0649 O   0  0  0  0  0  0  0  0  0  0  0  0
    0.7426    1.5607    1.2735 N   0  0  0  0  0  0  0  0  0  0  0  0
    1.5043    0.9580    1.5757 H   0  0  0  0  0  0  0  0  0  0  0  0
    0.6187    2.8894    1.8597 C   0  0  0  0  0  0  0  0  0  0  0  0
   -0.3504    3.0005    2.3575 H   0  0  0  0  0  0  0  0  0  0  0  0
    1.4077    3.0504    2.6007 H   0  0  0  0  0  0  0  0  0  0  0  0
    0.7085    3.6589    1.0858 H   0  0  0  0  0  0  0  0  0  0  0  0
  1  2  1  0  0  0  0
  2  3  1  0  0  0  0
  2  4  1  0  0  0  0
  2  5  1  0  0  0  0
  5  6  2  0  0  0  0
  5  7  1  0  0  0  0
  7  8  1  0  0  0  0
  7  9  1  0  0  0  0
  9 10  1  0  0  0  0
  9 11  1  0  0  0  0
  9 19  1  0  0  0  0
 11 12  1  0  0  0  0
 11 13  1  0  0  0  0
 11 14  1  0  0  0  0
 14 15  2  0  0  0  0
 14 16  1  0  0  0  0
 16 17  1  0  0  0  0
 16 18  1  0  0  0  0
 19 20  2  0  0  0  0
 19 21  1  0  0  0  0
 21 22  1  0  0  0  0
 21 23  1  0  0  0  0
 23 24  1  0  0  0  0
 23 25  1  0  0  0  0
 23 26  1  0  0  0  0
M  END
$$$$

  -OEChem-04042215573D

 26 25  0     1  0  0  0  0  0999 V2000
   -2.9364   -3.9066    0.5365 H   0  0  0  0  0  0  0  0  0  0  0  0
   -2.9149   -2.8791    0.1625 C   0  0  0  0  0  0  0  0  0  0  0  0
   -3.5530   -2.2601    0.7979 H   0  0  0  0  0  0  0  0  0  0  0  0
   -3.3065   -2.8677   -0.8574 H   0  0  0  0  0  0  0  0  0  0  0  0
   -1.4942   -2.3463    0.1799 C   0  0  0  0  0  0  0  0  0  0  0  0
   -0.5928   -3.0421    0.6127 O   0  0  0  0  0  0  0  0  0  0  0  0
   -1.2431   -1.0617   -0.2565 N   0  0  0  0  0  0  0  0  0  0  0  0
   -2.0514   -0.4840   -0.4828 H   0  0  0  0  0  0  0  0  0  0  0  0
    0.0602   -0.3805   -0.2019 C   0  0  1  0  0  0  0  0  0  0  0  0
    0.7366   -0.8973    0.4891 H   0  0  0  0  0  0  0  0  0  0  0  0
    0.6671   -0.3383   -1.6217 C   0  0  0  0  0  0  0  0  0  0  0  0
   -0.1335   -0.2480   -2.3605 H   0  0  0  0  0  0  0  0  0  0  0  0
    1.3013    0.5472   -1.7212 H   0  0  0  0  0  0  0  0  0  0  0  0
    1.5395   -1.5413   -1.9569 C   0  0  0  0  0  0  0  0  0  0  0  0
    2.1735   -2.1533   -1.1199 O   0  0  0  0  0  0  0  0  0  0  0  0
    1.6657   -1.9942   -3.2391 N   0  0  0  0  0  0  0  0  0  0  0  0
    2.1128   -2.9012   -3.3402 H   0  0  0  0  0  0  0  0  0  0  0  0
    1.0088   -1.6695   -3.9400 H   0  0  0  0  0  0  0  0  0  0  0  0
   -0.1166    1.0550    0.3251 C   0  0  0  0  0  0  0  0  0  0  0  0
   -1.0384    1.7456   -0.0947 O   0  0  0  0  0  0  0  0  0  0  0  0
    0.7429    1.5637    1.2804 N   0  0  0  0  0  0  0  0  0  0  0  0
    1.4751    0.9505    1.6299 H   0  0  0  0  0  0  0  0  0  0  0  0
    0.6182    2.9045    1.8382 C   0  0  0  0  0  0  0  0  0  0  0  0
   -0.3551    3.0283    2.3246 H   0  0  0  0  0  0  0  0  0  0  0  0
    1.4013    3.0788    2.5824 H   0  0  0  0  0  0  0  0  0  0  0  0
    0.7170    3.6580    1.0497 H   0  0  0  0  0  0  0  0  0  0  0  0
  1  2  1  0  0  0  0
  2  3  1  0  0  0  0
  2  4  1  0  0  0  0
  2  5  1  0  0  0  0
  5  6  2  0  0  0  0
  5  7  1  0  0  0  0
  7  8  1  0  0  0  0
  7  9  1  0  0  0  0
  9 10  1  0  0  0  0
  9 11  1  0  0  0  0
  9 19  1  0  0  0  0
 11 12  1  0  0  0  0
 11 13  1  0  0  0  0
 11 14  1  0  0  0  0
 14 15  2  0  0  0  0
 14 16  1  0  0  0  0
 16 17  1  0  0  0  0
 16 18  1  0  0  0  0
 19 20  2  0  0  0  0
 19 21  1  0  0  0  0
 21 22  1  0  0  0  0
 21 23  1  0  0  0  0
 23 24  1  0  0  0  0
 23 25  1  0  0  0  0
 23 26  1  0  0  0  0
M  END
$$$$

  -OEChem-04042215573D

 26 25  0     1  0  0  0  0  0999 V2000
   -2.9372   -3.9206    0.5000 H   0  0  0  0  0  0  0  0  0  0  0  0
   -2.9084   -2.8924    0.1283 C   0  0  0  0  0  0  0  0  0  0  0  0
   -3.5951   -2.2836    0.7215 H   0  0  0  0  0  0  0  0  0  0  0  0
   -3.2339   -2.8867   -0.9147 H   0  0  0  0  0  0  0  0  0  0  0  0
   -1.5002   -2.3375    0.2352 C   0  0  0  0  0  0  0  0  0  0  0  0
   -0.6308   -2.9976    0.7763 O   0  0  0  0  0  0  0  0  0  0  0  0
   -1.2366   -1.0616   -0.2197 N   0  0  0  0  0  0  0  0  0  0  0  0
   -2.0310   -0.5050   -0.5301 H   0  0  0  0  0  0  0  0  0  0  0  0
    0.0710   -0.3888   -0.1721 C   0  0  1  0  0  0  0  0  0  0  0  0
    0.7504   -0.9023    0.5184 H   0  0  0  0  0  0  0  0  0  0  0  0
    0.6687   -0.3518   -1.5979 C   0  0  0  0  0  0  0  0  0  0  0  0
   -0.1377   -0.2549   -2.3296 H   0  0  0  0  0  0  0  0  0  0  0  0
    1.3059    0.5316   -1.6984 H   0  0  0  0  0  0  0  0  0  0  0  0
    1.5342   -1.5529   -1.9590 C   0  0  0  0  0  0  0  0  0  0  0  0
    1.9710   -2.3408   -1.1447 O   0  0  0  0  0  0  0  0  0  0  0  0
    1.8805   -1.8052   -3.2555 N   0  0  0  0  0  0  0  0  0  0  0  0
    2.3064   -2.7115   -3.4289 H   0  0  0  0  0  0  0  0  0  0  0  0
    1.3923   -1.3189   -3.9995 H   0  0  0  0  0  0  0  0  0  0  0  0
   -0.1037    1.0549    0.3338 C   0  0  0  0  0  0  0  0  0  0  0  0
   -1.0082    1.7507   -0.1146 O   0  0  0  0  0  0  0  0  0  0  0  0
    0.7541    1.5738    1.2853 N   0  0  0  0  0  0  0  0  0  0  0  0
    1.4603    0.9522    1.6716 H   0  0  0  0  0  0  0  0  0  0  0  0
    0.6223    2.9182    1.8327 C   0  0  0  0  0  0  0  0  0  0  0  0
   -0.3445    3.0352    2.3337 H   0  0  0  0  0  0  0  0  0  0  0  0
    1.4151    3.1087    2.5625 H   0  0  0  0  0  0  0  0  0  0  0  0
    0.6998    3.6655    1.0359 H   0  0  0  0  0  0  0  0  0  0  0  0
  1  2  1  0  0  0  0
  2  3  1  0  0  0  0
  2  4  1  0  0  0  0
  2  5  1  0  0  0  0
  5  6  2  0  0  0  0
  5  7  1  0  0  0  0
  7  8  1  0  0  0  0
  7  9  1  0  0  0  0
  9 10  1  0  0  0  0
  9 11  1  0  0  0  0
  9 19  1  0  0  0  0
 11 12  1  0  0  0  0
 11 13  1  0  0  0  0
 11 14  1  0  0  0  0
 14 15  2  0  0  0  0
 14 16  1  0  0  0  0
 16 17  1  0  0  0  0
 16 18  1  0  0  0  0
 19 20  2  0  0  0  0
 19 21  1  0  0  0  0
 21 22  1  0  0  0  0
 21 23  1  0  0  0  0
 23 24  1  0  0  0  0
 23 25  1  0  0  0  0
 23 26  1  0  0  0  0
M  END
$$$$

  -OEChem-04042215573D

 26 25  0     1  0  0  0  0  0999 V2000
   -2.9165   -3.9418    0.4655 H   0  0  0  0  0  0  0  0  0  0  0  0
   -2.8900   -2.9162    0.0865 C   0  0  0  0  0  0  0  0  0  0  0  0
   -3.6299   -2.3207    0.6268 H   0  0  0  0  0  0  0  0  0  0  0  0
   -3.1451   -2.9278   -0.9757 H   0  0  0  0  0  0  0  0  0  0  0  0
   -1.5066   -2.3238    0.2806 C   0  0  0  0  0  0  0  0  0  0  0  0
   -0.6714   -2.9381    0.9216 O   0  0  0  0  0  0  0  0  0  0  0  0
   -1.2384   -1.0535   -0.1880 N   0  0  0  0  0  0  0  0  0  0  0  0
   -2.0139   -0.5286   -0.5874 H   0  0  0  0  0  0  0  0  0  0  0  0
    0.0736   -0.3898   -0.1455 C   0  0  1  0  0  0  0  0  0  0  0  0
    0.7569   -0.9050    0.5398 H   0  0  0  0  0  0  0  0  0  0  0  0
    0.6631   -0.3536   -1.5760 C   0  0  0  0  0  0  0  0  0  0  0  0
   -0.1456   -0.2467   -2.3039 H   0  0  0  0  0  0  0  0  0  0  0  0
    1.3057    0.5260   -1.6742 H   0  0  0  0  0  0  0  0  0  0  0  0
    1.5187   -1.5567   -1.9536 C   0  0  0  0  0  0  0  0  0  0  0  0
    1.7447   -2.4920   -1.2141 O   0  0  0  0  0  0  0  0  0  0  0  0
    2.0871   -1.6482   -3.1918 N   0  0  0  0  0  0  0  0  0  0  0  0
    2.4921   -2.5505   -3.4252 H   0  0  0  0  0  0  0  0  0  0  0  0
    1.7757   -1.0218   -3.9260 H   0  0  0  0  0  0  0  0  0  0  0  0
   -0.0942    1.0597    0.3478 C   0  0  0  0  0  0  0  0  0  0  0  0
   -0.9737    1.7677   -0.1302 O   0  0  0  0  0  0  0  0  0  0  0  0
    0.7651    1.5818    1.2965 N   0  0  0  0  0  0  0  0  0  0  0  0
    1.4373    0.9472    1.7201 H   0  0  0  0  0  0  0  0  0  0  0  0
    0.6382    2.9319    1.8316 C   0  0  0  0  0  0  0  0  0  0  0  0
   -0.3249    3.0542    2.3381 H   0  0  0  0  0  0  0  0  0  0  0  0
    1.4368    3.1293    2.5533 H   0  0  0  0  0  0  0  0  0  0  0  0
    0.7100    3.6714    1.0271 H   0  0  0  0  0  0  0  0  0  0  0  0
  1  2  1  0  0  0  0
  2  3  1  0  0  0  0
  2  4  1  0  0  0  0
  2  5  1  0  0  0  0
  5  6  2  0  0  0  0
  5  7  1  0  0  0  0
  7  8  1  0  0  0  0
  7  9  1  0  0  0  0
  9 10  1  0  0  0  0
  9 11  1  0  0  0  0
  9 19  1  0  0  0  0
 11 12  1  0  0  0  0
 11 13  1  0  0  0  0
 11 14  1  0  0  0  0
 14 15  2  0  0  0  0
 14 16  1  0  0  0  0
 16 17  1  0  0  0  0
 16 18  1  0  0  0  0
 19 20  2  0  0  0  0
 19 21  1  0  0  0  0
 21 22  1  0  0  0  0
 21 23  1  0  0  0  0
 23 24  1  0  0  0  0
 23 25  1  0  0  0  0
 23 26  1  0  0  0  0
M  END
$$$$

  -OEChem-04042215573D

 26 25  0     1  0  0  0  0  0999 V2000
   -2.8860   -3.9617    0.4397 H   0  0  0  0  0  0  0  0  0  0  0  0
   -2.8690   -2.9374    0.0567 C   0  0  0  0  0  0  0  0  0  0  0  0
   -3.6491   -2.3590    0.5573 H   0  0  0  0  0  0  0  0  0  0  0  0
   -3.0729   -2.9609   -1.0164 H   0  0  0  0  0  0  0  0  0  0  0  0
   -1.5124   -2.3078    0.3124 C   0  0  0  0  0  0  0  0  0  0  0  0
   -0.7046   -2.8805    1.0247 O   0  0  0  0  0  0  0  0  0  0  0  0
   -1.2472   -1.0402   -0.1660 N   0  0  0  0  0  0  0  0  0  0  0  0
   -2.0034   -0.5486   -0.6369 H   0  0  0  0  0  0  0  0  0  0  0  0
    0.0690   -0.3853   -0.1297 C   0  0  1  0  0  0  0  0  0  0  0  0
    0.7551   -0.9050    0.5496 H   0  0  0  0  0  0  0  0  0  0  0  0
    0.6519   -0.3483   -1.5633 C   0  0  0  0  0  0  0  0  0  0  0  0
   -0.1574   -0.2345   -2.2894 H   0  0  0  0  0  0  0  0  0  0  0  0
    1.2993    0.5280   -1.6593 H   0  0  0  0  0  0  0  0  0  0  0  0
    1.4963   -1.5573   -1.9457 C   0  0  0  0  0  0  0  0  0  0  0  0
    1.5089   -2.6013   -1.3277 O   0  0  0  0  0  0  0  0  0  0  0  0
    2.2923   -1.5324   -3.0549 N   0  0  0  0  0  0  0  0  0  0  0  0
    2.6855   -2.4258   -3.3376 H   0  0  0  0  0  0  0  0  0  0  0  0
    2.1741   -0.7871   -3.7325 H   0  0  0  0  0  0  0  0  0  0  0  0
   -0.0899    1.0675    0.3581 C   0  0  0  0  0  0  0  0  0  0  0  0
   -0.9524    1.7860   -0.1348 O   0  0  0  0  0  0  0  0  0  0  0  0
    0.7748    1.5876    1.3031 N   0  0  0  0  0  0  0  0  0  0  0  0
    1.4226    0.9428    1.7485 H   0  0  0  0  0  0  0  0  0  0  0  0
    0.6530    2.9390    1.8364 C   0  0  0  0  0  0  0  0  0  0  0  0
   -0.3092    3.0647    2.3439 H   0  0  0  0  0  0  0  0  0  0  0  0
    1.4532    3.1346    2.5567 H   0  0  0  0  0  0  0  0  0  0  0  0
    0.7262    3.6781    1.0316 H   0  0  0  0  0  0  0  0  0  0  0  0
  1  2  1  0  0  0  0
  2  3  1  0  0  0  0
  2  4  1  0  0  0  0
  2  5  1  0  0  0  0
  5  6  2  0  0  0  0
  5  7  1  0  0  0  0
  7  8  1  0  0  0  0
  7  9  1  0  0  0  0
  9 10  1  0  0  0  0
  9 11  1  0  0  0  0
  9 19  1  0  0  0  0
 11 12  1  0  0  0  0
 11 13  1  0  0  0  0
 11 14  1  0  0  0  0
 14 15  2  0  0  0  0
 14 16  1  0  0  0  0
 16 17  1  0  0  0  0
 16 18  1  0  0  0  0
 19 20  2  0  0  0  0
 19 21  1  0  0  0  0
 21 22  1  0  0  0  0
 21 23  1  0  0  0  0
 23 24  1  0  0  0  0
 23 25  1  0  0  0  0
 23 26  1  0  0  0  0
M  END
$$$$

  -OEChem-04042215573D

 26 25  0     1  0  0  0  0  0999 V2000
   -2.8519   -3.9789    0.4225 H   0  0  0  0  0  0  0  0  0  0  0  0
   -2.8470   -2.9559    0.0360 C   0  0  0  0  0  0  0  0  0  0  0  0
   -3.6550   -2.3943    0.5108 H   0  0  0  0  0  0  0  0  0  0  0  0
   -3.0172   -2.9883   -1.0428 H   0  0  0  0  0  0  0  0  0  0  0  0
   -1.5137   -2.2945    0.3295 C   0  0  0  0  0  0  0  0  0  0  0  0
   -0.7167   -2.8400    1.0758 O   0  0  0  0  0  0  0  0  0  0  0  0
   -1.2592   -1.0261   -0.1525 N   0  0  0  0  0  0  0  0  0  0  0  0
   -2.0019   -0.5637   -0.6714 H   0  0  0  0  0  0  0  0  0  0  0  0
    0.0584   -0.3755   -0.1228 C   0  0  1  0  0  0  0  0  0  0  0  0
    0.7482   -0.8987    0.5495 H   0  0  0  0  0  0  0  0  0  0  0  0
    0.6340   -0.3384   -1.5587 C   0  0  0  0  0  0  0  0  0  0  0  0
   -0.1754   -0.2223   -2.2845 H   0  0  0  0  0  0  0  0  0  0  0  0
    1.2840    0.5361   -1.6565 H   0  0  0  0  0  0  0  0  0  0  0  0
    1.4696   -1.5550   -1.9339 C   0  0  0  0  0  0  0  0  0  0  0  0
    1.2850   -2.6645   -1.4783 O   0  0  0  0  0  0  0  0  0  0  0  0
    2.4813   -1.4615   -2.8463 N   0  0  0  0  0  0  0  0  0  0  0  0
    2.8708   -2.3438   -3.1668 H   0  0  0  0  0  0  0  0  0  0  0  0
    2.5496   -0.6316   -3.4254 H   0  0  0  0  0  0  0  0  0  0  0  0
   -0.0922    1.0778    0.3670 C   0  0  0  0  0  0  0  0  0  0  0  0
   -0.9434    1.8060   -0.1312 O   0  0  0  0  0  0  0  0  0  0  0  0
    0.7806    1.5924    1.3078 N   0  0  0  0  0  0  0  0  0  0  0  0
    1.4149    0.9401    1.7612 H   0  0  0  0  0  0  0  0  0  0  0  0
    0.6655    2.9436    1.8433 C   0  0  0  0  0  0  0  0  0  0  0  0
   -0.2939    3.0718    2.3555 H   0  0  0  0  0  0  0  0  0  0  0  0
    1.4696    3.1359    2.5601 H   0  0  0  0  0  0  0  0  0  0  0  0
    0.7372    3.6832    1.0388 H   0  0  0  0  0  0  0  0  0  0  0  0
  1  2  1  0  0  0  0
  2  3  1  0  0  0  0
  2  4  1  0  0  0  0
  2  5  1  0  0  0  0
  5  6  2  0  0  0  0
  5  7  1  0  0  0  0
  7  8  1  0  0  0  0
  7  9  1  0  0  0  0
  9 10  1  0  0  0  0
  9 11  1  0  0  0  0
  9 19  1  0  0  0  0
 11 12  1  0  0  0  0
 11 13  1  0  0  0  0
 11 14  1  0  0  0  0
 14 15  2  0  0  0  0
 14 16  1  0  0  0  0
 16 17  1  0  0  0  0
 16 18  1  0  0  0  0
 19 20  2  0  0  0  0
 19 21  1  0  0  0  0
 21 22  1  0  0  0  0
 21 23  1  0  0  0  0
 23 24  1  0  0  0  0
 23 25  1  0  0  0  0
 23 26  1  0  0  0  0
M  END
$$$$

  -OEChem-04042215573D

 26 25  0     1  0  0  0  0  0999 V2000
   -2.8440   -3.9810    0.4622 H   0  0  0  0  0  0  0  0  0  0  0  0
   -2.8299   -2.9804    0.0214 C   0  0  0  0  0  0  0  0  0  0  0  0
   -3.6609   -2.4015    0.4310 H   0  0  0  0  0  0  0  0  0  0  0  0
   -2.9544   -3.0722   -1.0602 H   0  0  0  0  0  0  0  0  0  0  0  0
   -1.5139   -2.2926    0.3325 C   0  0  0  0  0  0  0  0  0  0  0  0
   -0.7100   -2.8266    1.0810 O   0  0  0  0  0  0  0  0  0  0  0  0
   -1.2753   -1.0188   -0.1446 N   0  0  0  0  0  0  0  0  0  0  0  0
   -2.0145   -0.5735   -0.6830 H   0  0  0  0  0  0  0  0  0  0  0  0
    0.0408   -0.3653   -0.1220 C   0  0  1  0  0  0  0  0  0  0  0  0
    0.7373   -0.8915    0.5409 H   0  0  0  0  0  0  0  0  0  0  0  0
    0.6045   -0.3222   -1.5611 C   0  0  0  0  0  0  0  0  0  0  0  0
   -0.2093   -0.2118   -2.2828 H   0  0  0  0  0  0  0  0  0  0  0  0
    1.2495    0.5549   -1.6659 H   0  0  0  0  0  0  0  0  0  0  0  0
    1.4356   -1.5435   -1.9287 C   0  0  0  0  0  0  0  0  0  0  0  0
    1.0899   -2.6794   -1.6756 O   0  0  0  0  0  0  0  0  0  0  0  0
    2.6357   -1.4242   -2.5701 N   0  0  0  0  0  0  0  0  0  0  0  0
    3.0413   -2.2906   -2.9133 H   0  0  0  0  0  0  0  0  0  0  0  0
    2.8828   -0.5387   -2.9987 H   0  0  0  0  0  0  0  0  0  0  0  0
   -0.1033    1.0849    0.3791 C   0  0  0  0  0  0  0  0  0  0  0  0
   -0.9507    1.8212   -0.1133 O   0  0  0  0  0  0  0  0  0  0  0  0
    0.7799    1.5918    1.3144 N   0  0  0  0  0  0  0  0  0  0  0  0
    1.4122    0.9349    1.7639 H   0  0  0  0  0  0  0  0  0  0  0  0
    0.6886    2.9480    1.8419 C   0  0  0  0  0  0  0  0  0  0  0  0
   -0.2612    3.0914    2.3676 H   0  0  0  0  0  0  0  0  0  0  0  0
    1.5059    3.1363    2.5448 H   0  0  0  0  0  0  0  0  0  0  0  0
    0.7568    3.6808    1.0309 H   0  0  0  0  0  0  0  0  0  0  0  0
  1  2  1  0  0  0  0
  2  3  1  0  0  0  0
  2  4  1  0  0  0  0
  2  5  1  0  0  0  0
  5  6  2  0  0  0  0
  5  7  1  0  0  0  0
  7  8  1  0  0  0  0
  7  9  1  0  0  0  0
  9 10  1  0  0  0  0
  9 11  1  0  0  0  0
  9 19  1  0  0  0  0
 11 12  1  0  0  0  0
 11 13  1  0  0  0  0
 11 14  1  0  0  0  0
 14 15  2  0  0  0  0
 14 16  1  0  0  0  0
 16 17  1  0  0  0  0
 16 18  1  0  0  0  0
 19 20  2  0  0  0  0
 19 21  1  0  0  0  0
 21 22  1  0  0  0  0
 21 23  1  0  0  0  0
 23 24  1  0  0  0  0
 23 25  1  0  0  0  0
 23 26  1  0  0  0  0
M  END
$$$$

  -OEChem-04042215573D

 26 25  0     1  0  0  0  0  0999 V2000
   -2.8109   -3.9949    0.4391 H   0  0  0  0  0  0  0  0  0  0  0  0
   -2.8184   -2.9824    0.0261 C   0  0  0  0  0  0  0  0  0  0  0  0
   -3.6435   -2.4231    0.4732 H   0  0  0  0  0  0  0  0  0  0  0  0
   -2.9705   -3.0454   -1.0540 H   0  0  0  0  0  0  0  0  0  0  0  0
   -1.5019   -2.2895    0.3215 C   0  0  0  0  0  0  0  0  0  0  0  0
   -0.6771   -2.8274    1.0446 O   0  0  0  0  0  0  0  0  0  0  0  0
   -1.2777   -1.0119   -0.1517 N   0  0  0  0  0  0  0  0  0  0  0  0
   -2.0231   -0.5711   -0.6853 H   0  0  0  0  0  0  0  0  0  0  0  0
    0.0349   -0.3531   -0.1354 C   0  0  1  0  0  0  0  0  0  0  0  0
    0.7375   -0.8771    0.5224 H   0  0  0  0  0  0  0  0  0  0  0  0
    0.5862   -0.3143   -1.5777 C   0  0  0  0  0  0  0  0  0  0  0  0
   -0.2328   -0.2174   -2.2958 H   0  0  0  0  0  0  0  0  0  0  0  0
    1.2256    0.5646   -1.6992 H   0  0  0  0  0  0  0  0  0  0  0  0
    1.4138   -1.5425   -1.9253 C   0  0  0  0  0  0  0  0  0  0  0  0
    0.9537   -2.6663   -1.8956 O   0  0  0  0  0  0  0  0  0  0  0  0
    2.7366   -1.4496   -2.2533 N   0  0  0  0  0  0  0  0  0  0  0  0
    3.1681   -2.3021   -2.5996 H   0  0  0  0  0  0  0  0  0  0  0  0
    3.1270   -0.5445   -2.4915 H   0  0  0  0  0  0  0  0  0  0  0  0
   -0.1085    1.0946    0.3737 C   0  0  0  0  0  0  0  0  0  0  0  0
   -0.9606    1.8321   -0.1080 O   0  0  0  0  0  0  0  0  0  0  0  0
    0.7816    1.5983    1.3045 N   0  0  0  0  0  0  0  0  0  0  0  0
    1.4130    0.9382    1.7505 H   0  0  0  0  0  0  0  0  0  0  0  0
    0.6869    2.9493    1.8454 C   0  0  0  0  0  0  0  0  0  0  0  0
   -0.2587    3.0821    2.3817 H   0  0  0  0  0  0  0  0  0  0  0  0
    1.5098    3.1357    2.5423 H   0  0  0  0  0  0  0  0  0  0  0  0
    0.7433    3.6899    1.0405 H   0  0  0  0  0  0  0  0  0  0  0  0
  1  2  1  0  0  0  0
  2  3  1  0  0  0  0
  2  4  1  0  0  0  0
  2  5  1  0  0  0  0
  5  6  2  0  0  0  0
  5  7  1  0  0  0  0
  7  8  1  0  0  0  0
  7  9  1  0  0  0  0
  9 10  1  0  0  0  0
  9 11  1  0  0  0  0
  9 19  1  0  0  0  0
 11 12  1  0  0  0  0
 11 13  1  0  0  0  0
 11 14  1  0  0  0  0
 14 15  2  0  0  0  0
 14 16  1  0  0  0  0
 16 17  1  0  0  0  0
 16 18  1  0  0  0  0
 19 20  2  0  0  0  0
 19 21  1  0  0  0  0
 21 22  1  0  0  0  0
 21 23  1  0  0  0  0
 23 24  1  0  0  0  0
 23 25  1  0  0  0  0
 23 26  1  0  0  0  0
M  END
$$$$

  -OEChem-04042215573D

 26 25  0     1  0  0  0  0  0999 V2000
   -2.8129   -3.9885    0.4490 H   0  0  0  0  0  0  0  0  0  0  0  0
   -2.8248   -2.9722    0.0458 C   0  0  0  0  0  0  0  0  0  0  0  0
   -3.6257   -2.4086    0.5300 H   0  0  0  0  0  0  0  0  0  0  0  0
   -3.0198   -3.0231   -1.0282 H   0  0  0  0  0  0  0  0  0  0  0  0
   -1.4902   -2.2962    0.2957 C   0  0  0  0  0  0  0  0  0  0  0  0
   -0.6374   -2.8547    0.9691 O   0  0  0  0  0  0  0  0  0  0  0  0
   -1.2717   -1.0148   -0.1694 N   0  0  0  0  0  0  0  0  0  0  0  0
   -2.0329   -0.5558   -0.6647 H   0  0  0  0  0  0  0  0  0  0  0  0
    0.0365   -0.3478   -0.1519 C   0  0  1  0  0  0  0  0  0  0  0  0
    0.7413   -0.8688    0.5059 H   0  0  0  0  0  0  0  0  0  0  0  0
    0.5860   -0.3110   -1.5928 C   0  0  0  0  0  0  0  0  0  0  0  0
   -0.2328   -0.2261   -2.3130 H   0  0  0  0  0  0  0  0  0  0  0  0
    1.2222    0.5684   -1.7247 H   0  0  0  0  0  0  0  0  0  0  0  0
    1.4159   -1.5427   -1.9154 C   0  0  0  0  0  0  0  0  0  0  0  0
    0.9037   -2.6233   -2.1309 O   0  0  0  0  0  0  0  0  0  0  0  0
    2.7815   -1.5089   -1.9345 N   0  0  0  0  0  0  0  0  0  0  0  0
    3.2407   -2.3471   -2.2805 H   0  0  0  0  0  0  0  0  0  0  0  0
    3.2566   -0.6136   -1.9670 H   0  0  0  0  0  0  0  0  0  0  0  0
   -0.1115    1.0963    0.3647 C   0  0  0  0  0  0  0  0  0  0  0  0
   -0.9753    1.8284   -0.1033 O   0  0  0  0  0  0  0  0  0  0  0  0
    0.7782    1.6003    1.2958 N   0  0  0  0  0  0  0  0  0  0  0  0
    1.4169    0.9429    1.7351 H   0  0  0  0  0  0  0  0  0  0  0  0
    0.6736    2.9466    1.8459 C   0  0  0  0  0  0  0  0  0  0  0  0
   -0.2742    3.0696    2.3806 H   0  0  0  0  0  0  0  0  0  0  0  0
    1.4932    3.1339    2.5462 H   0  0  0  0  0  0  0  0  0  0  0  0
    0.7267    3.6931    1.0463 H   0  0  0  0  0  0  0  0  0  0  0  0
  1  2  1  0  0  0  0
  2  3  1  0  0  0  0
  2  4  1  0  0  0  0
  2  5  1  0  0  0  0
  5  6  2  0  0  0  0
  5  7  1  0  0  0  0
  7  8  1  0  0  0  0
  7  9  1  0  0  0  0
  9 10  1  0  0  0  0
  9 11  1  0  0  0  0
  9 19  1  0  0  0  0
 11 12  1  0  0  0  0
 11 13  1  0  0  0  0
 11 14  1  0  0  0  0
 14 15  2  0  0  0  0
 14 16  1  0  0  0  0
 16 17  1  0  0  0  0
 16 18  1  0  0  0  0
 19 20  2  0  0  0  0
 19 21  1  0  0  0  0
 21 22  1  0  0  0  0
 21 23  1  0  0  0  0
 23 24  1  0  0  0  0
 23 25  1  0  0  0  0
 23 26  1  0  0  0  0
M  END
$$$$

  -OEChem-04042215573D

 26 25  0     1  0  0  0  0  0999 V2000
   -2.8264   -3.9762    0.4605 H   0  0  0  0  0  0  0  0  0  0  0  0
   -2.8361   -2.9593    0.0586 C   0  0  0  0  0  0  0  0  0  0  0  0
   -3.6207   -2.3876    0.5599 H   0  0  0  0  0  0  0  0  0  0  0  0
   -3.0543   -3.0068   -1.0112 H   0  0  0  0  0  0  0  0  0  0  0  0
   -1.4896   -2.2974    0.2806 C   0  0  0  0  0  0  0  0  0  0  0  0
   -0.6191   -2.8749    0.9141 O   0  0  0  0  0  0  0  0  0  0  0  0
   -1.2686   -1.0157   -0.1814 N   0  0  0  0  0  0  0  0  0  0  0  0
   -2.0376   -0.5418   -0.6506 H   0  0  0  0  0  0  0  0  0  0  0  0
    0.0374   -0.3455   -0.1567 C   0  0  1  0  0  0  0  0  0  0  0  0
    0.7375   -0.8628    0.5089 H   0  0  0  0  0  0  0  0  0  0  0  0
    0.5920   -0.3221   -1.5946 C   0  0  0  0  0  0  0  0  0  0  0  0
   -0.2234   -0.2462   -2.3203 H   0  0  0  0  0  0  0  0  0  0  0  0
    1.2305    0.5543   -1.7353 H   0  0  0  0  0  0  0  0  0  0  0  0
    1.4222   -1.5599   -1.8891 C   0  0  0  0  0  0  0  0  0  0  0  0
    0.9231   -2.5684   -2.3484 O   0  0  0  0  0  0  0  0  0  0  0  0
    2.7671   -1.6023   -1.6519 N   0  0  0  0  0  0  0  0  0  0  0  0
    3.2546   -2.4187   -2.0107 H   0  0  0  0  0  0  0  0  0  0  0  0
    3.2703   -0.7385   -1.4834 H   0  0  0  0  0  0  0  0  0  0  0  0
   -0.1134    1.0984    0.3591 C   0  0  0  0  0  0  0  0  0  0  0  0
   -0.9831    1.8262   -0.1042 O   0  0  0  0  0  0  0  0  0  0  0  0
    0.7719    1.6028    1.2941 N   0  0  0  0  0  0  0  0  0  0  0  0
    1.4104    0.9464    1.7349 H   0  0  0  0  0  0  0  0  0  0  0  0
    0.6617    2.9476    1.8470 C   0  0  0  0  0  0  0  0  0  0  0  0
   -0.2856    3.0651    2.3838 H   0  0  0  0  0  0  0  0  0  0  0  0
    1.4822    3.1376    2.5458 H   0  0  0  0  0  0  0  0  0  0  0  0
    0.7096    3.6956    1.0485 H   0  0  0  0  0  0  0  0  0  0  0  0
  1  2  1  0  0  0  0
  2  3  1  0  0  0  0
  2  4  1  0  0  0  0
  2  5  1  0  0  0  0
  5  6  2  0  0  0  0
  5  7  1  0  0  0  0
  7  8  1  0  0  0  0
  7  9  1  0  0  0  0
  9 10  1  0  0  0  0
  9 11  1  0  0  0  0
  9 19  1  0  0  0  0
 11 12  1  0  0  0  0
 11 13  1  0  0  0  0
 11 14  1  0  0  0  0
 14 15  2  0  0  0  0
 14 16  1  0  0  0  0
 16 17  1  0  0  0  0
 16 18  1  0  0  0  0
 19 20  2  0  0  0  0
 19 21  1  0  0  0  0
 21 22  1  0  0  0  0
 21 23  1  0  0  0  0
 23 24  1  0  0  0  0
 23 25  1  0  0  0  0
 23 26  1  0  0  0  0
M  END
$$$$

  -OEChem-04042215573D

 26 25  0     1  0  0  0  0  0999 V2000
   -2.8034   -3.9679    0.4870 H   0  0  0  0  0  0  0  0  0  0  0  0
   -2.8225   -2.9484    0.0918 C   0  0  0  0  0  0  0  0  0  0  0  0
   -3.5694   -2.3700    0.6406 H   0  0  0  0  0  0  0  0  0  0  0  0
   -3.1029   -2.9862   -0.9637 H   0  0  0  0  0  0  0  0  0  0  0  0
   -1.4568   -2.3052    0.2390 C   0  0  0  0  0  0  0  0  0  0  0  0
   -0.5478   -2.9097    0.7884 O   0  0  0  0  0  0  0  0  0  0  0  0
   -1.2484   -1.0173   -0.2109 N   0  0  0  0  0  0  0  0  0  0  0  0
   -2.0415   -0.5158   -0.6073 H   0  0  0  0  0  0  0  0  0  0  0  0
    0.0528   -0.3381   -0.1900 C   0  0  1  0  0  0  0  0  0  0  0  0
    0.7589   -0.8534    0.4699 H   0  0  0  0  0  0  0  0  0  0  0  0
    0.5941   -0.3041   -1.6318 C   0  0  0  0  0  0  0  0  0  0  0  0
   -0.2283   -0.2235   -2.3491 H   0  0  0  0  0  0  0  0  0  0  0  0
    1.2304    0.5742   -1.7716 H   0  0  0  0  0  0  0  0  0  0  0  0
    1.4303   -1.5345   -1.9451 C   0  0  0  0  0  0  0  0  0  0  0  0
    1.0003   -2.4312   -2.6442 O   0  0  0  0  0  0  0  0  0  0  0  0
    2.7080   -1.6886   -1.4855 N   0  0  0  0  0  0  0  0  0  0  0  0
    3.1065   -2.6164   -1.6031 H   0  0  0  0  0  0  0  0  0  0  0  0
    3.0502   -1.0777   -0.7536 H   0  0  0  0  0  0  0  0  0  0  0  0
   -0.1101    1.0994    0.3425 C   0  0  0  0  0  0  0  0  0  0  0  0
   -1.0058    1.8127   -0.0922 O   0  0  0  0  0  0  0  0  0  0  0  0
    0.7735    1.6088    1.2769 N   0  0  0  0  0  0  0  0  0  0  0  0
    1.4354    0.9644    1.6992 H   0  0  0  0  0  0  0  0  0  0  0  0
    0.6439    2.9465    1.8435 C   0  0  0  0  0  0  0  0  0  0  0  0
   -0.3021    3.0429    2.3868 H   0  0  0  0  0  0  0  0  0  0  0  0
    1.4652    3.1440    2.5392 H   0  0  0  0  0  0  0  0  0  0  0  0
    0.6743    3.7034    1.0526 H   0  0  0  0  0  0  0  0  0  0  0  0
  1  2  1  0  0  0  0
  2  3  1  0  0  0  0
  2  4  1  0  0  0  0
  2  5  1  0  0  0  0
  5  6  2  0  0  0  0
  5  7  1  0  0  0  0
  7  8  1  0  0  0  0
  7  9  1  0  0  0  0
  9 10  1  0  0  0  0
  9 11  1  0  0  0  0
  9 19  1  0  0  0  0
 11 12  1  0  0  0  0
 11 13  1  0  0  0  0
 11 14  1  0  0  0  0
 14 15  2  0  0  0  0
 14 16  1  0  0  0  0
 16 17  1  0  0  0  0
 16 18  1  0  0  0  0
 19 20  2  0  0  0  0
 19 21  1  0  0  0  0
 21 22  1  0  0  0  0
 21 23  1  0  0  0  0
 23 24  1  0  0  0  0
 23 25  1  0  0  0  0
 23 26  1  0  0  0  0
M  END
$$$$

  -OEChem-04042215573D

 26 25  0     1  0  0  0  0  0999 V2000
   -2.8242   -3.9470    0.4997 H   0  0  0  0  0  0  0  0  0  0  0  0
   -2.8409   -2.9201    0.1240 C   0  0  0  0  0  0  0  0  0  0  0  0
   -3.5523   -2.3391    0.7158 H   0  0  0  0  0  0  0  0  0  0  0  0
   -3.1682   -2.9325   -0.9186 H   0  0  0  0  0  0  0  0  0  0  0  0
   -1.4582   -2.3049    0.2235 C   0  0  0  0  0  0  0  0  0  0  0  0
   -0.5374   -2.9340    0.7235 O   0  0  0  0  0  0  0  0  0  0  0  0
   -1.2401   -1.0195   -0.2276 N   0  0  0  0  0  0  0  0  0  0  0  0
   -2.0406   -0.4907   -0.5712 H   0  0  0  0  0  0  0  0  0  0  0  0
    0.0623   -0.3442   -0.1941 C   0  0  1  0  0  0  0  0  0  0  0  0
    0.7549   -0.8552    0.4819 H   0  0  0  0  0  0  0  0  0  0  0  0
    0.6246   -0.3178   -1.6279 C   0  0  0  0  0  0  0  0  0  0  0  0
   -0.1891   -0.2334   -2.3549 H   0  0  0  0  0  0  0  0  0  0  0  0
    1.2669    0.5576   -1.7585 H   0  0  0  0  0  0  0  0  0  0  0  0
    1.4653   -1.5473   -1.9392 C   0  0  0  0  0  0  0  0  0  0  0  0
    1.1657   -2.3017   -2.8439 O   0  0  0  0  0  0  0  0  0  0  0  0
    2.6226   -1.8443   -1.2757 N   0  0  0  0  0  0  0  0  0  0  0  0
    2.9890   -2.7751   -1.4568 H   0  0  0  0  0  0  0  0  0  0  0  0
    2.7950   -1.4076   -0.3788 H   0  0  0  0  0  0  0  0  0  0  0  0
   -0.1110    1.0949    0.3325 C   0  0  0  0  0  0  0  0  0  0  0  0
   -1.0236    1.7920   -0.0930 O   0  0  0  0  0  0  0  0  0  0  0  0
    0.7570    1.6127    1.2769 N   0  0  0  0  0  0  0  0  0  0  0  0
    1.4491    0.9876    1.6786 H   0  0  0  0  0  0  0  0  0  0  0  0
    0.6094    2.9487    1.8430 C   0  0  0  0  0  0  0  0  0  0  0  0
   -0.3536    3.0440    2.3556 H   0  0  0  0  0  0  0  0  0  0  0  0
    1.4069    3.1432    2.5664 H   0  0  0  0  0  0  0  0  0  0  0  0
    0.6655    3.7078    1.0556 H   0  0  0  0  0  0  0  0  0  0  0  0
  1  2  1  0  0  0  0
  2  3  1  0  0  0  0
  2  4  1  0  0  0  0
  2  5  1  0  0  0  0
  5  6  2  0  0  0  0
  5  7  1  0  0  0  0
  7  8  1  0  0  0  0
  7  9  1  0  0  0  0
  9 10  1  0  0  0  0
  9 11  1  0  0  0  0
  9 19  1  0  0  0  0
 11 12  1  0  0  0  0
 11 13  1  0  0  0  0
 11 14  1  0  0  0  0
 14 15  2  0  0  0  0
 14 16  1  0  0  0  0
 16 17  1  0  0  0  0
 16 18  1  0  0  0  0
 19 20  2  0  0  0  0
 19 21  1  0  0  0  0
 21 22  1  0  0  0  0
 21 23  1  0  0  0  0
 23 24  1  0  0  0  0
 23 25  1  0  0  0  0
 23 26  1  0  0  0  0
M  END
$$$$

  -OEChem-04042215573D

 26 25  0     1  0  0  0  0  0999 V2000
   -2.8170   -3.9334    0.5297 H   0  0  0  0  0  0  0  0  0  0  0  0
   -2.8352   -2.9081    0.1501 C   0  0  0  0  0  0  0  0  0  0  0  0
   -3.5237   -2.3178    0.7596 H   0  0  0  0  0  0  0  0  0  0  0  0
   -3.1934   -2.9219   -0.8822 H   0  0  0  0  0  0  0  0  0  0  0  0
   -1.4446   -2.3047    0.2063 C   0  0  0  0  0  0  0  0  0  0  0  0
   -0.5090   -2.9469    0.6616 O   0  0  0  0  0  0  0  0  0  0  0  0
   -1.2292   -1.0188   -0.2441 N   0  0  0  0  0  0  0  0  0  0  0  0
   -2.0379   -0.4720   -0.5382 H   0  0  0  0  0  0  0  0  0  0  0  0
    0.0709   -0.3405   -0.1956 C   0  0  1  0  0  0  0  0  0  0  0  0
    0.7511   -0.8407    0.4991 H   0  0  0  0  0  0  0  0  0  0  0  0
    0.6600   -0.3127   -1.6191 C   0  0  0  0  0  0  0  0  0  0  0  0
   -0.1429   -0.2235   -2.3573 H   0  0  0  0  0  0  0  0  0  0  0  0
    1.3020    0.5655   -1.7315 H   0  0  0  0  0  0  0  0  0  0  0  0
    1.5164   -1.5316   -1.9426 C   0  0  0  0  0  0  0  0  0  0  0  0
    1.3984   -2.1111   -3.0046 O   0  0  0  0  0  0  0  0  0  0  0  0
    2.4440   -2.0618   -1.0903 N   0  0  0  0  0  0  0  0  0  0  0  0
    2.7802   -2.9776   -1.3757 H   0  0  0  0  0  0  0  0  0  0  0  0
    2.3214   -1.8841   -0.1005 H   0  0  0  0  0  0  0  0  0  0  0  0
   -0.1165    1.0982    0.3283 C   0  0  0  0  0  0  0  0  0  0  0  0
   -1.0488    1.7776   -0.0834 O   0  0  0  0  0  0  0  0  0  0  0  0
    0.7363    1.6221    1.2829 N   0  0  0  0  0  0  0  0  0  0  0  0
    1.4702    1.0229    1.6487 H   0  0  0  0  0  0  0  0  0  0  0  0
    0.5830    2.9617    1.8388 C   0  0  0  0  0  0  0  0  0  0  0  0
   -0.3873    3.0621    2.3367 H   0  0  0  0  0  0  0  0  0  0  0  0
    1.3701    3.1592    2.5729 H   0  0  0  0  0  0  0  0  0  0  0  0
    0.6525    3.7154    1.0471 H   0  0  0  0  0  0  0  0  0  0  0  0
  1  2  1  0  0  0  0
  2  3  1  0  0  0  0
  2  4  1  0  0  0  0
  2  5  1  0  0  0  0
  5  6  2  0  0  0  0
  5  7  1  0  0  0  0
  7  8  1  0  0  0  0
  7  9  1  0  0  0  0
  9 10  1  0  0  0  0
  9 11  1  0  0  0  0
  9 19  1  0  0  0  0
 11 12  1  0  0  0  0
 11 13  1  0  0  0  0
 11 14  1  0  0  0  0
 14 15  2  0  0  0  0
 14 16  1  0  0  0  0
 16 17  1  0  0  0  0
 16 18  1  0  0  0  0
 19 20  2  0  0  0  0
 19 21  1  0  0  0  0
 21 22  1  0  0  0  0
 21 23  1  0  0  0  0
 23 24  1  0  0  0  0
 23 25  1  0  0  0  0
 23 26  1  0  0  0  0
M  END
$$$$

  -OEChem-04042215573D

 26 25  0     1  0  0  0  0  0999 V2000
   -2.7490   -3.9305    0.5711 H   0  0  0  0  0  0  0  0  0  0  0  0
   -2.7813   -2.9079    0.1848 C   0  0  0  0  0  0  0  0  0  0  0  0
   -3.4534   -2.3156    0.8104 H   0  0  0  0  0  0  0  0  0  0  0  0
   -3.1698   -2.9297   -0.8364 H   0  0  0  0  0  0  0  0  0  0  0  0
   -1.3917   -2.3003    0.1966 C   0  0  0  0  0  0  0  0  0  0  0  0
   -0.4357   -2.9426    0.6102 O   0  0  0  0  0  0  0  0  0  0  0  0
   -1.1895   -1.0141   -0.2585 N   0  0  0  0  0  0  0  0  0  0  0  0
   -2.0078   -0.4605   -0.5123 H   0  0  0  0  0  0  0  0  0  0  0  0
    0.1028   -0.3222   -0.1888 C   0  0  1  0  0  0  0  0  0  0  0  0
    0.7744   -0.7985    0.5314 H   0  0  0  0  0  0  0  0  0  0  0  0
    0.7326   -0.2921   -1.5954 C   0  0  0  0  0  0  0  0  0  0  0  0
   -0.0521   -0.2104   -2.3537 H   0  0  0  0  0  0  0  0  0  0  0  0
    1.3667    0.5942   -1.6878 H   0  0  0  0  0  0  0  0  0  0  0  0
    1.6163   -1.4965   -1.9106 C   0  0  0  0  0  0  0  0  0  0  0  0
    1.7305   -1.8933   -3.0537 O   0  0  0  0  0  0  0  0  0  0  0  0
    2.0803   -2.3762   -0.9743 N   0  0  0  0  0  0  0  0  0  0  0  0
    2.4120   -3.2421   -1.3892 H   0  0  0  0  0  0  0  0  0  0  0  0
    1.5073   -2.4625   -0.1349 H   0  0  0  0  0  0  0  0  0  0  0  0
   -0.1126    1.1163    0.3241 C   0  0  0  0  0  0  0  0  0  0  0  0
   -1.0588    1.7735   -0.0919 O   0  0  0  0  0  0  0  0  0  0  0  0
    0.7159    1.6535    1.2924 N   0  0  0  0  0  0  0  0  0  0  0  0
    1.4793    1.0799    1.6397 H   0  0  0  0  0  0  0  0  0  0  0  0
    0.5406    2.9944    1.8381 C   0  0  0  0  0  0  0  0  0  0  0  0
   -0.4390    3.0883    2.3187 H   0  0  0  0  0  0  0  0  0  0  0  0
    1.3127    3.2032    2.5849 H   0  0  0  0  0  0  0  0  0  0  0  0
    0.6166    3.7443    1.0436 H   0  0  0  0  0  0  0  0  0  0  0  0
  1  2  1  0  0  0  0
  2  3  1  0  0  0  0
  2  4  1  0  0  0  0
  2  5  1  0  0  0  0
  5  6  2  0  0  0  0
  5  7  1  0  0  0  0
  7  8  1  0  0  0  0
  7  9  1  0  0  0  0
  9 10  1  0  0  0  0
  9 11  1  0  0  0  0
  9 19  1  0  0  0  0
 11 12  1  0  0  0  0
 11 13  1  0  0  0  0
 11 14  1  0  0  0  0
 14 15  2  0  0  0  0
 14 16  1  0  0  0  0
 16 17  1  0  0  0  0
 16 18  1  0  0  0  0
 19 20  2  0  0  0  0
 19 21  1  0  0  0  0
 21 22  1  0  0  0  0
 21 23  1  0  0  0  0
 23 24  1  0  0  0  0
 23 25  1  0  0  0  0
 23 26  1  0  0  0  0
M  END
$$$$

  -OEChem-04042215573D

 26 25  0     1  0  0  0  0  0999 V2000
   -2.8330   -3.9089    0.5776 H   0  0  0  0  0  0  0  0  0  0  0  0
   -2.8418   -2.8839    0.1969 C   0  0  0  0  0  0  0  0  0  0  0  0
   -3.4997   -2.2797    0.8264 H   0  0  0  0  0  0  0  0  0  0  0  0
   -3.2323   -2.8914   -0.8238 H   0  0  0  0  0  0  0  0  0  0  0  0
   -1.4386   -2.3078    0.2102 C   0  0  0  0  0  0  0  0  0  0  0  0
   -0.4980   -2.9717    0.6229 O   0  0  0  0  0  0  0  0  0  0  0  0
   -1.2092   -1.0273   -0.2468 N   0  0  0  0  0  0  0  0  0  0  0  0
   -2.0202   -0.4606   -0.4960 H   0  0  0  0  0  0  0  0  0  0  0  0
    0.0892   -0.3435   -0.1771 C   0  0  1  0  0  0  0  0  0  0  0  0
    0.7550   -0.8253    0.5461 H   0  0  0  0  0  0  0  0  0  0  0  0
    0.7288   -0.3252   -1.5803 C   0  0  0  0  0  0  0  0  0  0  0  0
   -0.0518   -0.2482   -2.3429 H   0  0  0  0  0  0  0  0  0  0  0  0
    1.3651    0.5592   -1.6753 H   0  0  0  0  0  0  0  0  0  0  0  0
    1.6099   -1.5324   -1.8886 C   0  0  0  0  0  0  0  0  0  0  0  0
    1.9469   -1.7703   -3.0319 O   0  0  0  0  0  0  0  0  0  0  0  0
    1.9244   -2.5103   -0.9880 N   0  0  0  0  0  0  0  0  0  0  0  0
    2.3028   -3.3481   -1.4195 H   0  0  0  0  0  0  0  0  0  0  0  0
    1.2733   -2.6346   -0.2104 H   0  0  0  0  0  0  0  0  0  0  0  0
   -0.1176    1.0993    0.3271 C   0  0  0  0  0  0  0  0  0  0  0  0
   -1.0624    1.7579   -0.0906 O   0  0  0  0  0  0  0  0  0  0  0  0
    0.7122    1.6354    1.2948 N   0  0  0  0  0  0  0  0  0  0  0  0
    1.4739    1.0595    1.6420 H   0  0  0  0  0  0  0  0  0  0  0  0
    0.5521    2.9836    1.8272 C   0  0  0  0  0  0  0  0  0  0  0  0
   -0.4277    3.0949    2.3034 H   0  0  0  0  0  0  0  0  0  0  0  0
    1.3245    3.1888    2.5746 H   0  0  0  0  0  0  0  0  0  0  0  0
    0.6412    3.7252    1.0263 H   0  0  0  0  0  0  0  0  0  0  0  0
  1  2  1  0  0  0  0
  2  3  1  0  0  0  0
  2  4  1  0  0  0  0
  2  5  1  0  0  0  0
  5  6  2  0  0  0  0
  5  7  1  0  0  0  0
  7  8  1  0  0  0  0
  7  9  1  0  0  0  0
  9 10  1  0  0  0  0
  9 11  1  0  0  0  0
  9 19  1  0  0  0  0
 11 12  1  0  0  0  0
 11 13  1  0  0  0  0
 11 14  1  0  0  0  0
 14 15  2  0  0  0  0
 14 16  1  0  0  0  0
 16 17  1  0  0  0  0
 16 18  1  0  0  0  0
 19 20  2  0  0  0  0
 19 21  1  0  0  0  0
 21 22  1  0  0  0  0
 21 23  1  0  0  0  0
 23 24  1  0  0  0  0
 23 25  1  0  0  0  0
 23 26  1  0  0  0  0
M  END
$$$$

  -OEChem-04042215573D

 26 25  0     1  0  0  0  0  0999 V2000
   -3.0164   -3.8690    0.5890 H   0  0  0  0  0  0  0  0  0  0  0  0
   -2.9778   -2.8452    0.2062 C   0  0  0  0  0  0  0  0  0  0  0  0
   -3.6282   -2.2152    0.8180 H   0  0  0  0  0  0  0  0  0  0  0  0
   -3.3426   -2.8408   -0.8239 H   0  0  0  0  0  0  0  0  0  0  0  0
   -1.5551   -2.3212    0.2535 C   0  0  0  0  0  0  0  0  0  0  0  0
   -0.6579   -3.0127    0.7103 O   0  0  0  0  0  0  0  0  0  0  0  0
   -1.2683   -1.0553   -0.2114 N   0  0  0  0  0  0  0  0  0  0  0  0
   -2.0588   -0.4742   -0.4917 H   0  0  0  0  0  0  0  0  0  0  0  0
    0.0474   -0.3964   -0.1657 C   0  0  1  0  0  0  0  0  0  0  0  0
    0.7165   -0.9062    0.5361 H   0  0  0  0  0  0  0  0  0  0  0  0
    0.6787   -0.3735   -1.5724 C   0  0  0  0  0  0  0  0  0  0  0  0
   -0.0647   -0.0229   -2.2944 H   0  0  0  0  0  0  0  0  0  0  0  0
    1.5050    0.3434   -1.5772 H   0  0  0  0  0  0  0  0  0  0  0  0
    1.2444   -1.6996   -2.0694 C   0  0  0  0  0  0  0  0  0  0  0  0
    1.7585   -1.7660   -3.1689 O   0  0  0  0  0  0  0  0  0  0  0  0
    1.3792   -2.8217   -1.3037 N   0  0  0  0  0  0  0  0  0  0  0  0
    1.6733   -3.6555   -1.8024 H   0  0  0  0  0  0  0  0  0  0  0  0
    0.7872   -2.9193   -0.4770 H   0  0  0  0  0  0  0  0  0  0  0  0
   -0.1202    1.0556    0.3250 C   0  0  0  0  0  0  0  0  0  0  0  0
   -1.0570    1.7286   -0.0878 O   0  0  0  0  0  0  0  0  0  0  0  0
    0.7337    1.5843    1.2753 N   0  0  0  0  0  0  0  0  0  0  0  0
    1.4875    0.9962    1.6194 H   0  0  0  0  0  0  0  0  0  0  0  0
    0.6026    2.9379    1.8016 C   0  0  0  0  0  0  0  0  0  0  0  0
   -0.3677    3.0663    2.2930 H   0  0  0  0  0  0  0  0  0  0  0  0
    1.3898    3.1368    2.5353 H   0  0  0  0  0  0  0  0  0  0  0  0
    0.6893    3.6729    0.9943 H   0  0  0  0  0  0  0  0  0  0  0  0
  1  2  1  0  0  0  0
  2  3  1  0  0  0  0
  2  4  1  0  0  0  0
  2  5  1  0  0  0  0
  5  6  2  0  0  0  0
  5  7  1  0  0  0  0
  7  8  1  0  0  0  0
  7  9  1  0  0  0  0
  9 10  1  0  0  0  0
  9 11  1  0  0  0  0
  9 19  1  0  0  0  0
 11 12  1  0  0  0  0
 11 13  1  0  0  0  0
 11 14  1  0  0  0  0
 14 15  2  0  0  0  0
 14 16  1  0  0  0  0
 16 17  1  0  0  0  0
 16 18  1  0  0  0  0
 19 20  2  0  0  0  0
 19 21  1  0  0  0  0
 21 22  1  0  0  0  0
 21 23  1  0  0  0  0
 23 24  1  0  0  0  0
 23 25  1  0  0  0  0
 23 26  1  0  0  0  0
M  END
$$$$

  -OEChem-04042215573D

 26 25  0     1  0  0  0  0  0999 V2000
   -3.0642   -3.8539    0.6052 H   0  0  0  0  0  0  0  0  0  0  0  0
   -3.0143   -2.8333    0.2152 C   0  0  0  0  0  0  0  0  0  0  0  0
   -3.6621   -2.1932    0.8192 H   0  0  0  0  0  0  0  0  0  0  0  0
   -3.3742   -2.8331   -0.8166 H   0  0  0  0  0  0  0  0  0  0  0  0
   -1.5873   -2.3214    0.2661 C   0  0  0  0  0  0  0  0  0  0  0  0
   -0.6986   -3.0154    0.7365 O   0  0  0  0  0  0  0  0  0  0  0  0
   -1.2887   -1.0589   -0.2004 N   0  0  0  0  0  0  0  0  0  0  0  0
   -2.0735   -0.4739   -0.4878 H   0  0  0  0  0  0  0  0  0  0  0  0
    0.0340   -0.4126   -0.1638 C   0  0  1  0  0  0  0  0  0  0  0  0
    0.7031   -0.9322    0.5307 H   0  0  0  0  0  0  0  0  0  0  0  0
    0.6691   -0.3733   -1.5706 C   0  0  0  0  0  0  0  0  0  0  0  0
   -0.0741   -0.0087   -2.2855 H   0  0  0  0  0  0  0  0  0  0  0  0
    1.4946    0.3447   -1.5629 H   0  0  0  0  0  0  0  0  0  0  0  0
    1.2338   -1.6860   -2.1051 C   0  0  0  0  0  0  0  0  0  0  0  0
    1.9790   -1.6762   -3.0657 O   0  0  0  0  0  0  0  0  0  0  0  0
    1.0213   -2.9178   -1.5581 N   0  0  0  0  0  0  0  0  0  0  0  0
    1.5805   -3.6845   -1.9181 H   0  0  0  0  0  0  0  0  0  0  0  0
    0.5421   -3.0030   -0.6606 H   0  0  0  0  0  0  0  0  0  0  0  0
   -0.1251    1.0401    0.3295 C   0  0  0  0  0  0  0  0  0  0  0  0
   -1.0564    1.7205   -0.0842 O   0  0  0  0  0  0  0  0  0  0  0  0
    0.7352    1.5658    1.2760 N   0  0  0  0  0  0  0  0  0  0  0  0
    1.4853    0.9733    1.6207 H   0  0  0  0  0  0  0  0  0  0  0  0
    0.6196    2.9251    1.7921 C   0  0  0  0  0  0  0  0  0  0  0  0
   -0.3447    3.0654    2.2918 H   0  0  0  0  0  0  0  0  0  0  0  0
    1.4158    3.1244    2.5158 H   0  0  0  0  0  0  0  0  0  0  0  0
    0.7036    3.6526    0.9778 H   0  0  0  0  0  0  0  0  0  0  0  0
  1  2  1  0  0  0  0
  2  3  1  0  0  0  0
  2  4  1  0  0  0  0
  2  5  1  0  0  0  0
  5  6  2  0  0  0  0
  5  7  1  0  0  0  0
  7  8  1  0  0  0  0
  7  9  1  0  0  0  0
  9 10  1  0  0  0  0
  9 11  1  0  0  0  0
  9 19  1  0  0  0  0
 11 12  1  0  0  0  0
 11 13  1  0  0  0  0
 11 14  1  0  0  0  0
 14 15  2  0  0  0  0
 14 16  1  0  0  0  0
 16 17  1  0  0  0  0
 16 18  1  0  0  0  0
 19 20  2  0  0  0  0
 19 21  1  0  0  0  0
 21 22  1  0  0  0  0
 21 23  1  0  0  0  0
 23 24  1  0  0  0  0
 23 25  1  0  0  0  0
 23 26  1  0  0  0  0
M  END
$$$$

  -OEChem-04042215573D

 26 25  0     1  0  0  0  0  0999 V2000
   -3.0908   -3.8375    0.6266 H   0  0  0  0  0  0  0  0  0  0  0  0
   -3.0387   -2.8182    0.2336 C   0  0  0  0  0  0  0  0  0  0  0  0
   -3.6622   -2.1696    0.8540 H   0  0  0  0  0  0  0  0  0  0  0  0
   -3.4260   -2.8148   -0.7883 H   0  0  0  0  0  0  0  0  0  0  0  0
   -1.6044   -2.3248    0.2455 C   0  0  0  0  0  0  0  0  0  0  0  0
   -0.7080   -3.0432    0.6601 O   0  0  0  0  0  0  0  0  0  0  0  0
   -1.3032   -1.0604   -0.2132 N   0  0  0  0  0  0  0  0  0  0  0  0
   -2.0911   -0.4609   -0.4603 H   0  0  0  0  0  0  0  0  0  0  0  0
    0.0209   -0.4152   -0.1845 C   0  0  1  0  0  0  0  0  0  0  0  0
    0.6907   -0.9420    0.5041 H   0  0  0  0  0  0  0  0  0  0  0  0
    0.6599   -0.3687   -1.5895 C   0  0  0  0  0  0  0  0  0  0  0  0
   -0.0838   -0.0042   -2.3040 H   0  0  0  0  0  0  0  0  0  0  0  0
    1.4809    0.3547   -1.5772 H   0  0  0  0  0  0  0  0  0  0  0  0
    1.2294   -1.6773   -2.1301 C   0  0  0  0  0  0  0  0  0  0  0  0
    2.1732   -1.6547   -2.8963 O   0  0  0  0  0  0  0  0  0  0  0  0
    0.8100   -2.9277   -1.7842 N   0  0  0  0  0  0  0  0  0  0  0  0
    1.4274   -3.6812   -2.0698 H   0  0  0  0  0  0  0  0  0  0  0  0
    0.2750   -3.0292   -0.9217 H   0  0  0  0  0  0  0  0  0  0  0  0
   -0.1320    1.0338    0.3205 C   0  0  0  0  0  0  0  0  0  0  0  0
   -1.0735    1.7145   -0.0687 O   0  0  0  0  0  0  0  0  0  0  0  0
    0.7397    1.5485    1.2622 N   0  0  0  0  0  0  0  0  0  0  0  0
    1.4992    0.9546    1.5833 H   0  0  0  0  0  0  0  0  0  0  0  0
    0.6306    2.9006    1.7966 C   0  0  0  0  0  0  0  0  0  0  0  0
   -0.3327    3.0379    2.2990 H   0  0  0  0  0  0  0  0  0  0  0  0
    1.4281    3.0857    2.5226 H   0  0  0  0  0  0  0  0  0  0  0  0
    0.7173    3.6386    0.9922 H   0  0  0  0  0  0  0  0  0  0  0  0
  1  2  1  0  0  0  0
  2  3  1  0  0  0  0
  2  4  1  0  0  0  0
  2  5  1  0  0  0  0
  5  6  2  0  0  0  0
  5  7  1  0  0  0  0
  7  8  1  0  0  0  0
  7  9  1  0  0  0  0
  9 10  1  0  0  0  0
  9 11  1  0  0  0  0
  9 19  1  0  0  0  0
 11 12  1  0  0  0  0
 11 13  1  0  0  0  0
 11 14  1  0  0  0  0
 14 15  2  0  0  0  0
 14 16  1  0  0  0  0
 16 17  1  0  0  0  0
 16 18  1  0  0  0  0
 19 20  2  0  0  0  0
 19 21  1  0  0  0  0
 21 22  1  0  0  0  0
 21 23  1  0  0  0  0
 23 24  1  0  0  0  0
 23 25  1  0  0  0  0
 23 26  1  0  0  0  0
M  END
$$$$

  -OEChem-04042215573D

 26 25  0     1  0  0  0  0  0999 V2000
   -3.0894   -3.8269    0.6477 H   0  0  0  0  0  0  0  0  0  0  0  0
   -3.0407   -2.8080    0.2535 C   0  0  0  0  0  0  0  0  0  0  0  0
   -3.6278   -2.1521    0.9012 H   0  0  0  0  0  0  0  0  0  0  0  0
   -3.4720   -2.7977   -0.7506 H   0  0  0  0  0  0  0  0  0  0  0  0
   -1.6010   -2.3335    0.2031 C   0  0  0  0  0  0  0  0  0  0  0  0
   -0.6928   -3.0817    0.5262 O   0  0  0  0  0  0  0  0  0  0  0  0
   -1.3070   -1.0627   -0.2405 N   0  0  0  0  0  0  0  0  0  0  0  0
   -2.1016   -0.4495   -0.4258 H   0  0  0  0  0  0  0  0  0  0  0  0
    0.0146   -0.4112   -0.2106 C   0  0  1  0  0  0  0  0  0  0  0  0
    0.6831   -0.9438    0.4752 H   0  0  0  0  0  0  0  0  0  0  0  0
    0.6623   -0.3576   -1.6103 C   0  0  0  0  0  0  0  0  0  0  0  0
   -0.0781    0.0015   -2.3304 H   0  0  0  0  0  0  0  0  0  0  0  0
    1.4782    0.3719   -1.5934 H   0  0  0  0  0  0  0  0  0  0  0  0
    1.2404   -1.6675   -2.1381 C   0  0  0  0  0  0  0  0  0  0  0  0
    2.3361   -1.6797   -2.6653 O   0  0  0  0  0  0  0  0  0  0  0  0
    0.6447   -2.8889   -2.0371 N   0  0  0  0  0  0  0  0  0  0  0  0
    1.2589   -3.6634   -2.2691 H   0  0  0  0  0  0  0  0  0  0  0  0
   -0.0009   -3.0103   -1.2585 H   0  0  0  0  0  0  0  0  0  0  0  0
   -0.1388    1.0310    0.3122 C   0  0  0  0  0  0  0  0  0  0  0  0
   -1.0911    1.7086   -0.0557 O   0  0  0  0  0  0  0  0  0  0  0  0
    0.7373    1.5367    1.2546 N   0  0  0  0  0  0  0  0  0  0  0  0
    1.5125    0.9484    1.5479 H   0  0  0  0  0  0  0  0  0  0  0  0
    0.6292    2.8823    1.8057 C   0  0  0  0  0  0  0  0  0  0  0  0
   -0.3341    3.0145    2.3096 H   0  0  0  0  0  0  0  0  0  0  0  0
    1.4266    3.0573    2.5346 H   0  0  0  0  0  0  0  0  0  0  0  0
    0.7174    3.6303    1.0106 H   0  0  0  0  0  0  0  0  0  0  0  0
  1  2  1  0  0  0  0
  2  3  1  0  0  0  0
  2  4  1  0  0  0  0
  2  5  1  0  0  0  0
  5  6  2  0  0  0  0
  5  7  1  0  0  0  0
  7  8  1  0  0  0  0
  7  9  1  0  0  0  0
  9 10  1  0  0  0  0
  9 11  1  0  0  0  0
  9 19  1  0  0  0  0
 11 12  1  0  0  0  0
 11 13  1  0  0  0  0
 11 14  1  0  0  0  0
 14 15  2  0  0  0  0
 14 16  1  0  0  0  0
 16 17  1  0  0  0  0
 16 18  1  0  0  0  0
 19 20  2  0  0  0  0
 19 21  1  0  0  0  0
 21 22  1  0  0  0  0
 21 23  1  0  0  0  0
 23 24  1  0  0  0  0
 23 25  1  0  0  0  0
 23 26  1  0  0  0  0
M  END
$$$$

  -OEChem-04042215573D

 26 25  0     1  0  0  0  0  0999 V2000
   -3.0480   -3.8334    0.6503 H   0  0  0  0  0  0  0  0  0  0  0  0
   -3.0154   -2.8120    0.2604 C   0  0  0  0  0  0  0  0  0  0  0  0
   -3.5728   -2.1598    0.9375 H   0  0  0  0  0  0  0  0  0  0  0  0
   -3.4906   -2.7947   -0.7236 H   0  0  0  0  0  0  0  0  0  0  0  0
   -1.5787   -2.3390    0.1504 C   0  0  0  0  0  0  0  0  0  0  0  0
   -0.6596   -3.1027    0.3914 O   0  0  0  0  0  0  0  0  0  0  0  0
   -1.3029   -1.0590   -0.2784 N   0  0  0  0  0  0  0  0  0  0  0  0
   -2.1041   -0.4390   -0.4032 H   0  0  0  0  0  0  0  0  0  0  0  0
    0.0143   -0.3997   -0.2383 C   0  0  1  0  0  0  0  0  0  0  0  0
    0.6803   -0.9369    0.4468 H   0  0  0  0  0  0  0  0  0  0  0  0
    0.6715   -0.3440   -1.6309 C   0  0  0  0  0  0  0  0  0  0  0  0
   -0.0611    0.0070   -2.3628 H   0  0  0  0  0  0  0  0  0  0  0  0
    1.4874    0.3854   -1.6126 H   0  0  0  0  0  0  0  0  0  0  0  0
    1.2501   -1.6660   -2.1208 C   0  0  0  0  0  0  0  0  0  0  0  0
    2.4349   -1.7580   -2.3787 O   0  0  0  0  0  0  0  0  0  0  0  0
    0.5255   -2.8060   -2.2994 N   0  0  0  0  0  0  0  0  0  0  0  0
    1.1034   -3.6269   -2.4517 H   0  0  0  0  0  0  0  0  0  0  0  0
   -0.2799   -2.9070   -1.6882 H   0  0  0  0  0  0  0  0  0  0  0  0
   -0.1416    1.0352    0.3021 C   0  0  0  0  0  0  0  0  0  0  0  0
   -1.1021    1.7104   -0.0490 O   0  0  0  0  0  0  0  0  0  0  0  0
    0.7336    1.5313    1.2504 N   0  0  0  0  0  0  0  0  0  0  0  0
    1.5197    0.9473    1.5230 H   0  0  0  0  0  0  0  0  0  0  0  0
    0.6229    2.8696    1.8183 C   0  0  0  0  0  0  0  0  0  0  0  0
   -0.3409    2.9944    2.3230 H   0  0  0  0  0  0  0  0  0  0  0  0
    1.4193    3.0365    2.5500 H   0  0  0  0  0  0  0  0  0  0  0  0
    0.7109    3.6274    1.0326 H   0  0  0  0  0  0  0  0  0  0  0  0
  1  2  1  0  0  0  0
  2  3  1  0  0  0  0
  2  4  1  0  0  0  0
  2  5  1  0  0  0  0
  5  6  2  0  0  0  0
  5  7  1  0  0  0  0
  7  8  1  0  0  0  0
  7  9  1  0  0  0  0
  9 10  1  0  0  0  0
  9 11  1  0  0  0  0
  9 19  1  0  0  0  0
 11 12  1  0  0  0  0
 11 13  1  0  0  0  0
 11 14  1  0  0  0  0
 14 15  2  0  0  0  0
 14 16  1  0  0  0  0
 16 17  1  0  0  0  0
 16 18  1  0  0  0  0
 19 20  2  0  0  0  0
 19 21  1  0  0  0  0
 21 22  1  0  0  0  0
 21 23  1  0  0  0  0
 23 24  1  0  0  0  0
 23 25  1  0  0  0  0
 23 26  1  0  0  0  0
M  END
$$$$

  -OEChem-04042215573D

 26 25  0     1  0  0  0  0  0999 V2000
   -2.9824   -3.8628    0.6149 H   0  0  0  0  0  0  0  0  0  0  0  0
   -2.9655   -2.8354    0.2398 C   0  0  0  0  0  0  0  0  0  0  0  0
   -3.5253   -2.2002    0.9308 H   0  0  0  0  0  0  0  0  0  0  0  0
   -3.4488   -2.8097   -0.7399 H   0  0  0  0  0  0  0  0  0  0  0  0
   -1.5352   -2.3424    0.1271 C   0  0  0  0  0  0  0  0  0  0  0  0
   -0.6073   -3.0893    0.3858 O   0  0  0  0  0  0  0  0  0  0  0  0
   -1.2824   -1.0556   -0.2995 N   0  0  0  0  0  0  0  0  0  0  0  0
   -2.0909   -0.4423   -0.4071 H   0  0  0  0  0  0  0  0  0  0  0  0
    0.0298   -0.3885   -0.2494 C   0  0  1  0  0  0  0  0  0  0  0  0
    0.6986   -0.9231    0.4354 H   0  0  0  0  0  0  0  0  0  0  0  0
    0.6807   -0.3364   -1.6419 C   0  0  0  0  0  0  0  0  0  0  0  0
   -0.0484    0.0072   -2.3808 H   0  0  0  0  0  0  0  0  0  0  0  0
    1.5038    0.3847   -1.6348 H   0  0  0  0  0  0  0  0  0  0  0  0
    1.2419   -1.6808   -2.0778 C   0  0  0  0  0  0  0  0  0  0  0  0
    2.4406   -1.8854   -2.0650 O   0  0  0  0  0  0  0  0  0  0  0  0
    0.4606   -2.6902   -2.5589 N   0  0  0  0  0  0  0  0  0  0  0  0
    0.9312   -3.5891   -2.6068 H   0  0  0  0  0  0  0  0  0  0  0  0
   -0.5162   -2.6689   -2.2900 H   0  0  0  0  0  0  0  0  0  0  0  0
   -0.1317    1.0433    0.2954 C   0  0  0  0  0  0  0  0  0  0  0  0
   -1.0928    1.7168   -0.0574 O   0  0  0  0  0  0  0  0  0  0  0  0
    0.7381    1.5383    1.2490 N   0  0  0  0  0  0  0  0  0  0  0  0
    1.5210    0.9524    1.5275 H   0  0  0  0  0  0  0  0  0  0  0  0
    0.6145    2.8702    1.8291 C   0  0  0  0  0  0  0  0  0  0  0  0
   -0.3516    2.9808    2.3328 H   0  0  0  0  0  0  0  0  0  0  0  0
    1.4079    3.0382    2.5639 H   0  0  0  0  0  0  0  0  0  0  0  0
    0.6962    3.6363    1.0508 H   0  0  0  0  0  0  0  0  0  0  0  0
  1  2  1  0  0  0  0
  2  3  1  0  0  0  0
  2  4  1  0  0  0  0
  2  5  1  0  0  0  0
  5  6  2  0  0  0  0
  5  7  1  0  0  0  0
  7  8  1  0  0  0  0
  7  9  1  0  0  0  0
  9 10  1  0  0  0  0
  9 11  1  0  0  0  0
  9 19  1  0  0  0  0
 11 12  1  0  0  0  0
 11 13  1  0  0  0  0
 11 14  1  0  0  0  0
 14 15  2  0  0  0  0
 14 16  1  0  0  0  0
 16 17  1  0  0  0  0
 16 18  1  0  0  0  0
 19 20  2  0  0  0  0
 19 21  1  0  0  0  0
 21 22  1  0  0  0  0
 21 23  1  0  0  0  0
 23 24  1  0  0  0  0
 23 25  1  0  0  0  0
 23 26  1  0  0  0  0
M  END
$$$$

  -OEChem-04042215573D

 26 25  0     1  0  0  0  0  0999 V2000
   -2.9410   -3.8815    0.5674 H   0  0  0  0  0  0  0  0  0  0  0  0
   -2.9339   -2.8522    0.1974 C   0  0  0  0  0  0  0  0  0  0  0  0
   -3.5057   -2.2269    0.8877 H   0  0  0  0  0  0  0  0  0  0  0  0
   -3.4106   -2.8270   -0.7854 H   0  0  0  0  0  0  0  0  0  0  0  0
   -1.5084   -2.3429    0.0967 C   0  0  0  0  0  0  0  0  0  0  0  0
   -0.5756   -3.0802    0.3647 O   0  0  0  0  0  0  0  0  0  0  0  0
   -1.2694   -1.0490   -0.3174 N   0  0  0  0  0  0  0  0  0  0  0  0
   -2.0835   -0.4428   -0.4206 H   0  0  0  0  0  0  0  0  0  0  0  0
    0.0371   -0.3726   -0.2631 C   0  0  1  0  0  0  0  0  0  0  0  0
    0.7137   -0.9097    0.4127 H   0  0  0  0  0  0  0  0  0  0  0  0
    0.6710   -0.3166   -1.6615 C   0  0  0  0  0  0  0  0  0  0  0  0
   -0.0639    0.0245   -2.3956 H   0  0  0  0  0  0  0  0  0  0  0  0
    1.4964    0.4016   -1.6655 H   0  0  0  0  0  0  0  0  0  0  0  0
    1.2255   -1.6677   -2.0802 C   0  0  0  0  0  0  0  0  0  0  0  0
    2.3746   -1.9722   -1.8229 O   0  0  0  0  0  0  0  0  0  0  0  0
    0.4795   -2.5951   -2.7481 N   0  0  0  0  0  0  0  0  0  0  0  0
    0.8743   -3.5314   -2.7405 H   0  0  0  0  0  0  0  0  0  0  0  0
   -0.5272   -2.4865   -2.7132 H   0  0  0  0  0  0  0  0  0  0  0  0
   -0.1275    1.0526    0.2960 C   0  0  0  0  0  0  0  0  0  0  0  0
   -1.0878    1.7289   -0.0537 O   0  0  0  0  0  0  0  0  0  0  0  0
    0.7442    1.5411    1.2512 N   0  0  0  0  0  0  0  0  0  0  0  0
    1.5263    0.9518    1.5250 H   0  0  0  0  0  0  0  0  0  0  0  0
    0.6212    2.8677    1.8436 C   0  0  0  0  0  0  0  0  0  0  0  0
   -0.3443    2.9745    2.3493 H   0  0  0  0  0  0  0  0  0  0  0  0
    1.4154    3.0284    2.5792 H   0  0  0  0  0  0  0  0  0  0  0  0
    0.7026    3.6406    1.0722 H   0  0  0  0  0  0  0  0  0  0  0  0
  1  2  1  0  0  0  0
  2  3  1  0  0  0  0
  2  4  1  0  0  0  0
  2  5  1  0  0  0  0
  5  6  2  0  0  0  0
  5  7  1  0  0  0  0
  7  8  1  0  0  0  0
  7  9  1  0  0  0  0
  9 10  1  0  0  0  0
  9 11  1  0  0  0  0
  9 19  1  0  0  0  0
 11 12  1  0  0  0  0
 11 13  1  0  0  0  0
 11 14  1  0  0  0  0
 14 15  2  0  0  0  0
 14 16  1  0  0  0  0
 16 17  1  0  0  0  0
 16 18  1  0  0  0  0
 19 20  2  0  0  0  0
 19 21  1  0  0  0  0
 21 22  1  0  0  0  0
 21 23  1  0  0  0  0
 23 24  1  0  0  0  0
 23 25  1  0  0  0  0
 23 26  1  0  0  0  0
M  END
$$$$

  -OEChem-04042215573D

 26 25  0     1  0  0  0  0  0999 V2000
   -2.9157   -3.8944    0.5400 H   0  0  0  0  0  0  0  0  0  0  0  0
   -2.9109   -2.8687    0.1605 C   0  0  0  0  0  0  0  0  0  0  0  0
   -3.5027   -2.2426    0.8326 H   0  0  0  0  0  0  0  0  0  0  0  0
   -3.3674   -2.8577   -0.8319 H   0  0  0  0  0  0  0  0  0  0  0  0
   -1.4884   -2.3466    0.0841 C   0  0  0  0  0  0  0  0  0  0  0  0
   -0.5565   -3.0742    0.3788 O   0  0  0  0  0  0  0  0  0  0  0  0
   -1.2557   -1.0489   -0.3226 N   0  0  0  0  0  0  0  0  0  0  0  0
   -2.0739   -0.4514   -0.4398 H   0  0  0  0  0  0  0  0  0  0  0  0
    0.0458   -0.3635   -0.2623 C   0  0  1  0  0  0  0  0  0  0  0  0
    0.7268   -0.9014    0.4086 H   0  0  0  0  0  0  0  0  0  0  0  0
    0.6694   -0.2986   -1.6646 C   0  0  0  0  0  0  0  0  0  0  0  0
   -0.0719    0.0439   -2.3913 H   0  0  0  0  0  0  0  0  0  0  0  0
    1.4931    0.4213   -1.6710 H   0  0  0  0  0  0  0  0  0  0  0  0
    1.2273   -1.6463   -2.0875 C   0  0  0  0  0  0  0  0  0  0  0  0
    2.2694   -2.0613   -1.6173 O   0  0  0  0  0  0  0  0  0  0  0  0
    0.5626   -2.4811   -2.9389 N   0  0  0  0  0  0  0  0  0  0  0  0
    0.8911   -3.4426   -2.9245 H   0  0  0  0  0  0  0  0  0  0  0  0
   -0.4195   -2.2949   -3.1054 H   0  0  0  0  0  0  0  0  0  0  0  0
   -0.1234    1.0580    0.3025 C   0  0  0  0  0  0  0  0  0  0  0  0
   -1.0743    1.7412   -0.0596 O   0  0  0  0  0  0  0  0  0  0  0  0
    0.7465    1.5438    1.2603 N   0  0  0  0  0  0  0  0  0  0  0  0
    1.5165    0.9449    1.5478 H   0  0  0  0  0  0  0  0  0  0  0  0
    0.6288    2.8721    1.8489 C   0  0  0  0  0  0  0  0  0  0  0  0
   -0.3388    2.9862    2.3488 H   0  0  0  0  0  0  0  0  0  0  0  0
    1.4198    3.0292    2.5886 H   0  0  0  0  0  0  0  0  0  0  0  0
    0.7199    3.6427    1.0762 H   0  0  0  0  0  0  0  0  0  0  0  0
  1  2  1  0  0  0  0
  2  3  1  0  0  0  0
  2  4  1  0  0  0  0
  2  5  1  0  0  0  0
  5  6  2  0  0  0  0
  5  7  1  0  0  0  0
  7  8  1  0  0  0  0
  7  9  1  0  0  0  0
  9 10  1  0  0  0  0
  9 11  1  0  0  0  0
  9 19  1  0  0  0  0
 11 12  1  0  0  0  0
 11 13  1  0  0  0  0
 11 14  1  0  0  0  0
 14 15  2  0  0  0  0
 14 16  1  0  0  0  0
 16 17  1  0  0  0  0
 16 18  1  0  0  0  0
 19 20  2  0  0  0  0
 19 21  1  0  0  0  0
 21 22  1  0  0  0  0
 21 23  1  0  0  0  0
 23 24  1  0  0  0  0
 23 25  1  0  0  0  0
 23 26  1  0  0  0  0
M  END
$$$$

  -OEChem-04042215573D

 26 25  0     1  0  0  0  0  0999 V2000
   -2.9130   -3.9058    0.5074 H   0  0  0  0  0  0  0  0  0  0  0  0
   -2.8995   -2.8765    0.1379 C   0  0  0  0  0  0  0  0  0  0  0  0
   -3.5211   -2.2600    0.7917 H   0  0  0  0  0  0  0  0  0  0  0  0
   -3.3159   -2.8595   -0.8721 H   0  0  0  0  0  0  0  0  0  0  0  0
   -1.4786   -2.3449    0.1225 C   0  0  0  0  0  0  0  0  0  0  0  0
   -0.5611   -3.0541    0.4955 O   0  0  0  0  0  0  0  0  0  0  0  0
   -1.2390   -1.0522   -0.2957 N   0  0  0  0  0  0  0  0  0  0  0  0
   -2.0548   -0.4659   -0.4677 H   0  0  0  0  0  0  0  0  0  0  0  0
    0.0610   -0.3647   -0.2394 C   0  0  1  0  0  0  0  0  0  0  0  0
    0.7450   -0.8959    0.4336 H   0  0  0  0  0  0  0  0  0  0  0  0
    0.6714   -0.3070   -1.6502 C   0  0  0  0  0  0  0  0  0  0  0  0
   -0.0799    0.0347   -2.3673 H   0  0  0  0  0  0  0  0  0  0  0  0
    1.4935    0.4139   -1.6676 H   0  0  0  0  0  0  0  0  0  0  0  0
    1.2314   -1.6506   -2.0873 C   0  0  0  0  0  0  0  0  0  0  0  0
    2.1190   -2.1960   -1.4605 O   0  0  0  0  0  0  0  0  0  0  0  0
    0.7226   -2.3458   -3.1467 N   0  0  0  0  0  0  0  0  0  0  0  0
    0.9996   -3.3226   -3.1896 H   0  0  0  0  0  0  0  0  0  0  0  0
   -0.1745   -2.0600   -3.5220 H   0  0  0  0  0  0  0  0  0  0  0  0
   -0.1120    1.0625    0.3101 C   0  0  0  0  0  0  0  0  0  0  0  0
   -1.0530    1.7476   -0.0742 O   0  0  0  0  0  0  0  0  0  0  0  0
    0.7549    1.5591    1.2653 N   0  0  0  0  0  0  0  0  0  0  0  0
    1.5074    0.9525    1.5816 H   0  0  0  0  0  0  0  0  0  0  0  0
    0.6252    2.8872    1.8519 C   0  0  0  0  0  0  0  0  0  0  0  0
   -0.3425    2.9921    2.3538 H   0  0  0  0  0  0  0  0  0  0  0  0
    1.4164    3.0534    2.5893 H   0  0  0  0  0  0  0  0  0  0  0  0
    0.7066    3.6570    1.0775 H   0  0  0  0  0  0  0  0  0  0  0  0
  1  2  1  0  0  0  0
  2  3  1  0  0  0  0
  2  4  1  0  0  0  0
  2  5  1  0  0  0  0
  5  6  2  0  0  0  0
  5  7  1  0  0  0  0
  7  8  1  0  0  0  0
  7  9  1  0  0  0  0
  9 10  1  0  0  0  0
  9 11  1  0  0  0  0
  9 19  1  0  0  0  0
 11 12  1  0  0  0  0
 11 13  1  0  0  0  0
 11 14  1  0  0  0  0
 14 15  2  0  0  0  0
 14 16  1  0  0  0  0
 16 17  1  0  0  0  0
 16 18  1  0  0  0  0
 19 20  2  0  0  0  0
 19 21  1  0  0  0  0
 21 22  1  0  0  0  0
 21 23  1  0  0  0  0
 23 24  1  0  0  0  0
 23 25  1  0  0  0  0
 23 26  1  0  0  0  0
M  END
$$$$

  -OEChem-04042215573D

 26 25  0     1  0  0  0  0  0999 V2000
   -2.9242   -3.9218    0.4936 H   0  0  0  0  0  0  0  0  0  0  0  0
   -2.9011   -2.8925    0.1243 C   0  0  0  0  0  0  0  0  0  0  0  0
   -3.5687   -2.2829    0.7382 H   0  0  0  0  0  0  0  0  0  0  0  0
   -3.2556   -2.8816   -0.9091 H   0  0  0  0  0  0  0  0  0  0  0  0
   -1.4881   -2.3439    0.1937 C   0  0  0  0  0  0  0  0  0  0  0  0
   -0.6000   -3.0206    0.6806 O   0  0  0  0  0  0  0  0  0  0  0  0
   -1.2334   -1.0616   -0.2482 N   0  0  0  0  0  0  0  0  0  0  0  0
   -2.0381   -0.4919   -0.5047 H   0  0  0  0  0  0  0  0  0  0  0  0
    0.0706   -0.3816   -0.1994 C   0  0  1  0  0  0  0  0  0  0  0  0
    0.7562   -0.9065    0.4767 H   0  0  0  0  0  0  0  0  0  0  0  0
    0.6712   -0.3306   -1.6174 C   0  0  0  0  0  0  0  0  0  0  0  0
   -0.0881    0.0184   -2.3225 H   0  0  0  0  0  0  0  0  0  0  0  0
    1.4944    0.3890   -1.6393 H   0  0  0  0  0  0  0  0  0  0  0  0
    1.2281   -1.6665   -2.0856 C   0  0  0  0  0  0  0  0  0  0  0  0
    1.9216   -2.3636   -1.3719 O   0  0  0  0  0  0  0  0  0  0  0  0
    0.9520   -2.1698   -3.3249 N   0  0  0  0  0  0  0  0  0  0  0  0
    1.1987   -3.1457   -3.4643 H   0  0  0  0  0  0  0  0  0  0  0  0
    0.2052   -1.7507   -3.8678 H   0  0  0  0  0  0  0  0  0  0  0  0
   -0.1008    1.0564    0.3221 C   0  0  0  0  0  0  0  0  0  0  0  0
   -1.0228    1.7465   -0.0981 O   0  0  0  0  0  0  0  0  0  0  0  0
    0.7617    1.5689    1.2728 N   0  0  0  0  0  0  0  0  0  0  0  0
    1.4864    0.9533    1.6334 H   0  0  0  0  0  0  0  0  0  0  0  0
    0.6291    2.9074    1.8348 C   0  0  0  0  0  0  0  0  0  0  0  0
   -0.3356    3.0163    2.3415 H   0  0  0  0  0  0  0  0  0  0  0  0
    1.4250    3.0929    2.5625 H   0  0  0  0  0  0  0  0  0  0  0  0
    0.7000    3.6628    1.0451 H   0  0  0  0  0  0  0  0  0  0  0  0
  1  2  1  0  0  0  0
  2  3  1  0  0  0  0
  2  4  1  0  0  0  0
  2  5  1  0  0  0  0
  5  6  2  0  0  0  0
  5  7  1  0  0  0  0
  7  8  1  0  0  0  0
  7  9  1  0  0  0  0
  9 10  1  0  0  0  0
  9 11  1  0  0  0  0
  9 19  1  0  0  0  0
 11 12  1  0  0  0  0
 11 13  1  0  0  0  0
 11 14  1  0  0  0  0
 14 15  2  0  0  0  0
 14 16  1  0  0  0  0
 16 17  1  0  0  0  0
 16 18  1  0  0  0  0
 19 20  2  0  0  0  0
 19 21  1  0  0  0  0
 21 22  1  0  0  0  0
 21 23  1  0  0  0  0
 23 24  1  0  0  0  0
 23 25  1  0  0  0  0
 23 26  1  0  0  0  0
M  END
$$$$

  -OEChem-04042215573D

 26 25  0     1  0  0  0  0  0999 V2000
   -2.9250   -3.9426    0.4799 H   0  0  0  0  0  0  0  0  0  0  0  0
   -2.8976   -2.9169    0.1014 C   0  0  0  0  0  0  0  0  0  0  0  0
   -3.6160   -2.3141    0.6622 H   0  0  0  0  0  0  0  0  0  0  0  0
   -3.1817   -2.9240   -0.9536 H   0  0  0  0  0  0  0  0  0  0  0  0
   -1.5035   -2.3399    0.2585 C   0  0  0  0  0  0  0  0  0  0  0  0
   -0.6522   -2.9720    0.8589 O   0  0  0  0  0  0  0  0  0  0  0  0
   -1.2390   -1.0669   -0.2050 N   0  0  0  0  0  0  0  0  0  0  0  0
   -2.0263   -0.5260   -0.5578 H   0  0  0  0  0  0  0  0  0  0  0  0
    0.0697   -0.3963   -0.1617 C   0  0  1  0  0  0  0  0  0  0  0  0
    0.7553   -0.9181    0.5166 H   0  0  0  0  0  0  0  0  0  0  0  0
    0.6633   -0.3500   -1.5854 C   0  0  0  0  0  0  0  0  0  0  0  0
   -0.1012    0.0056   -2.2815 H   0  0  0  0  0  0  0  0  0  0  0  0
    1.4877    0.3682   -1.6091 H   0  0  0  0  0  0  0  0  0  0  0  0
    1.2151   -1.6787   -2.0826 C   0  0  0  0  0  0  0  0  0  0  0  0
    1.6859   -2.5200   -1.3445 O   0  0  0  0  0  0  0  0  0  0  0  0
    1.2087   -1.9986   -3.4103 N   0  0  0  0  0  0  0  0  0  0  0  0
    1.4351   -2.9638   -3.6334 H   0  0  0  0  0  0  0  0  0  0  0  0
    0.6562   -1.4399   -4.0514 H   0  0  0  0  0  0  0  0  0  0  0  0
   -0.0961    1.0512    0.3357 C   0  0  0  0  0  0  0  0  0  0  0  0
   -0.9902    1.7527   -0.1246 O   0  0  0  0  0  0  0  0  0  0  0  0
    0.7655    1.5719    1.2826 N   0  0  0  0  0  0  0  0  0  0  0  0
    1.4604    0.9457    1.6813 H   0  0  0  0  0  0  0  0  0  0  0  0
    0.6475    2.9241    1.8141 C   0  0  0  0  0  0  0  0  0  0  0  0
   -0.3102    3.0508    2.3299 H   0  0  0  0  0  0  0  0  0  0  0  0
    1.4540    3.1215    2.5268 H   0  0  0  0  0  0  0  0  0  0  0  0
    0.7134    3.6610    1.0065 H   0  0  0  0  0  0  0  0  0  0  0  0
  1  2  1  0  0  0  0
  2  3  1  0  0  0  0
  2  4  1  0  0  0  0
  2  5  1  0  0  0  0
  5  6  2  0  0  0  0
  5  7  1  0  0  0  0
  7  8  1  0  0  0  0
  7  9  1  0  0  0  0
  9 10  1  0  0  0  0
  9 11  1  0  0  0  0
  9 19  1  0  0  0  0
 11 12  1  0  0  0  0
 11 13  1  0  0  0  0
 11 14  1  0  0  0  0
 14 15  2  0  0  0  0
 14 16  1  0  0  0  0
 16 17  1  0  0  0  0
 16 18  1  0  0  0  0
 19 20  2  0  0  0  0
 19 21  1  0  0  0  0
 21 22  1  0  0  0  0
 21 23  1  0  0  0  0
 23 24  1  0  0  0  0
 23 25  1  0  0  0  0
 23 26  1  0  0  0  0
M  END
$$$$

  -OEChem-04042215573D

 26 25  0     1  0  0  0  0  0999 V2000
   -2.9075   -3.9633    0.4670 H   0  0  0  0  0  0  0  0  0  0  0  0
   -2.8854   -2.9421    0.0758 C   0  0  0  0  0  0  0  0  0  0  0  0
   -3.6545   -2.3533    0.5816 H   0  0  0  0  0  0  0  0  0  0  0  0
   -3.1021   -2.9720   -0.9947 H   0  0  0  0  0  0  0  0  0  0  0  0
   -1.5201   -2.3234    0.3110 C   0  0  0  0  0  0  0  0  0  0  0  0
   -0.7061   -2.9038    1.0093 O   0  0  0  0  0  0  0  0  0  0  0  0
   -1.2525   -1.0577   -0.1717 N   0  0  0  0  0  0  0  0  0  0  0  0
   -2.0163   -0.5555   -0.6190 H   0  0  0  0  0  0  0  0  0  0  0  0
    0.0626   -0.3994   -0.1375 C   0  0  1  0  0  0  0  0  0  0  0  0
    0.7481   -0.9218    0.5402 H   0  0  0  0  0  0  0  0  0  0  0  0
    0.6519   -0.3628   -1.5655 C   0  0  0  0  0  0  0  0  0  0  0  0
   -0.1130   -0.0017   -2.2583 H   0  0  0  0  0  0  0  0  0  0  0  0
    1.4803    0.3506   -1.5905 H   0  0  0  0  0  0  0  0  0  0  0  0
    1.1948   -1.6894   -2.0807 C   0  0  0  0  0  0  0  0  0  0  0  0
    1.4252   -2.6475   -1.3725 O   0  0  0  0  0  0  0  0  0  0  0  0
    1.4702   -1.8669   -3.4064 N   0  0  0  0  0  0  0  0  0  0  0  0
    1.6839   -2.8176   -3.6944 H   0  0  0  0  0  0  0  0  0  0  0  0
    1.1348   -1.1874   -4.0804 H   0  0  0  0  0  0  0  0  0  0  0  0
   -0.0894    1.0562    0.3425 C   0  0  0  0  0  0  0  0  0  0  0  0
   -0.9590    1.7710   -0.1436 O   0  0  0  0  0  0  0  0  0  0  0  0
    0.7790    1.5778    1.2832 N   0  0  0  0  0  0  0  0  0  0  0  0
    1.4402    0.9378    1.7157 H   0  0  0  0  0  0  0  0  0  0  0  0
    0.6692    2.9339    1.8070 C   0  0  0  0  0  0  0  0  0  0  0  0
   -0.2878    3.0699    2.3220 H   0  0  0  0  0  0  0  0  0  0  0  0
    1.4767    3.1302    2.5192 H   0  0  0  0  0  0  0  0  0  0  0  0
    0.7401    3.6660    0.9956 H   0  0  0  0  0  0  0  0  0  0  0  0
  1  2  1  0  0  0  0
  2  3  1  0  0  0  0
  2  4  1  0  0  0  0
  2  5  1  0  0  0  0
  5  6  2  0  0  0  0
  5  7  1  0  0  0  0
  7  8  1  0  0  0  0
  7  9  1  0  0  0  0
  9 10  1  0  0  0  0
  9 11  1  0  0  0  0
  9 19  1  0  0  0  0
 11 12  1  0  0  0  0
 11 13  1  0  0  0  0
 11 14  1  0  0  0  0
 14 15  2  0  0  0  0
 14 16  1  0  0  0  0
 16 17  1  0  0  0  0
 16 18  1  0  0  0  0
 19 20  2  0  0  0  0
 19 21  1  0  0  0  0
 21 22  1  0  0  0  0
 21 23  1  0  0  0  0
 23 24  1  0  0  0  0
 23 25  1  0  0  0  0
 23 26  1  0  0  0  0
M  END
$$$$

  -OEChem-04042215573D

 26 25  0     1  0  0  0  0  0999 V2000
   -2.8828   -3.9793    0.4505 H   0  0  0  0  0  0  0  0  0  0  0  0
   -2.8654   -2.9634    0.0461 C   0  0  0  0  0  0  0  0  0  0  0  0
   -3.6751   -2.3873    0.5002 H   0  0  0  0  0  0  0  0  0  0  0  0
   -3.0217   -3.0137   -1.0339 H   0  0  0  0  0  0  0  0  0  0  0  0
   -1.5315   -2.3063    0.3456 C   0  0  0  0  0  0  0  0  0  0  0  0
   -0.7487   -2.8450    1.1115 O   0  0  0  0  0  0  0  0  0  0  0  0
   -1.2653   -1.0445   -0.1487 N   0  0  0  0  0  0  0  0  0  0  0  0
   -2.0061   -0.5791   -0.6676 H   0  0  0  0  0  0  0  0  0  0  0  0
    0.0548   -0.3976   -0.1186 C   0  0  1  0  0  0  0  0  0  0  0  0
    0.7382   -0.9233    0.5582 H   0  0  0  0  0  0  0  0  0  0  0  0
    0.6446   -0.3659   -1.5477 C   0  0  0  0  0  0  0  0  0  0  0  0
   -0.1161    0.0029   -2.2414 H   0  0  0  0  0  0  0  0  0  0  0  0
    1.4782    0.3418   -1.5683 H   0  0  0  0  0  0  0  0  0  0  0  0
    1.1790   -1.6926   -2.0732 C   0  0  0  0  0  0  0  0  0  0  0  0
    1.1647   -2.7322   -1.4475 O   0  0  0  0  0  0  0  0  0  0  0  0
    1.7184   -1.7787   -3.3249 N   0  0  0  0  0  0  0  0  0  0  0  0
    1.9120   -2.7166   -3.6651 H   0  0  0  0  0  0  0  0  0  0  0  0
    1.5956   -1.0097   -3.9748 H   0  0  0  0  0  0  0  0  0  0  0  0
   -0.0852    1.0623    0.3529 C   0  0  0  0  0  0  0  0  0  0  0  0
   -0.9333    1.7895   -0.1526 O   0  0  0  0  0  0  0  0  0  0  0  0
    0.7881    1.5808    1.2909 N   0  0  0  0  0  0  0  0  0  0  0  0
    1.4214    0.9305    1.7489 H   0  0  0  0  0  0  0  0  0  0  0  0
    0.6880    2.9412    1.8053 C   0  0  0  0  0  0  0  0  0  0  0  0
   -0.2685    3.0873    2.3182 H   0  0  0  0  0  0  0  0  0  0  0  0
    1.4960    3.1369    2.5167 H   0  0  0  0  0  0  0  0  0  0  0  0
    0.7649    3.6672    0.9890 H   0  0  0  0  0  0  0  0  0  0  0  0
  1  2  1  0  0  0  0
  2  3  1  0  0  0  0
  2  4  1  0  0  0  0
  2  5  1  0  0  0  0
  5  6  2  0  0  0  0
  5  7  1  0  0  0  0
  7  8  1  0  0  0  0
  7  9  1  0  0  0  0
  9 10  1  0  0  0  0
  9 11  1  0  0  0  0
  9 19  1  0  0  0  0
 11 12  1  0  0  0  0
 11 13  1  0  0  0  0
 11 14  1  0  0  0  0
 14 15  2  0  0  0  0
 14 16  1  0  0  0  0
 16 17  1  0  0  0  0
 16 18  1  0  0  0  0
 19 20  2  0  0  0  0
 19 21  1  0  0  0  0
 21 22  1  0  0  0  0
 21 23  1  0  0  0  0
 23 24  1  0  0  0  0
 23 25  1  0  0  0  0
 23 26  1  0  0  0  0
M  END
$$$$

  -OEChem-04042215573D

 26 25  0     1  0  0  0  0  0999 V2000
   -2.8901   -3.9703    0.4980 H   0  0  0  0  0  0  0  0  0  0  0  0
   -2.8502   -2.9848    0.0257 C   0  0  0  0  0  0  0  0  0  0  0  0
   -3.6909   -2.3864    0.3843 H   0  0  0  0  0  0  0  0  0  0  0  0
   -2.9342   -3.1110   -1.0562 H   0  0  0  0  0  0  0  0  0  0  0  0
   -1.5410   -2.2973    0.3646 C   0  0  0  0  0  0  0  0  0  0  0  0
   -0.7734   -2.8109    1.1639 O   0  0  0  0  0  0  0  0  0  0  0  0
   -1.2796   -1.0355   -0.1329 N   0  0  0  0  0  0  0  0  0  0  0  0
   -1.9978   -0.6038   -0.7089 H   0  0  0  0  0  0  0  0  0  0  0  0
    0.0442   -0.3959   -0.1020 C   0  0  1  0  0  0  0  0  0  0  0  0
    0.7253   -0.9256    0.5739 H   0  0  0  0  0  0  0  0  0  0  0  0
    0.6395   -0.3602   -1.5293 C   0  0  0  0  0  0  0  0  0  0  0  0
   -0.1143    0.0169   -2.2260 H   0  0  0  0  0  0  0  0  0  0  0  0
    1.4754    0.3449   -1.5388 H   0  0  0  0  0  0  0  0  0  0  0  0
    1.1699   -1.6856   -2.0630 C   0  0  0  0  0  0  0  0  0  0  0  0
    0.9244   -2.7689   -1.5739 O   0  0  0  0  0  0  0  0  0  0  0  0
    1.9531   -1.7219   -3.1813 N   0  0  0  0  0  0  0  0  0  0  0  0
    2.1259   -2.6433   -3.5737 H   0  0  0  0  0  0  0  0  0  0  0  0
    2.0269   -0.8942   -3.7630 H   0  0  0  0  0  0  0  0  0  0  0  0
   -0.0892    1.0650    0.3701 C   0  0  0  0  0  0  0  0  0  0  0  0
   -0.9185    1.8034   -0.1497 O   0  0  0  0  0  0  0  0  0  0  0  0
    0.7862    1.5785    1.3092 N   0  0  0  0  0  0  0  0  0  0  0  0
    1.4032    0.9224    1.7807 H   0  0  0  0  0  0  0  0  0  0  0  0
    0.7073    2.9472    1.8051 C   0  0  0  0  0  0  0  0  0  0  0  0
   -0.2483    3.1160    2.3124 H   0  0  0  0  0  0  0  0  0  0  0  0
    1.5167    3.1395    2.5159 H   0  0  0  0  0  0  0  0  0  0  0  0
    0.7984    3.6600    0.9787 H   0  0  0  0  0  0  0  0  0  0  0  0
  1  2  1  0  0  0  0
  2  3  1  0  0  0  0
  2  4  1  0  0  0  0
  2  5  1  0  0  0  0
  5  6  2  0  0  0  0
  5  7  1  0  0  0  0
  7  8  1  0  0  0  0
  7  9  1  0  0  0  0
  9 10  1  0  0  0  0
  9 11  1  0  0  0  0
  9 19  1  0  0  0  0
 11 12  1  0  0  0  0
 11 13  1  0  0  0  0
 11 14  1  0  0  0  0
 14 15  2  0  0  0  0
 14 16  1  0  0  0  0
 16 17  1  0  0  0  0
 16 18  1  0  0  0  0
 19 20  2  0  0  0  0
 19 21  1  0  0  0  0
 21 22  1  0  0  0  0
 21 23  1  0  0  0  0
 23 24  1  0  0  0  0
 23 25  1  0  0  0  0
 23 26  1  0  0  0  0
M  END
$$$$

  -OEChem-04042215573D

 26 25  0     1  0  0  0  0  0999 V2000
   -2.8837   -3.9703    0.5063 H   0  0  0  0  0  0  0  0  0  0  0  0
   -2.8430   -2.9905    0.0226 C   0  0  0  0  0  0  0  0  0  0  0  0
   -3.6912   -2.3919    0.3627 H   0  0  0  0  0  0  0  0  0  0  0  0
   -2.9117   -3.1300   -1.0589 H   0  0  0  0  0  0  0  0  0  0  0  0
   -1.5419   -2.2917    0.3687 C   0  0  0  0  0  0  0  0  0  0  0  0
   -0.7661   -2.8029    1.1625 O   0  0  0  0  0  0  0  0  0  0  0  0
   -1.2888   -1.0276   -0.1275 N   0  0  0  0  0  0  0  0  0  0  0  0
   -2.0036   -0.6074   -0.7161 H   0  0  0  0  0  0  0  0  0  0  0  0
    0.0346   -0.3885   -0.1011 C   0  0  1  0  0  0  0  0  0  0  0  0
    0.7172   -0.9190    0.5721 H   0  0  0  0  0  0  0  0  0  0  0  0
    0.6291   -0.3539   -1.5285 C   0  0  0  0  0  0  0  0  0  0  0  0
   -0.1238    0.0209   -2.2276 H   0  0  0  0  0  0  0  0  0  0  0  0
    1.4639    0.3526   -1.5375 H   0  0  0  0  0  0  0  0  0  0  0  0
    1.1573   -1.6833   -2.0559 C   0  0  0  0  0  0  0  0  0  0  0  0
    0.7137   -2.7676   -1.7366 O   0  0  0  0  0  0  0  0  0  0  0  0
    2.1712   -1.7204   -2.9703 N   0  0  0  0  0  0  0  0  0  0  0  0
    2.3514   -2.6247   -3.3974 H   0  0  0  0  0  0  0  0  0  0  0  0
    2.4423   -0.8661   -3.4452 H   0  0  0  0  0  0  0  0  0  0  0  0
   -0.0948    1.0714    0.3760 C   0  0  0  0  0  0  0  0  0  0  0  0
   -0.9210    1.8146   -0.1415 O   0  0  0  0  0  0  0  0  0  0  0  0
    0.7862    1.5809    1.3122 N   0  0  0  0  0  0  0  0  0  0  0  0
    1.3983    0.9212    1.7847 H   0  0  0  0  0  0  0  0  0  0  0  0
    0.7109    2.9485    1.8123 C   0  0  0  0  0  0  0  0  0  0  0  0
   -0.2437    3.1180    2.3215 H   0  0  0  0  0  0  0  0  0  0  0  0
    1.5214    3.1374    2.5229 H   0  0  0  0  0  0  0  0  0  0  0  0
    0.8027    3.6639    0.9881 H   0  0  0  0  0  0  0  0  0  0  0  0
  1  2  1  0  0  0  0
  2  3  1  0  0  0  0
  2  4  1  0  0  0  0
  2  5  1  0  0  0  0
  5  6  2  0  0  0  0
  5  7  1  0  0  0  0
  7  8  1  0  0  0  0
  7  9  1  0  0  0  0
  9 10  1  0  0  0  0
  9 11  1  0  0  0  0
  9 19  1  0  0  0  0
 11 12  1  0  0  0  0
 11 13  1  0  0  0  0
 11 14  1  0  0  0  0
 14 15  2  0  0  0  0
 14 16  1  0  0  0  0
 16 17  1  0  0  0  0
 16 18  1  0  0  0  0
 19 20  2  0  0  0  0
 19 21  1  0  0  0  0
 21 22  1  0  0  0  0
 21 23  1  0  0  0  0
 23 24  1  0  0  0  0
 23 25  1  0  0  0  0
 23 26  1  0  0  0  0
M  END
$$$$

  -OEChem-04042215573D

 26 25  0     1  0  0  0  0  0999 V2000
   -2.8663   -3.9756    0.5046 H   0  0  0  0  0  0  0  0  0  0  0  0
   -2.8333   -2.9954    0.0211 C   0  0  0  0  0  0  0  0  0  0  0  0
   -3.6831   -2.4018    0.3659 H   0  0  0  0  0  0  0  0  0  0  0  0
   -2.9071   -3.1351   -1.0601 H   0  0  0  0  0  0  0  0  0  0  0  0
   -1.5339   -2.2898    0.3600 C   0  0  0  0  0  0  0  0  0  0  0  0
   -0.7383   -2.8085    1.1296 O   0  0  0  0  0  0  0  0  0  0  0  0
   -1.2931   -1.0206   -0.1290 N   0  0  0  0  0  0  0  0  0  0  0  0
   -2.0106   -0.6059   -0.7182 H   0  0  0  0  0  0  0  0  0  0  0  0
    0.0274   -0.3765   -0.1074 C   0  0  1  0  0  0  0  0  0  0  0  0
    0.7160   -0.9059    0.5605 H   0  0  0  0  0  0  0  0  0  0  0  0
    0.6128   -0.3403   -1.5375 C   0  0  0  0  0  0  0  0  0  0  0  0
   -0.1455    0.0261   -2.2353 H   0  0  0  0  0  0  0  0  0  0  0  0
    1.4434    0.3708   -1.5569 H   0  0  0  0  0  0  0  0  0  0  0  0
    1.1369   -1.6770   -2.0502 C   0  0  0  0  0  0  0  0  0  0  0  0
    0.5352   -2.7254   -1.9266 O   0  0  0  0  0  0  0  0  0  0  0  0
    2.3352   -1.7669   -2.6997 N   0  0  0  0  0  0  0  0  0  0  0  0
    2.5349   -2.6599   -3.1417 H   0  0  0  0  0  0  0  0  0  0  0  0
    2.7889   -0.9207   -3.0261 H   0  0  0  0  0  0  0  0  0  0  0  0
   -0.1035    1.0796    0.3811 C   0  0  0  0  0  0  0  0  0  0  0  0
   -0.9344    1.8244   -0.1260 O   0  0  0  0  0  0  0  0  0  0  0  0
    0.7826    1.5857    1.3146 N   0  0  0  0  0  0  0  0  0  0  0  0
    1.3960    0.9241    1.7825 H   0  0  0  0  0  0  0  0  0  0  0  0
    0.7112    2.9517    1.8198 C   0  0  0  0  0  0  0  0  0  0  0  0
   -0.2379    3.1193    2.3395 H   0  0  0  0  0  0  0  0  0  0  0  0
    1.5292    3.1382    2.5223 H   0  0  0  0  0  0  0  0  0  0  0  0
    0.7941    3.6701    0.9974 H   0  0  0  0  0  0  0  0  0  0  0  0
  1  2  1  0  0  0  0
  2  3  1  0  0  0  0
  2  4  1  0  0  0  0
  2  5  1  0  0  0  0
  5  6  2  0  0  0  0
  5  7  1  0  0  0  0
  7  8  1  0  0  0  0
  7  9  1  0  0  0  0
  9 10  1  0  0  0  0
  9 11  1  0  0  0  0
  9 19  1  0  0  0  0
 11 12  1  0  0  0  0
 11 13  1  0  0  0  0
 11 14  1  0  0  0  0
 14 15  2  0  0  0  0
 14 16  1  0  0  0  0
 16 17  1  0  0  0  0
 16 18  1  0  0  0  0
 19 20  2  0  0  0  0
 19 21  1  0  0  0  0
 21 22  1  0  0  0  0
 21 23  1  0  0  0  0
 23 24  1  0  0  0  0
 23 25  1  0  0  0  0
 23 26  1  0  0  0  0
M  END
$$$$

  -OEChem-04042215573D

 26 25  0     1  0  0  0  0  0999 V2000
   -2.8245   -3.9946    0.4678 H   0  0  0  0  0  0  0  0  0  0  0  0
   -2.8184   -2.9973    0.0192 C   0  0  0  0  0  0  0  0  0  0  0  0
   -3.6642   -2.4271    0.4104 H   0  0  0  0  0  0  0  0  0  0  0  0
   -2.9231   -3.0990   -1.0638 H   0  0  0  0  0  0  0  0  0  0  0  0
   -1.5179   -2.2872    0.3428 C   0  0  0  0  0  0  0  0  0  0  0  0
   -0.6951   -2.8172    1.0757 O   0  0  0  0  0  0  0  0  0  0  0  0
   -1.2924   -1.0123   -0.1378 N   0  0  0  0  0  0  0  0  0  0  0  0
   -2.0215   -0.5955   -0.7115 H   0  0  0  0  0  0  0  0  0  0  0  0
    0.0229   -0.3584   -0.1237 C   0  0  1  0  0  0  0  0  0  0  0  0
    0.7195   -0.8853    0.5375 H   0  0  0  0  0  0  0  0  0  0  0  0
    0.5934   -0.3249   -1.5573 C   0  0  0  0  0  0  0  0  0  0  0  0
   -0.1738    0.0270   -2.2533 H   0  0  0  0  0  0  0  0  0  0  0  0
    1.4191    0.3905   -1.5960 H   0  0  0  0  0  0  0  0  0  0  0  0
    1.1124   -1.6728   -2.0414 C   0  0  0  0  0  0  0  0  0  0  0  0
    0.4039   -2.6572   -2.1278 O   0  0  0  0  0  0  0  0  0  0  0  0
    2.4228   -1.8569   -2.3810 N   0  0  0  0  0  0  0  0  0  0  0  0
    2.6504   -2.7484   -2.8126 H   0  0  0  0  0  0  0  0  0  0  0  0
    3.0214   -1.0504   -2.5207 H   0  0  0  0  0  0  0  0  0  0  0  0
   -0.1080    1.0932    0.3766 C   0  0  0  0  0  0  0  0  0  0  0  0
   -0.9526    1.8358   -0.1098 O   0  0  0  0  0  0  0  0  0  0  0  0
    0.7865    1.5956    1.3040 N   0  0  0  0  0  0  0  0  0  0  0  0
    1.4126    0.9344    1.7551 H   0  0  0  0  0  0  0  0  0  0  0  0
    0.7071    2.9536    1.8288 C   0  0  0  0  0  0  0  0  0  0  0  0
   -0.2376    3.1035    2.3619 H   0  0  0  0  0  0  0  0  0  0  0  0
    1.5314    3.1397    2.5240 H   0  0  0  0  0  0  0  0  0  0  0  0
    0.7721    3.6834    1.0150 H   0  0  0  0  0  0  0  0  0  0  0  0
  1  2  1  0  0  0  0
  2  3  1  0  0  0  0
  2  4  1  0  0  0  0
  2  5  1  0  0  0  0
  5  6  2  0  0  0  0
  5  7  1  0  0  0  0
  7  8  1  0  0  0  0
  7  9  1  0  0  0  0
  9 10  1  0  0  0  0
  9 11  1  0  0  0  0
  9 19  1  0  0  0  0
 11 12  1  0  0  0  0
 11 13  1  0  0  0  0
 11 14  1  0  0  0  0
 14 15  2  0  0  0  0
 14 16  1  0  0  0  0
 16 17  1  0  0  0  0
 16 18  1  0  0  0  0
 19 20  2  0  0  0  0
 19 21  1  0  0  0  0
 21 22  1  0  0  0  0
 21 23  1  0  0  0  0
 23 24  1  0  0  0  0
 23 25  1  0  0  0  0
 23 26  1  0  0  0  0
M  END
$$$$

  -OEChem-04042215573D

 26 25  0     1  0  0  0  0  0999 V2000
   -2.7698   -4.0080    0.4632 H   0  0  0  0  0  0  0  0  0  0  0  0
   -2.7881   -3.0036    0.0311 C   0  0  0  0  0  0  0  0  0  0  0  0
   -3.6049   -2.4378    0.4854 H   0  0  0  0  0  0  0  0  0  0  0  0
   -2.9638   -3.0874   -1.0444 H   0  0  0  0  0  0  0  0  0  0  0  0
   -1.4666   -2.3023    0.2814 C   0  0  0  0  0  0  0  0  0  0  0  0
   -0.5857   -2.8604    0.9201 O   0  0  0  0  0  0  0  0  0  0  0  0
   -1.2741   -1.0124   -0.1727 N   0  0  0  0  0  0  0  0  0  0  0  0
   -2.0391   -0.5743   -0.6809 H   0  0  0  0  0  0  0  0  0  0  0  0
    0.0283   -0.3344   -0.1760 C   0  0  1  0  0  0  0  0  0  0  0  0
    0.7483   -0.8598    0.4604 H   0  0  0  0  0  0  0  0  0  0  0  0
    0.5565   -0.2817   -1.6226 C   0  0  0  0  0  0  0  0  0  0  0  0
   -0.2352    0.0558   -2.2979 H   0  0  0  0  0  0  0  0  0  0  0  0
    1.3713    0.4441   -1.6904 H   0  0  0  0  0  0  0  0  0  0  0  0
    1.0760   -1.6292   -2.1025 C   0  0  0  0  0  0  0  0  0  0  0  0
    0.3258   -2.5357   -2.4107 O   0  0  0  0  0  0  0  0  0  0  0  0
    2.4100   -1.9213   -2.1356 N   0  0  0  0  0  0  0  0  0  0  0  0
    2.6400   -2.9041   -2.2555 H   0  0  0  0  0  0  0  0  0  0  0  0
    3.0643   -1.2986   -1.6756 H   0  0  0  0  0  0  0  0  0  0  0  0
   -0.1108    1.1034    0.3609 C   0  0  0  0  0  0  0  0  0  0  0  0
   -0.9890    1.8381   -0.0742 O   0  0  0  0  0  0  0  0  0  0  0  0
    0.8001    1.5999    1.2758 N   0  0  0  0  0  0  0  0  0  0  0  0
    1.4546    0.9424    1.6899 H   0  0  0  0  0  0  0  0  0  0  0  0
    0.7123    2.9441    1.8343 C   0  0  0  0  0  0  0  0  0  0  0  0
   -0.2197    3.0654    2.3962 H   0  0  0  0  0  0  0  0  0  0  0  0
    1.5522    3.1283    2.5112 H   0  0  0  0  0  0  0  0  0  0  0  0
    0.7429    3.6941    1.0369 H   0  0  0  0  0  0  0  0  0  0  0  0
  1  2  1  0  0  0  0
  2  3  1  0  0  0  0
  2  4  1  0  0  0  0
  2  5  1  0  0  0  0
  5  6  2  0  0  0  0
  5  7  1  0  0  0  0
  7  8  1  0  0  0  0
  7  9  1  0  0  0  0
  9 10  1  0  0  0  0
  9 11  1  0  0  0  0
  9 19  1  0  0  0  0
 11 12  1  0  0  0  0
 11 13  1  0  0  0  0
 11 14  1  0  0  0  0
 14 15  2  0  0  0  0
 14 16  1  0  0  0  0
 16 17  1  0  0  0  0
 16 18  1  0  0  0  0
 19 20  2  0  0  0  0
 19 21  1  0  0  0  0
 21 22  1  0  0  0  0
 21 23  1  0  0  0  0
 23 24  1  0  0  0  0
 23 25  1  0  0  0  0
 23 26  1  0  0  0  0
M  END
$$$$

  -OEChem-04042215573D

 26 25  0     1  0  0  0  0  0999 V2000
   -2.7609   -3.9996    0.4523 H   0  0  0  0  0  0  0  0  0  0  0  0
   -2.7873   -2.9835    0.0490 C   0  0  0  0  0  0  0  0  0  0  0  0
   -3.5723   -2.4203    0.5594 H   0  0  0  0  0  0  0  0  0  0  0  0
   -3.0184   -3.0348   -1.0180 H   0  0  0  0  0  0  0  0  0  0  0  0
   -1.4457   -2.3059    0.2514 C   0  0  0  0  0  0  0  0  0  0  0  0
   -0.5428   -2.8890    0.8343 O   0  0  0  0  0  0  0  0  0  0  0  0
   -1.2510   -1.0145   -0.1959 N   0  0  0  0  0  0  0  0  0  0  0  0
   -2.0326   -0.5483   -0.6525 H   0  0  0  0  0  0  0  0  0  0  0  0
    0.0472   -0.3295   -0.1871 C   0  0  1  0  0  0  0  0  0  0  0  0
    0.7644   -0.8499    0.4565 H   0  0  0  0  0  0  0  0  0  0  0  0
    0.5770   -0.2874   -1.6311 C   0  0  0  0  0  0  0  0  0  0  0  0
   -0.2135    0.0404   -2.3129 H   0  0  0  0  0  0  0  0  0  0  0  0
    1.3931    0.4360   -1.7065 H   0  0  0  0  0  0  0  0  0  0  0  0
    1.0973   -1.6445   -2.0801 C   0  0  0  0  0  0  0  0  0  0  0  0
    0.3713   -2.4563   -2.6222 O   0  0  0  0  0  0  0  0  0  0  0  0
    2.3836   -2.0442   -1.8531 N   0  0  0  0  0  0  0  0  0  0  0  0
    2.5571   -3.0369   -1.9858 H   0  0  0  0  0  0  0  0  0  0  0  0
    2.9541   -1.5155   -1.2037 H   0  0  0  0  0  0  0  0  0  0  0  0
   -0.1052    1.1064    0.3522 C   0  0  0  0  0  0  0  0  0  0  0  0
   -0.9975    1.8282   -0.0755 O   0  0  0  0  0  0  0  0  0  0  0  0
    0.7930    1.6100    1.2758 N   0  0  0  0  0  0  0  0  0  0  0  0
    1.4567    0.9610    1.6883 H   0  0  0  0  0  0  0  0  0  0  0  0
    0.6828    2.9500    1.8409 C   0  0  0  0  0  0  0  0  0  0  0  0
   -0.2553    3.0564    2.3957 H   0  0  0  0  0  0  0  0  0  0  0  0
    1.5142    3.1417    2.5260 H   0  0  0  0  0  0  0  0  0  0  0  0
    0.7102    3.7047    1.0478 H   0  0  0  0  0  0  0  0  0  0  0  0
  1  2  1  0  0  0  0
  2  3  1  0  0  0  0
  2  4  1  0  0  0  0
  2  5  1  0  0  0  0
  5  6  2  0  0  0  0
  5  7  1  0  0  0  0
  7  8  1  0  0  0  0
  7  9  1  0  0  0  0
  9 10  1  0  0  0  0
  9 11  1  0  0  0  0
  9 19  1  0  0  0  0
 11 12  1  0  0  0  0
 11 13  1  0  0  0  0
 11 14  1  0  0  0  0
 14 15  2  0  0  0  0
 14 16  1  0  0  0  0
 16 17  1  0  0  0  0
 16 18  1  0  0  0  0
 19 20  2  0  0  0  0
 19 21  1  0  0  0  0
 21 22  1  0  0  0  0
 21 23  1  0  0  0  0
 23 24  1  0  0  0  0
 23 25  1  0  0  0  0
 23 26  1  0  0  0  0
M  END
$$$$

  -OEChem-04042215573D

 26 25  0     1  0  0  0  0  0999 V2000
   -2.7753   -3.9800    0.4712 H   0  0  0  0  0  0  0  0  0  0  0  0
   -2.8035   -2.9574    0.0849 C   0  0  0  0  0  0  0  0  0  0  0  0
   -3.5485   -2.3880    0.6456 H   0  0  0  0  0  0  0  0  0  0  0  0
   -3.0938   -2.9878   -0.9683 H   0  0  0  0  0  0  0  0  0  0  0  0
   -1.4398   -2.3084    0.2249 C   0  0  0  0  0  0  0  0  0  0  0  0
   -0.5186   -2.9165    0.7509 O   0  0  0  0  0  0  0  0  0  0  0  0
   -1.2383   -1.0179   -0.2212 N   0  0  0  0  0  0  0  0  0  0  0  0
   -2.0343   -0.5200   -0.6167 H   0  0  0  0  0  0  0  0  0  0  0  0
    0.0591   -0.3314   -0.1995 C   0  0  1  0  0  0  0  0  0  0  0  0
    0.7660   -0.8468    0.4589 H   0  0  0  0  0  0  0  0  0  0  0  0
    0.6073   -0.2978   -1.6356 C   0  0  0  0  0  0  0  0  0  0  0  0
   -0.1736    0.0284   -2.3296 H   0  0  0  0  0  0  0  0  0  0  0  0
    1.4275    0.4216   -1.7047 H   0  0  0  0  0  0  0  0  0  0  0  0
    1.1335   -1.6588   -2.0655 C   0  0  0  0  0  0  0  0  0  0  0  0
    0.5108   -2.3630   -2.8371 O   0  0  0  0  0  0  0  0  0  0  0  0
    2.3129   -2.1699   -1.6026 N   0  0  0  0  0  0  0  0  0  0  0  0
    2.4433   -3.1621   -1.7812 H   0  0  0  0  0  0  0  0  0  0  0  0
    2.7252   -1.7567   -0.7746 H   0  0  0  0  0  0  0  0  0  0  0  0
   -0.1033    1.1045    0.3359 C   0  0  0  0  0  0  0  0  0  0  0  0
   -1.0135    1.8113   -0.0787 O   0  0  0  0  0  0  0  0  0  0  0  0
    0.7826    1.6125    1.2687 N   0  0  0  0  0  0  0  0  0  0  0  0
    1.4699    0.9771    1.6632 H   0  0  0  0  0  0  0  0  0  0  0  0
    0.6514    2.9460    1.8440 C   0  0  0  0  0  0  0  0  0  0  0  0
   -0.2994    3.0403    2.3791 H   0  0  0  0  0  0  0  0  0  0  0  0
    1.4664    3.1357    2.5490 H   0  0  0  0  0  0  0  0  0  0  0  0
    0.6909    3.7084    1.0587 H   0  0  0  0  0  0  0  0  0  0  0  0
  1  2  1  0  0  0  0
  2  3  1  0  0  0  0
  2  4  1  0  0  0  0
  2  5  1  0  0  0  0
  5  6  2  0  0  0  0
  5  7  1  0  0  0  0
  7  8  1  0  0  0  0
  7  9  1  0  0  0  0
  9 10  1  0  0  0  0
  9 11  1  0  0  0  0
  9 19  1  0  0  0  0
 11 12  1  0  0  0  0
 11 13  1  0  0  0  0
 11 14  1  0  0  0  0
 14 15  2  0  0  0  0
 14 16  1  0  0  0  0
 16 17  1  0  0  0  0
 16 18  1  0  0  0  0
 19 20  2  0  0  0  0
 19 21  1  0  0  0  0
 21 22  1  0  0  0  0
 21 23  1  0  0  0  0
 23 24  1  0  0  0  0
 23 25  1  0  0  0  0
 23 26  1  0  0  0  0
M  END
$$$$

  -OEChem-04042215573D

 26 25  0     1  0  0  0  0  0999 V2000
   -2.7915   -3.9587    0.5014 H   0  0  0  0  0  0  0  0  0  0  0  0
   -2.8157   -2.9330    0.1231 C   0  0  0  0  0  0  0  0  0  0  0  0
   -3.5214   -2.3525    0.7220 H   0  0  0  0  0  0  0  0  0  0  0  0
   -3.1559   -2.9491   -0.9154 H   0  0  0  0  0  0  0  0  0  0  0  0
   -1.4337   -2.3132    0.2037 C   0  0  0  0  0  0  0  0  0  0  0  0
   -0.4990   -2.9451    0.6754 O   0  0  0  0  0  0  0  0  0  0  0  0
   -1.2263   -1.0239   -0.2419 N   0  0  0  0  0  0  0  0  0  0  0  0
   -2.0340   -0.4951   -0.5690 H   0  0  0  0  0  0  0  0  0  0  0  0
    0.0705   -0.3375   -0.2048 C   0  0  1  0  0  0  0  0  0  0  0  0
    0.7647   -0.8466    0.4709 H   0  0  0  0  0  0  0  0  0  0  0  0
    0.6446   -0.3061   -1.6306 C   0  0  0  0  0  0  0  0  0  0  0  0
   -0.1244    0.0240   -2.3360 H   0  0  0  0  0  0  0  0  0  0  0  0
    1.4669    0.4125   -1.6811 H   0  0  0  0  0  0  0  0  0  0  0  0
    1.1843   -1.6619   -2.0661 C   0  0  0  0  0  0  0  0  0  0  0  0
    0.7326   -2.2363   -3.0380 O   0  0  0  0  0  0  0  0  0  0  0  0
    2.1739   -2.3221   -1.3946 N   0  0  0  0  0  0  0  0  0  0  0  0
    2.2725   -3.2965   -1.6663 H   0  0  0  0  0  0  0  0  0  0  0  0
    2.3234   -2.0759   -0.4232 H   0  0  0  0  0  0  0  0  0  0  0  0
   -0.1041    1.0993    0.3261 C   0  0  0  0  0  0  0  0  0  0  0  0
   -1.0317    1.7885   -0.0792 O   0  0  0  0  0  0  0  0  0  0  0  0
    0.7651    1.6156    1.2700 N   0  0  0  0  0  0  0  0  0  0  0  0
    1.4866    1.0033    1.6386 H   0  0  0  0  0  0  0  0  0  0  0  0
    0.6187    2.9493    1.8414 C   0  0  0  0  0  0  0  0  0  0  0  0
   -0.3456    3.0444    2.3517 H   0  0  0  0  0  0  0  0  0  0  0  0
    1.4142    3.1392    2.5683 H   0  0  0  0  0  0  0  0  0  0  0  0
    0.6789    3.7111    1.0569 H   0  0  0  0  0  0  0  0  0  0  0  0
  1  2  1  0  0  0  0
  2  3  1  0  0  0  0
  2  4  1  0  0  0  0
  2  5  1  0  0  0  0
  5  6  2  0  0  0  0
  5  7  1  0  0  0  0
  7  8  1  0  0  0  0
  7  9  1  0  0  0  0
  9 10  1  0  0  0  0
  9 11  1  0  0  0  0
  9 19  1  0  0  0  0
 11 12  1  0  0  0  0
 11 13  1  0  0  0  0
 11 14  1  0  0  0  0
 14 15  2  0  0  0  0
 14 16  1  0  0  0  0
 16 17  1  0  0  0  0
 16 18  1  0  0  0  0
 19 20  2  0  0  0  0
 19 21  1  0  0  0  0
 21 22  1  0  0  0  0
 21 23  1  0  0  0  0
 23 24  1  0  0  0  0
 23 25  1  0  0  0  0
 23 26  1  0  0  0  0
M  END
$$$$

  -OEChem-04042215573D

 26 25  0     1  0  0  0  0  0999 V2000
   -2.7694   -3.9510    0.5404 H   0  0  0  0  0  0  0  0  0  0  0  0
   -2.7964   -2.9263    0.1591 C   0  0  0  0  0  0  0  0  0  0  0  0
   -3.4816   -2.3386    0.7750 H   0  0  0  0  0  0  0  0  0  0  0  0
   -3.1652   -2.9433   -0.8695 H   0  0  0  0  0  0  0  0  0  0  0  0
   -1.4084   -2.3160    0.2001 C   0  0  0  0  0  0  0  0  0  0  0  0
   -0.4625   -2.9543    0.6419 O   0  0  0  0  0  0  0  0  0  0  0  0
   -1.2010   -1.0290   -0.2514 N   0  0  0  0  0  0  0  0  0  0  0  0
   -2.0148   -0.4848   -0.5371 H   0  0  0  0  0  0  0  0  0  0  0  0
    0.0930   -0.3384   -0.1971 C   0  0  1  0  0  0  0  0  0  0  0  0
    0.7772   -0.8318    0.4997 H   0  0  0  0  0  0  0  0  0  0  0  0
    0.7045   -0.3007   -1.6080 C   0  0  0  0  0  0  0  0  0  0  0  0
   -0.0495    0.0342   -2.3271 H   0  0  0  0  0  0  0  0  0  0  0  0
    1.5229    0.4238   -1.6289 H   0  0  0  0  0  0  0  0  0  0  0  0
    1.2724   -1.6404   -2.0644 C   0  0  0  0  0  0  0  0  0  0  0  0
    1.0525   -2.0633   -3.1828 O   0  0  0  0  0  0  0  0  0  0  0  0
    1.8953   -2.5255   -1.2320 N   0  0  0  0  0  0  0  0  0  0  0  0
    2.0080   -3.4427   -1.6540 H   0  0  0  0  0  0  0  0  0  0  0  0
    1.5899   -2.5028   -0.2616 H   0  0  0  0  0  0  0  0  0  0  0  0
   -0.1039    1.0998    0.3225 C   0  0  0  0  0  0  0  0  0  0  0  0
   -1.0452    1.7692   -0.0849 O   0  0  0  0  0  0  0  0  0  0  0  0
    0.7436    1.6284    1.2791 N   0  0  0  0  0  0  0  0  0  0  0  0
    1.4928    1.0395    1.6312 H   0  0  0  0  0  0  0  0  0  0  0  0
    0.5855    2.9687    1.8316 C   0  0  0  0  0  0  0  0  0  0  0  0
   -0.3864    3.0679    2.3266 H   0  0  0  0  0  0  0  0  0  0  0  0
    1.3701    3.1693    2.5676 H   0  0  0  0  0  0  0  0  0  0  0  0
    0.6555    3.7208    1.0386 H   0  0  0  0  0  0  0  0  0  0  0  0
  1  2  1  0  0  0  0
  2  3  1  0  0  0  0
  2  4  1  0  0  0  0
  2  5  1  0  0  0  0
  5  6  2  0  0  0  0
  5  7  1  0  0  0  0
  7  8  1  0  0  0  0
  7  9  1  0  0  0  0
  9 10  1  0  0  0  0
  9 11  1  0  0  0  0
  9 19  1  0  0  0  0
 11 12  1  0  0  0  0
 11 13  1  0  0  0  0
 11 14  1  0  0  0  0
 14 15  2  0  0  0  0
 14 16  1  0  0  0  0
 16 17  1  0  0  0  0
 16 18  1  0  0  0  0
 19 20  2  0  0  0  0
 19 21  1  0  0  0  0
 21 22  1  0  0  0  0
 21 23  1  0  0  0  0
 23 24  1  0  0  0  0
 23 25  1  0  0  0  0
 23 26  1  0  0  0  0
M  END
$$$$

  -OEChem-04042215573D

 26 25  0     1  0  0  0  0  0999 V2000
   -2.8443   -3.9245    0.5631 H   0  0  0  0  0  0  0  0  0  0  0  0
   -2.8513   -2.8984    0.1851 C   0  0  0  0  0  0  0  0  0  0  0  0
   -3.5210   -2.2983    0.8062 H   0  0  0  0  0  0  0  0  0  0  0  0
   -3.2260   -2.9044   -0.8415 H   0  0  0  0  0  0  0  0  0  0  0  0
   -1.4507   -2.3172    0.2217 C   0  0  0  0  0  0  0  0  0  0  0  0
   -0.5185   -2.9724    0.6666 O   0  0  0  0  0  0  0  0  0  0  0  0
   -1.2173   -1.0381   -0.2384 N   0  0  0  0  0  0  0  0  0  0  0  0
   -2.0240   -0.4804   -0.5193 H   0  0  0  0  0  0  0  0  0  0  0  0
    0.0832   -0.3571   -0.1808 C   0  0  1  0  0  0  0  0  0  0  0  0
    0.7574   -0.8517    0.5258 H   0  0  0  0  0  0  0  0  0  0  0  0
    0.7141   -0.3306   -1.5847 C   0  0  0  0  0  0  0  0  0  0  0  0
   -0.0299    0.0062   -2.3131 H   0  0  0  0  0  0  0  0  0  0  0  0
    1.5357    0.3907   -1.5955 H   0  0  0  0  0  0  0  0  0  0  0  0
    1.2862   -1.6678   -2.0437 C   0  0  0  0  0  0  0  0  0  0  0  0
    1.3123   -1.9587   -3.2237 O   0  0  0  0  0  0  0  0  0  0  0  0
    1.7173   -2.6491   -1.1975 N   0  0  0  0  0  0  0  0  0  0  0  0
    1.8903   -3.5327   -1.6673 H   0  0  0  0  0  0  0  0  0  0  0  0
    1.2552   -2.6880   -0.2883 H   0  0  0  0  0  0  0  0  0  0  0  0
   -0.1078    1.0878    0.3224 C   0  0  0  0  0  0  0  0  0  0  0  0
   -1.0484    1.7548   -0.0909 O   0  0  0  0  0  0  0  0  0  0  0  0
    0.7354    1.6203    1.2806 N   0  0  0  0  0  0  0  0  0  0  0  0
    1.4879    1.0356    1.6329 H   0  0  0  0  0  0  0  0  0  0  0  0
    0.5809    2.9663    1.8200 C   0  0  0  0  0  0  0  0  0  0  0  0
   -0.3954    3.0761    2.3037 H   0  0  0  0  0  0  0  0  0  0  0  0
    1.3587    3.1686    2.5627 H   0  0  0  0  0  0  0  0  0  0  0  0
    0.6641    3.7107    1.0211 H   0  0  0  0  0  0  0  0  0  0  0  0
  1  2  1  0  0  0  0
  2  3  1  0  0  0  0
  2  4  1  0  0  0  0
  2  5  1  0  0  0  0
  5  6  2  0  0  0  0
  5  7  1  0  0  0  0
  7  8  1  0  0  0  0
  7  9  1  0  0  0  0
  9 10  1  0  0  0  0
  9 11  1  0  0  0  0
  9 19  1  0  0  0  0
 11 12  1  0  0  0  0
 11 13  1  0  0  0  0
 11 14  1  0  0  0  0
 14 15  2  0  0  0  0
 14 16  1  0  0  0  0
 16 17  1  0  0  0  0
 16 18  1  0  0  0  0
 19 20  2  0  0  0  0
 19 21  1  0  0  0  0
 21 22  1  0  0  0  0
 21 23  1  0  0  0  0
 23 24  1  0  0  0  0
 23 25  1  0  0  0  0
 23 26  1  0  0  0  0
M  END
$$$$

  -OEChem-04042215573D

 26 25  0     1  0  0  0  0  0999 V2000
   -2.9320   -3.8966    0.5745 H   0  0  0  0  0  0  0  0  0  0  0  0
   -2.9162   -2.8706    0.1963 C   0  0  0  0  0  0  0  0  0  0  0  0
   -3.5782   -2.2574    0.8128 H   0  0  0  0  0  0  0  0  0  0  0  0
   -3.2837   -2.8692   -0.8329 H   0  0  0  0  0  0  0  0  0  0  0  0
   -1.5046   -2.3176    0.2426 C   0  0  0  0  0  0  0  0  0  0  0  0
   -0.5903   -2.9915    0.6945 O   0  0  0  0  0  0  0  0  0  0  0  0
   -1.2424   -1.0462   -0.2224 N   0  0  0  0  0  0  0  0  0  0  0  0
   -2.0400   -0.4764   -0.5051 H   0  0  0  0  0  0  0  0  0  0  0  0
    0.0660   -0.3771   -0.1688 C   0  0  1  0  0  0  0  0  0  0  0  0
    0.7353   -0.8774    0.5390 H   0  0  0  0  0  0  0  0  0  0  0  0
    0.6990   -0.3583   -1.5731 C   0  0  0  0  0  0  0  0  0  0  0  0
   -0.0431   -0.0165   -2.3009 H   0  0  0  0  0  0  0  0  0  0  0  0
    1.5240    0.3594   -1.5819 H   0  0  0  0  0  0  0  0  0  0  0  0
    1.2668   -1.6927   -2.0446 C   0  0  0  0  0  0  0  0  0  0  0  0
    1.5388   -1.8641   -3.2169 O   0  0  0  0  0  0  0  0  0  0  0  0
    1.5542   -2.7444   -1.2225 N   0  0  0  0  0  0  0  0  0  0  0  0
    1.7825   -3.6033   -1.7134 H   0  0  0  0  0  0  0  0  0  0  0  0
    1.0179   -2.8151   -0.3558 H   0  0  0  0  0  0  0  0  0  0  0  0
   -0.1131    1.0729    0.3240 C   0  0  0  0  0  0  0  0  0  0  0  0
   -1.0511    1.7422   -0.0916 O   0  0  0  0  0  0  0  0  0  0  0  0
    0.7336    1.6049    1.2791 N   0  0  0  0  0  0  0  0  0  0  0  0
    1.4873    1.0195    1.6278 H   0  0  0  0  0  0  0  0  0  0  0  0
    0.5890    2.9551    1.8108 C   0  0  0  0  0  0  0  0  0  0  0  0
   -0.3858    3.0742    2.2955 H   0  0  0  0  0  0  0  0  0  0  0  0
    1.3695    3.1559    2.5511 H   0  0  0  0  0  0  0  0  0  0  0  0
    0.6759    3.6952    1.0082 H   0  0  0  0  0  0  0  0  0  0  0  0
  1  2  1  0  0  0  0
  2  3  1  0  0  0  0
  2  4  1  0  0  0  0
  2  5  1  0  0  0  0
  5  6  2  0  0  0  0
  5  7  1  0  0  0  0
  7  8  1  0  0  0  0
  7  9  1  0  0  0  0
  9 10  1  0  0  0  0
  9 11  1  0  0  0  0
  9 19  1  0  0  0  0
 11 12  1  0  0  0  0
 11 13  1  0  0  0  0
 11 14  1  0  0  0  0
 14 15  2  0  0  0  0
 14 16  1  0  0  0  0
 16 17  1  0  0  0  0
 16 18  1  0  0  0  0
 19 20  2  0  0  0  0
 19 21  1  0  0  0  0
 21 22  1  0  0  0  0
 21 23  1  0  0  0  0
 23 24  1  0  0  0  0
 23 25  1  0  0  0  0
 23 26  1  0  0  0  0
M  END
$$$$

  -OEChem-04042215573D

 26 25  0     1  0  0  0  0  0999 V2000
   -3.1016   -3.8422    0.6412 H   0  0  0  0  0  0  0  0  0  0  0  0
   -3.0498   -2.8239    0.2457 C   0  0  0  0  0  0  0  0  0  0  0  0
   -3.6873   -2.1775    0.8539 H   0  0  0  0  0  0  0  0  0  0  0  0
   -3.4210   -2.8264   -0.7822 H   0  0  0  0  0  0  0  0  0  0  0  0
   -1.6188   -2.3215    0.2787 C   0  0  0  0  0  0  0  0  0  0  0  0
   -0.7285   -3.0262    0.7285 O   0  0  0  0  0  0  0  0  0  0  0  0
   -1.3182   -1.0600   -0.1898 N   0  0  0  0  0  0  0  0  0  0  0  0
   -2.1058   -0.4701   -0.4597 H   0  0  0  0  0  0  0  0  0  0  0  0
    0.0045   -0.4111   -0.1674 C   0  0  1  0  0  0  0  0  0  0  0  0
    0.6716   -0.9379    0.5238 H   0  0  0  0  0  0  0  0  0  0  0  0
    0.6454   -0.3810   -1.5720 C   0  0  0  0  0  0  0  0  0  0  0  0
   -0.0000    0.2011   -2.2369 H   0  0  0  0  0  0  0  0  0  0  0  0
    1.6054    0.1386   -1.5063 H   0  0  0  0  0  0  0  0  0  0  0  0
    0.9042   -1.7208   -2.2528 C   0  0  0  0  0  0  0  0  0  0  0  0
    1.4047   -1.7446   -3.3605 O   0  0  0  0  0  0  0  0  0  0  0  0
    0.9278   -2.9225   -1.6066 N   0  0  0  0  0  0  0  0  0  0  0  0
    1.1126   -3.7421   -2.1759 H   0  0  0  0  0  0  0  0  0  0  0  0
    0.4662   -3.0191   -0.7012 H   0  0  0  0  0  0  0  0  0  0  0  0
   -0.1373    1.0432    0.3245 C   0  0  0  0  0  0  0  0  0  0  0  0
   -1.0764    1.7258   -0.0669 O   0  0  0  0  0  0  0  0  0  0  0  0
    0.7407    1.5620    1.2582 N   0  0  0  0  0  0  0  0  0  0  0  0
    1.4924    0.9639    1.5896 H   0  0  0  0  0  0  0  0  0  0  0  0
    0.6389    2.9189    1.7823 C   0  0  0  0  0  0  0  0  0  0  0  0
   -0.3180    3.0607    2.2956 H   0  0  0  0  0  0  0  0  0  0  0  0
    1.4458    3.1104    2.4962 H   0  0  0  0  0  0  0  0  0  0  0  0
    0.7155    3.6501    0.9705 H   0  0  0  0  0  0  0  0  0  0  0  0
  1  2  1  0  0  0  0
  2  3  1  0  0  0  0
  2  4  1  0  0  0  0
  2  5  1  0  0  0  0
  5  6  2  0  0  0  0
  5  7  1  0  0  0  0
  7  8  1  0  0  0  0
  7  9  1  0  0  0  0
  9 10  1  0  0  0  0
  9 11  1  0  0  0  0
  9 19  1  0  0  0  0
 11 12  1  0  0  0  0
 11 13  1  0  0  0  0
 11 14  1  0  0  0  0
 14 15  2  0  0  0  0
 14 16  1  0  0  0  0
 16 17  1  0  0  0  0
 16 18  1  0  0  0  0
 19 20  2  0  0  0  0
 19 21  1  0  0  0  0
 21 22  1  0  0  0  0
 21 23  1  0  0  0  0
 23 24  1  0  0  0  0
 23 25  1  0  0  0  0
 23 26  1  0  0  0  0
M  END
$$$$

  -OEChem-04042215573D

 26 25  0     1  0  0  0  0  0999 V2000
   -3.1358   -3.8232    0.6740 H   0  0  0  0  0  0  0  0  0  0  0  0
   -3.0823   -2.8074    0.2722 C   0  0  0  0  0  0  0  0  0  0  0  0
   -3.7081   -2.1530    0.8841 H   0  0  0  0  0  0  0  0  0  0  0  0
   -3.4660   -2.8131   -0.7511 H   0  0  0  0  0  0  0  0  0  0  0  0
   -1.6480   -2.3140    0.2854 C   0  0  0  0  0  0  0  0  0  0  0  0
   -0.7529   -3.0267    0.7144 O   0  0  0  0  0  0  0  0  0  0  0  0
   -1.3441   -1.0540   -0.1848 N   0  0  0  0  0  0  0  0  0  0  0  0
   -2.1296   -0.4575   -0.4457 H   0  0  0  0  0  0  0  0  0  0  0  0
   -0.0152   -0.4180   -0.1766 C   0  0  1  0  0  0  0  0  0  0  0  0
    0.6506   -0.9526    0.5096 H   0  0  0  0  0  0  0  0  0  0  0  0
    0.6332   -0.3778   -1.5798 C   0  0  0  0  0  0  0  0  0  0  0  0
   -0.0096    0.2154   -2.2370 H   0  0  0  0  0  0  0  0  0  0  0  0
    1.5915    0.1440   -1.5017 H   0  0  0  0  0  0  0  0  0  0  0  0
    0.8990   -1.6987   -2.2985 C   0  0  0  0  0  0  0  0  0  0  0  0
    1.6418   -1.7153   -3.2607 O   0  0  0  0  0  0  0  0  0  0  0  0
    0.5346   -2.9368   -1.8580 N   0  0  0  0  0  0  0  0  0  0  0  0
    1.0226   -3.7133   -2.2934 H   0  0  0  0  0  0  0  0  0  0  0  0
    0.2048   -3.0302   -0.8970 H   0  0  0  0  0  0  0  0  0  0  0  0
   -0.1435    1.0357    0.3214 C   0  0  0  0  0  0  0  0  0  0  0  0
   -1.0820    1.7259   -0.0583 O   0  0  0  0  0  0  0  0  0  0  0  0
    0.7478    1.5456    1.2474 N   0  0  0  0  0  0  0  0  0  0  0  0
    1.4971    0.9403    1.5710 H   0  0  0  0  0  0  0  0  0  0  0  0
    0.6572    2.8995    1.7813 C   0  0  0  0  0  0  0  0  0  0  0  0
   -0.2967    3.0452    2.2991 H   0  0  0  0  0  0  0  0  0  0  0  0
    1.4678    3.0801    2.4938 H   0  0  0  0  0  0  0  0  0  0  0  0
    0.7360    3.6358    0.9744 H   0  0  0  0  0  0  0  0  0  0  0  0
  1  2  1  0  0  0  0
  2  3  1  0  0  0  0
  2  4  1  0  0  0  0
  2  5  1  0  0  0  0
  5  6  2  0  0  0  0
  5  7  1  0  0  0  0
  7  8  1  0  0  0  0
  7  9  1  0  0  0  0
  9 10  1  0  0  0  0
  9 11  1  0  0  0  0
  9 19  1  0  0  0  0
 11 12  1  0  0  0  0
 11 13  1  0  0  0  0
 11 14  1  0  0  0  0
 14 15  2  0  0  0  0
 14 16  1  0  0  0  0
 16 17  1  0  0  0  0
 16 18  1  0  0  0  0
 19 20  2  0  0  0  0
 19 21  1  0  0  0  0
 21 22  1  0  0  0  0
 21 23  1  0  0  0  0
 23 24  1  0  0  0  0
 23 25  1  0  0  0  0
 23 26  1  0  0  0  0
M  END
$$$$

  -OEChem-04042215573D

 26 25  0     1  0  0  0  0  0999 V2000
   -3.1507   -3.8021    0.7108 H   0  0  0  0  0  0  0  0  0  0  0  0
   -3.0962   -2.7872    0.3068 C   0  0  0  0  0  0  0  0  0  0  0  0
   -3.6831   -2.1224    0.9454 H   0  0  0  0  0  0  0  0  0  0  0  0
   -3.5237   -2.7849   -0.6990 H   0  0  0  0  0  0  0  0  0  0  0  0
   -1.6540   -2.3198    0.2580 C   0  0  0  0  0  0  0  0  0  0  0  0
   -0.7504   -3.0664    0.5991 O   0  0  0  0  0  0  0  0  0  0  0  0
   -1.3498   -1.0565   -0.2013 N   0  0  0  0  0  0  0  0  0  0  0  0
   -2.1389   -0.4417   -0.4031 H   0  0  0  0  0  0  0  0  0  0  0  0
   -0.0203   -0.4199   -0.1958 C   0  0  1  0  0  0  0  0  0  0  0  0
    0.6442   -0.9602    0.4872 H   0  0  0  0  0  0  0  0  0  0  0  0
    0.6404   -0.3679   -1.5936 C   0  0  0  0  0  0  0  0  0  0  0  0
   -0.0010    0.2266   -2.2508 H   0  0  0  0  0  0  0  0  0  0  0  0
    1.5935    0.1617   -1.5029 H   0  0  0  0  0  0  0  0  0  0  0  0
    0.9213   -1.6787   -2.3265 C   0  0  0  0  0  0  0  0  0  0  0  0
    1.8626   -1.7458   -3.0934 O   0  0  0  0  0  0  0  0  0  0  0  0
    0.3147   -2.8769   -2.0968 N   0  0  0  0  0  0  0  0  0  0  0  0
    0.8083   -3.6688   -2.4971 H   0  0  0  0  0  0  0  0  0  0  0  0
   -0.1213   -2.9960   -1.1837 H   0  0  0  0  0  0  0  0  0  0  0  0
   -0.1505    1.0285    0.3166 C   0  0  0  0  0  0  0  0  0  0  0  0
   -1.0984    1.7157   -0.0447 O   0  0  0  0  0  0  0  0  0  0  0  0
    0.7442    1.5324    1.2424 N   0  0  0  0  0  0  0  0  0  0  0  0
    1.5091    0.9335    1.5405 H   0  0  0  0  0  0  0  0  0  0  0  0
    0.6549    2.8820    1.7873 C   0  0  0  0  0  0  0  0  0  0  0  0
   -0.2996    3.0253    2.3047 H   0  0  0  0  0  0  0  0  0  0  0  0
    1.4644    3.0553    2.5029 H   0  0  0  0  0  0  0  0  0  0  0  0
    0.7366    3.6243    0.9864 H   0  0  0  0  0  0  0  0  0  0  0  0
  1  2  1  0  0  0  0
  2  3  1  0  0  0  0
  2  4  1  0  0  0  0
  2  5  1  0  0  0  0
  5  6  2  0  0  0  0
  5  7  1  0  0  0  0
  7  8  1  0  0  0  0
  7  9  1  0  0  0  0
  9 10  1  0  0  0  0
  9 11  1  0  0  0  0
  9 19  1  0  0  0  0
 11 12  1  0  0  0  0
 11 13  1  0  0  0  0
 11 14  1  0  0  0  0
 14 15  2  0  0  0  0
 14 16  1  0  0  0  0
 16 17  1  0  0  0  0
 16 18  1  0  0  0  0
 19 20  2  0  0  0  0
 19 21  1  0  0  0  0
 21 22  1  0  0  0  0
 21 23  1  0  0  0  0
 23 24  1  0  0  0  0
 23 25  1  0  0  0  0
 23 26  1  0  0  0  0
M  END
$$$$

  -OEChem-04042215573D

 26 25  0     1  0  0  0  0  0999 V2000
   -3.1059   -3.7942    0.7569 H   0  0  0  0  0  0  0  0  0  0  0  0
   -3.0649   -2.7746    0.3633 C   0  0  0  0  0  0  0  0  0  0  0  0
   -3.5870   -2.1100    1.0561 H   0  0  0  0  0  0  0  0  0  0  0  0
   -3.5713   -2.7491   -0.6048 H   0  0  0  0  0  0  0  0  0  0  0  0
   -1.6228   -2.3314    0.2069 C   0  0  0  0  0  0  0  0  0  0  0  0
   -0.7106   -3.1079    0.4318 O   0  0  0  0  0  0  0  0  0  0  0  0
   -1.3334   -1.0620   -0.2444 N   0  0  0  0  0  0  0  0  0  0  0  0
   -2.1271   -0.4303   -0.3606 H   0  0  0  0  0  0  0  0  0  0  0  0
   -0.0071   -0.4184   -0.2228 C   0  0  1  0  0  0  0  0  0  0  0  0
    0.6444   -0.9586    0.4733 H   0  0  0  0  0  0  0  0  0  0  0  0
    0.6910   -0.3692   -1.6006 C   0  0  0  0  0  0  0  0  0  0  0  0
    0.0664    0.2144   -2.2830 H   0  0  0  0  0  0  0  0  0  0  0  0
    1.6400    0.1645   -1.4909 H   0  0  0  0  0  0  0  0  0  0  0  0
    0.9872   -1.6974   -2.2914 C   0  0  0  0  0  0  0  0  0  0  0  0
    2.0739   -1.8849   -2.8042 O   0  0  0  0  0  0  0  0  0  0  0  0
    0.1105   -2.7320   -2.4198 N   0  0  0  0  0  0  0  0  0  0  0  0
    0.5460   -3.5872   -2.7513 H   0  0  0  0  0  0  0  0  0  0  0  0
   -0.5755   -2.8095   -1.6760 H   0  0  0  0  0  0  0  0  0  0  0  0
   -0.1502    1.0256    0.2972 C   0  0  0  0  0  0  0  0  0  0  0  0
   -1.1136    1.6985   -0.0498 O   0  0  0  0  0  0  0  0  0  0  0  0
    0.7324    1.5301    1.2341 N   0  0  0  0  0  0  0  0  0  0  0  0
    1.5112    0.9427    1.5196 H   0  0  0  0  0  0  0  0  0  0  0  0
    0.6162    2.8684    1.8009 C   0  0  0  0  0  0  0  0  0  0  0  0
   -0.3432    2.9853    2.3158 H   0  0  0  0  0  0  0  0  0  0  0  0
    1.4189    3.0445    2.5234 H   0  0  0  0  0  0  0  0  0  0  0  0
    0.6877    3.6257    1.0131 H   0  0  0  0  0  0  0  0  0  0  0  0
  1  2  1  0  0  0  0
  2  3  1  0  0  0  0
  2  4  1  0  0  0  0
  2  5  1  0  0  0  0
  5  6  2  0  0  0  0
  5  7  1  0  0  0  0
  7  8  1  0  0  0  0
  7  9  1  0  0  0  0
  9 10  1  0  0  0  0
  9 11  1  0  0  0  0
  9 19  1  0  0  0  0
 11 12  1  0  0  0  0
 11 13  1  0  0  0  0
 11 14  1  0  0  0  0
 14 15  2  0  0  0  0
 14 16  1  0  0  0  0
 16 17  1  0  0  0  0
 16 18  1  0  0  0  0
 19 20  2  0  0  0  0
 19 21  1  0  0  0  0
 21 22  1  0  0  0  0
 21 23  1  0  0  0  0
 23 24  1  0  0  0  0
 23 25  1  0  0  0  0
 23 26  1  0  0  0  0
M  END
$$$$

  -OEChem-04042215573D

 26 25  0     1  0  0  0  0  0999 V2000
   -3.0171   -3.8485    0.7093 H   0  0  0  0  0  0  0  0  0  0  0  0
   -2.9964   -2.8263    0.3208 C   0  0  0  0  0  0  0  0  0  0  0  0
   -3.5513   -2.1795    1.0048 H   0  0  0  0  0  0  0  0  0  0  0  0
   -3.4827   -2.8111   -0.6576 H   0  0  0  0  0  0  0  0  0  0  0  0
   -1.5639   -2.3422    0.1980 C   0  0  0  0  0  0  0  0  0  0  0  0
   -0.6395   -3.0840    0.4818 O   0  0  0  0  0  0  0  0  0  0  0  0
   -1.3052   -1.0651   -0.2563 N   0  0  0  0  0  0  0  0  0  0  0  0
   -2.1092   -0.4465   -0.3692 H   0  0  0  0  0  0  0  0  0  0  0  0
    0.0137   -0.4090   -0.2182 C   0  0  1  0  0  0  0  0  0  0  0  0
    0.6689   -0.9418    0.4806 H   0  0  0  0  0  0  0  0  0  0  0  0
    0.7007   -0.3743   -1.5973 C   0  0  0  0  0  0  0  0  0  0  0  0
    0.0787    0.1945   -2.2941 H   0  0  0  0  0  0  0  0  0  0  0  0
    1.6571    0.1500   -1.5088 H   0  0  0  0  0  0  0  0  0  0  0  0
    0.9635   -1.7430   -2.2099 C   0  0  0  0  0  0  0  0  0  0  0  0
    2.0975   -2.0948   -2.4727 O   0  0  0  0  0  0  0  0  0  0  0  0
   -0.0311   -2.5497   -2.6815 N   0  0  0  0  0  0  0  0  0  0  0  0
    0.2691   -3.4901   -2.9208 H   0  0  0  0  0  0  0  0  0  0  0  0
   -0.9538   -2.4107   -2.2877 H   0  0  0  0  0  0  0  0  0  0  0  0
   -0.1373    1.0346    0.2985 C   0  0  0  0  0  0  0  0  0  0  0  0
   -1.0934    1.7079   -0.0679 O   0  0  0  0  0  0  0  0  0  0  0  0
    0.7348    1.5420    1.2435 N   0  0  0  0  0  0  0  0  0  0  0  0
    1.5041    0.9507    1.5465 H   0  0  0  0  0  0  0  0  0  0  0  0
    0.6132    2.8816    1.8062 C   0  0  0  0  0  0  0  0  0  0  0  0
   -0.3489    2.9973    2.3165 H   0  0  0  0  0  0  0  0  0  0  0  0
    1.4124    3.0611    2.5317 H   0  0  0  0  0  0  0  0  0  0  0  0
    0.6871    3.6372    1.0169 H   0  0  0  0  0  0  0  0  0  0  0  0
  1  2  1  0  0  0  0
  2  3  1  0  0  0  0
  2  4  1  0  0  0  0
  2  5  1  0  0  0  0
  5  6  2  0  0  0  0
  5  7  1  0  0  0  0
  7  8  1  0  0  0  0
  7  9  1  0  0  0  0
  9 10  1  0  0  0  0
  9 11  1  0  0  0  0
  9 19  1  0  0  0  0
 11 12  1  0  0  0  0
 11 13  1  0  0  0  0
 11 14  1  0  0  0  0
 14 15  2  0  0  0  0
 14 16  1  0  0  0  0
 16 17  1  0  0  0  0
 16 18  1  0  0  0  0
 19 20  2  0  0  0  0
 19 21  1  0  0  0  0
 21 22  1  0  0  0  0
 21 23  1  0  0  0  0
 23 24  1  0  0  0  0
 23 25  1  0  0  0  0
 23 26  1  0  0  0  0
M  END
$$$$

  -OEChem-04042215573D

 26 25  0     1  0  0  0  0  0999 V2000
   -2.9798   -3.8749    0.6476 H   0  0  0  0  0  0  0  0  0  0  0  0
   -2.9687   -2.8525    0.2586 C   0  0  0  0  0  0  0  0  0  0  0  0
   -3.5493   -2.2150    0.9299 H   0  0  0  0  0  0  0  0  0  0  0  0
   -3.4333   -2.8468   -0.7303 H   0  0  0  0  0  0  0  0  0  0  0  0
   -1.5422   -2.3443    0.1661 C   0  0  0  0  0  0  0  0  0  0  0  0
   -0.6137   -3.0720    0.4724 O   0  0  0  0  0  0  0  0  0  0  0  0
   -1.2964   -1.0589   -0.2729 N   0  0  0  0  0  0  0  0  0  0  0  0
   -2.1064   -0.4496   -0.3887 H   0  0  0  0  0  0  0  0  0  0  0  0
    0.0168   -0.3929   -0.2304 C   0  0  1  0  0  0  0  0  0  0  0  0
    0.6819   -0.9305    0.4553 H   0  0  0  0  0  0  0  0  0  0  0  0
    0.6805   -0.3501   -1.6182 C   0  0  0  0  0  0  0  0  0  0  0  0
    0.0502    0.2191   -2.3074 H   0  0  0  0  0  0  0  0  0  0  0  0
    1.6405    0.1698   -1.5463 H   0  0  0  0  0  0  0  0  0  0  0  0
    0.9267   -1.7282   -2.2129 C   0  0  0  0  0  0  0  0  0  0  0  0
    2.0459   -2.2028   -2.2414 O   0  0  0  0  0  0  0  0  0  0  0  0
   -0.0496   -2.4421   -2.8465 N   0  0  0  0  0  0  0  0  0  0  0  0
    0.1874   -3.4126   -3.0314 H   0  0  0  0  0  0  0  0  0  0  0  0
   -1.0109   -2.1914   -2.6486 H   0  0  0  0  0  0  0  0  0  0  0  0
   -0.1350    1.0433    0.3037 C   0  0  0  0  0  0  0  0  0  0  0  0
   -1.0862    1.7236   -0.0623 O   0  0  0  0  0  0  0  0  0  0  0  0
    0.7406    1.5412    1.2503 N   0  0  0  0  0  0  0  0  0  0  0  0
    1.5079    0.9443    1.5478 H   0  0  0  0  0  0  0  0  0  0  0  0
    0.6299    2.8798    1.8173 C   0  0  0  0  0  0  0  0  0  0  0  0
   -0.3306    3.0022    2.3289 H   0  0  0  0  0  0  0  0  0  0  0  0
    1.4313    3.0506    2.5426 H   0  0  0  0  0  0  0  0  0  0  0  0
    0.7091    3.6369    1.0300 H   0  0  0  0  0  0  0  0  0  0  0  0
  1  2  1  0  0  0  0
  2  3  1  0  0  0  0
  2  4  1  0  0  0  0
  2  5  1  0  0  0  0
  5  6  2  0  0  0  0
  5  7  1  0  0  0  0
  7  8  1  0  0  0  0
  7  9  1  0  0  0  0
  9 10  1  0  0  0  0
  9 11  1  0  0  0  0
  9 19  1  0  0  0  0
 11 12  1  0  0  0  0
 11 13  1  0  0  0  0
 11 14  1  0  0  0  0
 14 15  2  0  0  0  0
 14 16  1  0  0  0  0
 16 17  1  0  0  0  0
 16 18  1  0  0  0  0
 19 20  2  0  0  0  0
 19 21  1  0  0  0  0
 21 22  1  0  0  0  0
 21 23  1  0  0  0  0
 23 24  1  0  0  0  0
 23 25  1  0  0  0  0
 23 26  1  0  0  0  0
M  END
$$$$

  -OEChem-04042215573D

 26 25  0     1  0  0  0  0  0999 V2000
   -2.9547   -3.8915    0.5861 H   0  0  0  0  0  0  0  0  0  0  0  0
   -2.9454   -2.8667    0.2036 C   0  0  0  0  0  0  0  0  0  0  0  0
   -3.5466   -2.2389    0.8659 H   0  0  0  0  0  0  0  0  0  0  0  0
   -3.3883   -2.8598   -0.7952 H   0  0  0  0  0  0  0  0  0  0  0  0
   -1.5222   -2.3444    0.1445 C   0  0  0  0  0  0  0  0  0  0  0  0
   -0.5966   -3.0603    0.4842 O   0  0  0  0  0  0  0  0  0  0  0  0
   -1.2813   -1.0549   -0.2848 N   0  0  0  0  0  0  0  0  0  0  0  0
   -2.0951   -0.4552   -0.4189 H   0  0  0  0  0  0  0  0  0  0  0  0
    0.0270   -0.3800   -0.2401 C   0  0  1  0  0  0  0  0  0  0  0  0
    0.7002   -0.9202    0.4361 H   0  0  0  0  0  0  0  0  0  0  0  0
    0.6728   -0.3303   -1.6350 C   0  0  0  0  0  0  0  0  0  0  0  0
    0.0336    0.2374   -2.3168 H   0  0  0  0  0  0  0  0  0  0  0  0
    1.6335    0.1894   -1.5758 H   0  0  0  0  0  0  0  0  0  0  0  0
    0.9128   -1.7109   -2.2227 C   0  0  0  0  0  0  0  0  0  0  0  0
    1.9588   -2.2986   -2.0266 O   0  0  0  0  0  0  0  0  0  0  0  0
   -0.0053   -2.3429   -3.0121 N   0  0  0  0  0  0  0  0  0  0  0  0
    0.1715   -3.3317   -3.1649 H   0  0  0  0  0  0  0  0  0  0  0  0
   -0.9582   -1.9981   -2.9981 H   0  0  0  0  0  0  0  0  0  0  0  0
   -0.1267    1.0521    0.3031 C   0  0  0  0  0  0  0  0  0  0  0  0
   -1.0739    1.7371   -0.0652 O   0  0  0  0  0  0  0  0  0  0  0  0
    0.7510    1.5460    1.2498 N   0  0  0  0  0  0  0  0  0  0  0  0
    1.5088    0.9409    1.5550 H   0  0  0  0  0  0  0  0  0  0  0  0
    0.6369    2.8787    1.8293 C   0  0  0  0  0  0  0  0  0  0  0  0
   -0.3246    2.9943    2.3405 H   0  0  0  0  0  0  0  0  0  0  0  0
    1.4369    3.0439    2.5575 H   0  0  0  0  0  0  0  0  0  0  0  0
    0.7162    3.6432    1.0493 H   0  0  0  0  0  0  0  0  0  0  0  0
  1  2  1  0  0  0  0
  2  3  1  0  0  0  0
  2  4  1  0  0  0  0
  2  5  1  0  0  0  0
  5  6  2  0  0  0  0
  5  7  1  0  0  0  0
  7  8  1  0  0  0  0
  7  9  1  0  0  0  0
  9 10  1  0  0  0  0
  9 11  1  0  0  0  0
  9 19  1  0  0  0  0
 11 12  1  0  0  0  0
 11 13  1  0  0  0  0
 11 14  1  0  0  0  0
 14 15  2  0  0  0  0
 14 16  1  0  0  0  0
 16 17  1  0  0  0  0
 16 18  1  0  0  0  0
 19 20  2  0  0  0  0
 19 21  1  0  0  0  0
 21 22  1  0  0  0  0
 21 23  1  0  0  0  0
 23 24  1  0  0  0  0
 23 25  1  0  0  0  0
 23 26  1  0  0  0  0
M  END
$$$$

  -OEChem-04042215573D

 26 25  0     1  0  0  0  0  0999 V2000
   -2.9398   -3.9075    0.5401 H   0  0  0  0  0  0  0  0  0  0  0  0
   -2.9246   -2.8816    0.1610 C   0  0  0  0  0  0  0  0  0  0  0  0
   -3.5553   -2.2605    0.8016 H   0  0  0  0  0  0  0  0  0  0  0  0
   -3.3294   -2.8758   -0.8537 H   0  0  0  0  0  0  0  0  0  0  0  0
   -1.5046   -2.3473    0.1573 C   0  0  0  0  0  0  0  0  0  0  0  0
   -0.5931   -3.0434    0.5681 O   0  0  0  0  0  0  0  0  0  0  0  0
   -1.2598   -1.0594   -0.2748 N   0  0  0  0  0  0  0  0  0  0  0  0
   -2.0719   -0.4724   -0.4618 H   0  0  0  0  0  0  0  0  0  0  0  0
    0.0465   -0.3816   -0.2291 C   0  0  1  0  0  0  0  0  0  0  0  0
    0.7262   -0.9215    0.4408 H   0  0  0  0  0  0  0  0  0  0  0  0
    0.6752   -0.3241   -1.6322 C   0  0  0  0  0  0  0  0  0  0  0  0
    0.0284    0.2502   -2.3012 H   0  0  0  0  0  0  0  0  0  0  0  0
    1.6373    0.1936   -1.5811 H   0  0  0  0  0  0  0  0  0  0  0  0
    0.9104   -1.7001   -2.2318 C   0  0  0  0  0  0  0  0  0  0  0  0
    1.8240   -2.4040   -1.8487 O   0  0  0  0  0  0  0  0  0  0  0  0
    0.0981   -2.2266   -3.1956 N   0  0  0  0  0  0  0  0  0  0  0  0
    0.2142   -3.2219   -3.3635 H   0  0  0  0  0  0  0  0  0  0  0  0
   -0.7974   -1.7837   -3.3667 H   0  0  0  0  0  0  0  0  0  0  0  0
   -0.1138    1.0516    0.3090 C   0  0  0  0  0  0  0  0  0  0  0  0
   -1.0503    1.7399   -0.0807 O   0  0  0  0  0  0  0  0  0  0  0  0
    0.7586    1.5523    1.2569 N   0  0  0  0  0  0  0  0  0  0  0  0
    1.5024    0.9419    1.5853 H   0  0  0  0  0  0  0  0  0  0  0  0
    0.6374    2.8874    1.8294 C   0  0  0  0  0  0  0  0  0  0  0  0
   -0.3324    3.0060    2.3241 H   0  0  0  0  0  0  0  0  0  0  0  0
    1.4254    3.0545    2.5700 H   0  0  0  0  0  0  0  0  0  0  0  0
    0.7303    3.6490    1.0480 H   0  0  0  0  0  0  0  0  0  0  0  0
  1  2  1  0  0  0  0
  2  3  1  0  0  0  0
  2  4  1  0  0  0  0
  2  5  1  0  0  0  0
  5  6  2  0  0  0  0
  5  7  1  0  0  0  0
  7  8  1  0  0  0  0
  7  9  1  0  0  0  0
  9 10  1  0  0  0  0
  9 11  1  0  0  0  0
  9 19  1  0  0  0  0
 11 12  1  0  0  0  0
 11 13  1  0  0  0  0
 11 14  1  0  0  0  0
 14 15  2  0  0  0  0
 14 16  1  0  0  0  0
 16 17  1  0  0  0  0
 16 18  1  0  0  0  0
 19 20  2  0  0  0  0
 19 21  1  0  0  0  0
 21 22  1  0  0  0  0
 21 23  1  0  0  0  0
 23 24  1  0  0  0  0
 23 25  1  0  0  0  0
 23 26  1  0  0  0  0
M  END
$$$$

  -OEChem-04042215573D

 26 25  0     1  0  0  0  0  0999 V2000
   -2.9270   -3.9325    0.4910 H   0  0  0  0  0  0  0  0  0  0  0  0
   -2.9083   -2.9041    0.1190 C   0  0  0  0  0  0  0  0  0  0  0  0
   -3.5872   -2.2980    0.7238 H   0  0  0  0  0  0  0  0  0  0  0  0
   -3.2514   -2.8994   -0.9182 H   0  0  0  0  0  0  0  0  0  0  0  0
   -1.5005   -2.3445    0.2021 C   0  0  0  0  0  0  0  0  0  0  0  0
   -0.6147   -3.0068    0.7132 O   0  0  0  0  0  0  0  0  0  0  0  0
   -1.2494   -1.0624   -0.2442 N   0  0  0  0  0  0  0  0  0  0  0  0
   -2.0542   -0.4976   -0.5108 H   0  0  0  0  0  0  0  0  0  0  0  0
    0.0564   -0.3841   -0.2038 C   0  0  1  0  0  0  0  0  0  0  0  0
    0.7395   -0.9188    0.4667 H   0  0  0  0  0  0  0  0  0  0  0  0
    0.6718   -0.3315   -1.6148 C   0  0  0  0  0  0  0  0  0  0  0  0
    0.0162    0.2433   -2.2748 H   0  0  0  0  0  0  0  0  0  0  0  0
    1.6335    0.1873   -1.5743 H   0  0  0  0  0  0  0  0  0  0  0  0
    0.9058   -1.7037   -2.2251 C   0  0  0  0  0  0  0  0  0  0  0  0
    1.6355   -2.5197   -1.6988 O   0  0  0  0  0  0  0  0  0  0  0  0
    0.2748   -2.1085   -3.3670 N   0  0  0  0  0  0  0  0  0  0  0  0
    0.3436   -3.0997   -3.5796 H   0  0  0  0  0  0  0  0  0  0  0  0
   -0.5037   -1.5621   -3.7181 H   0  0  0  0  0  0  0  0  0  0  0  0
   -0.1023    1.0559    0.3165 C   0  0  0  0  0  0  0  0  0  0  0  0
   -1.0230    1.7508   -0.0988 O   0  0  0  0  0  0  0  0  0  0  0  0
    0.7706    1.5644    1.2597 N   0  0  0  0  0  0  0  0  0  0  0  0
    1.4915    0.9437    1.6190 H   0  0  0  0  0  0  0  0  0  0  0  0
    0.6481    2.9028    1.8241 C   0  0  0  0  0  0  0  0  0  0  0  0
   -0.3105    3.0143    2.3414 H   0  0  0  0  0  0  0  0  0  0  0  0
    1.4525    3.0846    2.5433 H   0  0  0  0  0  0  0  0  0  0  0  0
    0.7134    3.6592    1.0349 H   0  0  0  0  0  0  0  0  0  0  0  0
  1  2  1  0  0  0  0
  2  3  1  0  0  0  0
  2  4  1  0  0  0  0
  2  5  1  0  0  0  0
  5  6  2  0  0  0  0
  5  7  1  0  0  0  0
  7  8  1  0  0  0  0
  7  9  1  0  0  0  0
  9 10  1  0  0  0  0
  9 11  1  0  0  0  0
  9 19  1  0  0  0  0
 11 12  1  0  0  0  0
 11 13  1  0  0  0  0
 11 14  1  0  0  0  0
 14 15  2  0  0  0  0
 14 16  1  0  0  0  0
 16 17  1  0  0  0  0
 16 18  1  0  0  0  0
 19 20  2  0  0  0  0
 19 21  1  0  0  0  0
 21 22  1  0  0  0  0
 21 23  1  0  0  0  0
 23 24  1  0  0  0  0
 23 25  1  0  0  0  0
 23 26  1  0  0  0  0
M  END
$$$$

  -OEChem-04042215573D

 26 25  0     1  0  0  0  0  0999 V2000
   -2.9160   -3.9581    0.4782 H   0  0  0  0  0  0  0  0  0  0  0  0
   -2.8971   -2.9336    0.0957 C   0  0  0  0  0  0  0  0  0  0  0  0
   -3.6286   -2.3375    0.6466 H   0  0  0  0  0  0  0  0  0  0  0  0
   -3.1701   -2.9489   -0.9620 H   0  0  0  0  0  0  0  0  0  0  0  0
   -1.5115   -2.3392    0.2647 C   0  0  0  0  0  0  0  0  0  0  0  0
   -0.6616   -2.9535    0.8863 O   0  0  0  0  0  0  0  0  0  0  0  0
   -1.2548   -1.0651   -0.2021 N   0  0  0  0  0  0  0  0  0  0  0  0
   -2.0420   -0.5347   -0.5701 H   0  0  0  0  0  0  0  0  0  0  0  0
    0.0546   -0.3944   -0.1694 C   0  0  1  0  0  0  0  0  0  0  0  0
    0.7400   -0.9258    0.5012 H   0  0  0  0  0  0  0  0  0  0  0  0
    0.6598   -0.3488   -1.5876 C   0  0  0  0  0  0  0  0  0  0  0  0
   -0.0024    0.2290   -2.2382 H   0  0  0  0  0  0  0  0  0  0  0  0
    1.6222    0.1688   -1.5543 H   0  0  0  0  0  0  0  0  0  0  0  0
    0.8889   -1.7141   -2.2186 C   0  0  0  0  0  0  0  0  0  0  0  0
    1.3920   -2.6379   -1.6122 O   0  0  0  0  0  0  0  0  0  0  0  0
    0.5224   -1.9802   -3.5074 N   0  0  0  0  0  0  0  0  0  0  0  0
    0.5600   -2.9556   -3.7897 H   0  0  0  0  0  0  0  0  0  0  0  0
   -0.0689   -1.3221   -4.0032 H   0  0  0  0  0  0  0  0  0  0  0  0
   -0.0965    1.0545    0.3292 C   0  0  0  0  0  0  0  0  0  0  0  0
   -0.9923    1.7611   -0.1198 O   0  0  0  0  0  0  0  0  0  0  0  0
    0.7785    1.5700    1.2670 N   0  0  0  0  0  0  0  0  0  0  0  0
    1.4690    0.9379    1.6636 H   0  0  0  0  0  0  0  0  0  0  0  0
    0.6682    2.9199    1.8065 C   0  0  0  0  0  0  0  0  0  0  0  0
   -0.2846    3.0461    2.3314 H   0  0  0  0  0  0  0  0  0  0  0  0
    1.4811    3.1119    2.5136 H   0  0  0  0  0  0  0  0  0  0  0  0
    0.7292    3.6607    1.0023 H   0  0  0  0  0  0  0  0  0  0  0  0
  1  2  1  0  0  0  0
  2  3  1  0  0  0  0
  2  4  1  0  0  0  0
  2  5  1  0  0  0  0
  5  6  2  0  0  0  0
  5  7  1  0  0  0  0
  7  8  1  0  0  0  0
  7  9  1  0  0  0  0
  9 10  1  0  0  0  0
  9 11  1  0  0  0  0
  9 19  1  0  0  0  0
 11 12  1  0  0  0  0
 11 13  1  0  0  0  0
 11 14  1  0  0  0  0
 14 15  2  0  0  0  0
 14 16  1  0  0  0  0
 16 17  1  0  0  0  0
 16 18  1  0  0  0  0
 19 20  2  0  0  0  0
 19 21  1  0  0  0  0
 21 22  1  0  0  0  0
 21 23  1  0  0  0  0
 23 24  1  0  0  0  0
 23 25  1  0  0  0  0
 23 26  1  0  0  0  0
M  END
$$$$

  -OEChem-04042215573D

 26 25  0     1  0  0  0  0  0999 V2000
   -2.9007   -3.9790    0.4799 H   0  0  0  0  0  0  0  0  0  0  0  0
   -2.8832   -2.9641    0.0729 C   0  0  0  0  0  0  0  0  0  0  0  0
   -3.6691   -2.3766    0.5532 H   0  0  0  0  0  0  0  0  0  0  0  0
   -3.0775   -3.0141   -1.0011 H   0  0  0  0  0  0  0  0  0  0  0  0
   -1.5308   -2.3246    0.3251 C   0  0  0  0  0  0  0  0  0  0  0  0
   -0.7197   -2.8857    1.0434 O   0  0  0  0  0  0  0  0  0  0  0  0
   -1.2730   -1.0580   -0.1620 N   0  0  0  0  0  0  0  0  0  0  0  0
   -2.0364   -0.5691   -0.6239 H   0  0  0  0  0  0  0  0  0  0  0  0
    0.0424   -0.3994   -0.1410 C   0  0  1  0  0  0  0  0  0  0  0  0
    0.7276   -0.9305    0.5297 H   0  0  0  0  0  0  0  0  0  0  0  0
    0.6400   -0.3658   -1.5653 C   0  0  0  0  0  0  0  0  0  0  0  0
   -0.0254    0.2148   -2.2104 H   0  0  0  0  0  0  0  0  0  0  0  0
    1.6039    0.1494   -1.5380 H   0  0  0  0  0  0  0  0  0  0  0  0
    0.8623   -1.7249   -2.2151 C   0  0  0  0  0  0  0  0  0  0  0  0
    1.1130   -2.7339   -1.5888 O   0  0  0  0  0  0  0  0  0  0  0  0
    0.8044   -1.8783   -3.5711 N   0  0  0  0  0  0  0  0  0  0  0  0
    0.8299   -2.8329   -3.9182 H   0  0  0  0  0  0  0  0  0  0  0  0
    0.4395   -1.1271   -4.1465 H   0  0  0  0  0  0  0  0  0  0  0  0
   -0.0932    1.0576    0.3396 C   0  0  0  0  0  0  0  0  0  0  0  0
   -0.9644    1.7781   -0.1353 O   0  0  0  0  0  0  0  0  0  0  0  0
    0.7906    1.5737    1.2690 N   0  0  0  0  0  0  0  0  0  0  0  0
    1.4495    0.9286    1.6974 H   0  0  0  0  0  0  0  0  0  0  0  0
    0.6962    2.9314    1.7914 C   0  0  0  0  0  0  0  0  0  0  0  0
   -0.2524    3.0736    2.3197 H   0  0  0  0  0  0  0  0  0  0  0  0
    1.5149    3.1248    2.4911 H   0  0  0  0  0  0  0  0  0  0  0  0
    0.7595    3.6610    0.9772 H   0  0  0  0  0  0  0  0  0  0  0  0
  1  2  1  0  0  0  0
  2  3  1  0  0  0  0
  2  4  1  0  0  0  0
  2  5  1  0  0  0  0
  5  6  2  0  0  0  0
  5  7  1  0  0  0  0
  7  8  1  0  0  0  0
  7  9  1  0  0  0  0
  9 10  1  0  0  0  0
  9 11  1  0  0  0  0
  9 19  1  0  0  0  0
 11 12  1  0  0  0  0
 11 13  1  0  0  0  0
 11 14  1  0  0  0  0
 14 15  2  0  0  0  0
 14 16  1  0  0  0  0
 16 17  1  0  0  0  0
 16 18  1  0  0  0  0
 19 20  2  0  0  0  0
 19 21  1  0  0  0  0
 21 22  1  0  0  0  0
 21 23  1  0  0  0  0
 23 24  1  0  0  0  0
 23 25  1  0  0  0  0
 23 26  1  0  0  0  0
M  END
$$$$

  -OEChem-04042215573D

 26 25  0     1  0  0  0  0  0999 V2000
   -2.8844   -3.9970    0.4755 H   0  0  0  0  0  0  0  0  0  0  0  0
   -2.8718   -2.9885    0.0529 C   0  0  0  0  0  0  0  0  0  0  0  0
   -3.6986   -2.4152    0.4786 H   0  0  0  0  0  0  0  0  0  0  0  0
   -3.0041   -3.0608   -1.0291 H   0  0  0  0  0  0  0  0  0  0  0  0
   -1.5525   -2.3089    0.3672 C   0  0  0  0  0  0  0  0  0  0  0  0
   -0.7701   -2.8312    1.1457 O   0  0  0  0  0  0  0  0  0  0  0  0
   -1.2942   -1.0478   -0.1345 N   0  0  0  0  0  0  0  0  0  0  0  0
   -2.0307   -0.6000   -0.6742 H   0  0  0  0  0  0  0  0  0  0  0  0
    0.0277   -0.4025   -0.1192 C   0  0  1  0  0  0  0  0  0  0  0  0
    0.7087   -0.9345    0.5548 H   0  0  0  0  0  0  0  0  0  0  0  0
    0.6297   -0.3778   -1.5439 C   0  0  0  0  0  0  0  0  0  0  0  0
   -0.0296    0.2088   -2.1900 H   0  0  0  0  0  0  0  0  0  0  0  0
    1.5960    0.1322   -1.5097 H   0  0  0  0  0  0  0  0  0  0  0  0
    0.8499   -1.7302   -2.2117 C   0  0  0  0  0  0  0  0  0  0  0  0
    0.8371   -2.7936   -1.6267 O   0  0  0  0  0  0  0  0  0  0  0  0
    1.0962   -1.8129   -3.5523 N   0  0  0  0  0  0  0  0  0  0  0  0
    1.0988   -2.7468   -3.9526 H   0  0  0  0  0  0  0  0  0  0  0  0
    0.9519   -0.9986   -4.1396 H   0  0  0  0  0  0  0  0  0  0  0  0
   -0.0937    1.0602    0.3490 C   0  0  0  0  0  0  0  0  0  0  0  0
   -0.9417    1.7937   -0.1473 O   0  0  0  0  0  0  0  0  0  0  0  0
    0.7961    1.5735    1.2744 N   0  0  0  0  0  0  0  0  0  0  0  0
    1.4299    0.9195    1.7261 H   0  0  0  0  0  0  0  0  0  0  0  0
    0.7227    2.9398    1.7776 C   0  0  0  0  0  0  0  0  0  0  0  0
   -0.2205    3.1018    2.3097 H   0  0  0  0  0  0  0  0  0  0  0  0
    1.5486    3.1329    2.4690 H   0  0  0  0  0  0  0  0  0  0  0  0
    0.7901    3.6568    0.9526 H   0  0  0  0  0  0  0  0  0  0  0  0
  1  2  1  0  0  0  0
  2  3  1  0  0  0  0
  2  4  1  0  0  0  0
  2  5  1  0  0  0  0
  5  6  2  0  0  0  0
  5  7  1  0  0  0  0
  7  8  1  0  0  0  0
  7  9  1  0  0  0  0
  9 10  1  0  0  0  0
  9 11  1  0  0  0  0
  9 19  1  0  0  0  0
 11 12  1  0  0  0  0
 11 13  1  0  0  0  0
 11 14  1  0  0  0  0
 14 15  2  0  0  0  0
 14 16  1  0  0  0  0
 16 17  1  0  0  0  0
 16 18  1  0  0  0  0
 19 20  2  0  0  0  0
 19 21  1  0  0  0  0
 21 22  1  0  0  0  0
 21 23  1  0  0  0  0
 23 24  1  0  0  0  0
 23 25  1  0  0  0  0
 23 26  1  0  0  0  0
M  END
$$$$

  -OEChem-04042215573D

 26 25  0     1  0  0  0  0  0999 V2000
   -2.9282   -3.9558    0.5744 H   0  0  0  0  0  0  0  0  0  0  0  0
   -2.8679   -2.9965    0.0530 C   0  0  0  0  0  0  0  0  0  0  0  0
   -3.7147   -2.3757    0.3545 H   0  0  0  0  0  0  0  0  0  0  0  0
   -2.9199   -3.1778   -1.0232 H   0  0  0  0  0  0  0  0  0  0  0  0
   -1.5643   -2.2996    0.3929 C   0  0  0  0  0  0  0  0  0  0  0  0
   -0.7918   -2.8055    1.1932 O   0  0  0  0  0  0  0  0  0  0  0  0
   -1.3056   -1.0420   -0.1175 N   0  0  0  0  0  0  0  0  0  0  0  0
   -2.0242   -0.6212   -0.7009 H   0  0  0  0  0  0  0  0  0  0  0  0
    0.0212   -0.4074   -0.1076 C   0  0  1  0  0  0  0  0  0  0  0  0
    0.6983   -0.9408    0.5686 H   0  0  0  0  0  0  0  0  0  0  0  0
    0.6301   -0.3861   -1.5311 C   0  0  0  0  0  0  0  0  0  0  0  0
   -0.0211    0.2073   -2.1794 H   0  0  0  0  0  0  0  0  0  0  0  0
    1.5984    0.1196   -1.4855 H   0  0  0  0  0  0  0  0  0  0  0  0
    0.8517   -1.7309   -2.2168 C   0  0  0  0  0  0  0  0  0  0  0  0
    0.5872   -2.8115   -1.7309 O   0  0  0  0  0  0  0  0  0  0  0  0
    1.3763   -1.7844   -3.4765 N   0  0  0  0  0  0  0  0  0  0  0  0
    1.3577   -2.6929   -3.9313 H   0  0  0  0  0  0  0  0  0  0  0  0
    1.4441   -0.9343   -4.0257 H   0  0  0  0  0  0  0  0  0  0  0  0
   -0.0918    1.0585    0.3549 C   0  0  0  0  0  0  0  0  0  0  0  0
   -0.9274    1.7991   -0.1518 O   0  0  0  0  0  0  0  0  0  0  0  0
    0.8017    1.5706    1.2775 N   0  0  0  0  0  0  0  0  0  0  0  0
    1.4225    0.9125    1.7408 H   0  0  0  0  0  0  0  0  0  0  0  0
    0.7320    2.9385    1.7775 C   0  0  0  0  0  0  0  0  0  0  0  0
   -0.2207    3.1117    2.2890 H   0  0  0  0  0  0  0  0  0  0  0  0
    1.5447    3.1241    2.4864 H   0  0  0  0  0  0  0  0  0  0  0  0
    0.8242    3.6535    0.9531 H   0  0  0  0  0  0  0  0  0  0  0  0
  1  2  1  0  0  0  0
  2  3  1  0  0  0  0
  2  4  1  0  0  0  0
  2  5  1  0  0  0  0
  5  6  2  0  0  0  0
  5  7  1  0  0  0  0
  7  8  1  0  0  0  0
  7  9  1  0  0  0  0
  9 10  1  0  0  0  0
  9 11  1  0  0  0  0
  9 19  1  0  0  0  0
 11 12  1  0  0  0  0
 11 13  1  0  0  0  0
 11 14  1  0  0  0  0
 14 15  2  0  0  0  0
 14 16  1  0  0  0  0
 16 17  1  0  0  0  0
 16 18  1  0  0  0  0
 19 20  2  0  0  0  0
 19 21  1  0  0  0  0
 21 22  1  0  0  0  0
 21 23  1  0  0  0  0
 23 24  1  0  0  0  0
 23 25  1  0  0  0  0
 23 26  1  0  0  0  0
M  END
$$$$

  -OEChem-04042215573D

 26 25  0     1  0  0  0  0  0999 V2000
   -2.9275   -3.9613    0.5648 H   0  0  0  0  0  0  0  0  0  0  0  0
   -2.8744   -2.9950    0.0557 C   0  0  0  0  0  0  0  0  0  0  0  0
   -3.7238   -2.3831    0.3681 H   0  0  0  0  0  0  0  0  0  0  0  0
   -2.9288   -3.1631   -1.0226 H   0  0  0  0  0  0  0  0  0  0  0  0
   -1.5737   -2.2947    0.3995 C   0  0  0  0  0  0  0  0  0  0  0  0
   -0.7972   -2.8019    1.1960 O   0  0  0  0  0  0  0  0  0  0  0  0
   -1.3152   -1.0373   -0.1121 N   0  0  0  0  0  0  0  0  0  0  0  0
   -2.0239   -0.6295   -0.7163 H   0  0  0  0  0  0  0  0  0  0  0  0
    0.0133   -0.4078   -0.1014 C   0  0  1  0  0  0  0  0  0  0  0  0
    0.6856   -0.9410    0.5795 H   0  0  0  0  0  0  0  0  0  0  0  0
    0.6348   -0.3901   -1.5202 C   0  0  0  0  0  0  0  0  0  0  0  0
   -0.0072    0.2048   -2.1761 H   0  0  0  0  0  0  0  0  0  0  0  0
    1.6026    0.1152   -1.4621 H   0  0  0  0  0  0  0  0  0  0  0  0
    0.8618   -1.7336   -2.2092 C   0  0  0  0  0  0  0  0  0  0  0  0
    0.3709   -2.7891   -1.8631 O   0  0  0  0  0  0  0  0  0  0  0  0
    1.6421   -1.8105   -3.3272 N   0  0  0  0  0  0  0  0  0  0  0  0
    1.6162   -2.6942   -3.8280 H   0  0  0  0  0  0  0  0  0  0  0  0
    1.9127   -0.9573   -3.8044 H   0  0  0  0  0  0  0  0  0  0  0  0
   -0.0970    1.0585    0.3609 C   0  0  0  0  0  0  0  0  0  0  0  0
   -0.9241    1.8039   -0.1519 O   0  0  0  0  0  0  0  0  0  0  0  0
    0.7967    1.5685    1.2846 N   0  0  0  0  0  0  0  0  0  0  0  0
    1.4092    0.9081    1.7556 H   0  0  0  0  0  0  0  0  0  0  0  0
    0.7357    2.9399    1.7758 C   0  0  0  0  0  0  0  0  0  0  0  0
   -0.2135    3.1203    2.2914 H   0  0  0  0  0  0  0  0  0  0  0  0
    1.5532    3.1266    2.4788 H   0  0  0  0  0  0  0  0  0  0  0  0
    0.8268    3.6489    0.9462 H   0  0  0  0  0  0  0  0  0  0  0  0
  1  2  1  0  0  0  0
  2  3  1  0  0  0  0
  2  4  1  0  0  0  0
  2  5  1  0  0  0  0
  5  6  2  0  0  0  0
  5  7  1  0  0  0  0
  7  8  1  0  0  0  0
  7  9  1  0  0  0  0
  9 10  1  0  0  0  0
  9 11  1  0  0  0  0
  9 19  1  0  0  0  0
 11 12  1  0  0  0  0
 11 13  1  0  0  0  0
 11 14  1  0  0  0  0
 14 15  2  0  0  0  0
 14 16  1  0  0  0  0
 16 17  1  0  0  0  0
 16 18  1  0  0  0  0
 19 20  2  0  0  0  0
 19 21  1  0  0  0  0
 21 22  1  0  0  0  0
 21 23  1  0  0  0  0
 23 24  1  0  0  0  0
 23 25  1  0  0  0  0
 23 26  1  0  0  0  0
M  END
$$$$

  -OEChem-04042215573D

 26 25  0     1  0  0  0  0  0999 V2000
   -2.9172   -3.9594    0.5881 H   0  0  0  0  0  0  0  0  0  0  0  0
   -2.8736   -2.9958    0.0730 C   0  0  0  0  0  0  0  0  0  0  0  0
   -3.7165   -2.3816    0.3983 H   0  0  0  0  0  0  0  0  0  0  0  0
   -2.9489   -3.1685   -1.0036 H   0  0  0  0  0  0  0  0  0  0  0  0
   -1.5658   -2.2945    0.3865 C   0  0  0  0  0  0  0  0  0  0  0  0
   -0.7511   -2.8194    1.1326 O   0  0  0  0  0  0  0  0  0  0  0  0
   -1.3296   -1.0275   -0.1114 N   0  0  0  0  0  0  0  0  0  0  0  0
   -2.0528   -0.6218   -0.7000 H   0  0  0  0  0  0  0  0  0  0  0  0
   -0.0048   -0.3917   -0.1291 C   0  0  1  0  0  0  0  0  0  0  0  0
    0.6863   -0.9288    0.5292 H   0  0  0  0  0  0  0  0  0  0  0  0
    0.5825   -0.3587   -1.5621 C   0  0  0  0  0  0  0  0  0  0  0  0
   -0.0779    0.2359   -2.2002 H   0  0  0  0  0  0  0  0  0  0  0  0
    1.5465    0.1549   -1.5227 H   0  0  0  0  0  0  0  0  0  0  0  0
    0.7968   -1.6998   -2.2623 C   0  0  0  0  0  0  0  0  0  0  0  0
    0.1269   -2.6962   -2.0748 O   0  0  0  0  0  0  0  0  0  0  0  0
    1.7868   -1.8491   -3.1915 N   0  0  0  0  0  0  0  0  0  0  0  0
    1.9671   -2.7985   -3.5058 H   0  0  0  0  0  0  0  0  0  0  0  0
    2.4940   -1.1294   -3.2918 H   0  0  0  0  0  0  0  0  0  0  0  0
   -0.1093    1.0664    0.3603 C   0  0  0  0  0  0  0  0  0  0  0  0
   -0.9552    1.8154   -0.1145 O   0  0  0  0  0  0  0  0  0  0  0  0
    0.8082    1.5664    1.2662 N   0  0  0  0  0  0  0  0  0  0  0  0
    1.4310    0.9001    1.7144 H   0  0  0  0  0  0  0  0  0  0  0  0
    0.7468    2.9263    1.7890 C   0  0  0  0  0  0  0  0  0  0  0  0
   -0.1913    3.0867    2.3309 H   0  0  0  0  0  0  0  0  0  0  0  0
    1.5792    3.1055    2.4762 H   0  0  0  0  0  0  0  0  0  0  0  0
    0.8110    3.6541    0.9733 H   0  0  0  0  0  0  0  0  0  0  0  0
  1  2  1  0  0  0  0
  2  3  1  0  0  0  0
  2  4  1  0  0  0  0
  2  5  1  0  0  0  0
  5  6  2  0  0  0  0
  5  7  1  0  0  0  0
  7  8  1  0  0  0  0
  7  9  1  0  0  0  0
  9 10  1  0  0  0  0
  9 11  1  0  0  0  0
  9 19  1  0  0  0  0
 11 12  1  0  0  0  0
 11 13  1  0  0  0  0
 11 14  1  0  0  0  0
 14 15  2  0  0  0  0
 14 16  1  0  0  0  0
 16 17  1  0  0  0  0
 16 18  1  0  0  0  0
 19 20  2  0  0  0  0
 19 21  1  0  0  0  0
 21 22  1  0  0  0  0
 21 23  1  0  0  0  0
 23 24  1  0  0  0  0
 23 25  1  0  0  0  0
 23 26  1  0  0  0  0
M  END
$$$$

  -OEChem-04042215573D

 26 25  0     1  0  0  0  0  0999 V2000
   -2.8810   -3.9771    0.5570 H   0  0  0  0  0  0  0  0  0  0  0  0
   -2.8570   -3.0027    0.0615 C   0  0  0  0  0  0  0  0  0  0  0  0
   -3.6940   -2.4009    0.4227 H   0  0  0  0  0  0  0  0  0  0  0  0
   -2.9611   -3.1533   -1.0159 H   0  0  0  0  0  0  0  0  0  0  0  0
   -1.5456   -2.2992    0.3547 C   0  0  0  0  0  0  0  0  0  0  0  0
   -0.7038   -2.8381    1.0598 O   0  0  0  0  0  0  0  0  0  0  0  0
   -1.3273   -1.0227   -0.1265 N   0  0  0  0  0  0  0  0  0  0  0  0
   -2.0599   -0.6159   -0.7030 H   0  0  0  0  0  0  0  0  0  0  0  0
   -0.0096   -0.3729   -0.1444 C   0  0  1  0  0  0  0  0  0  0  0  0
    0.6889   -0.9094    0.5061 H   0  0  0  0  0  0  0  0  0  0  0  0
    0.5711   -0.3305   -1.5783 C   0  0  0  0  0  0  0  0  0  0  0  0
   -0.0995    0.2530   -2.2160 H   0  0  0  0  0  0  0  0  0  0  0  0
    1.5292    0.1949   -1.5483 H   0  0  0  0  0  0  0  0  0  0  0  0
    0.7875   -1.6786   -2.2636 C   0  0  0  0  0  0  0  0  0  0  0  0
   -0.0240   -2.5844   -2.2597 O   0  0  0  0  0  0  0  0  0  0  0  0
    1.9528   -1.9565   -2.9202 N   0  0  0  0  0  0  0  0  0  0  0  0
    2.0885   -2.9263   -3.1923 H   0  0  0  0  0  0  0  0  0  0  0  0
    2.7496   -1.3402   -2.8046 H   0  0  0  0  0  0  0  0  0  0  0  0
   -0.1185    1.0779    0.3650 C   0  0  0  0  0  0  0  0  0  0  0  0
   -0.9729    1.8280   -0.0916 O   0  0  0  0  0  0  0  0  0  0  0  0
    0.8042    1.5711    1.2698 N   0  0  0  0  0  0  0  0  0  0  0  0
    1.4364    0.9040    1.7033 H   0  0  0  0  0  0  0  0  0  0  0  0
    0.7486    2.9282    1.8003 C   0  0  0  0  0  0  0  0  0  0  0  0
   -0.1804    3.0837    2.3588 H   0  0  0  0  0  0  0  0  0  0  0  0
    1.5926    3.1060    2.4736 H   0  0  0  0  0  0  0  0  0  0  0  0
    0.7973    3.6602    0.9872 H   0  0  0  0  0  0  0  0  0  0  0  0
  1  2  1  0  0  0  0
  2  3  1  0  0  0  0
  2  4  1  0  0  0  0
  2  5  1  0  0  0  0
  5  6  2  0  0  0  0
  5  7  1  0  0  0  0
  7  8  1  0  0  0  0
  7  9  1  0  0  0  0
  9 10  1  0  0  0  0
  9 11  1  0  0  0  0
  9 19  1  0  0  0  0
 11 12  1  0  0  0  0
 11 13  1  0  0  0  0
 11 14  1  0  0  0  0
 14 15  2  0  0  0  0
 14 16  1  0  0  0  0
 16 17  1  0  0  0  0
 16 18  1  0  0  0  0
 19 20  2  0  0  0  0
 19 21  1  0  0  0  0
 21 22  1  0  0  0  0
 21 23  1  0  0  0  0
 23 24  1  0  0  0  0
 23 25  1  0  0  0  0
 23 26  1  0  0  0  0
M  END
$$$$

  -OEChem-04042215573D

 26 25  0     1  0  0  0  0  0999 V2000
   -2.8232   -4.0018    0.4909 H   0  0  0  0  0  0  0  0  0  0  0  0
   -2.8294   -3.0026    0.0471 C   0  0  0  0  0  0  0  0  0  0  0  0
   -3.6518   -2.4280    0.4796 H   0  0  0  0  0  0  0  0  0  0  0  0
   -2.9847   -3.0972   -1.0307 H   0  0  0  0  0  0  0  0  0  0  0  0
   -1.5099   -2.3040    0.3133 C   0  0  0  0  0  0  0  0  0  0  0  0
   -0.6375   -2.8636    0.9632 O   0  0  0  0  0  0  0  0  0  0  0  0
   -1.3071   -1.0188   -0.1499 N   0  0  0  0  0  0  0  0  0  0  0  0
   -2.0562   -0.6003   -0.6967 H   0  0  0  0  0  0  0  0  0  0  0  0
    0.0015   -0.3521   -0.1648 C   0  0  1  0  0  0  0  0  0  0  0  0
    0.7084   -0.8859    0.4785 H   0  0  0  0  0  0  0  0  0  0  0  0
    0.5685   -0.3042   -1.6013 C   0  0  0  0  0  0  0  0  0  0  0  0
   -0.1143    0.2661   -2.2382 H   0  0  0  0  0  0  0  0  0  0  0  0
    1.5223    0.2296   -1.5894 H   0  0  0  0  0  0  0  0  0  0  0  0
    0.7813   -1.6661   -2.2563 C   0  0  0  0  0  0  0  0  0  0  0  0
   -0.1192   -2.4625   -2.4471 O   0  0  0  0  0  0  0  0  0  0  0  0
    2.0272   -2.1028   -2.6064 N   0  0  0  0  0  0  0  0  0  0  0  0
    2.0969   -3.0914   -2.8321 H   0  0  0  0  0  0  0  0  0  0  0  0
    2.8394   -1.6015   -2.2646 H   0  0  0  0  0  0  0  0  0  0  0  0
   -0.1188    1.0908    0.3635 C   0  0  0  0  0  0  0  0  0  0  0  0
   -0.9879    1.8348   -0.0745 O   0  0  0  0  0  0  0  0  0  0  0  0
    0.8029    1.5838    1.2695 N   0  0  0  0  0  0  0  0  0  0  0  0
    1.4525    0.9219    1.6845 H   0  0  0  0  0  0  0  0  0  0  0  0
    0.7349    2.9341    1.8164 C   0  0  0  0  0  0  0  0  0  0  0  0
   -0.1912    3.0715    2.3845 H   0  0  0  0  0  0  0  0  0  0  0  0
    1.5820    3.1149    2.4850 H   0  0  0  0  0  0  0  0  0  0  0  0
    0.7677    3.6760    1.0115 H   0  0  0  0  0  0  0  0  0  0  0  0
  1  2  1  0  0  0  0
  2  3  1  0  0  0  0
  2  4  1  0  0  0  0
  2  5  1  0  0  0  0
  5  6  2  0  0  0  0
  5  7  1  0  0  0  0
  7  8  1  0  0  0  0
  7  9  1  0  0  0  0
  9 10  1  0  0  0  0
  9 11  1  0  0  0  0
  9 19  1  0  0  0  0
 11 12  1  0  0  0  0
 11 13  1  0  0  0  0
 11 14  1  0  0  0  0
 14 15  2  0  0  0  0
 14 16  1  0  0  0  0
 16 17  1  0  0  0  0
 16 18  1  0  0  0  0
 19 20  2  0  0  0  0
 19 21  1  0  0  0  0
 21 22  1  0  0  0  0
 21 23  1  0  0  0  0
 23 24  1  0  0  0  0
 23 25  1  0  0  0  0
 23 26  1  0  0  0  0
M  END
$$$$

  -OEChem-04042215573D

 26 25  0     1  0  0  0  0  0999 V2000
   -2.7755   -4.0127    0.4504 H   0  0  0  0  0  0  0  0  0  0  0  0
   -2.8015   -3.0005    0.0378 C   0  0  0  0  0  0  0  0  0  0  0  0
   -3.6047   -2.4408    0.5224 H   0  0  0  0  0  0  0  0  0  0  0  0
   -3.0037   -3.0631   -1.0346 H   0  0  0  0  0  0  0  0  0  0  0  0
   -1.4724   -2.3077    0.2691 C   0  0  0  0  0  0  0  0  0  0  0  0
   -0.5722   -2.8851    0.8629 O   0  0  0  0  0  0  0  0  0  0  0  0
   -1.2813   -1.0157   -0.1789 N   0  0  0  0  0  0  0  0  0  0  0  0
   -2.0506   -0.5757   -0.6798 H   0  0  0  0  0  0  0  0  0  0  0  0
    0.0185   -0.3323   -0.1860 C   0  0  1  0  0  0  0  0  0  0  0  0
    0.7306   -0.8611    0.4559 H   0  0  0  0  0  0  0  0  0  0  0  0
    0.5758   -0.2882   -1.6231 C   0  0  0  0  0  0  0  0  0  0  0  0
   -0.1160    0.2666   -2.2643 H   0  0  0  0  0  0  0  0  0  0  0  0
    1.5277    0.2488   -1.6297 H   0  0  0  0  0  0  0  0  0  0  0  0
    0.7853   -1.6685   -2.2347 C   0  0  0  0  0  0  0  0  0  0  0  0
   -0.1409   -2.3515   -2.6323 O   0  0  0  0  0  0  0  0  0  0  0  0
    2.0171   -2.2564   -2.2838 N   0  0  0  0  0  0  0  0  0  0  0  0
    2.0105   -3.2538   -2.4797 H   0  0  0  0  0  0  0  0  0  0  0  0
    2.7696   -1.8575   -1.7342 H   0  0  0  0  0  0  0  0  0  0  0  0
   -0.1147    1.1042    0.3558 C   0  0  0  0  0  0  0  0  0  0  0  0
   -1.0027    1.8372   -0.0618 O   0  0  0  0  0  0  0  0  0  0  0  0
    0.8027    1.5978    1.2657 N   0  0  0  0  0  0  0  0  0  0  0  0
    1.4674    0.9417    1.6653 H   0  0  0  0  0  0  0  0  0  0  0  0
    0.7174    2.9392    1.8314 C   0  0  0  0  0  0  0  0  0  0  0  0
   -0.2111    3.0569    2.3999 H   0  0  0  0  0  0  0  0  0  0  0  0
    1.5611    3.1206    2.5041 H   0  0  0  0  0  0  0  0  0  0  0  0
    0.7425    3.6928    1.0371 H   0  0  0  0  0  0  0  0  0  0  0  0
  1  2  1  0  0  0  0
  2  3  1  0  0  0  0
  2  4  1  0  0  0  0
  2  5  1  0  0  0  0
  5  6  2  0  0  0  0
  5  7  1  0  0  0  0
  7  8  1  0  0  0  0
  7  9  1  0  0  0  0
  9 10  1  0  0  0  0
  9 11  1  0  0  0  0
  9 19  1  0  0  0  0
 11 12  1  0  0  0  0
 11 13  1  0  0  0  0
 11 14  1  0  0  0  0
 14 15  2  0  0  0  0
 14 16  1  0  0  0  0
 16 17  1  0  0  0  0
 16 18  1  0  0  0  0
 19 20  2  0  0  0  0
 19 21  1  0  0  0  0
 21 22  1  0  0  0  0
 21 23  1  0  0  0  0
 23 24  1  0  0  0  0
 23 25  1  0  0  0  0
 23 26  1  0  0  0  0
M  END
$$$$

  -OEChem-04042215573D

 26 25  0     1  0  0  0  0  0999 V2000
   -2.7650   -4.0050    0.4462 H   0  0  0  0  0  0  0  0  0  0  0  0
   -2.7952   -2.9858    0.0513 C   0  0  0  0  0  0  0  0  0  0  0  0
   -3.5669   -2.4239    0.5827 H   0  0  0  0  0  0  0  0  0  0  0  0
   -3.0492   -3.0275   -1.0110 H   0  0  0  0  0  0  0  0  0  0  0  0
   -1.4467   -2.3149    0.2303 C   0  0  0  0  0  0  0  0  0  0  0  0
   -0.5245   -2.9159    0.7636 O   0  0  0  0  0  0  0  0  0  0  0  0
   -1.2559   -1.0202   -0.2086 N   0  0  0  0  0  0  0  0  0  0  0  0
   -2.0445   -0.5502   -0.6495 H   0  0  0  0  0  0  0  0  0  0  0  0
    0.0382   -0.3258   -0.2025 C   0  0  1  0  0  0  0  0  0  0  0  0
    0.7483   -0.8498    0.4454 H   0  0  0  0  0  0  0  0  0  0  0  0
    0.5969   -0.2883   -1.6365 C   0  0  0  0  0  0  0  0  0  0  0  0
   -0.0957    0.2559   -2.2860 H   0  0  0  0  0  0  0  0  0  0  0  0
    1.5496    0.2470   -1.6506 H   0  0  0  0  0  0  0  0  0  0  0  0
    0.8064   -1.6821   -2.2123 C   0  0  0  0  0  0  0  0  0  0  0  0
   -0.0692   -2.2583   -2.8312 O   0  0  0  0  0  0  0  0  0  0  0  0
    1.9516   -2.3927   -1.9921 N   0  0  0  0  0  0  0  0  0  0  0  0
    1.8785   -3.3859   -2.1954 H   0  0  0  0  0  0  0  0  0  0  0  0
    2.5728   -2.0830   -1.2536 H   0  0  0  0  0  0  0  0  0  0  0  0
   -0.1076    1.1077    0.3434 C   0  0  0  0  0  0  0  0  0  0  0  0
   -1.0136    1.8262   -0.0597 O   0  0  0  0  0  0  0  0  0  0  0  0
    0.7991    1.6059    1.2615 N   0  0  0  0  0  0  0  0  0  0  0  0
    1.4864    0.9627    1.6430 H   0  0  0  0  0  0  0  0  0  0  0  0
    0.6919    2.9398    1.8408 C   0  0  0  0  0  0  0  0  0  0  0  0
   -0.2445    3.0411    2.3997 H   0  0  0  0  0  0  0  0  0  0  0  0
    1.5255    3.1230    2.5256 H   0  0  0  0  0  0  0  0  0  0  0  0
    0.7173    3.7023    1.0550 H   0  0  0  0  0  0  0  0  0  0  0  0
  1  2  1  0  0  0  0
  2  3  1  0  0  0  0
  2  4  1  0  0  0  0
  2  5  1  0  0  0  0
  5  6  2  0  0  0  0
  5  7  1  0  0  0  0
  7  8  1  0  0  0  0
  7  9  1  0  0  0  0
  9 10  1  0  0  0  0
  9 11  1  0  0  0  0
  9 19  1  0  0  0  0
 11 12  1  0  0  0  0
 11 13  1  0  0  0  0
 11 14  1  0  0  0  0
 14 15  2  0  0  0  0
 14 16  1  0  0  0  0
 16 17  1  0  0  0  0
 16 18  1  0  0  0  0
 19 20  2  0  0  0  0
 19 21  1  0  0  0  0
 21 22  1  0  0  0  0
 21 23  1  0  0  0  0
 23 24  1  0  0  0  0
 23 25  1  0  0  0  0
 23 26  1  0  0  0  0
M  END
$$$$

  -OEChem-04042215573D

 26 25  0     1  0  0  0  0  0999 V2000
   -2.7738   -3.9866    0.4679 H   0  0  0  0  0  0  0  0  0  0  0  0
   -2.8033   -2.9628    0.0851 C   0  0  0  0  0  0  0  0  0  0  0  0
   -3.5364   -2.3915    0.6597 H   0  0  0  0  0  0  0  0  0  0  0  0
   -3.1115   -2.9882   -0.9632 H   0  0  0  0  0  0  0  0  0  0  0  0
   -1.4345   -2.3204    0.2039 C   0  0  0  0  0  0  0  0  0  0  0  0
   -0.4990   -2.9443    0.6853 O   0  0  0  0  0  0  0  0  0  0  0  0
   -1.2373   -1.0264   -0.2335 N   0  0  0  0  0  0  0  0  0  0  0  0
   -2.0409   -0.5231   -0.6069 H   0  0  0  0  0  0  0  0  0  0  0  0
    0.0555   -0.3300   -0.2128 C   0  0  1  0  0  0  0  0  0  0  0  0
    0.7567   -0.8492    0.4482 H   0  0  0  0  0  0  0  0  0  0  0  0
    0.6309   -0.2978   -1.6385 C   0  0  0  0  0  0  0  0  0  0  0  0
   -0.0522    0.2459   -2.2985 H   0  0  0  0  0  0  0  0  0  0  0  0
    1.5861    0.2333   -1.6428 H   0  0  0  0  0  0  0  0  0  0  0  0
    0.8472   -1.6955   -2.2023 C   0  0  0  0  0  0  0  0  0  0  0  0
    0.1021   -2.1651   -3.0417 O   0  0  0  0  0  0  0  0  0  0  0  0
    1.8364   -2.5219   -1.7513 N   0  0  0  0  0  0  0  0  0  0  0  0
    1.7166   -3.4941   -2.0216 H   0  0  0  0  0  0  0  0  0  0  0  0
    2.2357   -2.3185   -0.8422 H   0  0  0  0  0  0  0  0  0  0  0  0
   -0.1034    1.1037    0.3297 C   0  0  0  0  0  0  0  0  0  0  0  0
   -1.0288    1.8043   -0.0603 O   0  0  0  0  0  0  0  0  0  0  0  0
    0.7881    1.6092    1.2587 N   0  0  0  0  0  0  0  0  0  0  0  0
    1.5021    0.9840    1.6203 H   0  0  0  0  0  0  0  0  0  0  0  0
    0.6602    2.9393    1.8430 C   0  0  0  0  0  0  0  0  0  0  0  0
   -0.2885    3.0315    2.3824 H   0  0  0  0  0  0  0  0  0  0  0  0
    1.4778    3.1236    2.5465 H   0  0  0  0  0  0  0  0  0  0  0  0
    0.6976    3.7065    1.0624 H   0  0  0  0  0  0  0  0  0  0  0  0
  1  2  1  0  0  0  0
  2  3  1  0  0  0  0
  2  4  1  0  0  0  0
  2  5  1  0  0  0  0
  5  6  2  0  0  0  0
  5  7  1  0  0  0  0
  7  8  1  0  0  0  0
  7  9  1  0  0  0  0
  9 10  1  0  0  0  0
  9 11  1  0  0  0  0
  9 19  1  0  0  0  0
 11 12  1  0  0  0  0
 11 13  1  0  0  0  0
 11 14  1  0  0  0  0
 14 15  2  0  0  0  0
 14 16  1  0  0  0  0
 16 17  1  0  0  0  0
 16 18  1  0  0  0  0
 19 20  2  0  0  0  0
 19 21  1  0  0  0  0
 21 22  1  0  0  0  0
 21 23  1  0  0  0  0
 23 24  1  0  0  0  0
 23 25  1  0  0  0  0
 23 26  1  0  0  0  0
M  END
$$$$

  -OEChem-04042215573D

 26 25  0     1  0  0  0  0  0999 V2000
   -2.7906   -3.9664    0.5100 H   0  0  0  0  0  0  0  0  0  0  0  0
   -2.8142   -2.9404    0.1323 C   0  0  0  0  0  0  0  0  0  0  0  0
   -3.5092   -2.3562    0.7403 H   0  0  0  0  0  0  0  0  0  0  0  0
   -3.1680   -2.9541   -0.9017 H   0  0  0  0  0  0  0  0  0  0  0  0
   -1.4288   -2.3266    0.1957 C   0  0  0  0  0  0  0  0  0  0  0  0
   -0.4869   -2.9661    0.6441 O   0  0  0  0  0  0  0  0  0  0  0  0
   -1.2224   -1.0364   -0.2479 N   0  0  0  0  0  0  0  0  0  0  0  0
   -2.0340   -0.5051   -0.5621 H   0  0  0  0  0  0  0  0  0  0  0  0
    0.0712   -0.3421   -0.2112 C   0  0  1  0  0  0  0  0  0  0  0  0
    0.7603   -0.8537    0.4683 H   0  0  0  0  0  0  0  0  0  0  0  0
    0.6775   -0.3089   -1.6239 C   0  0  0  0  0  0  0  0  0  0  0  0
    0.0094    0.2419   -2.2936 H   0  0  0  0  0  0  0  0  0  0  0  0
    1.6332    0.2210   -1.6014 H   0  0  0  0  0  0  0  0  0  0  0  0
    0.9140   -1.6974   -2.2050 C   0  0  0  0  0  0  0  0  0  0  0  0
    0.3755   -2.0524   -3.2360 O   0  0  0  0  0  0  0  0  0  0  0  0
    1.6537   -2.6526   -1.5692 N   0  0  0  0  0  0  0  0  0  0  0  0
    1.5396   -3.5782   -1.9719 H   0  0  0  0  0  0  0  0  0  0  0  0
    1.6920   -2.5861   -0.5563 H   0  0  0  0  0  0  0  0  0  0  0  0
   -0.1022    1.0946    0.3196 C   0  0  0  0  0  0  0  0  0  0  0  0
   -1.0418    1.7771   -0.0693 O   0  0  0  0  0  0  0  0  0  0  0  0
    0.7699    1.6104    1.2609 N   0  0  0  0  0  0  0  0  0  0  0  0
    1.5098    1.0066    1.6069 H   0  0  0  0  0  0  0  0  0  0  0  0
    0.6258    2.9432    1.8347 C   0  0  0  0  0  0  0  0  0  0  0  0
   -0.3380    3.0386    2.3459 H   0  0  0  0  0  0  0  0  0  0  0  0
    1.4223    3.1305    2.5613 H   0  0  0  0  0  0  0  0  0  0  0  0
    0.6863    3.7065    1.0516 H   0  0  0  0  0  0  0  0  0  0  0  0
  1  2  1  0  0  0  0
  2  3  1  0  0  0  0
  2  4  1  0  0  0  0
  2  5  1  0  0  0  0
  5  6  2  0  0  0  0
  5  7  1  0  0  0  0
  7  8  1  0  0  0  0
  7  9  1  0  0  0  0
  9 10  1  0  0  0  0
  9 11  1  0  0  0  0
  9 19  1  0  0  0  0
 11 12  1  0  0  0  0
 11 13  1  0  0  0  0
 11 14  1  0  0  0  0
 14 15  2  0  0  0  0
 14 16  1  0  0  0  0
 16 17  1  0  0  0  0
 16 18  1  0  0  0  0
 19 20  2  0  0  0  0
 19 21  1  0  0  0  0
 21 22  1  0  0  0  0
 21 23  1  0  0  0  0
 23 24  1  0  0  0  0
 23 25  1  0  0  0  0
 23 26  1  0  0  0  0
M  END
$$$$

  -OEChem-04042215573D

 26 25  0     1  0  0  0  0  0999 V2000
   -2.8490   -3.9392    0.5532 H   0  0  0  0  0  0  0  0  0  0  0  0
   -2.8592   -2.9130    0.1753 C   0  0  0  0  0  0  0  0  0  0  0  0
   -3.5322   -2.3157    0.7954 H   0  0  0  0  0  0  0  0  0  0  0  0
   -3.2317   -2.9200   -0.8522 H   0  0  0  0  0  0  0  0  0  0  0  0
   -1.4610   -2.3268    0.2150 C   0  0  0  0  0  0  0  0  0  0  0  0
   -0.5268   -2.9811    0.6577 O   0  0  0  0  0  0  0  0  0  0  0  0
   -1.2327   -1.0446   -0.2401 N   0  0  0  0  0  0  0  0  0  0  0  0
   -2.0404   -0.4945   -0.5324 H   0  0  0  0  0  0  0  0  0  0  0  0
    0.0669   -0.3603   -0.1948 C   0  0  1  0  0  0  0  0  0  0  0  0
    0.7429   -0.8689    0.5003 H   0  0  0  0  0  0  0  0  0  0  0  0
    0.7011   -0.3341   -1.5967 C   0  0  0  0  0  0  0  0  0  0  0  0
    0.0484    0.2230   -2.2766 H   0  0  0  0  0  0  0  0  0  0  0  0
    1.6582    0.1919   -1.5515 H   0  0  0  0  0  0  0  0  0  0  0  0
    0.9516   -1.7144   -2.1931 C   0  0  0  0  0  0  0  0  0  0  0  0
    0.6644   -1.9623   -3.3483 O   0  0  0  0  0  0  0  0  0  0  0  0
    1.4734   -2.7567   -1.4826 N   0  0  0  0  0  0  0  0  0  0  0  0
    1.4246   -3.6415   -1.9785 H   0  0  0  0  0  0  0  0  0  0  0  0
    1.2544   -2.7681   -0.4870 H   0  0  0  0  0  0  0  0  0  0  0  0
   -0.1074    1.0831    0.3174 C   0  0  0  0  0  0  0  0  0  0  0  0
   -1.0489    1.7584   -0.0794 O   0  0  0  0  0  0  0  0  0  0  0  0
    0.7539    1.6057    1.2650 N   0  0  0  0  0  0  0  0  0  0  0  0
    1.5035    1.0117    1.6078 H   0  0  0  0  0  0  0  0  0  0  0  0
    0.6098    2.9464    1.8205 C   0  0  0  0  0  0  0  0  0  0  0  0
   -0.3615    3.0546    2.3146 H   0  0  0  0  0  0  0  0  0  0  0  0
    1.3954    3.1369    2.5580 H   0  0  0  0  0  0  0  0  0  0  0  0
    0.6883    3.6998    1.0296 H   0  0  0  0  0  0  0  0  0  0  0  0
  1  2  1  0  0  0  0
  2  3  1  0  0  0  0
  2  4  1  0  0  0  0
  2  5  1  0  0  0  0
  5  6  2  0  0  0  0
  5  7  1  0  0  0  0
  7  8  1  0  0  0  0
  7  9  1  0  0  0  0
  9 10  1  0  0  0  0
  9 11  1  0  0  0  0
  9 19  1  0  0  0  0
 11 12  1  0  0  0  0
 11 13  1  0  0  0  0
 11 14  1  0  0  0  0
 14 15  2  0  0  0  0
 14 16  1  0  0  0  0
 16 17  1  0  0  0  0
 16 18  1  0  0  0  0
 19 20  2  0  0  0  0
 19 21  1  0  0  0  0
 21 22  1  0  0  0  0
 21 23  1  0  0  0  0
 23 24  1  0  0  0  0
 23 25  1  0  0  0  0
 23 26  1  0  0  0  0
M  END
$$$$

  -OEChem-04042215573D

 26 25  0     1  0  0  0  0  0999 V2000
   -2.9332   -3.9084    0.5779 H   0  0  0  0  0  0  0  0  0  0  0  0
   -2.9218   -2.8829    0.1982 C   0  0  0  0  0  0  0  0  0  0  0  0
   -3.5890   -2.2725    0.8117 H   0  0  0  0  0  0  0  0  0  0  0  0
   -3.2863   -2.8849   -0.8322 H   0  0  0  0  0  0  0  0  0  0  0  0
   -1.5134   -2.3222    0.2475 C   0  0  0  0  0  0  0  0  0  0  0  0
   -0.5959   -2.9916    0.7007 O   0  0  0  0  0  0  0  0  0  0  0  0
   -1.2572   -1.0495   -0.2178 N   0  0  0  0  0  0  0  0  0  0  0  0
   -2.0564   -0.4864   -0.5096 H   0  0  0  0  0  0  0  0  0  0  0  0
    0.0510   -0.3787   -0.1770 C   0  0  1  0  0  0  0  0  0  0  0  0
    0.7210   -0.8900    0.5223 H   0  0  0  0  0  0  0  0  0  0  0  0
    0.6904   -0.3613   -1.5782 C   0  0  0  0  0  0  0  0  0  0  0  0
    0.0431    0.2016   -2.2583 H   0  0  0  0  0  0  0  0  0  0  0  0
    1.6502    0.1592   -1.5277 H   0  0  0  0  0  0  0  0  0  0  0  0
    0.9401   -1.7347   -2.1902 C   0  0  0  0  0  0  0  0  0  0  0  0
    0.9125   -1.8923   -3.3952 O   0  0  0  0  0  0  0  0  0  0  0  0
    1.3060   -2.8325   -1.4658 N   0  0  0  0  0  0  0  0  0  0  0  0
    1.3199   -3.6938   -2.0031 H   0  0  0  0  0  0  0  0  0  0  0  0
    0.9702   -2.8768   -0.5026 H   0  0  0  0  0  0  0  0  0  0  0  0
   -0.1133    1.0714    0.3197 C   0  0  0  0  0  0  0  0  0  0  0  0
   -1.0535    1.7464   -0.0811 O   0  0  0  0  0  0  0  0  0  0  0  0
    0.7490    1.5972    1.2643 N   0  0  0  0  0  0  0  0  0  0  0  0
    1.4980    1.0037    1.6094 H   0  0  0  0  0  0  0  0  0  0  0  0
    0.6120    2.9435    1.8077 C   0  0  0  0  0  0  0  0  0  0  0  0
   -0.3579    3.0606    2.3024 H   0  0  0  0  0  0  0  0  0  0  0  0
    1.3998    3.1372    2.5421 H   0  0  0  0  0  0  0  0  0  0  0  0
    0.6923    3.6895    1.0100 H   0  0  0  0  0  0  0  0  0  0  0  0
  1  2  1  0  0  0  0
  2  3  1  0  0  0  0
  2  4  1  0  0  0  0
  2  5  1  0  0  0  0
  5  6  2  0  0  0  0
  5  7  1  0  0  0  0
  7  8  1  0  0  0  0
  7  9  1  0  0  0  0
  9 10  1  0  0  0  0
  9 11  1  0  0  0  0
  9 19  1  0  0  0  0
 11 12  1  0  0  0  0
 11 13  1  0  0  0  0
 11 14  1  0  0  0  0
 14 15  2  0  0  0  0
 14 16  1  0  0  0  0
 16 17  1  0  0  0  0
 16 18  1  0  0  0  0
 19 20  2  0  0  0  0
 19 21  1  0  0  0  0
 21 22  1  0  0  0  0
 21 23  1  0  0  0  0
 23 24  1  0  0  0  0
 23 25  1  0  0  0  0
 23 26  1  0  0  0  0
M  END
$$$$

  -OEChem-04042215573D

 26 25  0     1  0  0  0  0  0999 V2000
   -3.0251   -3.8731    0.6121 H   0  0  0  0  0  0  0  0  0  0  0  0
   -2.9910   -2.8517    0.2226 C   0  0  0  0  0  0  0  0  0  0  0  0
   -3.6437   -2.2204    0.8305 H   0  0  0  0  0  0  0  0  0  0  0  0
   -3.3571   -2.8554   -0.8072 H   0  0  0  0  0  0  0  0  0  0  0  0
   -1.5706   -2.3214    0.2654 C   0  0  0  0  0  0  0  0  0  0  0  0
   -0.6686   -3.0080    0.7217 O   0  0  0  0  0  0  0  0  0  0  0  0
   -1.2896   -1.0550   -0.2031 N   0  0  0  0  0  0  0  0  0  0  0  0
   -2.0821   -0.4773   -0.4849 H   0  0  0  0  0  0  0  0  0  0  0  0
    0.0267   -0.3961   -0.1691 C   0  0  1  0  0  0  0  0  0  0  0  0
    0.6934   -0.9147    0.5283 H   0  0  0  0  0  0  0  0  0  0  0  0
    0.6691   -0.3774   -1.5708 C   0  0  0  0  0  0  0  0  0  0  0  0
    0.0247    0.1933   -2.2468 H   0  0  0  0  0  0  0  0  0  0  0  0
    1.6299    0.1414   -1.5133 H   0  0  0  0  0  0  0  0  0  0  0  0
    0.9218   -1.7380   -2.2105 C   0  0  0  0  0  0  0  0  0  0  0  0
    1.1631   -1.8180   -3.3992 O   0  0  0  0  0  0  0  0  0  0  0  0
    1.1369   -2.8863   -1.5040 N   0  0  0  0  0  0  0  0  0  0  0  0
    1.2257   -3.7260   -2.0674 H   0  0  0  0  0  0  0  0  0  0  0  0
    0.7222   -2.9590   -0.5734 H   0  0  0  0  0  0  0  0  0  0  0  0
   -0.1252    1.0575    0.3221 C   0  0  0  0  0  0  0  0  0  0  0  0
   -1.0628    1.7370   -0.0779 O   0  0  0  0  0  0  0  0  0  0  0  0
    0.7433    1.5805    1.2624 N   0  0  0  0  0  0  0  0  0  0  0  0
    1.4893    0.9830    1.6071 H   0  0  0  0  0  0  0  0  0  0  0  0
    0.6230    2.9329    1.7947 C   0  0  0  0  0  0  0  0  0  0  0  0
   -0.3405    3.0622    2.2988 H   0  0  0  0  0  0  0  0  0  0  0  0
    1.4204    3.1273    2.5186 H   0  0  0  0  0  0  0  0  0  0  0  0
    0.7007    3.6706    0.9890 H   0  0  0  0  0  0  0  0  0  0  0  0
  1  2  1  0  0  0  0
  2  3  1  0  0  0  0
  2  4  1  0  0  0  0
  2  5  1  0  0  0  0
  5  6  2  0  0  0  0
  5  7  1  0  0  0  0
  7  8  1  0  0  0  0
  7  9  1  0  0  0  0
  9 10  1  0  0  0  0
  9 11  1  0  0  0  0
  9 19  1  0  0  0  0
 11 12  1  0  0  0  0
 11 13  1  0  0  0  0
 11 14  1  0  0  0  0
 14 15  2  0  0  0  0
 14 16  1  0  0  0  0
 16 17  1  0  0  0  0
 16 18  1  0  0  0  0
 19 20  2  0  0  0  0
 19 21  1  0  0  0  0
 21 22  1  0  0  0  0
 21 23  1  0  0  0  0
 23 24  1  0  0  0  0
 23 25  1  0  0  0  0
 23 26  1  0  0  0  0
M  END
$$$$

  -OEChem-04042215573D

 26 25  0     1  0  0  0  0  0999 V2000
   -3.1481   -3.8110    0.7385 H   0  0  0  0  0  0  0  0  0  0  0  0
   -3.1030   -2.7994    0.3253 C   0  0  0  0  0  0  0  0  0  0  0  0
   -3.7144   -2.1384    0.9445 H   0  0  0  0  0  0  0  0  0  0  0  0
   -3.5089   -2.8151   -0.6893 H   0  0  0  0  0  0  0  0  0  0  0  0
   -1.6689   -2.3064    0.3011 C   0  0  0  0  0  0  0  0  0  0  0  0
   -0.7607   -3.0252    0.6921 O   0  0  0  0  0  0  0  0  0  0  0  0
   -1.3780   -1.0432   -0.1707 N   0  0  0  0  0  0  0  0  0  0  0  0
   -2.1694   -0.4437   -0.4064 H   0  0  0  0  0  0  0  0  0  0  0  0
   -0.0484   -0.4089   -0.1810 C   0  0  1  0  0  0  0  0  0  0  0  0
    0.6129   -0.9492    0.5047 H   0  0  0  0  0  0  0  0  0  0  0  0
    0.6134   -0.3812   -1.5811 C   0  0  0  0  0  0  0  0  0  0  0  0
    0.1216    0.3971   -2.1729 H   0  0  0  0  0  0  0  0  0  0  0  0
    1.6603   -0.0891   -1.4622 H   0  0  0  0  0  0  0  0  0  0  0  0
    0.5839   -1.6422   -2.4420 C   0  0  0  0  0  0  0  0  0  0  0  0
    1.1002   -1.6250   -3.5427 O   0  0  0  0  0  0  0  0  0  0  0  0
    0.2835   -2.8962   -1.9969 N   0  0  0  0  0  0  0  0  0  0  0  0
    0.6133   -3.6626   -2.5751 H   0  0  0  0  0  0  0  0  0  0  0  0
    0.1363   -3.0401   -0.9971 H   0  0  0  0  0  0  0  0  0  0  0  0
   -0.1606    1.0440    0.3238 C   0  0  0  0  0  0  0  0  0  0  0  0
   -1.1049    1.7380   -0.0332 O   0  0  0  0  0  0  0  0  0  0  0  0
    0.7485    1.5473    1.2360 N   0  0  0  0  0  0  0  0  0  0  0  0
    1.5007    0.9382    1.5452 H   0  0  0  0  0  0  0  0  0  0  0  0
    0.6713    2.8992    1.7771 C   0  0  0  0  0  0  0  0  0  0  0  0
   -0.2707    3.0438    2.3165 H   0  0  0  0  0  0  0  0  0  0  0  0
    1.4978    3.0765    2.4721 H   0  0  0  0  0  0  0  0  0  0  0  0
    0.7333    3.6386    0.9715 H   0  0  0  0  0  0  0  0  0  0  0  0
  1  2  1  0  0  0  0
  2  3  1  0  0  0  0
  2  4  1  0  0  0  0
  2  5  1  0  0  0  0
  5  6  2  0  0  0  0
  5  7  1  0  0  0  0
  7  8  1  0  0  0  0
  7  9  1  0  0  0  0
  9 10  1  0  0  0  0
  9 11  1  0  0  0  0
  9 19  1  0  0  0  0
 11 12  1  0  0  0  0
 11 13  1  0  0  0  0
 11 14  1  0  0  0  0
 14 15  2  0  0  0  0
 14 16  1  0  0  0  0
 16 17  1  0  0  0  0
 16 18  1  0  0  0  0
 19 20  2  0  0  0  0
 19 21  1  0  0  0  0
 21 22  1  0  0  0  0
 21 23  1  0  0  0  0
 23 24  1  0  0  0  0
 23 25  1  0  0  0  0
 23 26  1  0  0  0  0
M  END
$$$$

  -OEChem-04042215573D

 26 25  0     1  0  0  0  0  0999 V2000
   -3.1825   -3.7799    0.7823 H   0  0  0  0  0  0  0  0  0  0  0  0
   -3.1338   -2.7678    0.3710 C   0  0  0  0  0  0  0  0  0  0  0  0
   -3.7030   -2.0972    1.0195 H   0  0  0  0  0  0  0  0  0  0  0  0
   -3.5852   -2.7698   -0.6243 H   0  0  0  0  0  0  0  0  0  0  0  0
   -1.6917   -2.3057    0.2842 C   0  0  0  0  0  0  0  0  0  0  0  0
   -0.7809   -3.0562    0.5990 O   0  0  0  0  0  0  0  0  0  0  0  0
   -1.3949   -1.0410   -0.1777 N   0  0  0  0  0  0  0  0  0  0  0  0
   -2.1860   -0.4221   -0.3582 H   0  0  0  0  0  0  0  0  0  0  0  0
   -0.0622   -0.4116   -0.2009 C   0  0  1  0  0  0  0  0  0  0  0  0
    0.6014   -0.9618    0.4750 H   0  0  0  0  0  0  0  0  0  0  0  0
    0.6024   -0.3674   -1.6009 C   0  0  0  0  0  0  0  0  0  0  0  0
    0.1068    0.4173   -2.1804 H   0  0  0  0  0  0  0  0  0  0  0  0
    1.6466   -0.0676   -1.4734 H   0  0  0  0  0  0  0  0  0  0  0  0
    0.5881   -1.6055   -2.4967 C   0  0  0  0  0  0  0  0  0  0  0  0
    1.3326   -1.6490   -3.4571 O   0  0  0  0  0  0  0  0  0  0  0  0
    0.0587   -2.8206   -2.1788 N   0  0  0  0  0  0  0  0  0  0  0  0
    0.4351   -3.5918   -2.7214 H   0  0  0  0  0  0  0  0  0  0  0  0
   -0.1688   -2.9815   -1.1980 H   0  0  0  0  0  0  0  0  0  0  0  0
   -0.1677    1.0358    0.3201 C   0  0  0  0  0  0  0  0  0  0  0  0
   -1.1218    1.7297   -0.0106 O   0  0  0  0  0  0  0  0  0  0  0  0
    0.7531    1.5298    1.2255 N   0  0  0  0  0  0  0  0  0  0  0  0
    1.5189    0.9236    1.5059 H   0  0  0  0  0  0  0  0  0  0  0  0
    0.6797    2.8745    1.7844 C   0  0  0  0  0  0  0  0  0  0  0  0
   -0.2592    3.0122    2.3312 H   0  0  0  0  0  0  0  0  0  0  0  0
    1.5101    3.0427    2.4768 H   0  0  0  0  0  0  0  0  0  0  0  0
    0.7370    3.6238    0.9877 H   0  0  0  0  0  0  0  0  0  0  0  0
  1  2  1  0  0  0  0
  2  3  1  0  0  0  0
  2  4  1  0  0  0  0
  2  5  1  0  0  0  0
  5  6  2  0  0  0  0
  5  7  1  0  0  0  0
  7  8  1  0  0  0  0
  7  9  1  0  0  0  0
  9 10  1  0  0  0  0
  9 11  1  0  0  0  0
  9 19  1  0  0  0  0
 11 12  1  0  0  0  0
 11 13  1  0  0  0  0
 11 14  1  0  0  0  0
 14 15  2  0  0  0  0
 14 16  1  0  0  0  0
 16 17  1  0  0  0  0
 16 18  1  0  0  0  0
 19 20  2  0  0  0  0
 19 21  1  0  0  0  0
 21 22  1  0  0  0  0
 21 23  1  0  0  0  0
 23 24  1  0  0  0  0
 23 25  1  0  0  0  0
 23 26  1  0  0  0  0
M  END
$$$$

  -OEChem-04042215573D

 26 25  0     1  0  0  0  0  0999 V2000
   -3.1592   -3.7859    0.7739 H   0  0  0  0  0  0  0  0  0  0  0  0
   -3.1203   -2.7522    0.4191 C   0  0  0  0  0  0  0  0  0  0  0  0
   -3.6244   -2.1113    1.1466 H   0  0  0  0  0  0  0  0  0  0  0  0
   -3.6454   -2.6877   -0.5372 H   0  0  0  0  0  0  0  0  0  0  0  0
   -1.6794   -2.3102    0.2501 C   0  0  0  0  0  0  0  0  0  0  0  0
   -0.7643   -3.0908    0.4533 O   0  0  0  0  0  0  0  0  0  0  0  0
   -1.3912   -1.0408   -0.2024 N   0  0  0  0  0  0  0  0  0  0  0  0
   -2.1840   -0.4067   -0.3107 H   0  0  0  0  0  0  0  0  0  0  0  0
   -0.0596   -0.4076   -0.2279 C   0  0  1  0  0  0  0  0  0  0  0  0
    0.5996   -0.9619    0.4492 H   0  0  0  0  0  0  0  0  0  0  0  0
    0.6257   -0.3559   -1.6183 C   0  0  0  0  0  0  0  0  0  0  0  0
    0.1327    0.4277   -2.2012 H   0  0  0  0  0  0  0  0  0  0  0  0
    1.6649   -0.0467   -1.4726 H   0  0  0  0  0  0  0  0  0  0  0  0
    0.6371   -1.5883   -2.5233 C   0  0  0  0  0  0  0  0  0  0  0  0
    1.5634   -1.7523   -3.2940 O   0  0  0  0  0  0  0  0  0  0  0  0
   -0.1790   -2.6740   -2.4261 N   0  0  0  0  0  0  0  0  0  0  0  0
    0.1704   -3.4799   -2.9356 H   0  0  0  0  0  0  0  0  0  0  0  0
   -0.5729   -2.8359   -1.5029 H   0  0  0  0  0  0  0  0  0  0  0  0
   -0.1700    1.0344    0.3071 C   0  0  0  0  0  0  0  0  0  0  0  0
   -1.1401    1.7182    0.0028 O   0  0  0  0  0  0  0  0  0  0  0  0
    0.7525    1.5253    1.2125 N   0  0  0  0  0  0  0  0  0  0  0  0
    1.5341    0.9281    1.4674 H   0  0  0  0  0  0  0  0  0  0  0  0
    0.6618    2.8549    1.8046 C   0  0  0  0  0  0  0  0  0  0  0  0
   -0.2694    2.9598    2.3713 H   0  0  0  0  0  0  0  0  0  0  0  0
    1.5011    3.0233    2.4863 H   0  0  0  0  0  0  0  0  0  0  0  0
    0.6892    3.6247    1.0262 H   0  0  0  0  0  0  0  0  0  0  0  0
  1  2  1  0  0  0  0
  2  3  1  0  0  0  0
  2  4  1  0  0  0  0
  2  5  1  0  0  0  0
  5  6  2  0  0  0  0
  5  7  1  0  0  0  0
  7  8  1  0  0  0  0
  7  9  1  0  0  0  0
  9 10  1  0  0  0  0
  9 11  1  0  0  0  0
  9 19  1  0  0  0  0
 11 12  1  0  0  0  0
 11 13  1  0  0  0  0
 11 14  1  0  0  0  0
 14 15  2  0  0  0  0
 14 16  1  0  0  0  0
 16 17  1  0  0  0  0
 16 18  1  0  0  0  0
 19 20  2  0  0  0  0
 19 21  1  0  0  0  0
 21 22  1  0  0  0  0
 21 23  1  0  0  0  0
 23 24  1  0  0  0  0
 23 25  1  0  0  0  0
 23 26  1  0  0  0  0
M  END
$$$$

  -OEChem-04042215573D

 26 25  0     1  0  0  0  0  0999 V2000
   -3.0263   -3.8479    0.8063 H   0  0  0  0  0  0  0  0  0  0  0  0
   -3.0136   -2.8312    0.4031 C   0  0  0  0  0  0  0  0  0  0  0  0
   -3.5637   -2.1771    1.0840 H   0  0  0  0  0  0  0  0  0  0  0  0
   -3.5105   -2.8320   -0.5700 H   0  0  0  0  0  0  0  0  0  0  0  0
   -1.5841   -2.3440    0.2568 C   0  0  0  0  0  0  0  0  0  0  0  0
   -0.6534   -3.0814    0.5320 O   0  0  0  0  0  0  0  0  0  0  0  0
   -1.3344   -1.0700   -0.2135 N   0  0  0  0  0  0  0  0  0  0  0  0
   -2.1387   -0.4479   -0.3048 H   0  0  0  0  0  0  0  0  0  0  0  0
   -0.0125   -0.4182   -0.2020 C   0  0  1  0  0  0  0  0  0  0  0  0
    0.6353   -0.9499    0.5043 H   0  0  0  0  0  0  0  0  0  0  0  0
    0.7023   -0.4023   -1.5728 C   0  0  0  0  0  0  0  0  0  0  0  0
    0.2263    0.3525   -2.2055 H   0  0  0  0  0  0  0  0  0  0  0  0
    1.7425   -0.0976   -1.4260 H   0  0  0  0  0  0  0  0  0  0  0  0
    0.6902   -1.7047   -2.3648 C   0  0  0  0  0  0  0  0  0  0  0  0
    1.7067   -2.1079   -2.8969 O   0  0  0  0  0  0  0  0  0  0  0  0
   -0.4562   -2.3193   -2.7775 N   0  0  0  0  0  0  0  0  0  0  0  0
   -0.3224   -3.2315   -3.2032 H   0  0  0  0  0  0  0  0  0  0  0  0
   -1.2933   -2.1350   -2.2381 H   0  0  0  0  0  0  0  0  0  0  0  0
   -0.1500    1.0299    0.3057 C   0  0  0  0  0  0  0  0  0  0  0  0
   -1.1145    1.6998   -0.0440 O   0  0  0  0  0  0  0  0  0  0  0  0
    0.7386    1.5425    1.2323 N   0  0  0  0  0  0  0  0  0  0  0  0
    1.5117    0.9524    1.5277 H   0  0  0  0  0  0  0  0  0  0  0  0
    0.6255    2.8848    1.7906 C   0  0  0  0  0  0  0  0  0  0  0  0
   -0.3290    3.0036    2.3143 H   0  0  0  0  0  0  0  0  0  0  0  0
    1.4353    3.0673    2.5038 H   0  0  0  0  0  0  0  0  0  0  0  0
    0.6883    3.6363    0.9965 H   0  0  0  0  0  0  0  0  0  0  0  0
  1  2  1  0  0  0  0
  2  3  1  0  0  0  0
  2  4  1  0  0  0  0
  2  5  1  0  0  0  0
  5  6  2  0  0  0  0
  5  7  1  0  0  0  0
  7  8  1  0  0  0  0
  7  9  1  0  0  0  0
  9 10  1  0  0  0  0
  9 11  1  0  0  0  0
  9 19  1  0  0  0  0
 11 12  1  0  0  0  0
 11 13  1  0  0  0  0
 11 14  1  0  0  0  0
 14 15  2  0  0  0  0
 14 16  1  0  0  0  0
 16 17  1  0  0  0  0
 16 18  1  0  0  0  0
 19 20  2  0  0  0  0
 19 21  1  0  0  0  0
 21 22  1  0  0  0  0
 21 23  1  0  0  0  0
 23 24  1  0  0  0  0
 23 25  1  0  0  0  0
 23 26  1  0  0  0  0
M  END
$$$$

  -OEChem-04042215573D

 26 25  0     1  0  0  0  0  0999 V2000
   -3.0019   -3.8650    0.7475 H   0  0  0  0  0  0  0  0  0  0  0  0
   -2.9930   -2.8474    0.3465 C   0  0  0  0  0  0  0  0  0  0  0  0
   -3.5581   -2.1994    1.0210 H   0  0  0  0  0  0  0  0  0  0  0  0
   -3.4765   -2.8513   -0.6333 H   0  0  0  0  0  0  0  0  0  0  0  0
   -1.5661   -2.3470    0.2212 C   0  0  0  0  0  0  0  0  0  0  0  0
   -0.6341   -3.0739    0.5191 O   0  0  0  0  0  0  0  0  0  0  0  0
   -1.3246   -1.0656   -0.2329 N   0  0  0  0  0  0  0  0  0  0  0  0
   -2.1340   -0.4508   -0.3244 H   0  0  0  0  0  0  0  0  0  0  0  0
   -0.0076   -0.4052   -0.2152 C   0  0  1  0  0  0  0  0  0  0  0  0
    0.6497   -0.9423    0.4780 H   0  0  0  0  0  0  0  0  0  0  0  0
    0.6831   -0.3812   -1.5955 C   0  0  0  0  0  0  0  0  0  0  0  0
    0.1993    0.3740   -2.2219 H   0  0  0  0  0  0  0  0  0  0  0  0
    1.7274   -0.0811   -1.4689 H   0  0  0  0  0  0  0  0  0  0  0  0
    0.6442   -1.6942   -2.3656 C   0  0  0  0  0  0  0  0  0  0  0  0
    1.6731   -2.2581   -2.6853 O   0  0  0  0  0  0  0  0  0  0  0  0
   -0.4977   -2.1820   -2.9341 N   0  0  0  0  0  0  0  0  0  0  0  0
   -0.4230   -3.1219   -3.3121 H   0  0  0  0  0  0  0  0  0  0  0  0
   -1.3807   -1.8558   -2.5597 H   0  0  0  0  0  0  0  0  0  0  0  0
   -0.1465    1.0360    0.3095 C   0  0  0  0  0  0  0  0  0  0  0  0
   -1.1059    1.7123   -0.0421 O   0  0  0  0  0  0  0  0  0  0  0  0
    0.7432    1.5406    1.2393 N   0  0  0  0  0  0  0  0  0  0  0  0
    1.5120    0.9446    1.5343 H   0  0  0  0  0  0  0  0  0  0  0  0
    0.6339    2.8802    1.8045 C   0  0  0  0  0  0  0  0  0  0  0  0
   -0.3189    2.9976    2.3313 H   0  0  0  0  0  0  0  0  0  0  0  0
    1.4461    3.0583    2.5160 H   0  0  0  0  0  0  0  0  0  0  0  0
    0.6952    3.6357    1.0140 H   0  0  0  0  0  0  0  0  0  0  0  0
  1  2  1  0  0  0  0
  2  3  1  0  0  0  0
  2  4  1  0  0  0  0
  2  5  1  0  0  0  0
  5  6  2  0  0  0  0
  5  7  1  0  0  0  0
  7  8  1  0  0  0  0
  7  9  1  0  0  0  0
  9 10  1  0  0  0  0
  9 11  1  0  0  0  0
  9 19  1  0  0  0  0
 11 12  1  0  0  0  0
 11 13  1  0  0  0  0
 11 14  1  0  0  0  0
 14 15  2  0  0  0  0
 14 16  1  0  0  0  0
 16 17  1  0  0  0  0
 16 18  1  0  0  0  0
 19 20  2  0  0  0  0
 19 21  1  0  0  0  0
 21 22  1  0  0  0  0
 21 23  1  0  0  0  0
 23 24  1  0  0  0  0
 23 25  1  0  0  0  0
 23 26  1  0  0  0  0
M  END
$$$$

  -OEChem-04042215573D

 26 25  0     1  0  0  0  0  0999 V2000
   -2.9737   -3.8910    0.6696 H   0  0  0  0  0  0  0  0  0  0  0  0
   -2.9703   -2.8715    0.2735 C   0  0  0  0  0  0  0  0  0  0  0  0
   -3.5708   -2.2373    0.9303 H   0  0  0  0  0  0  0  0  0  0  0  0
   -3.4178   -2.8803   -0.7232 H   0  0  0  0  0  0  0  0  0  0  0  0
   -1.5491   -2.3456    0.2005 C   0  0  0  0  0  0  0  0  0  0  0  0
   -0.6189   -3.0541    0.5446 O   0  0  0  0  0  0  0  0  0  0  0  0
   -1.3128   -1.0595   -0.2435 N   0  0  0  0  0  0  0  0  0  0  0  0
   -2.1264   -0.4563   -0.3637 H   0  0  0  0  0  0  0  0  0  0  0  0
    0.0003   -0.3920   -0.2209 C   0  0  1  0  0  0  0  0  0  0  0  0
    0.6661   -0.9330    0.4609 H   0  0  0  0  0  0  0  0  0  0  0  0
    0.6681   -0.3590   -1.6106 C   0  0  0  0  0  0  0  0  0  0  0  0
    0.1786    0.3992   -2.2284 H   0  0  0  0  0  0  0  0  0  0  0  0
    1.7160   -0.0650   -1.5013 H   0  0  0  0  0  0  0  0  0  0  0  0
    0.6091   -1.6767   -2.3692 C   0  0  0  0  0  0  0  0  0  0  0  0
    1.5915   -2.3850   -2.4744 O   0  0  0  0  0  0  0  0  0  0  0  0
   -0.4915   -2.0640   -3.0802 N   0  0  0  0  0  0  0  0  0  0  0  0
   -0.4746   -3.0201   -3.4232 H   0  0  0  0  0  0  0  0  0  0  0  0
   -1.3747   -1.6117   -2.8750 H   0  0  0  0  0  0  0  0  0  0  0  0
   -0.1400    1.0451    0.3138 C   0  0  0  0  0  0  0  0  0  0  0  0
   -1.0898    1.7299   -0.0479 O   0  0  0  0  0  0  0  0  0  0  0  0
    0.7505    1.5439    1.2458 N   0  0  0  0  0  0  0  0  0  0  0  0
    1.5078    0.9381    1.5507 H   0  0  0  0  0  0  0  0  0  0  0  0
    0.6488    2.8833    1.8124 C   0  0  0  0  0  0  0  0  0  0  0  0
   -0.3050    3.0075    2.3358 H   0  0  0  0  0  0  0  0  0  0  0  0
    1.4596    3.0542    2.5271 H   0  0  0  0  0  0  0  0  0  0  0  0
    0.7191    3.6392    1.0232 H   0  0  0  0  0  0  0  0  0  0  0  0
  1  2  1  0  0  0  0
  2  3  1  0  0  0  0
  2  4  1  0  0  0  0
  2  5  1  0  0  0  0
  5  6  2  0  0  0  0
  5  7  1  0  0  0  0
  7  8  1  0  0  0  0
  7  9  1  0  0  0  0
  9 10  1  0  0  0  0
  9 11  1  0  0  0  0
  9 19  1  0  0  0  0
 11 12  1  0  0  0  0
 11 13  1  0  0  0  0
 11 14  1  0  0  0  0
 14 15  2  0  0  0  0
 14 16  1  0  0  0  0
 16 17  1  0  0  0  0
 16 18  1  0  0  0  0
 19 20  2  0  0  0  0
 19 21  1  0  0  0  0
 21 22  1  0  0  0  0
 21 23  1  0  0  0  0
 23 24  1  0  0  0  0
 23 25  1  0  0  0  0
 23 26  1  0  0  0  0
M  END
$$$$

  -OEChem-04042215573D

 26 25  0     1  0  0  0  0  0999 V2000
   -2.9598   -3.9109    0.5916 H   0  0  0  0  0  0  0  0  0  0  0  0
   -2.9491   -2.8871    0.2066 C   0  0  0  0  0  0  0  0  0  0  0  0
   -3.5809   -2.2647    0.8449 H   0  0  0  0  0  0  0  0  0  0  0  0
   -3.3559   -2.8888   -0.8073 H   0  0  0  0  0  0  0  0  0  0  0  0
   -1.5314   -2.3472    0.1957 C   0  0  0  0  0  0  0  0  0  0  0  0
   -0.6144   -3.0369    0.6061 O   0  0  0  0  0  0  0  0  0  0  0  0
   -1.2923   -1.0607   -0.2452 N   0  0  0  0  0  0  0  0  0  0  0  0
   -2.1064   -0.4726   -0.4195 H   0  0  0  0  0  0  0  0  0  0  0  0
    0.0173   -0.3874   -0.2203 C   0  0  1  0  0  0  0  0  0  0  0  0
    0.6911   -0.9300    0.4526 H   0  0  0  0  0  0  0  0  0  0  0  0
    0.6659   -0.3432   -1.6186 C   0  0  0  0  0  0  0  0  0  0  0  0
    0.1686    0.4188   -2.2257 H   0  0  0  0  0  0  0  0  0  0  0  0
    1.7155   -0.0514   -1.5235 H   0  0  0  0  0  0  0  0  0  0  0  0
    0.5951   -1.6594   -2.3762 C   0  0  0  0  0  0  0  0  0  0  0  0
    1.4748   -2.4920   -2.2791 O   0  0  0  0  0  0  0  0  0  0  0  0
   -0.4295   -1.9570   -3.2297 N   0  0  0  0  0  0  0  0  0  0  0  0
   -0.4699   -2.9213   -3.5471 H   0  0  0  0  0  0  0  0  0  0  0  0
   -1.2715   -1.3938   -3.1917 H   0  0  0  0  0  0  0  0  0  0  0  0
   -0.1275    1.0487    0.3152 C   0  0  0  0  0  0  0  0  0  0  0  0
   -1.0677    1.7385   -0.0625 O   0  0  0  0  0  0  0  0  0  0  0  0
    0.7608    1.5493    1.2485 N   0  0  0  0  0  0  0  0  0  0  0  0
    1.5077    0.9379    1.5680 H   0  0  0  0  0  0  0  0  0  0  0  0
    0.6541    2.8878    1.8164 C   0  0  0  0  0  0  0  0  0  0  0  0
   -0.3042    3.0112    2.3318 H   0  0  0  0  0  0  0  0  0  0  0  0
    1.4587    3.0574    2.5385 H   0  0  0  0  0  0  0  0  0  0  0  0
    0.7312    3.6450    1.0289 H   0  0  0  0  0  0  0  0  0  0  0  0
  1  2  1  0  0  0  0
  2  3  1  0  0  0  0
  2  4  1  0  0  0  0
  2  5  1  0  0  0  0
  5  6  2  0  0  0  0
  5  7  1  0  0  0  0
  7  8  1  0  0  0  0
  7  9  1  0  0  0  0
  9 10  1  0  0  0  0
  9 11  1  0  0  0  0
  9 19  1  0  0  0  0
 11 12  1  0  0  0  0
 11 13  1  0  0  0  0
 11 14  1  0  0  0  0
 14 15  2  0  0  0  0
 14 16  1  0  0  0  0
 16 17  1  0  0  0  0
 16 18  1  0  0  0  0
 19 20  2  0  0  0  0
 19 21  1  0  0  0  0
 21 22  1  0  0  0  0
 21 23  1  0  0  0  0
 23 24  1  0  0  0  0
 23 25  1  0  0  0  0
 23 26  1  0  0  0  0
M  END
$$$$

  -OEChem-04042215573D

 26 25  0     1  0  0  0  0  0999 V2000
   -2.9401   -3.9341    0.5311 H   0  0  0  0  0  0  0  0  0  0  0  0
   -2.9286   -2.9078    0.1532 C   0  0  0  0  0  0  0  0  0  0  0  0
   -3.6031   -2.3005    0.7615 H   0  0  0  0  0  0  0  0  0  0  0  0
   -3.2826   -2.9104   -0.8803 H   0  0  0  0  0  0  0  0  0  0  0  0
   -1.5217   -2.3438    0.2183 C   0  0  0  0  0  0  0  0  0  0  0  0
   -0.6268   -3.0017    0.7203 O   0  0  0  0  0  0  0  0  0  0  0  0
   -1.2774   -1.0611   -0.2317 N   0  0  0  0  0  0  0  0  0  0  0  0
   -2.0855   -0.4935   -0.4818 H   0  0  0  0  0  0  0  0  0  0  0  0
    0.0319   -0.3879   -0.2074 C   0  0  1  0  0  0  0  0  0  0  0  0
    0.7100   -0.9290    0.4626 H   0  0  0  0  0  0  0  0  0  0  0  0
    0.6668   -0.3428   -1.6128 C   0  0  0  0  0  0  0  0  0  0  0  0
    0.1660    0.4232   -2.2118 H   0  0  0  0  0  0  0  0  0  0  0  0
    1.7184   -0.0553   -1.5273 H   0  0  0  0  0  0  0  0  0  0  0  0
    0.5877   -1.6567   -2.3735 C   0  0  0  0  0  0  0  0  0  0  0  0
    1.3062   -2.5967   -2.0986 O   0  0  0  0  0  0  0  0  0  0  0  0
   -0.3014   -1.8552   -3.3919 N   0  0  0  0  0  0  0  0  0  0  0  0
   -0.3937   -2.8111   -3.7230 H   0  0  0  0  0  0  0  0  0  0  0  0
   -1.0482   -1.1844   -3.5342 H   0  0  0  0  0  0  0  0  0  0  0  0
   -0.1132    1.0526    0.3163 C   0  0  0  0  0  0  0  0  0  0  0  0
   -1.0387    1.7493   -0.0848 O   0  0  0  0  0  0  0  0  0  0  0  0
    0.7730    1.5584    1.2486 N   0  0  0  0  0  0  0  0  0  0  0  0
    1.4964    0.9361    1.5994 H   0  0  0  0  0  0  0  0  0  0  0  0
    0.6614    2.8976    1.8137 C   0  0  0  0  0  0  0  0  0  0  0  0
   -0.2918    3.0132    2.3405 H   0  0  0  0  0  0  0  0  0  0  0  0
    1.4734    3.0766    2.5251 H   0  0  0  0  0  0  0  0  0  0  0  0
    0.7220    3.6536    1.0235 H   0  0  0  0  0  0  0  0  0  0  0  0
  1  2  1  0  0  0  0
  2  3  1  0  0  0  0
  2  4  1  0  0  0  0
  2  5  1  0  0  0  0
  5  6  2  0  0  0  0
  5  7  1  0  0  0  0
  7  8  1  0  0  0  0
  7  9  1  0  0  0  0
  9 10  1  0  0  0  0
  9 11  1  0  0  0  0
  9 19  1  0  0  0  0
 11 12  1  0  0  0  0
 11 13  1  0  0  0  0
 11 14  1  0  0  0  0
 14 15  2  0  0  0  0
 14 16  1  0  0  0  0
 16 17  1  0  0  0  0
 16 18  1  0  0  0  0
 19 20  2  0  0  0  0
 19 21  1  0  0  0  0
 21 22  1  0  0  0  0
 21 23  1  0  0  0  0
 23 24  1  0  0  0  0
 23 25  1  0  0  0  0
 23 26  1  0  0  0  0
M  END
$$$$

  -OEChem-04042215573D

 26 25  0     1  0  0  0  0  0999 V2000
   -2.9192   -3.9628    0.4888 H   0  0  0  0  0  0  0  0  0  0  0  0
   -2.9079   -2.9380    0.1069 C   0  0  0  0  0  0  0  0  0  0  0  0
   -3.6342   -2.3442    0.6672 H   0  0  0  0  0  0  0  0  0  0  0  0
   -3.1934   -2.9533   -0.9476 H   0  0  0  0  0  0  0  0  0  0  0  0
   -1.5218   -2.3402    0.2595 C   0  0  0  0  0  0  0  0  0  0  0  0
   -0.6581   -2.9558    0.8615 O   0  0  0  0  0  0  0  0  0  0  0  0
   -1.2748   -1.0625   -0.2037 N   0  0  0  0  0  0  0  0  0  0  0  0
   -2.0692   -0.5276   -0.5491 H   0  0  0  0  0  0  0  0  0  0  0  0
    0.0355   -0.3921   -0.1825 C   0  0  1  0  0  0  0  0  0  0  0  0
    0.7153   -0.9307    0.4873 H   0  0  0  0  0  0  0  0  0  0  0  0
    0.6613   -0.3503   -1.5940 C   0  0  0  0  0  0  0  0  0  0  0  0
    0.1564    0.4183   -2.1863 H   0  0  0  0  0  0  0  0  0  0  0  0
    1.7132   -0.0628   -1.5161 H   0  0  0  0  0  0  0  0  0  0  0  0
    0.5790   -1.6599   -2.3639 C   0  0  0  0  0  0  0  0  0  0  0  0
    1.0866   -2.6849   -1.9559 O   0  0  0  0  0  0  0  0  0  0  0  0
   -0.1050   -1.7617   -3.5422 N   0  0  0  0  0  0  0  0  0  0  0  0
   -0.2457   -2.7020   -3.9001 H   0  0  0  0  0  0  0  0  0  0  0  0
   -0.7053   -0.9996   -3.8379 H   0  0  0  0  0  0  0  0  0  0  0  0
   -0.1060    1.0544    0.3263 C   0  0  0  0  0  0  0  0  0  0  0  0
   -1.0096    1.7623   -0.1042 O   0  0  0  0  0  0  0  0  0  0  0  0
    0.7809    1.5643    1.2558 N   0  0  0  0  0  0  0  0  0  0  0  0
    1.4795    0.9318    1.6371 H   0  0  0  0  0  0  0  0  0  0  0  0
    0.6803    2.9129    1.8005 C   0  0  0  0  0  0  0  0  0  0  0  0
   -0.2662    3.0401    2.3362 H   0  0  0  0  0  0  0  0  0  0  0  0
    1.5016    3.1008    2.4988 H   0  0  0  0  0  0  0  0  0  0  0  0
    0.7339    3.6558    0.9977 H   0  0  0  0  0  0  0  0  0  0  0  0
  1  2  1  0  0  0  0
  2  3  1  0  0  0  0
  2  4  1  0  0  0  0
  2  5  1  0  0  0  0
  5  6  2  0  0  0  0
  5  7  1  0  0  0  0
  7  8  1  0  0  0  0
  7  9  1  0  0  0  0
  9 10  1  0  0  0  0
  9 11  1  0  0  0  0
  9 19  1  0  0  0  0
 11 12  1  0  0  0  0
 11 13  1  0  0  0  0
 11 14  1  0  0  0  0
 14 15  2  0  0  0  0
 14 16  1  0  0  0  0
 16 17  1  0  0  0  0
 16 18  1  0  0  0  0
 19 20  2  0  0  0  0
 19 21  1  0  0  0  0
 21 22  1  0  0  0  0
 21 23  1  0  0  0  0
 23 24  1  0  0  0  0
 23 25  1  0  0  0  0
 23 26  1  0  0  0  0
M  END
$$$$

  -OEChem-04042215573D

 26 25  0     1  0  0  0  0  0999 V2000
   -2.9005   -3.9797    0.5031 H   0  0  0  0  0  0  0  0  0  0  0  0
   -2.8867   -2.9709    0.0809 C   0  0  0  0  0  0  0  0  0  0  0  0
   -3.6739   -2.3787    0.5532 H   0  0  0  0  0  0  0  0  0  0  0  0
   -3.0817   -3.0372   -0.9919 H   0  0  0  0  0  0  0  0  0  0  0  0
   -1.5357   -2.3243    0.3207 C   0  0  0  0  0  0  0  0  0  0  0  0
   -0.7070   -2.8883    1.0170 O   0  0  0  0  0  0  0  0  0  0  0  0
   -1.2899   -1.0536   -0.1633 N   0  0  0  0  0  0  0  0  0  0  0  0
   -2.0603   -0.5653   -0.6141 H   0  0  0  0  0  0  0  0  0  0  0  0
    0.0252   -0.3938   -0.1558 C   0  0  1  0  0  0  0  0  0  0  0  0
    0.7067   -0.9308    0.5134 H   0  0  0  0  0  0  0  0  0  0  0  0
    0.6397   -0.3662   -1.5752 C   0  0  0  0  0  0  0  0  0  0  0  0
    0.1308    0.4036   -2.1624 H   0  0  0  0  0  0  0  0  0  0  0  0
    1.6926   -0.0813   -1.5054 H   0  0  0  0  0  0  0  0  0  0  0  0
    0.5511   -1.6706   -2.3569 C   0  0  0  0  0  0  0  0  0  0  0  0
    0.8106   -2.7533   -1.8724 O   0  0  0  0  0  0  0  0  0  0  0  0
    0.1555   -1.6936   -3.6644 N   0  0  0  0  0  0  0  0  0  0  0  0
   -0.0085   -2.6094   -4.0725 H   0  0  0  0  0  0  0  0  0  0  0  0
   -0.2359   -0.8587   -4.0868 H   0  0  0  0  0  0  0  0  0  0  0  0
   -0.1005    1.0611    0.3346 C   0  0  0  0  0  0  0  0  0  0  0  0
   -0.9820    1.7828   -0.1185 O   0  0  0  0  0  0  0  0  0  0  0  0
    0.7968    1.5716    1.2541 N   0  0  0  0  0  0  0  0  0  0  0  0
    1.4645    0.9252    1.6659 H   0  0  0  0  0  0  0  0  0  0  0  0
    0.7072    2.9243    1.7903 C   0  0  0  0  0  0  0  0  0  0  0  0
   -0.2356    3.0602    2.3307 H   0  0  0  0  0  0  0  0  0  0  0  0
    1.5336    3.1119    2.4826 H   0  0  0  0  0  0  0  0  0  0  0  0
    0.7606    3.6621    0.9826 H   0  0  0  0  0  0  0  0  0  0  0  0
  1  2  1  0  0  0  0
  2  3  1  0  0  0  0
  2  4  1  0  0  0  0
  2  5  1  0  0  0  0
  5  6  2  0  0  0  0
  5  7  1  0  0  0  0
  7  8  1  0  0  0  0
  7  9  1  0  0  0  0
  9 10  1  0  0  0  0
  9 11  1  0  0  0  0
  9 19  1  0  0  0  0
 11 12  1  0  0  0  0
 11 13  1  0  0  0  0
 11 14  1  0  0  0  0
 14 15  2  0  0  0  0
 14 16  1  0  0  0  0
 16 17  1  0  0  0  0
 16 18  1  0  0  0  0
 19 20  2  0  0  0  0
 19 21  1  0  0  0  0
 21 22  1  0  0  0  0
 21 23  1  0  0  0  0
 23 24  1  0  0  0  0
 23 25  1  0  0  0  0
 23 26  1  0  0  0  0
M  END
$$$$

  -OEChem-04042215573D

 26 25  0     1  0  0  0  0  0999 V2000
   -2.9195   -3.9674    0.5727 H   0  0  0  0  0  0  0  0  0  0  0  0
   -2.8810   -2.9925    0.0790 C   0  0  0  0  0  0  0  0  0  0  0  0
   -3.7063   -2.3776    0.4456 H   0  0  0  0  0  0  0  0  0  0  0  0
   -2.9926   -3.1400   -0.9978 H   0  0  0  0  0  0  0  0  0  0  0  0
   -1.5560   -2.3136    0.3697 C   0  0  0  0  0  0  0  0  0  0  0  0
   -0.7507   -2.8443    1.1193 O   0  0  0  0  0  0  0  0  0  0  0  0
   -1.3091   -1.0492   -0.1304 N   0  0  0  0  0  0  0  0  0  0  0  0
   -2.0560   -0.6005   -0.6550 H   0  0  0  0  0  0  0  0  0  0  0  0
    0.0126   -0.4024   -0.1352 C   0  0  1  0  0  0  0  0  0  0  0  0
    0.6930   -0.9390    0.5350 H   0  0  0  0  0  0  0  0  0  0  0  0
    0.6260   -0.3834   -1.5579 C   0  0  0  0  0  0  0  0  0  0  0  0
    0.1185    0.3897   -2.1421 H   0  0  0  0  0  0  0  0  0  0  0  0
    1.6793   -0.1007   -1.4856 H   0  0  0  0  0  0  0  0  0  0  0  0
    0.5401   -1.6756   -2.3635 C   0  0  0  0  0  0  0  0  0  0  0  0
    0.5332   -2.7861   -1.8723 O   0  0  0  0  0  0  0  0  0  0  0  0
    0.4652   -1.6489   -3.7272 N   0  0  0  0  0  0  0  0  0  0  0  0
    0.2743   -2.5348   -4.1867 H   0  0  0  0  0  0  0  0  0  0  0  0
    0.2942   -0.7701   -4.2043 H   0  0  0  0  0  0  0  0  0  0  0  0
   -0.1002    1.0583    0.3425 C   0  0  0  0  0  0  0  0  0  0  0  0
   -0.9645    1.7902   -0.1274 O   0  0  0  0  0  0  0  0  0  0  0  0
    0.8048    1.5696    1.2541 N   0  0  0  0  0  0  0  0  0  0  0  0
    1.4545    0.9171    1.6848 H   0  0  0  0  0  0  0  0  0  0  0  0
    0.7277    2.9294    1.7745 C   0  0  0  0  0  0  0  0  0  0  0  0
   -0.2146    3.0809    2.3114 H   0  0  0  0  0  0  0  0  0  0  0  0
    1.5548    3.1176    2.4657 H   0  0  0  0  0  0  0  0  0  0  0  0
    0.7888    3.6568    0.9581 H   0  0  0  0  0  0  0  0  0  0  0  0
  1  2  1  0  0  0  0
  2  3  1  0  0  0  0
  2  4  1  0  0  0  0
  2  5  1  0  0  0  0
  5  6  2  0  0  0  0
  5  7  1  0  0  0  0
  7  8  1  0  0  0  0
  7  9  1  0  0  0  0
  9 10  1  0  0  0  0
  9 11  1  0  0  0  0
  9 19  1  0  0  0  0
 11 12  1  0  0  0  0
 11 13  1  0  0  0  0
 11 14  1  0  0  0  0
 14 15  2  0  0  0  0
 14 16  1  0  0  0  0
 16 17  1  0  0  0  0
 16 18  1  0  0  0  0
 19 20  2  0  0  0  0
 19 21  1  0  0  0  0
 21 22  1  0  0  0  0
 21 23  1  0  0  0  0
 23 24  1  0  0  0  0
 23 25  1  0  0  0  0
 23 26  1  0  0  0  0
M  END
$$$$

  -OEChem-04042215573D

 26 25  0     1  0  0  0  0  0999 V2000
   -2.9317   -3.9671    0.6031 H   0  0  0  0  0  0  0  0  0  0  0  0
   -2.8889   -3.0013    0.0922 C   0  0  0  0  0  0  0  0  0  0  0  0
   -3.7286   -2.3869    0.4250 H   0  0  0  0  0  0  0  0  0  0  0  0
   -2.9703   -3.1697   -0.9843 H   0  0  0  0  0  0  0  0  0  0  0  0
   -1.5782   -2.3044    0.4035 C   0  0  0  0  0  0  0  0  0  0  0  0
   -0.7809   -2.8183    1.1745 O   0  0  0  0  0  0  0  0  0  0  0  0
   -1.3317   -1.0446   -0.1090 N   0  0  0  0  0  0  0  0  0  0  0  0
   -2.0629   -0.6244   -0.6769 H   0  0  0  0  0  0  0  0  0  0  0  0
   -0.0056   -0.4078   -0.1245 C   0  0  1  0  0  0  0  0  0  0  0  0
    0.6712   -0.9431    0.5501 H   0  0  0  0  0  0  0  0  0  0  0  0
    0.6159   -0.3996   -1.5460 C   0  0  0  0  0  0  0  0  0  0  0  0
    0.1131    0.3742   -2.1333 H   0  0  0  0  0  0  0  0  0  0  0  0
    1.6681   -0.1156   -1.4634 H   0  0  0  0  0  0  0  0  0  0  0  0
    0.5428   -1.6820   -2.3721 C   0  0  0  0  0  0  0  0  0  0  0  0
    0.2745   -2.7823   -1.9334 O   0  0  0  0  0  0  0  0  0  0  0  0
    0.7945   -1.6540   -3.7141 N   0  0  0  0  0  0  0  0  0  0  0  0
    0.5932   -2.5078   -4.2270 H   0  0  0  0  0  0  0  0  0  0  0  0
    0.8483   -0.7625   -4.1952 H   0  0  0  0  0  0  0  0  0  0  0  0
   -0.1060    1.0576    0.3431 C   0  0  0  0  0  0  0  0  0  0  0  0
   -0.9580    1.7980   -0.1354 O   0  0  0  0  0  0  0  0  0  0  0  0
    0.8082    1.5662    1.2473 N   0  0  0  0  0  0  0  0  0  0  0  0
    1.4435    0.9072    1.6894 H   0  0  0  0  0  0  0  0  0  0  0  0
    0.7453    2.9294    1.7607 C   0  0  0  0  0  0  0  0  0  0  0  0
   -0.1947    3.0925    2.2983 H   0  0  0  0  0  0  0  0  0  0  0  0
    1.5753    3.1125    2.4499 H   0  0  0  0  0  0  0  0  0  0  0  0
    0.8129    3.6522    0.9408 H   0  0  0  0  0  0  0  0  0  0  0  0
  1  2  1  0  0  0  0
  2  3  1  0  0  0  0
  2  4  1  0  0  0  0
  2  5  1  0  0  0  0
  5  6  2  0  0  0  0
  5  7  1  0  0  0  0
  7  8  1  0  0  0  0
  7  9  1  0  0  0  0
  9 10  1  0  0  0  0
  9 11  1  0  0  0  0
  9 19  1  0  0  0  0
 11 12  1  0  0  0  0
 11 13  1  0  0  0  0
 11 14  1  0  0  0  0
 14 15  2  0  0  0  0
 14 16  1  0  0  0  0
 16 17  1  0  0  0  0
 16 18  1  0  0  0  0
 19 20  2  0  0  0  0
 19 21  1  0  0  0  0
 21 22  1  0  0  0  0
 21 23  1  0  0  0  0
 23 24  1  0  0  0  0
 23 25  1  0  0  0  0
 23 26  1  0  0  0  0
M  END
$$$$

  -OEChem-04042215573D

 26 25  0     1  0  0  0  0  0999 V2000
   -2.9541   -3.9608    0.6226 H   0  0  0  0  0  0  0  0  0  0  0  0
   -2.9062   -2.9980    0.1065 C   0  0  0  0  0  0  0  0  0  0  0  0
   -3.7450   -2.3788    0.4329 H   0  0  0  0  0  0  0  0  0  0  0  0
   -2.9844   -3.1723   -0.9695 H   0  0  0  0  0  0  0  0  0  0  0  0
   -1.5939   -2.3037    0.4176 C   0  0  0  0  0  0  0  0  0  0  0  0
   -0.7939   -2.8213    1.1840 O   0  0  0  0  0  0  0  0  0  0  0  0
   -1.3439   -1.0460   -0.0987 N   0  0  0  0  0  0  0  0  0  0  0  0
   -2.0649   -0.6391   -0.6888 H   0  0  0  0  0  0  0  0  0  0  0  0
   -0.0150   -0.4162   -0.1165 C   0  0  1  0  0  0  0  0  0  0  0  0
    0.6556   -0.9506    0.5647 H   0  0  0  0  0  0  0  0  0  0  0  0
    0.6210   -0.4127   -1.5334 C   0  0  0  0  0  0  0  0  0  0  0  0
    0.1273    0.3628   -2.1263 H   0  0  0  0  0  0  0  0  0  0  0  0
    1.6720   -0.1289   -1.4344 H   0  0  0  0  0  0  0  0  0  0  0  0
    0.5622   -1.6881   -2.3745 C   0  0  0  0  0  0  0  0  0  0  0  0
    0.0527   -2.7385   -2.0380 O   0  0  0  0  0  0  0  0  0  0  0  0
    1.0960   -1.7023   -3.6313 N   0  0  0  0  0  0  0  0  0  0  0  0
    0.8857   -2.5203   -4.1962 H   0  0  0  0  0  0  0  0  0  0  0  0
    1.3566   -0.8264   -4.0716 H   0  0  0  0  0  0  0  0  0  0  0  0
   -0.1115    1.0509    0.3479 C   0  0  0  0  0  0  0  0  0  0  0  0
   -0.9535    1.7961   -0.1405 O   0  0  0  0  0  0  0  0  0  0  0  0
    0.8037    1.5595    1.2513 N   0  0  0  0  0  0  0  0  0  0  0  0
    1.4292    0.8988    1.7044 H   0  0  0  0  0  0  0  0  0  0  0  0
    0.7535    2.9296    1.7477 C   0  0  0  0  0  0  0  0  0  0  0  0
   -0.1826    3.1067    2.2874 H   0  0  0  0  0  0  0  0  0  0  0  0
    1.5882    3.1154    2.4303 H   0  0  0  0  0  0  0  0  0  0  0  0
    0.8225    3.6415    0.9185 H   0  0  0  0  0  0  0  0  0  0  0  0
  1  2  1  0  0  0  0
  2  3  1  0  0  0  0
  2  4  1  0  0  0  0
  2  5  1  0  0  0  0
  5  6  2  0  0  0  0
  5  7  1  0  0  0  0
  7  8  1  0  0  0  0
  7  9  1  0  0  0  0
  9 10  1  0  0  0  0
  9 11  1  0  0  0  0
  9 19  1  0  0  0  0
 11 12  1  0  0  0  0
 11 13  1  0  0  0  0
 11 14  1  0  0  0  0
 14 15  2  0  0  0  0
 14 16  1  0  0  0  0
 16 17  1  0  0  0  0
 16 18  1  0  0  0  0
 19 20  2  0  0  0  0
 19 21  1  0  0  0  0
 21 22  1  0  0  0  0
 21 23  1  0  0  0  0
 23 24  1  0  0  0  0
 23 25  1  0  0  0  0
 23 26  1  0  0  0  0
M  END
$$$$

  -OEChem-04042215573D

 26 25  0     1  0  0  0  0  0999 V2000
   -2.9324   -3.9793    0.6033 H   0  0  0  0  0  0  0  0  0  0  0  0
   -2.9158   -2.9943    0.1290 C   0  0  0  0  0  0  0  0  0  0  0  0
   -3.7433   -2.3983    0.5204 H   0  0  0  0  0  0  0  0  0  0  0  0
   -3.0423   -3.1219   -0.9491 H   0  0  0  0  0  0  0  0  0  0  0  0
   -1.5965   -2.3007    0.4099 C   0  0  0  0  0  0  0  0  0  0  0  0
   -0.7637   -2.8353    1.1290 O   0  0  0  0  0  0  0  0  0  0  0  0
   -1.3649   -1.0347   -0.0942 N   0  0  0  0  0  0  0  0  0  0  0  0
   -2.0949   -0.6339   -0.6778 H   0  0  0  0  0  0  0  0  0  0  0  0
   -0.0387   -0.4017   -0.1368 C   0  0  1  0  0  0  0  0  0  0  0  0
    0.6470   -0.9408    0.5248 H   0  0  0  0  0  0  0  0  0  0  0  0
    0.5720   -0.3860   -1.5654 C   0  0  0  0  0  0  0  0  0  0  0  0
    0.0665    0.3917   -2.1456 H   0  0  0  0  0  0  0  0  0  0  0  0
    1.6225   -0.0971   -1.4786 H   0  0  0  0  0  0  0  0  0  0  0  0
    0.5041   -1.6542   -2.4192 C   0  0  0  0  0  0  0  0  0  0  0  0
   -0.2032   -2.6197   -2.2075 O   0  0  0  0  0  0  0  0  0  0  0  0
    1.2713   -1.7638   -3.5435 N   0  0  0  0  0  0  0  0  0  0  0  0
    1.2947   -2.6806   -3.9812 H   0  0  0  0  0  0  0  0  0  0  0  0
    2.0132   -1.0933   -3.7115 H   0  0  0  0  0  0  0  0  0  0  0  0
   -0.1261    1.0586    0.3512 C   0  0  0  0  0  0  0  0  0  0  0  0
   -0.9794    1.8105   -0.1053 O   0  0  0  0  0  0  0  0  0  0  0  0
    0.8111    1.5561    1.2385 N   0  0  0  0  0  0  0  0  0  0  0  0
    1.4415    0.8886    1.6741 H   0  0  0  0  0  0  0  0  0  0  0  0
    0.7675    2.9178    1.7585 C   0  0  0  0  0  0  0  0  0  0  0  0
   -0.1553    3.0824    2.3247 H   0  0  0  0  0  0  0  0  0  0  0  0
    1.6187    3.0969    2.4226 H   0  0  0  0  0  0  0  0  0  0  0  0
    0.8121    3.6433    0.9394 H   0  0  0  0  0  0  0  0  0  0  0  0
  1  2  1  0  0  0  0
  2  3  1  0  0  0  0
  2  4  1  0  0  0  0
  2  5  1  0  0  0  0
  5  6  2  0  0  0  0
  5  7  1  0  0  0  0
  7  8  1  0  0  0  0
  7  9  1  0  0  0  0
  9 10  1  0  0  0  0
  9 11  1  0  0  0  0
  9 19  1  0  0  0  0
 11 12  1  0  0  0  0
 11 13  1  0  0  0  0
 11 14  1  0  0  0  0
 14 15  2  0  0  0  0
 14 16  1  0  0  0  0
 16 17  1  0  0  0  0
 16 18  1  0  0  0  0
 19 20  2  0  0  0  0
 19 21  1  0  0  0  0
 21 22  1  0  0  0  0
 21 23  1  0  0  0  0
 23 24  1  0  0  0  0
 23 25  1  0  0  0  0
 23 26  1  0  0  0  0
M  END
$$$$

  -OEChem-04042215573D

 26 25  0     1  0  0  0  0  0999 V2000
   -2.9182   -3.9774    0.5859 H   0  0  0  0  0  0  0  0  0  0  0  0
   -2.9062   -2.9902    0.1165 C   0  0  0  0  0  0  0  0  0  0  0  0
   -3.7292   -2.3958    0.5196 H   0  0  0  0  0  0  0  0  0  0  0  0
   -3.0445   -3.1117   -0.9609 H   0  0  0  0  0  0  0  0  0  0  0  0
   -1.5839   -2.2983    0.3867 C   0  0  0  0  0  0  0  0  0  0  0  0
   -0.7327   -2.8475    1.0727 O   0  0  0  0  0  0  0  0  0  0  0  0
   -1.3615   -1.0263   -0.1052 N   0  0  0  0  0  0  0  0  0  0  0  0
   -2.0943   -0.6263   -0.6864 H   0  0  0  0  0  0  0  0  0  0  0  0
   -0.0397   -0.3859   -0.1475 C   0  0  1  0  0  0  0  0  0  0  0  0
    0.6483   -0.9244    0.5121 H   0  0  0  0  0  0  0  0  0  0  0  0
    0.5712   -0.3679   -1.5749 C   0  0  0  0  0  0  0  0  0  0  0  0
    0.0617    0.4047   -2.1584 H   0  0  0  0  0  0  0  0  0  0  0  0
    1.6196   -0.0715   -1.4891 H   0  0  0  0  0  0  0  0  0  0  0  0
    0.5042   -1.6439   -2.4181 C   0  0  0  0  0  0  0  0  0  0  0  0
   -0.3679   -2.4893   -2.3530 O   0  0  0  0  0  0  0  0  0  0  0  0
    1.4722   -1.9124   -3.3434 N   0  0  0  0  0  0  0  0  0  0  0  0
    1.4547   -2.8449   -3.7469 H   0  0  0  0  0  0  0  0  0  0  0  0
    2.3286   -1.3694   -3.3420 H   0  0  0  0  0  0  0  0  0  0  0  0
   -0.1292    1.0693    0.3543 C   0  0  0  0  0  0  0  0  0  0  0  0
   -0.9897    1.8215   -0.0874 O   0  0  0  0  0  0  0  0  0  0  0  0
    0.8113    1.5612    1.2413 N   0  0  0  0  0  0  0  0  0  0  0  0
    1.4505    0.8930    1.6626 H   0  0  0  0  0  0  0  0  0  0  0  0
    0.7628    2.9161    1.7782 C   0  0  0  0  0  0  0  0  0  0  0  0
   -0.1602    3.0699    2.3471 H   0  0  0  0  0  0  0  0  0  0  0  0
    1.6137    3.0901    2.4437 H   0  0  0  0  0  0  0  0  0  0  0  0
    0.8034    3.6517    0.9680 H   0  0  0  0  0  0  0  0  0  0  0  0
  1  2  1  0  0  0  0
  2  3  1  0  0  0  0
  2  4  1  0  0  0  0
  2  5  1  0  0  0  0
  5  6  2  0  0  0  0
  5  7  1  0  0  0  0
  7  8  1  0  0  0  0
  7  9  1  0  0  0  0
  9 10  1  0  0  0  0
  9 11  1  0  0  0  0
  9 19  1  0  0  0  0
 11 12  1  0  0  0  0
 11 13  1  0  0  0  0
 11 14  1  0  0  0  0
 14 15  2  0  0  0  0
 14 16  1  0  0  0  0
 16 17  1  0  0  0  0
 16 18  1  0  0  0  0
 19 20  2  0  0  0  0
 19 21  1  0  0  0  0
 21 22  1  0  0  0  0
 21 23  1  0  0  0  0
 23 24  1  0  0  0  0
 23 25  1  0  0  0  0
 23 26  1  0  0  0  0
M  END
$$$$

  -OEChem-04042215573D

 26 25  0     1  0  0  0  0  0999 V2000
   -2.8849   -3.9879    0.5397 H   0  0  0  0  0  0  0  0  0  0  0  0
   -2.8878   -2.9872    0.0994 C   0  0  0  0  0  0  0  0  0  0  0  0
   -3.6962   -2.4048    0.5475 H   0  0  0  0  0  0  0  0  0  0  0  0
   -3.0628   -3.0763   -0.9759 H   0  0  0  0  0  0  0  0  0  0  0  0
   -1.5566   -2.3031    0.3452 C   0  0  0  0  0  0  0  0  0  0  0  0
   -0.6805   -2.8728    0.9813 O   0  0  0  0  0  0  0  0  0  0  0  0
   -1.3468   -1.0224   -0.1274 N   0  0  0  0  0  0  0  0  0  0  0  0
   -2.0924   -0.6125   -0.6855 H   0  0  0  0  0  0  0  0  0  0  0  0
   -0.0337   -0.3657   -0.1652 C   0  0  1  0  0  0  0  0  0  0  0  0
    0.6602   -0.9034    0.4890 H   0  0  0  0  0  0  0  0  0  0  0  0
    0.5717   -0.3406   -1.5926 C   0  0  0  0  0  0  0  0  0  0  0  0
    0.0482    0.4212   -2.1782 H   0  0  0  0  0  0  0  0  0  0  0  0
    1.6165   -0.0289   -1.5177 H   0  0  0  0  0  0  0  0  0  0  0  0
    0.5036   -1.6301   -2.4141 C   0  0  0  0  0  0  0  0  0  0  0  0
   -0.4822   -2.3374   -2.5136 O   0  0  0  0  0  0  0  0  0  0  0  0
    1.6013   -2.0949   -3.0809 N   0  0  0  0  0  0  0  0  0  0  0  0
    1.5296   -3.0436   -3.4378 H   0  0  0  0  0  0  0  0  0  0  0  0
    2.5102   -1.6956   -2.8752 H   0  0  0  0  0  0  0  0  0  0  0  0
   -0.1330    1.0819    0.3561 C   0  0  0  0  0  0  0  0  0  0  0  0
   -1.0059    1.8305   -0.0663 O   0  0  0  0  0  0  0  0  0  0  0  0
    0.8076    1.5702    1.2450 N   0  0  0  0  0  0  0  0  0  0  0  0
    1.4599    0.9041    1.6487 H   0  0  0  0  0  0  0  0  0  0  0  0
    0.7522    2.9182    1.7990 C   0  0  0  0  0  0  0  0  0  0  0  0
   -0.1699    3.0588    2.3728 H   0  0  0  0  0  0  0  0  0  0  0  0
    1.6040    3.0894    2.4643 H   0  0  0  0  0  0  0  0  0  0  0  0
    0.7862    3.6644    0.9981 H   0  0  0  0  0  0  0  0  0  0  0  0
  1  2  1  0  0  0  0
  2  3  1  0  0  0  0
  2  4  1  0  0  0  0
  2  5  1  0  0  0  0
  5  6  2  0  0  0  0
  5  7  1  0  0  0  0
  7  8  1  0  0  0  0
  7  9  1  0  0  0  0
  9 10  1  0  0  0  0
  9 11  1  0  0  0  0
  9 19  1  0  0  0  0
 11 12  1  0  0  0  0
 11 13  1  0  0  0  0
 11 14  1  0  0  0  0
 14 15  2  0  0  0  0
 14 16  1  0  0  0  0
 16 17  1  0  0  0  0
 16 18  1  0  0  0  0
 19 20  2  0  0  0  0
 19 21  1  0  0  0  0
 21 22  1  0  0  0  0
 21 23  1  0  0  0  0
 23 24  1  0  0  0  0
 23 25  1  0  0  0  0
 23 26  1  0  0  0  0
M  END
$$$$

  -OEChem-04042215573D

 26 25  0     1  0  0  0  0  0999 V2000
   -2.8218   -4.0141    0.4546 H   0  0  0  0  0  0  0  0  0  0  0  0
   -2.8517   -2.9920    0.0676 C   0  0  0  0  0  0  0  0  0  0  0  0
   -3.6473   -2.4430    0.5766 H   0  0  0  0  0  0  0  0  0  0  0  0
   -3.0687   -3.0277   -1.0032 H   0  0  0  0  0  0  0  0  0  0  0  0
   -1.5183   -2.3066    0.2968 C   0  0  0  0  0  0  0  0  0  0  0  0
   -0.6174   -2.8924    0.8814 O   0  0  0  0  0  0  0  0  0  0  0  0
   -1.3227   -1.0168   -0.1558 N   0  0  0  0  0  0  0  0  0  0  0  0
   -2.0825   -0.5938   -0.6852 H   0  0  0  0  0  0  0  0  0  0  0  0
   -0.0188   -0.3415   -0.1858 C   0  0  1  0  0  0  0  0  0  0  0  0
    0.6818   -0.8771    0.4627 H   0  0  0  0  0  0  0  0  0  0  0  0
    0.5760   -0.3103   -1.6144 C   0  0  0  0  0  0  0  0  0  0  0  0
    0.0385    0.4397   -2.2022 H   0  0  0  0  0  0  0  0  0  0  0  0
    1.6193    0.0102   -1.5579 H   0  0  0  0  0  0  0  0  0  0  0  0
    0.4983   -1.6188   -2.4002 C   0  0  0  0  0  0  0  0  0  0  0  0
   -0.5479   -2.1785   -2.6759 O   0  0  0  0  0  0  0  0  0  0  0  0
    1.6266   -2.2966   -2.7638 N   0  0  0  0  0  0  0  0  0  0  0  0
    1.4761   -3.2554   -3.0653 H   0  0  0  0  0  0  0  0  0  0  0  0
    2.5093   -2.0352   -2.3393 H   0  0  0  0  0  0  0  0  0  0  0  0
   -0.1296    1.0976    0.3549 C   0  0  0  0  0  0  0  0  0  0  0  0
   -1.0207    1.8373   -0.0438 O   0  0  0  0  0  0  0  0  0  0  0  0
    0.8083    1.5848    1.2473 N   0  0  0  0  0  0  0  0  0  0  0  0
    1.4837    0.9272    1.6256 H   0  0  0  0  0  0  0  0  0  0  0  0
    0.7392    2.9244    1.8191 C   0  0  0  0  0  0  0  0  0  0  0  0
   -0.1848    3.0486    2.3934 H   0  0  0  0  0  0  0  0  0  0  0  0
    1.5885    3.0949    2.4877 H   0  0  0  0  0  0  0  0  0  0  0  0
    0.7664    3.6811    1.0279 H   0  0  0  0  0  0  0  0  0  0  0  0
  1  2  1  0  0  0  0
  2  3  1  0  0  0  0
  2  4  1  0  0  0  0
  2  5  1  0  0  0  0
  5  6  2  0  0  0  0
  5  7  1  0  0  0  0
  7  8  1  0  0  0  0
  7  9  1  0  0  0  0
  9 10  1  0  0  0  0
  9 11  1  0  0  0  0
  9 19  1  0  0  0  0
 11 12  1  0  0  0  0
 11 13  1  0  0  0  0
 11 14  1  0  0  0  0
 14 15  2  0  0  0  0
 14 16  1  0  0  0  0
 16 17  1  0  0  0  0
 16 18  1  0  0  0  0
 19 20  2  0  0  0  0
 19 21  1  0  0  0  0
 21 22  1  0  0  0  0
 21 23  1  0  0  0  0
 23 24  1  0  0  0  0
 23 25  1  0  0  0  0
 23 26  1  0  0  0  0
M  END
$$$$

  -OEChem-04042215573D

 26 25  0     1  0  0  0  0  0999 V2000
   -2.7950   -4.0092    0.4459 H   0  0  0  0  0  0  0  0  0  0  0  0
   -2.8257   -2.9873    0.0584 C   0  0  0  0  0  0  0  0  0  0  0  0
   -3.5984   -2.4293    0.5924 H   0  0  0  0  0  0  0  0  0  0  0  0
   -3.0779   -3.0212   -1.0048 H   0  0  0  0  0  0  0  0  0  0  0  0
   -1.4785   -2.3163    0.2442 C   0  0  0  0  0  0  0  0  0  0  0  0
   -0.5546   -2.9228    0.7687 O   0  0  0  0  0  0  0  0  0  0  0  0
   -1.2898   -1.0206   -0.1921 N   0  0  0  0  0  0  0  0  0  0  0  0
   -2.0692   -0.5714   -0.6696 H   0  0  0  0  0  0  0  0  0  0  0  0
    0.0055   -0.3281   -0.2059 C   0  0  1  0  0  0  0  0  0  0  0  0
    0.7086   -0.8603    0.4425 H   0  0  0  0  0  0  0  0  0  0  0  0
    0.5953   -0.2947   -1.6333 C   0  0  0  0  0  0  0  0  0  0  0  0
    0.0488    0.4446   -2.2269 H   0  0  0  0  0  0  0  0  0  0  0  0
    1.6384    0.0281   -1.5909 H   0  0  0  0  0  0  0  0  0  0  0  0
    0.5105   -1.6222   -2.3803 C   0  0  0  0  0  0  0  0  0  0  0  0
   -0.5297   -2.0445   -2.8534 O   0  0  0  0  0  0  0  0  0  0  0  0
    1.5766   -2.4722   -2.4519 N   0  0  0  0  0  0  0  0  0  0  0  0
    1.3453   -3.4215   -2.7307 H   0  0  0  0  0  0  0  0  0  0  0  0
    2.3562   -2.3155   -1.8231 H   0  0  0  0  0  0  0  0  0  0  0  0
   -0.1224    1.1046    0.3471 C   0  0  0  0  0  0  0  0  0  0  0  0
   -1.0275    1.8329   -0.0401 O   0  0  0  0  0  0  0  0  0  0  0  0
    0.8046    1.5941    1.2496 N   0  0  0  0  0  0  0  0  0  0  0  0
    1.4918    0.9436    1.6190 H   0  0  0  0  0  0  0  0  0  0  0  0
    0.7168    2.9269    1.8348 C   0  0  0  0  0  0  0  0  0  0  0  0
   -0.2114    3.0343    2.4062 H   0  0  0  0  0  0  0  0  0  0  0  0
    1.5606    3.1005    2.5095 H   0  0  0  0  0  0  0  0  0  0  0  0
    0.7392    3.6920    1.0515 H   0  0  0  0  0  0  0  0  0  0  0  0
  1  2  1  0  0  0  0
  2  3  1  0  0  0  0
  2  4  1  0  0  0  0
  2  5  1  0  0  0  0
  5  6  2  0  0  0  0
  5  7  1  0  0  0  0
  7  8  1  0  0  0  0
  7  9  1  0  0  0  0
  9 10  1  0  0  0  0
  9 11  1  0  0  0  0
  9 19  1  0  0  0  0
 11 12  1  0  0  0  0
 11 13  1  0  0  0  0
 11 14  1  0  0  0  0
 14 15  2  0  0  0  0
 14 16  1  0  0  0  0
 16 17  1  0  0  0  0
 16 18  1  0  0  0  0
 19 20  2  0  0  0  0
 19 21  1  0  0  0  0
 21 22  1  0  0  0  0
 21 23  1  0  0  0  0
 23 24  1  0  0  0  0
 23 25  1  0  0  0  0
 23 26  1  0  0  0  0
M  END
$$$$

  -OEChem-04042215573D

 26 25  0     1  0  0  0  0  0999 V2000
   -2.7838   -4.0021    0.4455 H   0  0  0  0  0  0  0  0  0  0  0  0
   -2.8158   -2.9764    0.0678 C   0  0  0  0  0  0  0  0  0  0  0  0
   -3.5589   -2.4131    0.6372 H   0  0  0  0  0  0  0  0  0  0  0  0
   -3.1116   -2.9974   -0.9844 H   0  0  0  0  0  0  0  0  0  0  0  0
   -1.4531   -2.3248    0.2047 C   0  0  0  0  0  0  0  0  0  0  0  0
   -0.5125   -2.9514    0.6726 O   0  0  0  0  0  0  0  0  0  0  0  0
   -1.2632   -1.0267   -0.2236 N   0  0  0  0  0  0  0  0  0  0  0  0
   -2.0625   -0.5425   -0.6299 H   0  0  0  0  0  0  0  0  0  0  0  0
    0.0278   -0.3248   -0.2214 C   0  0  1  0  0  0  0  0  0  0  0  0
    0.7267   -0.8528    0.4351 H   0  0  0  0  0  0  0  0  0  0  0  0
    0.6253   -0.2950   -1.6428 C   0  0  0  0  0  0  0  0  0  0  0  0
    0.0814    0.4382   -2.2469 H   0  0  0  0  0  0  0  0  0  0  0  0
    1.6693    0.0250   -1.6007 H   0  0  0  0  0  0  0  0  0  0  0  0
    0.5395   -1.6374   -2.3594 C   0  0  0  0  0  0  0  0  0  0  0  0
   -0.4185   -1.9424   -3.0462 O   0  0  0  0  0  0  0  0  0  0  0  0
    1.4705   -2.6177   -2.1686 N   0  0  0  0  0  0  0  0  0  0  0  0
    1.1720   -3.5402   -2.4723 H   0  0  0  0  0  0  0  0  0  0  0  0
    2.0657   -2.5437   -1.3510 H   0  0  0  0  0  0  0  0  0  0  0  0
   -0.1146    1.1053    0.3346 C   0  0  0  0  0  0  0  0  0  0  0  0
   -1.0394    1.8165   -0.0371 O   0  0  0  0  0  0  0  0  0  0  0  0
    0.7989    1.5999    1.2478 N   0  0  0  0  0  0  0  0  0  0  0  0
    1.5119    0.9657    1.5958 H   0  0  0  0  0  0  0  0  0  0  0  0
    0.6903    2.9272    1.8421 C   0  0  0  0  0  0  0  0  0  0  0  0
   -0.2448    3.0201    2.4045 H   0  0  0  0  0  0  0  0  0  0  0  0
    1.5249    3.1047    2.5272 H   0  0  0  0  0  0  0  0  0  0  0  0
    0.7124    3.6984    1.0648 H   0  0  0  0  0  0  0  0  0  0  0  0
  1  2  1  0  0  0  0
  2  3  1  0  0  0  0
  2  4  1  0  0  0  0
  2  5  1  0  0  0  0
  5  6  2  0  0  0  0
  5  7  1  0  0  0  0
  7  8  1  0  0  0  0
  7  9  1  0  0  0  0
  9 10  1  0  0  0  0
  9 11  1  0  0  0  0
  9 19  1  0  0  0  0
 11 12  1  0  0  0  0
 11 13  1  0  0  0  0
 11 14  1  0  0  0  0
 14 15  2  0  0  0  0
 14 16  1  0  0  0  0
 16 17  1  0  0  0  0
 16 18  1  0  0  0  0
 19 20  2  0  0  0  0
 19 21  1  0  0  0  0
 21 22  1  0  0  0  0
 21 23  1  0  0  0  0
 23 24  1  0  0  0  0
 23 25  1  0  0  0  0
 23 26  1  0  0  0  0
M  END
$$$$

  -OEChem-04042215573D

 26 25  0     1  0  0  0  0  0999 V2000
   -2.8012   -3.9805    0.4854 H   0  0  0  0  0  0  0  0  0  0  0  0
   -2.8278   -2.9525    0.1137 C   0  0  0  0  0  0  0  0  0  0  0  0
   -3.5293   -2.3757    0.7212 H   0  0  0  0  0  0  0  0  0  0  0  0
   -3.1760   -2.9614   -0.9223 H   0  0  0  0  0  0  0  0  0  0  0  0
   -1.4460   -2.3317    0.1868 C   0  0  0  0  0  0  0  0  0  0  0  0
   -0.4982   -2.9781    0.6120 O   0  0  0  0  0  0  0  0  0  0  0  0
   -1.2468   -1.0366   -0.2459 N   0  0  0  0  0  0  0  0  0  0  0  0
   -2.0588   -0.5178   -0.5789 H   0  0  0  0  0  0  0  0  0  0  0  0
    0.0450   -0.3359   -0.2271 C   0  0  1  0  0  0  0  0  0  0  0  0
    0.7324   -0.8587    0.4453 H   0  0  0  0  0  0  0  0  0  0  0  0
    0.6667   -0.3107   -1.6369 C   0  0  0  0  0  0  0  0  0  0  0  0
    0.1360    0.4245   -2.2503 H   0  0  0  0  0  0  0  0  0  0  0  0
    1.7116    0.0034   -1.5761 H   0  0  0  0  0  0  0  0  0  0  0  0
    0.5939   -1.6532   -2.3538 C   0  0  0  0  0  0  0  0  0  0  0  0
   -0.1981   -1.8567   -3.2547 O   0  0  0  0  0  0  0  0  0  0  0  0
    1.3309   -2.7315   -1.9564 N   0  0  0  0  0  0  0  0  0  0  0  0
    1.0167   -3.6089   -2.3602 H   0  0  0  0  0  0  0  0  0  0  0  0
    1.6351   -2.7379   -0.9875 H   0  0  0  0  0  0  0  0  0  0  0  0
   -0.1105    1.0969    0.3191 C   0  0  0  0  0  0  0  0  0  0  0  0
   -1.0526    1.7890   -0.0451 O   0  0  0  0  0  0  0  0  0  0  0  0
    0.7852    1.6004    1.2450 N   0  0  0  0  0  0  0  0  0  0  0  0
    1.5240    0.9865    1.5751 H   0  0  0  0  0  0  0  0  0  0  0  0
    0.6555    2.9255    1.8398 C   0  0  0  0  0  0  0  0  0  0  0  0
   -0.2980    3.0155    2.3711 H   0  0  0  0  0  0  0  0  0  0  0  0
    1.4662    3.1014    2.5535 H   0  0  0  0  0  0  0  0  0  0  0  0
    0.7022    3.6991    1.0662 H   0  0  0  0  0  0  0  0  0  0  0  0
  1  2  1  0  0  0  0
  2  3  1  0  0  0  0
  2  4  1  0  0  0  0
  2  5  1  0  0  0  0
  5  6  2  0  0  0  0
  5  7  1  0  0  0  0
  7  8  1  0  0  0  0
  7  9  1  0  0  0  0
  9 10  1  0  0  0  0
  9 11  1  0  0  0  0
  9 19  1  0  0  0  0
 11 12  1  0  0  0  0
 11 13  1  0  0  0  0
 11 14  1  0  0  0  0
 14 15  2  0  0  0  0
 14 16  1  0  0  0  0
 16 17  1  0  0  0  0
 16 18  1  0  0  0  0
 19 20  2  0  0  0  0
 19 21  1  0  0  0  0
 21 22  1  0  0  0  0
 21 23  1  0  0  0  0
 23 24  1  0  0  0  0
 23 25  1  0  0  0  0
 23 26  1  0  0  0  0
M  END
$$$$

  -OEChem-04042215573D

 26 25  0     1  0  0  0  0  0999 V2000
   -2.8515   -3.9496    0.5457 H   0  0  0  0  0  0  0  0  0  0  0  0
   -2.8654   -2.9236    0.1679 C   0  0  0  0  0  0  0  0  0  0  0  0
   -3.5382   -2.3279    0.7896 H   0  0  0  0  0  0  0  0  0  0  0  0
   -3.2408   -2.9311   -0.8586 H   0  0  0  0  0  0  0  0  0  0  0  0
   -1.4687   -2.3338    0.2020 C   0  0  0  0  0  0  0  0  0  0  0  0
   -0.5254   -2.9961    0.6129 O   0  0  0  0  0  0  0  0  0  0  0  0
   -1.2499   -1.0463   -0.2427 N   0  0  0  0  0  0  0  0  0  0  0  0
   -2.0614   -0.5014   -0.5341 H   0  0  0  0  0  0  0  0  0  0  0  0
    0.0478   -0.3564   -0.2125 C   0  0  1  0  0  0  0  0  0  0  0  0
    0.7226   -0.8765    0.4749 H   0  0  0  0  0  0  0  0  0  0  0  0
    0.6943   -0.3364   -1.6115 C   0  0  0  0  0  0  0  0  0  0  0  0
    0.1803    0.4059   -2.2310 H   0  0  0  0  0  0  0  0  0  0  0  0
    1.7397   -0.0293   -1.5279 H   0  0  0  0  0  0  0  0  0  0  0  0
    0.6345   -1.6709   -2.3452 C   0  0  0  0  0  0  0  0  0  0  0  0
    0.0706   -1.7855   -3.4167 O   0  0  0  0  0  0  0  0  0  0  0  0
    1.1743   -2.8164   -1.8356 N   0  0  0  0  0  0  0  0  0  0  0  0
    0.9088   -3.6508   -2.3499 H   0  0  0  0  0  0  0  0  0  0  0  0
    1.2047   -2.8799   -0.8194 H   0  0  0  0  0  0  0  0  0  0  0  0
   -0.1144    1.0825    0.3159 C   0  0  0  0  0  0  0  0  0  0  0  0
   -1.0615    1.7633   -0.0567 O   0  0  0  0  0  0  0  0  0  0  0  0
    0.7656    1.5948    1.2517 N   0  0  0  0  0  0  0  0  0  0  0  0
    1.5134    0.9922    1.5824 H   0  0  0  0  0  0  0  0  0  0  0  0
    0.6325    2.9292    1.8246 C   0  0  0  0  0  0  0  0  0  0  0  0
   -0.3301    3.0331    2.3365 H   0  0  0  0  0  0  0  0  0  0  0  0
    1.4308    3.1105    2.5506 H   0  0  0  0  0  0  0  0  0  0  0  0
    0.6988    3.6909    1.0405 H   0  0  0  0  0  0  0  0  0  0  0  0
  1  2  1  0  0  0  0
  2  3  1  0  0  0  0
  2  4  1  0  0  0  0
  2  5  1  0  0  0  0
  5  6  2  0  0  0  0
  5  7  1  0  0  0  0
  7  8  1  0  0  0  0
  7  9  1  0  0  0  0
  9 10  1  0  0  0  0
  9 11  1  0  0  0  0
  9 19  1  0  0  0  0
 11 12  1  0  0  0  0
 11 13  1  0  0  0  0
 11 14  1  0  0  0  0
 14 15  2  0  0  0  0
 14 16  1  0  0  0  0
 16 17  1  0  0  0  0
 16 18  1  0  0  0  0
 19 20  2  0  0  0  0
 19 21  1  0  0  0  0
 21 22  1  0  0  0  0
 21 23  1  0  0  0  0
 23 24  1  0  0  0  0
 23 25  1  0  0  0  0
 23 26  1  0  0  0  0
M  END
$$$$

  -OEChem-04042215573D

 26 25  0     1  0  0  0  0  0999 V2000
   -2.9281   -3.9185    0.5898 H   0  0  0  0  0  0  0  0  0  0  0  0
   -2.9240   -2.8941    0.2069 C   0  0  0  0  0  0  0  0  0  0  0  0
   -3.5837   -2.2829    0.8278 H   0  0  0  0  0  0  0  0  0  0  0  0
   -3.3027   -2.8998   -0.8183 H   0  0  0  0  0  0  0  0  0  0  0  0
   -1.5167   -2.3295    0.2342 C   0  0  0  0  0  0  0  0  0  0  0  0
   -0.5857   -3.0057    0.6490 O   0  0  0  0  0  0  0  0  0  0  0  0
   -1.2746   -1.0504   -0.2224 N   0  0  0  0  0  0  0  0  0  0  0  0
   -2.0806   -0.4893   -0.4990 H   0  0  0  0  0  0  0  0  0  0  0  0
    0.0315   -0.3735   -0.1942 C   0  0  1  0  0  0  0  0  0  0  0  0
    0.6984   -0.8944    0.5010 H   0  0  0  0  0  0  0  0  0  0  0  0
    0.6885   -0.3618   -1.5897 C   0  0  0  0  0  0  0  0  0  0  0  0
    0.1856    0.3865   -2.2109 H   0  0  0  0  0  0  0  0  0  0  0  0
    1.7355   -0.0629   -1.4954 H   0  0  0  0  0  0  0  0  0  0  0  0
    0.6333   -1.6887   -2.3378 C   0  0  0  0  0  0  0  0  0  0  0  0
    0.3271   -1.7386   -3.5136 O   0  0  0  0  0  0  0  0  0  0  0  0
    1.0192   -2.8728   -1.7782 N   0  0  0  0  0  0  0  0  0  0  0  0
    0.8194   -3.6852   -2.3532 H   0  0  0  0  0  0  0  0  0  0  0  0
    0.8949   -2.9591   -0.7688 H   0  0  0  0  0  0  0  0  0  0  0  0
   -0.1216    1.0723    0.3181 C   0  0  0  0  0  0  0  0  0  0  0  0
   -1.0685    1.7515   -0.0584 O   0  0  0  0  0  0  0  0  0  0  0  0
    0.7572    1.5887    1.2527 N   0  0  0  0  0  0  0  0  0  0  0  0
    1.5094    0.9905    1.5821 H   0  0  0  0  0  0  0  0  0  0  0  0
    0.6304    2.9303    1.8102 C   0  0  0  0  0  0  0  0  0  0  0  0
   -0.3333    3.0452    2.3179 H   0  0  0  0  0  0  0  0  0  0  0  0
    1.4276    3.1156    2.5367 H   0  0  0  0  0  0  0  0  0  0  0  0
    0.7035    3.6825    1.0174 H   0  0  0  0  0  0  0  0  0  0  0  0
  1  2  1  0  0  0  0
  2  3  1  0  0  0  0
  2  4  1  0  0  0  0
  2  5  1  0  0  0  0
  5  6  2  0  0  0  0
  5  7  1  0  0  0  0
  7  8  1  0  0  0  0
  7  9  1  0  0  0  0
  9 10  1  0  0  0  0
  9 11  1  0  0  0  0
  9 19  1  0  0  0  0
 11 12  1  0  0  0  0
 11 13  1  0  0  0  0
 11 14  1  0  0  0  0
 14 15  2  0  0  0  0
 14 16  1  0  0  0  0
 16 17  1  0  0  0  0
 16 18  1  0  0  0  0
 19 20  2  0  0  0  0
 19 21  1  0  0  0  0
 21 22  1  0  0  0  0
 21 23  1  0  0  0  0
 23 24  1  0  0  0  0
 23 25  1  0  0  0  0
 23 26  1  0  0  0  0
M  END
$$$$

  -OEChem-04042215573D

 26 25  0     1  0  0  0  0  0999 V2000
   -3.0168   -3.8800    0.6380 H   0  0  0  0  0  0  0  0  0  0  0  0
   -2.9934   -2.8596    0.2451 C   0  0  0  0  0  0  0  0  0  0  0  0
   -3.6373   -2.2296    0.8635 H   0  0  0  0  0  0  0  0  0  0  0  0
   -3.3779   -2.8677   -0.7779 H   0  0  0  0  0  0  0  0  0  0  0  0
   -1.5744   -2.3240    0.2602 C   0  0  0  0  0  0  0  0  0  0  0  0
   -0.6562   -3.0172    0.6736 O   0  0  0  0  0  0  0  0  0  0  0  0
   -1.3089   -1.0522   -0.2030 N   0  0  0  0  0  0  0  0  0  0  0  0
   -2.1088   -0.4746   -0.4631 H   0  0  0  0  0  0  0  0  0  0  0  0
    0.0052   -0.3885   -0.1820 C   0  0  1  0  0  0  0  0  0  0  0  0
    0.6680   -0.9143    0.5134 H   0  0  0  0  0  0  0  0  0  0  0  0
    0.6659   -0.3783   -1.5772 C   0  0  0  0  0  0  0  0  0  0  0  0
    0.1672    0.3762   -2.1942 H   0  0  0  0  0  0  0  0  0  0  0  0
    1.7132   -0.0825   -1.4759 H   0  0  0  0  0  0  0  0  0  0  0  0
    0.6160   -1.6913   -2.3495 C   0  0  0  0  0  0  0  0  0  0  0  0
    0.5854   -1.6949   -3.5650 O   0  0  0  0  0  0  0  0  0  0  0  0
    0.8637   -2.9049   -1.7750 N   0  0  0  0  0  0  0  0  0  0  0  0
    0.7428   -3.7016   -2.3921 H   0  0  0  0  0  0  0  0  0  0  0  0
    0.6385   -3.0116   -0.7845 H   0  0  0  0  0  0  0  0  0  0  0  0
   -0.1355    1.0618    0.3215 C   0  0  0  0  0  0  0  0  0  0  0  0
   -1.0817    1.7434   -0.0529 O   0  0  0  0  0  0  0  0  0  0  0  0
    0.7490    1.5765    1.2515 N   0  0  0  0  0  0  0  0  0  0  0  0
    1.5008    0.9761    1.5779 H   0  0  0  0  0  0  0  0  0  0  0  0
    0.6392    2.9250    1.7958 C   0  0  0  0  0  0  0  0  0  0  0  0
   -0.3176    3.0536    2.3126 H   0  0  0  0  0  0  0  0  0  0  0  0
    1.4460    3.1112    2.5111 H   0  0  0  0  0  0  0  0  0  0  0  0
    0.7095    3.6687    0.9949 H   0  0  0  0  0  0  0  0  0  0  0  0
  1  2  1  0  0  0  0
  2  3  1  0  0  0  0
  2  4  1  0  0  0  0
  2  5  1  0  0  0  0
  5  6  2  0  0  0  0
  5  7  1  0  0  0  0
  7  8  1  0  0  0  0
  7  9  1  0  0  0  0
  9 10  1  0  0  0  0
  9 11  1  0  0  0  0
  9 19  1  0  0  0  0
 11 12  1  0  0  0  0
 11 13  1  0  0  0  0
 11 14  1  0  0  0  0
 14 15  2  0  0  0  0
 14 16  1  0  0  0  0
 16 17  1  0  0  0  0
 16 18  1  0  0  0  0
 19 20  2  0  0  0  0
 19 21  1  0  0  0  0
 21 22  1  0  0  0  0
 21 23  1  0  0  0  0
 23 24  1  0  0  0  0
 23 25  1  0  0  0  0
 23 26  1  0  0  0  0
M  END
$$$$

  -OEChem-04042215573D

 26 25  0     1  0  0  0  0  0999 V2000
   -3.0958   -3.8446    0.6824 H   0  0  0  0  0  0  0  0  0  0  0  0
   -3.0568   -2.8278    0.2815 C   0  0  0  0  0  0  0  0  0  0  0  0
   -3.6837   -2.1813    0.9005 H   0  0  0  0  0  0  0  0  0  0  0  0
   -3.4502   -2.8362   -0.7381 H   0  0  0  0  0  0  0  0  0  0  0  0
   -1.6278   -2.3188    0.2809 C   0  0  0  0  0  0  0  0  0  0  0  0
   -0.7200   -3.0279    0.6882 O   0  0  0  0  0  0  0  0  0  0  0  0
   -1.3439   -1.0523   -0.1857 N   0  0  0  0  0  0  0  0  0  0  0  0
   -2.1390   -0.4616   -0.4306 H   0  0  0  0  0  0  0  0  0  0  0  0
   -0.0229   -0.3996   -0.1778 C   0  0  1  0  0  0  0  0  0  0  0  0
    0.6398   -0.9319    0.5130 H   0  0  0  0  0  0  0  0  0  0  0  0
    0.6359   -0.3814   -1.5765 C   0  0  0  0  0  0  0  0  0  0  0  0
    0.1385    0.3825   -2.1828 H   0  0  0  0  0  0  0  0  0  0  0  0
    1.6830   -0.0866   -1.4696 H   0  0  0  0  0  0  0  0  0  0  0  0
    0.5945   -1.6731   -2.3853 C   0  0  0  0  0  0  0  0  0  0  0  0
    0.8402   -1.6516   -3.5759 O   0  0  0  0  0  0  0  0  0  0  0  0
    0.6773   -2.9145   -1.8235 N   0  0  0  0  0  0  0  0  0  0  0  0
    0.6480   -3.6998   -2.4656 H   0  0  0  0  0  0  0  0  0  0  0  0
    0.3854   -3.0389   -0.8530 H   0  0  0  0  0  0  0  0  0  0  0  0
   -0.1513    1.0526    0.3236 C   0  0  0  0  0  0  0  0  0  0  0  0
   -1.0974    1.7387   -0.0435 O   0  0  0  0  0  0  0  0  0  0  0  0
    0.7443    1.5621    1.2456 N   0  0  0  0  0  0  0  0  0  0  0  0
    1.5003    0.9597    1.5585 H   0  0  0  0  0  0  0  0  0  0  0  0
    0.6536    2.9140    1.7843 C   0  0  0  0  0  0  0  0  0  0  0  0
   -0.2960    3.0545    2.3113 H   0  0  0  0  0  0  0  0  0  0  0  0
    1.4703    3.0954    2.4898 H   0  0  0  0  0  0  0  0  0  0  0  0
    0.7226    3.6526    0.9787 H   0  0  0  0  0  0  0  0  0  0  0  0
  1  2  1  0  0  0  0
  2  3  1  0  0  0  0
  2  4  1  0  0  0  0
  2  5  1  0  0  0  0
  5  6  2  0  0  0  0
  5  7  1  0  0  0  0
  7  8  1  0  0  0  0
  7  9  1  0  0  0  0
  9 10  1  0  0  0  0
  9 11  1  0  0  0  0
  9 19  1  0  0  0  0
 11 12  1  0  0  0  0
 11 13  1  0  0  0  0
 11 14  1  0  0  0  0
 14 15  2  0  0  0  0
 14 16  1  0  0  0  0
 16 17  1  0  0  0  0
 16 18  1  0  0  0  0
 19 20  2  0  0  0  0
 19 21  1  0  0  0  0
 21 22  1  0  0  0  0
 21 23  1  0  0  0  0
 23 24  1  0  0  0  0
 23 25  1  0  0  0  0
 23 26  1  0  0  0  0
M  END
$$$$

  -OEChem-04042215573D

 26 25  0     1  0  0  0  0  0999 V2000
   -3.1648   -3.7787    0.8425 H   0  0  0  0  0  0  0  0  0  0  0  0
   -3.1362   -2.7667    0.4290 C   0  0  0  0  0  0  0  0  0  0  0  0
   -3.6851   -2.0986    1.0971 H   0  0  0  0  0  0  0  0  0  0  0  0
   -3.6228   -2.7716   -0.5495 H   0  0  0  0  0  0  0  0  0  0  0  0
   -1.7005   -2.2976    0.2897 C   0  0  0  0  0  0  0  0  0  0  0  0
   -0.7741   -3.0543    0.5400 O   0  0  0  0  0  0  0  0  0  0  0  0
   -1.4272   -1.0242   -0.1641 N   0  0  0  0  0  0  0  0  0  0  0  0
   -2.2256   -0.4045   -0.3044 H   0  0  0  0  0  0  0  0  0  0  0  0
   -0.0974   -0.3911   -0.2094 C   0  0  1  0  0  0  0  0  0  0  0  0
    0.5686   -0.9462    0.4595 H   0  0  0  0  0  0  0  0  0  0  0  0
    0.5682   -0.3568   -1.6120 C   0  0  0  0  0  0  0  0  0  0  0  0
    0.2664    0.5720   -2.1064 H   0  0  0  0  0  0  0  0  0  0  0  0
    1.6521   -0.3141   -1.4761 H   0  0  0  0  0  0  0  0  0  0  0  0
    0.2729   -1.4620   -2.6247 C   0  0  0  0  0  0  0  0  0  0  0  0
    0.8003   -1.4169   -3.7195 O   0  0  0  0  0  0  0  0  0  0  0  0
   -0.1811   -2.7097   -2.3130 N   0  0  0  0  0  0  0  0  0  0  0  0
    0.0609   -3.4280   -2.9884 H   0  0  0  0  0  0  0  0  0  0  0  0
   -0.2283   -2.9560   -1.3240 H   0  0  0  0  0  0  0  0  0  0  0  0
   -0.1900    1.0501    0.3314 C   0  0  0  0  0  0  0  0  0  0  0  0
   -1.1529    1.7465    0.0339 O   0  0  0  0  0  0  0  0  0  0  0  0
    0.7519    1.5337    1.2207 N   0  0  0  0  0  0  0  0  0  0  0  0
    1.5267    0.9265    1.4722 H   0  0  0  0  0  0  0  0  0  0  0  0
    0.6951    2.8743    1.7913 C   0  0  0  0  0  0  0  0  0  0  0  0
   -0.2319    3.0114    2.3579 H   0  0  0  0  0  0  0  0  0  0  0  0
    1.5401    3.0338    2.4680 H   0  0  0  0  0  0  0  0  0  0  0  0
    0.7391    3.6293    0.9991 H   0  0  0  0  0  0  0  0  0  0  0  0
  1  2  1  0  0  0  0
  2  3  1  0  0  0  0
  2  4  1  0  0  0  0
  2  5  1  0  0  0  0
  5  6  2  0  0  0  0
  5  7  1  0  0  0  0
  7  8  1  0  0  0  0
  7  9  1  0  0  0  0
  9 10  1  0  0  0  0
  9 11  1  0  0  0  0
  9 19  1  0  0  0  0
 11 12  1  0  0  0  0
 11 13  1  0  0  0  0
 11 14  1  0  0  0  0
 14 15  2  0  0  0  0
 14 16  1  0  0  0  0
 16 17  1  0  0  0  0
 16 18  1  0  0  0  0
 19 20  2  0  0  0  0
 19 21  1  0  0  0  0
 21 22  1  0  0  0  0
 21 23  1  0  0  0  0
 23 24  1  0  0  0  0
 23 25  1  0  0  0  0
 23 26  1  0  0  0  0
M  END
$$$$

  -OEChem-04042215573D

 26 25  0     1  0  0  0  0  0999 V2000
   -3.1528   -3.7774    0.8485 H   0  0  0  0  0  0  0  0  0  0  0  0
   -3.1327   -2.7477    0.4803 C   0  0  0  0  0  0  0  0  0  0  0  0
   -3.6246   -2.1027    1.2126 H   0  0  0  0  0  0  0  0  0  0  0  0
   -3.6815   -2.6997   -0.4636 H   0  0  0  0  0  0  0  0  0  0  0  0
   -1.7010   -2.2949    0.2691 C   0  0  0  0  0  0  0  0  0  0  0  0
   -0.7747   -3.0743    0.4249 O   0  0  0  0  0  0  0  0  0  0  0  0
   -1.4343   -1.0168   -0.1728 N   0  0  0  0  0  0  0  0  0  0  0  0
   -2.2322   -0.3847   -0.2494 H   0  0  0  0  0  0  0  0  0  0  0  0
   -0.1048   -0.3837   -0.2369 C   0  0  1  0  0  0  0  0  0  0  0  0
    0.5677   -0.9479    0.4184 H   0  0  0  0  0  0  0  0  0  0  0  0
    0.5575   -0.3297   -1.6424 C   0  0  0  0  0  0  0  0  0  0  0  0
    0.2493    0.6055   -2.1198 H   0  0  0  0  0  0  0  0  0  0  0  0
    1.6407   -0.2789   -1.5017 H   0  0  0  0  0  0  0  0  0  0  0  0
    0.2816   -1.4103   -2.6892 C   0  0  0  0  0  0  0  0  0  0  0  0
    1.0106   -1.4876   -3.6595 O   0  0  0  0  0  0  0  0  0  0  0  0
   -0.4209   -2.5599   -2.4865 N   0  0  0  0  0  0  0  0  0  0  0  0
   -0.1758   -3.2993   -3.1377 H   0  0  0  0  0  0  0  0  0  0  0  0
   -0.5738   -2.8145   -1.5124 H   0  0  0  0  0  0  0  0  0  0  0  0
   -0.1921    1.0495    0.3259 C   0  0  0  0  0  0  0  0  0  0  0  0
   -1.1688    1.7414    0.0650 O   0  0  0  0  0  0  0  0  0  0  0  0
    0.7644    1.5246    1.2041 N   0  0  0  0  0  0  0  0  0  0  0  0
    1.5482    0.9183    1.4289 H   0  0  0  0  0  0  0  0  0  0  0  0
    0.6991    2.8461    1.8173 C   0  0  0  0  0  0  0  0  0  0  0  0
   -0.2202    2.9528    2.4028 H   0  0  0  0  0  0  0  0  0  0  0  0
    1.5527    2.9955    2.4854 H   0  0  0  0  0  0  0  0  0  0  0  0
    0.7206    3.6264    1.0494 H   0  0  0  0  0  0  0  0  0  0  0  0
  1  2  1  0  0  0  0
  2  3  1  0  0  0  0
  2  4  1  0  0  0  0
  2  5  1  0  0  0  0
  5  6  2  0  0  0  0
  5  7  1  0  0  0  0
  7  8  1  0  0  0  0
  7  9  1  0  0  0  0
  9 10  1  0  0  0  0
  9 11  1  0  0  0  0
  9 19  1  0  0  0  0
 11 12  1  0  0  0  0
 11 13  1  0  0  0  0
 11 14  1  0  0  0  0
 14 15  2  0  0  0  0
 14 16  1  0  0  0  0
 16 17  1  0  0  0  0
 16 18  1  0  0  0  0
 19 20  2  0  0  0  0
 19 21  1  0  0  0  0
 21 22  1  0  0  0  0
 21 23  1  0  0  0  0
 23 24  1  0  0  0  0
 23 25  1  0  0  0  0
 23 26  1  0  0  0  0
M  END
$$$$

  -OEChem-04042215573D

 26 25  0     1  0  0  0  0  0999 V2000
   -3.0129   -3.8460    0.9093 H   0  0  0  0  0  0  0  0  0  0  0  0
   -3.0162   -2.8324    0.4982 C   0  0  0  0  0  0  0  0  0  0  0  0
   -3.5375   -2.1721    1.1958 H   0  0  0  0  0  0  0  0  0  0  0  0
   -3.5519   -2.8407   -0.4541 H   0  0  0  0  0  0  0  0  0  0  0  0
   -1.5935   -2.3484    0.2907 C   0  0  0  0  0  0  0  0  0  0  0  0
   -0.6533   -3.0880    0.5251 O   0  0  0  0  0  0  0  0  0  0  0  0
   -1.3613   -1.0726   -0.1848 N   0  0  0  0  0  0  0  0  0  0  0  0
   -2.1666   -0.4465   -0.2326 H   0  0  0  0  0  0  0  0  0  0  0  0
   -0.0387   -0.4223   -0.2043 C   0  0  1  0  0  0  0  0  0  0  0  0
    0.6087   -0.9530    0.5026 H   0  0  0  0  0  0  0  0  0  0  0  0
    0.6932   -0.4189   -1.5722 C   0  0  0  0  0  0  0  0  0  0  0  0
    0.4044    0.4868   -2.1138 H   0  0  0  0  0  0  0  0  0  0  0  0
    1.7699   -0.3593   -1.3893 H   0  0  0  0  0  0  0  0  0  0  0  0
    0.4392   -1.5718   -2.5399 C   0  0  0  0  0  0  0  0  0  0  0  0
    1.3147   -1.9189   -3.3092 O   0  0  0  0  0  0  0  0  0  0  0  0
   -0.8011   -2.0430   -2.8594 N   0  0  0  0  0  0  0  0  0  0  0  0
   -0.8122   -2.8614   -3.4605 H   0  0  0  0  0  0  0  0  0  0  0  0
   -1.5370   -1.9033   -2.1778 H   0  0  0  0  0  0  0  0  0  0  0  0
   -0.1676    1.0249    0.3099 C   0  0  0  0  0  0  0  0  0  0  0  0
   -1.1481    1.6885   -0.0055 O   0  0  0  0  0  0  0  0  0  0  0  0
    0.7407    1.5384    1.2167 N   0  0  0  0  0  0  0  0  0  0  0  0
    1.5279    0.9543    1.4848 H   0  0  0  0  0  0  0  0  0  0  0  0
    0.6305    2.8755    1.7880 C   0  0  0  0  0  0  0  0  0  0  0  0
   -0.3130    2.9828    2.3337 H   0  0  0  0  0  0  0  0  0  0  0  0
    1.4545    3.0586    2.4844 H   0  0  0  0  0  0  0  0  0  0  0  0
    0.6697    3.6340    0.9990 H   0  0  0  0  0  0  0  0  0  0  0  0
  1  2  1  0  0  0  0
  2  3  1  0  0  0  0
  2  4  1  0  0  0  0
  2  5  1  0  0  0  0
  5  6  2  0  0  0  0
  5  7  1  0  0  0  0
  7  8  1  0  0  0  0
  7  9  1  0  0  0  0
  9 10  1  0  0  0  0
  9 11  1  0  0  0  0
  9 19  1  0  0  0  0
 11 12  1  0  0  0  0
 11 13  1  0  0  0  0
 11 14  1  0  0  0  0
 14 15  2  0  0  0  0
 14 16  1  0  0  0  0
 16 17  1  0  0  0  0
 16 18  1  0  0  0  0
 19 20  2  0  0  0  0
 19 21  1  0  0  0  0
 21 22  1  0  0  0  0
 21 23  1  0  0  0  0
 23 24  1  0  0  0  0
 23 25  1  0  0  0  0
 23 26  1  0  0  0  0
M  END
$$$$

  -OEChem-04042215573D

 26 25  0     1  0  0  0  0  0999 V2000
   -2.9879   -3.8668    0.8554 H   0  0  0  0  0  0  0  0  0  0  0  0
   -2.9961   -2.8544    0.4414 C   0  0  0  0  0  0  0  0  0  0  0  0
   -3.5396   -2.1997    1.1270 H   0  0  0  0  0  0  0  0  0  0  0  0
   -3.5126   -2.8720   -0.5212 H   0  0  0  0  0  0  0  0  0  0  0  0
   -1.5759   -2.3526    0.2598 C   0  0  0  0  0  0  0  0  0  0  0  0
   -0.6321   -3.0793    0.5196 O   0  0  0  0  0  0  0  0  0  0  0  0
   -1.3520   -1.0698   -0.2010 N   0  0  0  0  0  0  0  0  0  0  0  0
   -2.1623   -0.4506   -0.2451 H   0  0  0  0  0  0  0  0  0  0  0  0
   -0.0338   -0.4113   -0.2113 C   0  0  1  0  0  0  0  0  0  0  0  0
    0.6210   -0.9461    0.4855 H   0  0  0  0  0  0  0  0  0  0  0  0
    0.6753   -0.4031   -1.5882 C   0  0  0  0  0  0  0  0  0  0  0  0
    0.3817    0.5014   -2.1291 H   0  0  0  0  0  0  0  0  0  0  0  0
    1.7560   -0.3501   -1.4277 H   0  0  0  0  0  0  0  0  0  0  0  0
    0.3815   -1.5706   -2.5242 C   0  0  0  0  0  0  0  0  0  0  0  0
    1.2850   -2.1267   -3.1184 O   0  0  0  0  0  0  0  0  0  0  0  0
   -0.8686   -1.8444   -3.0011 N   0  0  0  0  0  0  0  0  0  0  0  0
   -0.9464   -2.6864   -3.5633 H   0  0  0  0  0  0  0  0  0  0  0  0
   -1.6592   -1.5175   -2.4585 H   0  0  0  0  0  0  0  0  0  0  0  0
   -0.1643    1.0297    0.3172 C   0  0  0  0  0  0  0  0  0  0  0  0
   -1.1384    1.6993   -0.0054 O   0  0  0  0  0  0  0  0  0  0  0  0
    0.7427    1.5361    1.2291 N   0  0  0  0  0  0  0  0  0  0  0  0
    1.5245    0.9460    1.5006 H   0  0  0  0  0  0  0  0  0  0  0  0
    0.6385    2.8733    1.8010 C   0  0  0  0  0  0  0  0  0  0  0  0
   -0.3032    2.9843    2.3486 H   0  0  0  0  0  0  0  0  0  0  0  0
    1.4645    3.0530    2.4958 H   0  0  0  0  0  0  0  0  0  0  0  0
    0.6789    3.6317    1.0122 H   0  0  0  0  0  0  0  0  0  0  0  0
  1  2  1  0  0  0  0
  2  3  1  0  0  0  0
  2  4  1  0  0  0  0
  2  5  1  0  0  0  0
  5  6  2  0  0  0  0
  5  7  1  0  0  0  0
  7  8  1  0  0  0  0
  7  9  1  0  0  0  0
  9 10  1  0  0  0  0
  9 11  1  0  0  0  0
  9 19  1  0  0  0  0
 11 12  1  0  0  0  0
 11 13  1  0  0  0  0
 11 14  1  0  0  0  0
 14 15  2  0  0  0  0
 14 16  1  0  0  0  0
 16 17  1  0  0  0  0
 16 18  1  0  0  0  0
 19 20  2  0  0  0  0
 19 21  1  0  0  0  0
 21 22  1  0  0  0  0
 21 23  1  0  0  0  0
 23 24  1  0  0  0  0
 23 25  1  0  0  0  0
 23 26  1  0  0  0  0
M  END
$$$$

  -OEChem-04042215573D

 26 25  0     1  0  0  0  0  0999 V2000
   -2.9723   -3.8914    0.7699 H   0  0  0  0  0  0  0  0  0  0  0  0
   -2.9796   -2.8753    0.3650 C   0  0  0  0  0  0  0  0  0  0  0  0
   -3.5595   -2.2346    1.0338 H   0  0  0  0  0  0  0  0  0  0  0  0
   -3.4564   -2.8922   -0.6180 H   0  0  0  0  0  0  0  0  0  0  0  0
   -1.5609   -2.3516    0.2440 C   0  0  0  0  0  0  0  0  0  0  0  0
   -0.6200   -3.0606    0.5572 O   0  0  0  0  0  0  0  0  0  0  0  0
   -1.3379   -1.0658   -0.2086 N   0  0  0  0  0  0  0  0  0  0  0  0
   -2.1531   -0.4578   -0.2861 H   0  0  0  0  0  0  0  0  0  0  0  0
   -0.0231   -0.4014   -0.2142 C   0  0  1  0  0  0  0  0  0  0  0  0
    0.6409   -0.9399    0.4712 H   0  0  0  0  0  0  0  0  0  0  0  0
    0.6600   -0.3831   -1.6023 C   0  0  0  0  0  0  0  0  0  0  0  0
    0.3602    0.5234   -2.1362 H   0  0  0  0  0  0  0  0  0  0  0  0
    1.7441   -0.3363   -1.4658 H   0  0  0  0  0  0  0  0  0  0  0  0
    0.3327   -1.5549   -2.5191 C   0  0  0  0  0  0  0  0  0  0  0  0
    1.2064   -2.2965   -2.9255 O   0  0  0  0  0  0  0  0  0  0  0  0
   -0.8823   -1.6892   -3.1299 N   0  0  0  0  0  0  0  0  0  0  0  0
   -1.0200   -2.5474   -3.6553 H   0  0  0  0  0  0  0  0  0  0  0  0
   -1.6743   -1.1942   -2.7365 H   0  0  0  0  0  0  0  0  0  0  0  0
   -0.1551    1.0365    0.3213 C   0  0  0  0  0  0  0  0  0  0  0  0
   -1.1196    1.7134   -0.0154 O   0  0  0  0  0  0  0  0  0  0  0  0
    0.7511    1.5403    1.2355 N   0  0  0  0  0  0  0  0  0  0  0  0
    1.5217    0.9417    1.5203 H   0  0  0  0  0  0  0  0  0  0  0  0
    0.6487    2.8769    1.8090 C   0  0  0  0  0  0  0  0  0  0  0  0
   -0.2951    2.9899    2.3530 H   0  0  0  0  0  0  0  0  0  0  0  0
    1.4728    3.0529    2.5072 H   0  0  0  0  0  0  0  0  0  0  0  0
    0.6951    3.6365    1.0213 H   0  0  0  0  0  0  0  0  0  0  0  0
  1  2  1  0  0  0  0
  2  3  1  0  0  0  0
  2  4  1  0  0  0  0
  2  5  1  0  0  0  0
  5  6  2  0  0  0  0
  5  7  1  0  0  0  0
  7  8  1  0  0  0  0
  7  9  1  0  0  0  0
  9 10  1  0  0  0  0
  9 11  1  0  0  0  0
  9 19  1  0  0  0  0
 11 12  1  0  0  0  0
 11 13  1  0  0  0  0
 11 14  1  0  0  0  0
 14 15  2  0  0  0  0
 14 16  1  0  0  0  0
 16 17  1  0  0  0  0
 16 18  1  0  0  0  0
 19 20  2  0  0  0  0
 19 21  1  0  0  0  0
 21 22  1  0  0  0  0
 21 23  1  0  0  0  0
 23 24  1  0  0  0  0
 23 25  1  0  0  0  0
 23 26  1  0  0  0  0
M  END
$$$$

  -OEChem-04042215573D

 26 25  0     1  0  0  0  0  0999 V2000
   -2.9561   -3.9190    0.6811 H   0  0  0  0  0  0  0  0  0  0  0  0
   -2.9611   -2.8996    0.2847 C   0  0  0  0  0  0  0  0  0  0  0  0
   -3.5848   -2.2748    0.9283 H   0  0  0  0  0  0  0  0  0  0  0  0
   -3.3874   -2.9161   -0.7212 H   0  0  0  0  0  0  0  0  0  0  0  0
   -1.5474   -2.3512    0.2395 C   0  0  0  0  0  0  0  0  0  0  0  0
   -0.6160   -3.0364    0.6261 O   0  0  0  0  0  0  0  0  0  0  0  0
   -1.3224   -1.0643   -0.2090 N   0  0  0  0  0  0  0  0  0  0  0  0
   -2.1406   -0.4735   -0.3520 H   0  0  0  0  0  0  0  0  0  0  0  0
   -0.0105   -0.3945   -0.2106 C   0  0  1  0  0  0  0  0  0  0  0  0
    0.6625   -0.9348    0.4645 H   0  0  0  0  0  0  0  0  0  0  0  0
    0.6500   -0.3643   -1.6089 C   0  0  0  0  0  0  0  0  0  0  0  0
    0.3466    0.5463   -2.1337 H   0  0  0  0  0  0  0  0  0  0  0  0
    1.7366   -0.3243   -1.4922 H   0  0  0  0  0  0  0  0  0  0  0  0
    0.2984   -1.5358   -2.5149 C   0  0  0  0  0  0  0  0  0  0  0  0
    1.0891   -2.4341   -2.7275 O   0  0  0  0  0  0  0  0  0  0  0  0
   -0.8495   -1.5620   -3.2566 N   0  0  0  0  0  0  0  0  0  0  0  0
   -1.0403   -2.4227   -3.7612 H   0  0  0  0  0  0  0  0  0  0  0  0
   -1.5968   -0.9150   -3.0311 H   0  0  0  0  0  0  0  0  0  0  0  0
   -0.1460    1.0422    0.3269 C   0  0  0  0  0  0  0  0  0  0  0  0
   -1.0934    1.7304   -0.0353 O   0  0  0  0  0  0  0  0  0  0  0  0
    0.7584    1.5450    1.2433 N   0  0  0  0  0  0  0  0  0  0  0  0
    1.5100    0.9344    1.5523 H   0  0  0  0  0  0  0  0  0  0  0  0
    0.6636    2.8857    1.8084 C   0  0  0  0  0  0  0  0  0  0  0  0
   -0.2843    3.0113    2.3419 H   0  0  0  0  0  0  0  0  0  0  0  0
    1.4823    3.0572    2.5139 H   0  0  0  0  0  0  0  0  0  0  0  0
    0.7259    3.6405    1.0174 H   0  0  0  0  0  0  0  0  0  0  0  0
  1  2  1  0  0  0  0
  2  3  1  0  0  0  0
  2  4  1  0  0  0  0
  2  5  1  0  0  0  0
  5  6  2  0  0  0  0
  5  7  1  0  0  0  0
  7  8  1  0  0  0  0
  7  9  1  0  0  0  0
  9 10  1  0  0  0  0
  9 11  1  0  0  0  0
  9 19  1  0  0  0  0
 11 12  1  0  0  0  0
 11 13  1  0  0  0  0
 11 14  1  0  0  0  0
 14 15  2  0  0  0  0
 14 16  1  0  0  0  0
 16 17  1  0  0  0  0
 16 18  1  0  0  0  0
 19 20  2  0  0  0  0
 19 21  1  0  0  0  0
 21 22  1  0  0  0  0
 21 23  1  0  0  0  0
 23 24  1  0  0  0  0
 23 25  1  0  0  0  0
 23 26  1  0  0  0  0
M  END
$$$$

  -OEChem-04042215573D

 26 25  0     1  0  0  0  0  0999 V2000
   -2.9427   -3.9365    0.5937 H   0  0  0  0  0  0  0  0  0  0  0  0
   -2.9414   -2.9115    0.2124 C   0  0  0  0  0  0  0  0  0  0  0  0
   -3.6028   -2.3032    0.8342 H   0  0  0  0  0  0  0  0  0  0  0  0
   -3.3182   -2.9184   -0.8131 H   0  0  0  0  0  0  0  0  0  0  0  0
   -1.5343   -2.3455    0.2426 C   0  0  0  0  0  0  0  0  0  0  0  0
   -0.6221   -3.0063    0.7099 O   0  0  0  0  0  0  0  0  0  0  0  0
   -1.3021   -1.0613   -0.2101 N   0  0  0  0  0  0  0  0  0  0  0  0
   -2.1159   -0.4907   -0.4331 H   0  0  0  0  0  0  0  0  0  0  0  0
    0.0098   -0.3922   -0.2081 C   0  0  1  0  0  0  0  0  0  0  0  0
    0.6868   -0.9329    0.4626 H   0  0  0  0  0  0  0  0  0  0  0  0
    0.6549   -0.3561   -1.6139 C   0  0  0  0  0  0  0  0  0  0  0  0
    0.3532    0.5593   -2.1311 H   0  0  0  0  0  0  0  0  0  0  0  0
    1.7431   -0.3249   -1.5103 H   0  0  0  0  0  0  0  0  0  0  0  0
    0.2855   -1.5243   -2.5160 C   0  0  0  0  0  0  0  0  0  0  0  0
    0.9390   -2.5484   -2.5391 O   0  0  0  0  0  0  0  0  0  0  0  0
   -0.7669   -1.4614   -3.3859 N   0  0  0  0  0  0  0  0  0  0  0  0
   -1.0132   -2.3232   -3.8639 H   0  0  0  0  0  0  0  0  0  0  0  0
   -1.4302   -0.6976   -3.3123 H   0  0  0  0  0  0  0  0  0  0  0  0
   -0.1288    1.0467    0.3226 C   0  0  0  0  0  0  0  0  0  0  0  0
   -1.0611    1.7424   -0.0642 O   0  0  0  0  0  0  0  0  0  0  0  0
    0.7709    1.5527    1.2417 N   0  0  0  0  0  0  0  0  0  0  0  0
    1.5028    0.9330    1.5787 H   0  0  0  0  0  0  0  0  0  0  0  0
    0.6659    2.8917    1.8089 C   0  0  0  0  0  0  0  0  0  0  0  0
   -0.2882    3.0130    2.3324 H   0  0  0  0  0  0  0  0  0  0  0  0
    1.4763    3.0645    2.5237 H   0  0  0  0  0  0  0  0  0  0  0  0
    0.7341    3.6484    1.0202 H   0  0  0  0  0  0  0  0  0  0  0  0
  1  2  1  0  0  0  0
  2  3  1  0  0  0  0
  2  4  1  0  0  0  0
  2  5  1  0  0  0  0
  5  6  2  0  0  0  0
  5  7  1  0  0  0  0
  7  8  1  0  0  0  0
  7  9  1  0  0  0  0
  9 10  1  0  0  0  0
  9 11  1  0  0  0  0
  9 19  1  0  0  0  0
 11 12  1  0  0  0  0
 11 13  1  0  0  0  0
 11 14  1  0  0  0  0
 14 15  2  0  0  0  0
 14 16  1  0  0  0  0
 16 17  1  0  0  0  0
 16 18  1  0  0  0  0
 19 20  2  0  0  0  0
 19 21  1  0  0  0  0
 21 22  1  0  0  0  0
 21 23  1  0  0  0  0
 23 24  1  0  0  0  0
 23 25  1  0  0  0  0
 23 26  1  0  0  0  0
M  END
$$$$

  -OEChem-04042215573D

 26 25  0     1  0  0  0  0  0999 V2000
   -2.9265   -3.9598    0.5322 H   0  0  0  0  0  0  0  0  0  0  0  0
   -2.9227   -2.9363    0.1465 C   0  0  0  0  0  0  0  0  0  0  0  0
   -3.6330   -2.3389    0.7230 H   0  0  0  0  0  0  0  0  0  0  0  0
   -3.2354   -2.9549   -0.9002 H   0  0  0  0  0  0  0  0  0  0  0  0
   -1.5317   -2.3413    0.2598 C   0  0  0  0  0  0  0  0  0  0  0  0
   -0.6453   -2.9683    0.8161 O   0  0  0  0  0  0  0  0  0  0  0  0
   -1.2952   -1.0600   -0.1997 N   0  0  0  0  0  0  0  0  0  0  0  0
   -2.0983   -0.5164   -0.5095 H   0  0  0  0  0  0  0  0  0  0  0  0
    0.0171   -0.3924   -0.1942 C   0  0  1  0  0  0  0  0  0  0  0  0
    0.6947   -0.9327    0.4759 H   0  0  0  0  0  0  0  0  0  0  0  0
    0.6572   -0.3556   -1.6033 C   0  0  0  0  0  0  0  0  0  0  0  0
    0.3571    0.5628   -2.1161 H   0  0  0  0  0  0  0  0  0  0  0  0
    1.7455   -0.3283   -1.5036 H   0  0  0  0  0  0  0  0  0  0  0  0
    0.2838   -1.5202   -2.5087 C   0  0  0  0  0  0  0  0  0  0  0  0
    0.7520   -2.6314   -2.3615 O   0  0  0  0  0  0  0  0  0  0  0  0
   -0.6160   -1.3788   -3.5274 N   0  0  0  0  0  0  0  0  0  0  0  0
   -0.9147   -2.2316   -3.9915 H   0  0  0  0  0  0  0  0  0  0  0  0
   -1.1641   -0.5279   -3.5970 H   0  0  0  0  0  0  0  0  0  0  0  0
   -0.1192    1.0505    0.3269 C   0  0  0  0  0  0  0  0  0  0  0  0
   -1.0310    1.7575   -0.0876 O   0  0  0  0  0  0  0  0  0  0  0  0
    0.7784    1.5579    1.2475 N   0  0  0  0  0  0  0  0  0  0  0  0
    1.4865    0.9273    1.6138 H   0  0  0  0  0  0  0  0  0  0  0  0
    0.6826    2.9044    1.7978 C   0  0  0  0  0  0  0  0  0  0  0  0
   -0.2607    3.0308    2.3395 H   0  0  0  0  0  0  0  0  0  0  0  0
    1.5079    3.0889    2.4922 H   0  0  0  0  0  0  0  0  0  0  0  0
    0.7323    3.6502    0.9975 H   0  0  0  0  0  0  0  0  0  0  0  0
  1  2  1  0  0  0  0
  2  3  1  0  0  0  0
  2  4  1  0  0  0  0
  2  5  1  0  0  0  0
  5  6  2  0  0  0  0
  5  7  1  0  0  0  0
  7  8  1  0  0  0  0
  7  9  1  0  0  0  0
  9 10  1  0  0  0  0
  9 11  1  0  0  0  0
  9 19  1  0  0  0  0
 11 12  1  0  0  0  0
 11 13  1  0  0  0  0
 11 14  1  0  0  0  0
 14 15  2  0  0  0  0
 14 16  1  0  0  0  0
 16 17  1  0  0  0  0
 16 18  1  0  0  0  0
 19 20  2  0  0  0  0
 19 21  1  0  0  0  0
 21 22  1  0  0  0  0
 21 23  1  0  0  0  0
 23 24  1  0  0  0  0
 23 25  1  0  0  0  0
 23 26  1  0  0  0  0
M  END
$$$$

  -OEChem-04042215573D

 26 25  0     1  0  0  0  0  0999 V2000
   -2.9050   -3.9793    0.5077 H   0  0  0  0  0  0  0  0  0  0  0  0
   -2.9029   -2.9615    0.1073 C   0  0  0  0  0  0  0  0  0  0  0  0
   -3.6615   -2.3743    0.6301 H   0  0  0  0  0  0  0  0  0  0  0  0
   -3.1498   -3.0032   -0.9561 H   0  0  0  0  0  0  0  0  0  0  0  0
   -1.5365   -2.3300    0.2959 C   0  0  0  0  0  0  0  0  0  0  0  0
   -0.6787   -2.9166    0.9365 O   0  0  0  0  0  0  0  0  0  0  0  0
   -1.2998   -1.0535   -0.1781 N   0  0  0  0  0  0  0  0  0  0  0  0
   -2.0839   -0.5495   -0.5867 H   0  0  0  0  0  0  0  0  0  0  0  0
    0.0154   -0.3926   -0.1768 C   0  0  1  0  0  0  0  0  0  0  0  0
    0.6919   -0.9307    0.4961 H   0  0  0  0  0  0  0  0  0  0  0  0
    0.6524   -0.3663   -1.5892 C   0  0  0  0  0  0  0  0  0  0  0  0
    0.3562    0.5538   -2.1011 H   0  0  0  0  0  0  0  0  0  0  0  0
    1.7410   -0.3436   -1.4896 H   0  0  0  0  0  0  0  0  0  0  0  0
    0.2794   -1.5282   -2.5012 C   0  0  0  0  0  0  0  0  0  0  0  0
    0.5177   -2.6867   -2.2238 O   0  0  0  0  0  0  0  0  0  0  0  0
   -0.3980   -1.3291   -3.6710 N   0  0  0  0  0  0  0  0  0  0  0  0
   -0.7419   -2.1602   -4.1432 H   0  0  0  0  0  0  0  0  0  0  0  0
   -0.7921   -0.4162   -3.8730 H   0  0  0  0  0  0  0  0  0  0  0  0
   -0.1126    1.0565    0.3298 C   0  0  0  0  0  0  0  0  0  0  0  0
   -1.0027    1.7761   -0.1095 O   0  0  0  0  0  0  0  0  0  0  0  0
    0.7886    1.5641    1.2468 N   0  0  0  0  0  0  0  0  0  0  0  0
    1.4721    0.9223    1.6395 H   0  0  0  0  0  0  0  0  0  0  0  0
    0.7008    2.9147    1.7886 C   0  0  0  0  0  0  0  0  0  0  0  0
   -0.2396    3.0483    2.3337 H   0  0  0  0  0  0  0  0  0  0  0  0
    1.5304    3.1002    2.4778 H   0  0  0  0  0  0  0  0  0  0  0  0
    0.7498    3.6551    0.9832 H   0  0  0  0  0  0  0  0  0  0  0  0
  1  2  1  0  0  0  0
  2  3  1  0  0  0  0
  2  4  1  0  0  0  0
  2  5  1  0  0  0  0
  5  6  2  0  0  0  0
  5  7  1  0  0  0  0
  7  8  1  0  0  0  0
  7  9  1  0  0  0  0
  9 10  1  0  0  0  0
  9 11  1  0  0  0  0
  9 19  1  0  0  0  0
 11 12  1  0  0  0  0
 11 13  1  0  0  0  0
 11 14  1  0  0  0  0
 14 15  2  0  0  0  0
 14 16  1  0  0  0  0
 16 17  1  0  0  0  0
 16 18  1  0  0  0  0
 19 20  2  0  0  0  0
 19 21  1  0  0  0  0
 21 22  1  0  0  0  0
 21 23  1  0  0  0  0
 23 24  1  0  0  0  0
 23 25  1  0  0  0  0
 23 26  1  0  0  0  0
M  END
$$$$

  -OEChem-04042215573D

 26 25  0     1  0  0  0  0  0999 V2000
   -2.8996   -3.9912    0.5345 H   0  0  0  0  0  0  0  0  0  0  0  0
   -2.8924   -2.9886    0.0978 C   0  0  0  0  0  0  0  0  0  0  0  0
   -3.6966   -2.4008    0.5467 H   0  0  0  0  0  0  0  0  0  0  0  0
   -3.0652   -3.0737   -0.9778 H   0  0  0  0  0  0  0  0  0  0  0  0
   -1.5549   -2.3194    0.3512 C   0  0  0  0  0  0  0  0  0  0  0  0
   -0.7193   -2.8708    1.0515 O   0  0  0  0  0  0  0  0  0  0  0  0
   -1.3201   -1.0485   -0.1390 N   0  0  0  0  0  0  0  0  0  0  0  0
   -2.0828   -0.5870   -0.6286 H   0  0  0  0  0  0  0  0  0  0  0  0
   -0.0009   -0.3967   -0.1542 C   0  0  1  0  0  0  0  0  0  0  0  0
    0.6774   -0.9330    0.5179 H   0  0  0  0  0  0  0  0  0  0  0  0
    0.6294   -0.3826   -1.5727 C   0  0  0  0  0  0  0  0  0  0  0  0
    0.3287    0.5377   -2.0817 H   0  0  0  0  0  0  0  0  0  0  0  0
    1.7179   -0.3569   -1.4765 H   0  0  0  0  0  0  0  0  0  0  0  0
    0.2628   -1.5369   -2.5010 C   0  0  0  0  0  0  0  0  0  0  0  0
    0.2472   -2.7022   -2.1570 O   0  0  0  0  0  0  0  0  0  0  0  0
   -0.1028   -1.3119   -3.7981 N   0  0  0  0  0  0  0  0  0  0  0  0
   -0.4709   -2.1090   -4.3092 H   0  0  0  0  0  0  0  0  0  0  0  0
   -0.2953   -0.3649   -4.1070 H   0  0  0  0  0  0  0  0  0  0  0  0
   -0.1151    1.0586    0.3395 C   0  0  0  0  0  0  0  0  0  0  0  0
   -0.9886    1.7896   -0.1143 O   0  0  0  0  0  0  0  0  0  0  0  0
    0.7982    1.5662    1.2450 N   0  0  0  0  0  0  0  0  0  0  0  0
    1.4575    0.9139    1.6610 H   0  0  0  0  0  0  0  0  0  0  0  0
    0.7274    2.9238    1.7719 C   0  0  0  0  0  0  0  0  0  0  0  0
   -0.2051    3.0708    2.3269 H   0  0  0  0  0  0  0  0  0  0  0  0
    1.5671    3.1112    2.4481 H   0  0  0  0  0  0  0  0  0  0  0  0
    0.7717    3.6543    0.9571 H   0  0  0  0  0  0  0  0  0  0  0  0
  1  2  1  0  0  0  0
  2  3  1  0  0  0  0
  2  4  1  0  0  0  0
  2  5  1  0  0  0  0
  5  6  2  0  0  0  0
  5  7  1  0  0  0  0
  7  8  1  0  0  0  0
  7  9  1  0  0  0  0
  9 10  1  0  0  0  0
  9 11  1  0  0  0  0
  9 19  1  0  0  0  0
 11 12  1  0  0  0  0
 11 13  1  0  0  0  0
 11 14  1  0  0  0  0
 14 15  2  0  0  0  0
 14 16  1  0  0  0  0
 16 17  1  0  0  0  0
 16 18  1  0  0  0  0
 19 20  2  0  0  0  0
 19 21  1  0  0  0  0
 21 22  1  0  0  0  0
 21 23  1  0  0  0  0
 23 24  1  0  0  0  0
 23 25  1  0  0  0  0
 23 26  1  0  0  0  0
M  END
$$$$

  -OEChem-04042215573D

 26 25  0     1  0  0  0  0  0999 V2000
   -2.9097   -3.9960    0.5782 H   0  0  0  0  0  0  0  0  0  0  0  0
   -2.9029   -3.0014    0.1239 C   0  0  0  0  0  0  0  0  0  0  0  0
   -3.7228   -2.4143    0.5439 H   0  0  0  0  0  0  0  0  0  0  0  0
   -3.0507   -3.1073   -0.9536 H   0  0  0  0  0  0  0  0  0  0  0  0
   -1.5781   -2.3141    0.3941 C   0  0  0  0  0  0  0  0  0  0  0  0
   -0.7480   -2.8490    1.1148 O   0  0  0  0  0  0  0  0  0  0  0  0
   -1.3466   -1.0473   -0.1089 N   0  0  0  0  0  0  0  0  0  0  0  0
   -2.0965   -0.6159   -0.6433 H   0  0  0  0  0  0  0  0  0  0  0  0
   -0.0242   -0.4036   -0.1424 C   0  0  1  0  0  0  0  0  0  0  0  0
    0.6548   -0.9386    0.5301 H   0  0  0  0  0  0  0  0  0  0  0  0
    0.6069   -0.3989   -1.5634 C   0  0  0  0  0  0  0  0  0  0  0  0
    0.3034    0.5216   -2.0708 H   0  0  0  0  0  0  0  0  0  0  0  0
    1.6945   -0.3671   -1.4612 H   0  0  0  0  0  0  0  0  0  0  0  0
    0.2589   -1.5420   -2.5162 C   0  0  0  0  0  0  0  0  0  0  0  0
   -0.0149   -2.6752   -2.1729 O   0  0  0  0  0  0  0  0  0  0  0  0
    0.2418   -1.3398   -3.8669 N   0  0  0  0  0  0  0  0  0  0  0  0
   -0.1294   -2.0987   -4.4310 H   0  0  0  0  0  0  0  0  0  0  0  0
    0.2757   -0.3939   -4.2317 H   0  0  0  0  0  0  0  0  0  0  0  0
   -0.1248    1.0563    0.3425 C   0  0  0  0  0  0  0  0  0  0  0  0
   -0.9894    1.7952   -0.1152 O   0  0  0  0  0  0  0  0  0  0  0  0
    0.8019    1.5626    1.2352 N   0  0  0  0  0  0  0  0  0  0  0  0
    1.4514    0.9050    1.6584 H   0  0  0  0  0  0  0  0  0  0  0  0
    0.7468    2.9243    1.7533 C   0  0  0  0  0  0  0  0  0  0  0  0
   -0.1788    3.0822    2.3166 H   0  0  0  0  0  0  0  0  0  0  0  0
    1.5946    3.1100    2.4198 H   0  0  0  0  0  0  0  0  0  0  0  0
    0.7886    3.6490    0.9333 H   0  0  0  0  0  0  0  0  0  0  0  0
  1  2  1  0  0  0  0
  2  3  1  0  0  0  0
  2  4  1  0  0  0  0
  2  5  1  0  0  0  0
  5  6  2  0  0  0  0
  5  7  1  0  0  0  0
  7  8  1  0  0  0  0
  7  9  1  0  0  0  0
  9 10  1  0  0  0  0
  9 11  1  0  0  0  0
  9 19  1  0  0  0  0
 11 12  1  0  0  0  0
 11 13  1  0  0  0  0
 11 14  1  0  0  0  0
 14 15  2  0  0  0  0
 14 16  1  0  0  0  0
 16 17  1  0  0  0  0
 16 18  1  0  0  0  0
 19 20  2  0  0  0  0
 19 21  1  0  0  0  0
 21 22  1  0  0  0  0
 21 23  1  0  0  0  0
 23 24  1  0  0  0  0
 23 25  1  0  0  0  0
 23 26  1  0  0  0  0
M  END
$$$$

  -OEChem-04042215573D

 26 25  0     1  0  0  0  0  0999 V2000
   -2.9376   -3.9791    0.6364 H   0  0  0  0  0  0  0  0  0  0  0  0
   -2.9184   -3.0003    0.1497 C   0  0  0  0  0  0  0  0  0  0  0  0
   -3.7436   -2.3969    0.5350 H   0  0  0  0  0  0  0  0  0  0  0  0
   -3.0471   -3.1407   -0.9265 H   0  0  0  0  0  0  0  0  0  0  0  0
   -1.5954   -2.3090    0.4196 C   0  0  0  0  0  0  0  0  0  0  0  0
   -0.7611   -2.8429    1.1368 O   0  0  0  0  0  0  0  0  0  0  0  0
   -1.3638   -1.0454   -0.0910 N   0  0  0  0  0  0  0  0  0  0  0  0
   -2.1043   -0.6331   -0.6528 H   0  0  0  0  0  0  0  0  0  0  0  0
   -0.0387   -0.4096   -0.1383 C   0  0  1  0  0  0  0  0  0  0  0  0
    0.6392   -0.9423    0.5366 H   0  0  0  0  0  0  0  0  0  0  0  0
    0.5973   -0.4150   -1.5590 C   0  0  0  0  0  0  0  0  0  0  0  0
    0.2938    0.5039   -2.0693 H   0  0  0  0  0  0  0  0  0  0  0  0
    1.6838   -0.3790   -1.4472 H   0  0  0  0  0  0  0  0  0  0  0  0
    0.2669   -1.5506   -2.5305 C   0  0  0  0  0  0  0  0  0  0  0  0
   -0.2523   -2.6107   -2.2399 O   0  0  0  0  0  0  0  0  0  0  0  0
    0.5616   -1.4218   -3.8578 N   0  0  0  0  0  0  0  0  0  0  0  0
    0.1878   -2.1404   -4.4712 H   0  0  0  0  0  0  0  0  0  0  0  0
    0.8157   -0.5115   -4.2262 H   0  0  0  0  0  0  0  0  0  0  0  0
   -0.1297    1.0529    0.3417 C   0  0  0  0  0  0  0  0  0  0  0  0
   -0.9924    1.7958   -0.1126 O   0  0  0  0  0  0  0  0  0  0  0  0
    0.8063    1.5586    1.2252 N   0  0  0  0  0  0  0  0  0  0  0  0
    1.4554    0.8998    1.6465 H   0  0  0  0  0  0  0  0  0  0  0  0
    0.7561    2.9205    1.7433 C   0  0  0  0  0  0  0  0  0  0  0  0
   -0.1696    3.0822    2.3058 H   0  0  0  0  0  0  0  0  0  0  0  0
    1.6038    3.1030    2.4106 H   0  0  0  0  0  0  0  0  0  0  0  0
    0.8015    3.6451    0.9235 H   0  0  0  0  0  0  0  0  0  0  0  0
  1  2  1  0  0  0  0
  2  3  1  0  0  0  0
  2  4  1  0  0  0  0
  2  5  1  0  0  0  0
  5  6  2  0  0  0  0
  5  7  1  0  0  0  0
  7  8  1  0  0  0  0
  7  9  1  0  0  0  0
  9 10  1  0  0  0  0
  9 11  1  0  0  0  0
  9 19  1  0  0  0  0
 11 12  1  0  0  0  0
 11 13  1  0  0  0  0
 11 14  1  0  0  0  0
 14 15  2  0  0  0  0
 14 16  1  0  0  0  0
 16 17  1  0  0  0  0
 16 18  1  0  0  0  0
 19 20  2  0  0  0  0
 19 21  1  0  0  0  0
 21 22  1  0  0  0  0
 21 23  1  0  0  0  0
 23 24  1  0  0  0  0
 23 25  1  0  0  0  0
 23 26  1  0  0  0  0
M  END
$$$$

  -OEChem-04042215573D

 26 25  0     1  0  0  0  0  0999 V2000
   -2.9394   -3.9901    0.6201 H   0  0  0  0  0  0  0  0  0  0  0  0
   -2.9353   -2.9959    0.1651 C   0  0  0  0  0  0  0  0  0  0  0  0
   -3.7540   -2.4086    0.5874 H   0  0  0  0  0  0  0  0  0  0  0  0
   -3.0874   -3.1030   -0.9121 H   0  0  0  0  0  0  0  0  0  0  0  0
   -1.6101   -2.3064    0.4286 C   0  0  0  0  0  0  0  0  0  0  0  0
   -0.7681   -2.8465    1.1326 O   0  0  0  0  0  0  0  0  0  0  0  0
   -1.3801   -1.0432   -0.0828 N   0  0  0  0  0  0  0  0  0  0  0  0
   -2.1125   -0.6467   -0.6664 H   0  0  0  0  0  0  0  0  0  0  0  0
   -0.0544   -0.4102   -0.1352 C   0  0  1  0  0  0  0  0  0  0  0  0
    0.6204   -0.9424    0.5432 H   0  0  0  0  0  0  0  0  0  0  0  0
    0.5916   -0.4240   -1.5522 C   0  0  0  0  0  0  0  0  0  0  0  0
    0.2918    0.4926   -2.0690 H   0  0  0  0  0  0  0  0  0  0  0  0
    1.6766   -0.3844   -1.4271 H   0  0  0  0  0  0  0  0  0  0  0  0
    0.2777   -1.5588   -2.5322 C   0  0  0  0  0  0  0  0  0  0  0  0
   -0.4567   -2.5067   -2.3302 O   0  0  0  0  0  0  0  0  0  0  0  0
    0.8410   -1.5543   -3.7763 N   0  0  0  0  0  0  0  0  0  0  0  0
    0.4810   -2.2417   -4.4322 H   0  0  0  0  0  0  0  0  0  0  0  0
    1.3022   -0.7155   -4.1115 H   0  0  0  0  0  0  0  0  0  0  0  0
   -0.1383    1.0528    0.3446 C   0  0  0  0  0  0  0  0  0  0  0  0
   -0.9929    1.8025   -0.1134 O   0  0  0  0  0  0  0  0  0  0  0  0
    0.8042    1.5538    1.2242 N   0  0  0  0  0  0  0  0  0  0  0  0
    1.4440    0.8897    1.6514 H   0  0  0  0  0  0  0  0  0  0  0  0
    0.7692    2.9193    1.7342 C   0  0  0  0  0  0  0  0  0  0  0  0
   -0.1493    3.0914    2.3051 H   0  0  0  0  0  0  0  0  0  0  0  0
    1.6252    3.0997    2.3914 H   0  0  0  0  0  0  0  0  0  0  0  0
    0.8115    3.6382    0.9093 H   0  0  0  0  0  0  0  0  0  0  0  0
  1  2  1  0  0  0  0
  2  3  1  0  0  0  0
  2  4  1  0  0  0  0
  2  5  1  0  0  0  0
  5  6  2  0  0  0  0
  5  7  1  0  0  0  0
  7  8  1  0  0  0  0
  7  9  1  0  0  0  0
  9 10  1  0  0  0  0
  9 11  1  0  0  0  0
  9 19  1  0  0  0  0
 11 12  1  0  0  0  0
 11 13  1  0  0  0  0
 11 14  1  0  0  0  0
 14 15  2  0  0  0  0
 14 16  1  0  0  0  0
 16 17  1  0  0  0  0
 16 18  1  0  0  0  0
 19 20  2  0  0  0  0
 19 21  1  0  0  0  0
 21 22  1  0  0  0  0
 21 23  1  0  0  0  0
 23 24  1  0  0  0  0
 23 25  1  0  0  0  0
 23 26  1  0  0  0  0
M  END
$$$$

  -OEChem-04042215573D

 26 25  0     1  0  0  0  0  0999 V2000
   -2.9272   -3.9926    0.6103 H   0  0  0  0  0  0  0  0  0  0  0  0
   -2.9378   -2.9891    0.1764 C   0  0  0  0  0  0  0  0  0  0  0  0
   -3.7391   -2.4102    0.6416 H   0  0  0  0  0  0  0  0  0  0  0  0
   -3.1310   -3.0721   -0.8963 H   0  0  0  0  0  0  0  0  0  0  0  0
   -1.6028   -2.3058    0.4045 C   0  0  0  0  0  0  0  0  0  0  0  0
   -0.7288   -2.8688    1.0493 O   0  0  0  0  0  0  0  0  0  0  0  0
   -1.3906   -1.0316   -0.0862 N   0  0  0  0  0  0  0  0  0  0  0  0
   -2.1357   -0.6323   -0.6523 H   0  0  0  0  0  0  0  0  0  0  0  0
   -0.0712   -0.3892   -0.1572 C   0  0  1  0  0  0  0  0  0  0  0  0
    0.6187   -0.9267    0.5011 H   0  0  0  0  0  0  0  0  0  0  0  0
    0.5498   -0.3844   -1.5854 C   0  0  0  0  0  0  0  0  0  0  0  0
    0.2353    0.5340   -2.0902 H   0  0  0  0  0  0  0  0  0  0  0  0
    1.6359   -0.3362   -1.4758 H   0  0  0  0  0  0  0  0  0  0  0  0
    0.2256   -1.5128   -2.5711 C   0  0  0  0  0  0  0  0  0  0  0  0
   -0.6784   -2.3214   -2.4739 O   0  0  0  0  0  0  0  0  0  0  0  0
    0.9842   -1.6717   -3.6955 N   0  0  0  0  0  0  0  0  0  0  0  0
    0.8215   -2.5225   -4.2266 H   0  0  0  0  0  0  0  0  0  0  0  0
    1.8620   -1.1713   -3.7812 H   0  0  0  0  0  0  0  0  0  0  0  0
   -0.1500    1.0642    0.3523 C   0  0  0  0  0  0  0  0  0  0  0  0
   -1.0210    1.8175   -0.0662 O   0  0  0  0  0  0  0  0  0  0  0  0
    0.8108    1.5540    1.2185 N   0  0  0  0  0  0  0  0  0  0  0  0
    1.4603    0.8851    1.6224 H   0  0  0  0  0  0  0  0  0  0  0  0
    0.7772    2.9083    1.7579 C   0  0  0  0  0  0  0  0  0  0  0  0
   -0.1331    3.0637    2.3464 H   0  0  0  0  0  0  0  0  0  0  0  0
    1.6423    3.0791    2.4058 H   0  0  0  0  0  0  0  0  0  0  0  0
    0.8031    3.6452    0.9480 H   0  0  0  0  0  0  0  0  0  0  0  0
  1  2  1  0  0  0  0
  2  3  1  0  0  0  0
  2  4  1  0  0  0  0
  2  5  1  0  0  0  0
  5  6  2  0  0  0  0
  5  7  1  0  0  0  0
  7  8  1  0  0  0  0
  7  9  1  0  0  0  0
  9 10  1  0  0  0  0
  9 11  1  0  0  0  0
  9 19  1  0  0  0  0
 11 12  1  0  0  0  0
 11 13  1  0  0  0  0
 11 14  1  0  0  0  0
 14 15  2  0  0  0  0
 14 16  1  0  0  0  0
 16 17  1  0  0  0  0
 16 18  1  0  0  0  0
 19 20  2  0  0  0  0
 19 21  1  0  0  0  0
 21 22  1  0  0  0  0
 21 23  1  0  0  0  0
 23 24  1  0  0  0  0
 23 25  1  0  0  0  0
 23 26  1  0  0  0  0
M  END
$$$$

  -OEChem-04042215573D

 26 25  0     1  0  0  0  0  0999 V2000
   -2.9111   -3.9936    0.5713 H   0  0  0  0  0  0  0  0  0  0  0  0
   -2.9259   -2.9846    0.1506 C   0  0  0  0  0  0  0  0  0  0  0  0
   -3.7246   -2.4125    0.6283 H   0  0  0  0  0  0  0  0  0  0  0  0
   -3.1259   -3.0533   -0.9219 H   0  0  0  0  0  0  0  0  0  0  0  0
   -1.5905   -2.3026    0.3790 C   0  0  0  0  0  0  0  0  0  0  0  0
   -0.7056   -2.8778    0.9977 O   0  0  0  0  0  0  0  0  0  0  0  0
   -1.3833   -1.0236   -0.0989 N   0  0  0  0  0  0  0  0  0  0  0  0
   -2.1264   -0.6282   -0.6712 H   0  0  0  0  0  0  0  0  0  0  0  0
   -0.0681   -0.3735   -0.1634 C   0  0  1  0  0  0  0  0  0  0  0  0
    0.6219   -0.9115    0.4944 H   0  0  0  0  0  0  0  0  0  0  0  0
    0.5543   -0.3675   -1.5894 C   0  0  0  0  0  0  0  0  0  0  0  0
    0.2359    0.5468   -2.0992 H   0  0  0  0  0  0  0  0  0  0  0  0
    1.6400   -0.3129   -1.4795 H   0  0  0  0  0  0  0  0  0  0  0  0
    0.2269   -1.5069   -2.5617 C   0  0  0  0  0  0  0  0  0  0  0  0
   -0.8096   -2.1453   -2.5909 O   0  0  0  0  0  0  0  0  0  0  0  0
    1.1379   -1.8879   -3.5052 N   0  0  0  0  0  0  0  0  0  0  0  0
    0.9281   -2.7493   -4.0016 H   0  0  0  0  0  0  0  0  0  0  0  0
    2.0936   -1.5568   -3.4358 H   0  0  0  0  0  0  0  0  0  0  0  0
   -0.1505    1.0755    0.3580 C   0  0  0  0  0  0  0  0  0  0  0  0
   -1.0263    1.8288   -0.0498 O   0  0  0  0  0  0  0  0  0  0  0  0
    0.8096    1.5606    1.2277 N   0  0  0  0  0  0  0  0  0  0  0  0
    1.4687    0.8927    1.6171 H   0  0  0  0  0  0  0  0  0  0  0  0
    0.7730    2.9104    1.7781 C   0  0  0  0  0  0  0  0  0  0  0  0
   -0.1371    3.0584    2.3691 H   0  0  0  0  0  0  0  0  0  0  0  0
    1.6385    3.0784    2.4262 H   0  0  0  0  0  0  0  0  0  0  0  0
    0.7958    3.6535    0.9740 H   0  0  0  0  0  0  0  0  0  0  0  0
  1  2  1  0  0  0  0
  2  3  1  0  0  0  0
  2  4  1  0  0  0  0
  2  5  1  0  0  0  0
  5  6  2  0  0  0  0
  5  7  1  0  0  0  0
  7  8  1  0  0  0  0
  7  9  1  0  0  0  0
  9 10  1  0  0  0  0
  9 11  1  0  0  0  0
  9 19  1  0  0  0  0
 11 12  1  0  0  0  0
 11 13  1  0  0  0  0
 11 14  1  0  0  0  0
 14 15  2  0  0  0  0
 14 16  1  0  0  0  0
 16 17  1  0  0  0  0
 16 18  1  0  0  0  0
 19 20  2  0  0  0  0
 19 21  1  0  0  0  0
 21 22  1  0  0  0  0
 21 23  1  0  0  0  0
 23 24  1  0  0  0  0
 23 25  1  0  0  0  0
 23 26  1  0  0  0  0
M  END
$$$$

  -OEChem-04042215573D

 26 25  0     1  0  0  0  0  0999 V2000
   -2.8798   -4.0007    0.5150 H   0  0  0  0  0  0  0  0  0  0  0  0
   -2.9026   -2.9817    0.1195 C   0  0  0  0  0  0  0  0  0  0  0  0
   -3.6890   -2.4206    0.6299 H   0  0  0  0  0  0  0  0  0  0  0  0
   -3.1284   -3.0237   -0.9493 H   0  0  0  0  0  0  0  0  0  0  0  0
   -1.5615   -2.3062    0.3331 C   0  0  0  0  0  0  0  0  0  0  0  0
   -0.6584   -2.8997    0.9064 O   0  0  0  0  0  0  0  0  0  0  0  0
   -1.3627   -1.0194   -0.1254 N   0  0  0  0  0  0  0  0  0  0  0  0
   -2.1153   -0.6120   -0.6773 H   0  0  0  0  0  0  0  0  0  0  0  0
   -0.0557   -0.3525   -0.1783 C   0  0  1  0  0  0  0  0  0  0  0  0
    0.6376   -0.8902    0.4762 H   0  0  0  0  0  0  0  0  0  0  0  0
    0.5634   -0.3394   -1.6037 C   0  0  0  0  0  0  0  0  0  0  0  0
    0.2284    0.5666   -2.1181 H   0  0  0  0  0  0  0  0  0  0  0  0
    1.6494   -0.2691   -1.5056 H   0  0  0  0  0  0  0  0  0  0  0  0
    0.2276   -1.4953   -2.5510 C   0  0  0  0  0  0  0  0  0  0  0  0
   -0.8879   -1.9542   -2.7225 O   0  0  0  0  0  0  0  0  0  0  0  0
    1.2115   -2.1308   -3.2536 N   0  0  0  0  0  0  0  0  0  0  0  0
    0.9388   -3.0032   -3.6976 H   0  0  0  0  0  0  0  0  0  0  0  0
    2.1792   -1.9742   -2.9949 H   0  0  0  0  0  0  0  0  0  0  0  0
   -0.1491    1.0892    0.3604 C   0  0  0  0  0  0  0  0  0  0  0  0
   -1.0354    1.8377   -0.0321 O   0  0  0  0  0  0  0  0  0  0  0  0
    0.8068    1.5713    1.2364 N   0  0  0  0  0  0  0  0  0  0  0  0
    1.4756    0.9062    1.6134 H   0  0  0  0  0  0  0  0  0  0  0  0
    0.7604    2.9143    1.8026 C   0  0  0  0  0  0  0  0  0  0  0  0
   -0.1527    3.0503    2.3917 H   0  0  0  0  0  0  0  0  0  0  0  0
    1.6225    3.0790    2.4559 H   0  0  0  0  0  0  0  0  0  0  0  0
    0.7822    3.6672    1.0077 H   0  0  0  0  0  0  0  0  0  0  0  0
  1  2  1  0  0  0  0
  2  3  1  0  0  0  0
  2  4  1  0  0  0  0
  2  5  1  0  0  0  0
  5  6  2  0  0  0  0
  5  7  1  0  0  0  0
  7  8  1  0  0  0  0
  7  9  1  0  0  0  0
  9 10  1  0  0  0  0
  9 11  1  0  0  0  0
  9 19  1  0  0  0  0
 11 12  1  0  0  0  0
 11 13  1  0  0  0  0
 11 14  1  0  0  0  0
 14 15  2  0  0  0  0
 14 16  1  0  0  0  0
 16 17  1  0  0  0  0
 16 18  1  0  0  0  0
 19 20  2  0  0  0  0
 19 21  1  0  0  0  0
 21 22  1  0  0  0  0
 21 23  1  0  0  0  0
 23 24  1  0  0  0  0
 23 25  1  0  0  0  0
 23 26  1  0  0  0  0
M  END
$$$$

  -OEChem-04042215573D

 26 25  0     1  0  0  0  0  0999 V2000
   -2.8355   -4.0120    0.4508 H   0  0  0  0  0  0  0  0  0  0  0  0
   -2.8683   -2.9835    0.0814 C   0  0  0  0  0  0  0  0  0  0  0  0
   -3.6397   -2.4352    0.6273 H   0  0  0  0  0  0  0  0  0  0  0  0
   -3.1243   -2.9986   -0.9813 H   0  0  0  0  0  0  0  0  0  0  0  0
   -1.5214   -2.3134    0.2740 C   0  0  0  0  0  0  0  0  0  0  0  0
   -0.5975   -2.9254    0.7919 O   0  0  0  0  0  0  0  0  0  0  0  0
   -1.3325   -1.0181   -0.1623 N   0  0  0  0  0  0  0  0  0  0  0  0
   -2.1018   -0.5892   -0.6746 H   0  0  0  0  0  0  0  0  0  0  0  0
   -0.0349   -0.3313   -0.1999 C   0  0  1  0  0  0  0  0  0  0  0  0
    0.6618   -0.8683    0.4514 H   0  0  0  0  0  0  0  0  0  0  0  0
    0.5803   -0.3090   -1.6232 C   0  0  0  0  0  0  0  0  0  0  0  0
    0.2300    0.5886   -2.1420 H   0  0  0  0  0  0  0  0  0  0  0  0
    1.6668   -0.2280   -1.5397 H   0  0  0  0  0  0  0  0  0  0  0  0
    0.2322   -1.4855   -2.5362 C   0  0  0  0  0  0  0  0  0  0  0  0
   -0.9053   -1.7694   -2.8693 O   0  0  0  0  0  0  0  0  0  0  0  0
    1.1880   -2.3717   -2.9436 N   0  0  0  0  0  0  0  0  0  0  0  0
    0.8317   -3.2401   -3.3327 H   0  0  0  0  0  0  0  0  0  0  0  0
    2.0841   -2.3663   -2.4689 H   0  0  0  0  0  0  0  0  0  0  0  0
   -0.1438    1.1017    0.3581 C   0  0  0  0  0  0  0  0  0  0  0  0
   -1.0492    1.8386   -0.0112 O   0  0  0  0  0  0  0  0  0  0  0  0
    0.8044    1.5835    1.2428 N   0  0  0  0  0  0  0  0  0  0  0  0
    1.5002    0.9304    1.5907 H   0  0  0  0  0  0  0  0  0  0  0  0
    0.7434    2.9192    1.8247 C   0  0  0  0  0  0  0  0  0  0  0  0
   -0.1739    3.0407    2.4105 H   0  0  0  0  0  0  0  0  0  0  0  0
    1.6003    3.0839    2.4849 H   0  0  0  0  0  0  0  0  0  0  0  0
    0.7629    3.6814    1.0384 H   0  0  0  0  0  0  0  0  0  0  0  0
  1  2  1  0  0  0  0
  2  3  1  0  0  0  0
  2  4  1  0  0  0  0
  2  5  1  0  0  0  0
  5  6  2  0  0  0  0
  5  7  1  0  0  0  0
  7  8  1  0  0  0  0
  7  9  1  0  0  0  0
  9 10  1  0  0  0  0
  9 11  1  0  0  0  0
  9 19  1  0  0  0  0
 11 12  1  0  0  0  0
 11 13  1  0  0  0  0
 11 14  1  0  0  0  0
 14 15  2  0  0  0  0
 14 16  1  0  0  0  0
 16 17  1  0  0  0  0
 16 18  1  0  0  0  0
 19 20  2  0  0  0  0
 19 21  1  0  0  0  0
 21 22  1  0  0  0  0
 21 23  1  0  0  0  0
 23 24  1  0  0  0  0
 23 25  1  0  0  0  0
 23 26  1  0  0  0  0
M  END
$$$$

  -OEChem-04042215573D

 26 25  0     1  0  0  0  0  0999 V2000
   -2.8153   -4.0033    0.4395 H   0  0  0  0  0  0  0  0  0  0  0  0
   -2.8484   -2.9724    0.0766 C   0  0  0  0  0  0  0  0  0  0  0  0
   -3.5883   -2.4164    0.6573 H   0  0  0  0  0  0  0  0  0  0  0  0
   -3.1501   -2.9776   -0.9740 H   0  0  0  0  0  0  0  0  0  0  0  0
   -1.4852   -2.3228    0.2164 C   0  0  0  0  0  0  0  0  0  0  0  0
   -0.5425   -2.9573    0.6689 O   0  0  0  0  0  0  0  0  0  0  0  0
   -1.2978   -1.0232   -0.2065 N   0  0  0  0  0  0  0  0  0  0  0  0
   -2.0907   -0.5560   -0.6448 H   0  0  0  0  0  0  0  0  0  0  0  0
   -0.0068   -0.3218   -0.2252 C   0  0  1  0  0  0  0  0  0  0  0  0
    0.6874   -0.8559    0.4311 H   0  0  0  0  0  0  0  0  0  0  0  0
    0.6140   -0.3003   -1.6428 C   0  0  0  0  0  0  0  0  0  0  0  0
    0.2570    0.5886   -2.1723 H   0  0  0  0  0  0  0  0  0  0  0  0
    1.7007   -0.2166   -1.5654 H   0  0  0  0  0  0  0  0  0  0  0  0
    0.2587   -1.4981   -2.5194 C   0  0  0  0  0  0  0  0  0  0  0  0
   -0.8337   -1.6307   -3.0425 O   0  0  0  0  0  0  0  0  0  0  0  0
    1.1021   -2.5648   -2.6421 N   0  0  0  0  0  0  0  0  0  0  0  0
    0.6701   -3.4058   -3.0138 H   0  0  0  0  0  0  0  0  0  0  0  0
    1.8495   -2.6546   -1.9624 H   0  0  0  0  0  0  0  0  0  0  0  0
   -0.1323    1.1065    0.3408 C   0  0  0  0  0  0  0  0  0  0  0  0
   -1.0582    1.8262   -0.0103 O   0  0  0  0  0  0  0  0  0  0  0  0
    0.8023    1.5923    1.2376 N   0  0  0  0  0  0  0  0  0  0  0  0
    1.5185    0.9521    1.5675 H   0  0  0  0  0  0  0  0  0  0  0  0
    0.7120    2.9162    1.8426 C   0  0  0  0  0  0  0  0  0  0  0  0
   -0.2158    3.0133    2.4162 H   0  0  0  0  0  0  0  0  0  0  0  0
    1.5557    3.0813    2.5195 H   0  0  0  0  0  0  0  0  0  0  0  0
    0.7322    3.6930    1.0710 H   0  0  0  0  0  0  0  0  0  0  0  0
  1  2  1  0  0  0  0
  2  3  1  0  0  0  0
  2  4  1  0  0  0  0
  2  5  1  0  0  0  0
  5  6  2  0  0  0  0
  5  7  1  0  0  0  0
  7  8  1  0  0  0  0
  7  9  1  0  0  0  0
  9 10  1  0  0  0  0
  9 11  1  0  0  0  0
  9 19  1  0  0  0  0
 11 12  1  0  0  0  0
 11 13  1  0  0  0  0
 11 14  1  0  0  0  0
 14 15  2  0  0  0  0
 14 16  1  0  0  0  0
 16 17  1  0  0  0  0
 16 18  1  0  0  0  0
 19 20  2  0  0  0  0
 19 21  1  0  0  0  0
 21 22  1  0  0  0  0
 21 23  1  0  0  0  0
 23 24  1  0  0  0  0
 23 25  1  0  0  0  0
 23 26  1  0  0  0  0
M  END
$$$$

  -OEChem-04042215573D

 26 25  0     1  0  0  0  0  0999 V2000
   -2.8158   -3.9844    0.4715 H   0  0  0  0  0  0  0  0  0  0  0  0
   -2.8462   -2.9534    0.1086 C   0  0  0  0  0  0  0  0  0  0  0  0
   -3.5388   -2.3805    0.7299 H   0  0  0  0  0  0  0  0  0  0  0  0
   -3.2077   -2.9526   -0.9230 H   0  0  0  0  0  0  0  0  0  0  0  0
   -1.4630   -2.3345    0.1694 C   0  0  0  0  0  0  0  0  0  0  0  0
   -0.5053   -2.9929    0.5515 O   0  0  0  0  0  0  0  0  0  0  0  0
   -1.2724   -1.0337   -0.2480 N   0  0  0  0  0  0  0  0  0  0  0  0
   -2.0868   -0.5213   -0.5852 H   0  0  0  0  0  0  0  0  0  0  0  0
    0.0166   -0.3273   -0.2440 C   0  0  1  0  0  0  0  0  0  0  0  0
    0.7003   -0.8578    0.4263 H   0  0  0  0  0  0  0  0  0  0  0  0
    0.6601   -0.3071   -1.6488 C   0  0  0  0  0  0  0  0  0  0  0  0
    0.3133    0.5802   -2.1880 H   0  0  0  0  0  0  0  0  0  0  0  0
    1.7461   -0.2292   -1.5574 H   0  0  0  0  0  0  0  0  0  0  0  0
    0.3114   -1.5151   -2.5110 C   0  0  0  0  0  0  0  0  0  0  0  0
   -0.6572   -1.5286   -3.2484 O   0  0  0  0  0  0  0  0  0  0  0  0
    0.9739   -2.7018   -2.3824 N   0  0  0  0  0  0  0  0  0  0  0  0
    0.4948   -3.4903   -2.8069 H   0  0  0  0  0  0  0  0  0  0  0  0
    1.4709   -2.8542   -1.5101 H   0  0  0  0  0  0  0  0  0  0  0  0
   -0.1277    1.0987    0.3226 C   0  0  0  0  0  0  0  0  0  0  0  0
   -1.0742    1.7979   -0.0150 O   0  0  0  0  0  0  0  0  0  0  0  0
    0.7875    1.5894    1.2362 N   0  0  0  0  0  0  0  0  0  0  0  0
    1.5310    0.9698    1.5442 H   0  0  0  0  0  0  0  0  0  0  0  0
    0.6750    2.9095    1.8454 C   0  0  0  0  0  0  0  0  0  0  0  0
   -0.2689    3.0000    2.3934 H   0  0  0  0  0  0  0  0  0  0  0  0
    1.4986    3.0746    2.5466 H   0  0  0  0  0  0  0  0  0  0  0  0
    0.7126    3.6900    1.0781 H   0  0  0  0  0  0  0  0  0  0  0  0
  1  2  1  0  0  0  0
  2  3  1  0  0  0  0
  2  4  1  0  0  0  0
  2  5  1  0  0  0  0
  5  6  2  0  0  0  0
  5  7  1  0  0  0  0
  7  8  1  0  0  0  0
  7  9  1  0  0  0  0
  9 10  1  0  0  0  0
  9 11  1  0  0  0  0
  9 19  1  0  0  0  0
 11 12  1  0  0  0  0
 11 13  1  0  0  0  0
 11 14  1  0  0  0  0
 14 15  2  0  0  0  0
 14 16  1  0  0  0  0
 16 17  1  0  0  0  0
 16 18  1  0  0  0  0
 19 20  2  0  0  0  0
 19 21  1  0  0  0  0
 21 22  1  0  0  0  0
 21 23  1  0  0  0  0
 23 24  1  0  0  0  0
 23 25  1  0  0  0  0
 23 26  1  0  0  0  0
M  END
$$$$

  -OEChem-04042215573D

 26 25  0     1  0  0  0  0  0999 V2000
   -2.8487   -3.9589    0.5338 H   0  0  0  0  0  0  0  0  0  0  0  0
   -2.8710   -2.9305    0.1625 C   0  0  0  0  0  0  0  0  0  0  0  0
   -3.5318   -2.3392    0.8011 H   0  0  0  0  0  0  0  0  0  0  0  0
   -3.2666   -2.9319   -0.8565 H   0  0  0  0  0  0  0  0  0  0  0  0
   -1.4745   -2.3390    0.1725 C   0  0  0  0  0  0  0  0  0  0  0  0
   -0.5168   -3.0162    0.5215 O   0  0  0  0  0  0  0  0  0  0  0  0
   -1.2690   -1.0437   -0.2554 N   0  0  0  0  0  0  0  0  0  0  0  0
   -2.0875   -0.4998   -0.5289 H   0  0  0  0  0  0  0  0  0  0  0  0
    0.0255   -0.3457   -0.2367 C   0  0  1  0  0  0  0  0  0  0  0  0
    0.6960   -0.8730    0.4497 H   0  0  0  0  0  0  0  0  0  0  0  0
    0.6927   -0.3328   -1.6299 C   0  0  0  0  0  0  0  0  0  0  0  0
    0.3640    0.5581   -2.1746 H   0  0  0  0  0  0  0  0  0  0  0  0
    1.7778   -0.2659   -1.5188 H   0  0  0  0  0  0  0  0  0  0  0  0
    0.3546   -1.5384   -2.4993 C   0  0  0  0  0  0  0  0  0  0  0  0
   -0.4191   -1.4631   -3.4351 O   0  0  0  0  0  0  0  0  0  0  0  0
    0.8299   -2.7876   -2.2215 N   0  0  0  0  0  0  0  0  0  0  0  0
    0.3700   -3.5257   -2.7455 H   0  0  0  0  0  0  0  0  0  0  0  0
    1.0659   -2.9705   -1.2482 H   0  0  0  0  0  0  0  0  0  0  0  0
   -0.1264    1.0859    0.3142 C   0  0  0  0  0  0  0  0  0  0  0  0
   -1.0809    1.7716   -0.0288 O   0  0  0  0  0  0  0  0  0  0  0  0
    0.7713    1.5858    1.2400 N   0  0  0  0  0  0  0  0  0  0  0  0
    1.5257    0.9794    1.5481 H   0  0  0  0  0  0  0  0  0  0  0  0
    0.6477    2.9119    1.8338 C   0  0  0  0  0  0  0  0  0  0  0  0
   -0.3050    3.0068    2.3659 H   0  0  0  0  0  0  0  0  0  0  0  0
    1.4600    3.0851    2.5463 H   0  0  0  0  0  0  0  0  0  0  0  0
    0.6967    3.6845    1.0590 H   0  0  0  0  0  0  0  0  0  0  0  0
  1  2  1  0  0  0  0
  2  3  1  0  0  0  0
  2  4  1  0  0  0  0
  2  5  1  0  0  0  0
  5  6  2  0  0  0  0
  5  7  1  0  0  0  0
  7  8  1  0  0  0  0
  7  9  1  0  0  0  0
  9 10  1  0  0  0  0
  9 11  1  0  0  0  0
  9 19  1  0  0  0  0
 11 12  1  0  0  0  0
 11 13  1  0  0  0  0
 11 14  1  0  0  0  0
 14 15  2  0  0  0  0
 14 16  1  0  0  0  0
 16 17  1  0  0  0  0
 16 18  1  0  0  0  0
 19 20  2  0  0  0  0
 19 21  1  0  0  0  0
 21 22  1  0  0  0  0
 21 23  1  0  0  0  0
 23 24  1  0  0  0  0
 23 25  1  0  0  0  0
 23 26  1  0  0  0  0
M  END
$$$$

  -OEChem-04042215573D

 26 25  0     1  0  0  0  0  0999 V2000
   -2.9149   -3.9256    0.6028 H   0  0  0  0  0  0  0  0  0  0  0  0
   -2.9229   -2.9017    0.2188 C   0  0  0  0  0  0  0  0  0  0  0  0
   -3.5633   -2.2903    0.8594 H   0  0  0  0  0  0  0  0  0  0  0  0
   -3.3331   -2.9082   -0.7943 H   0  0  0  0  0  0  0  0  0  0  0  0
   -1.5155   -2.3369    0.2019 C   0  0  0  0  0  0  0  0  0  0  0  0
   -0.5656   -3.0291    0.5416 O   0  0  0  0  0  0  0  0  0  0  0  0
   -1.2911   -1.0490   -0.2385 N   0  0  0  0  0  0  0  0  0  0  0  0
   -2.1066   -0.4839   -0.4768 H   0  0  0  0  0  0  0  0  0  0  0  0
    0.0111   -0.3637   -0.2191 C   0  0  1  0  0  0  0  0  0  0  0  0
    0.6726   -0.8912    0.4762 H   0  0  0  0  0  0  0  0  0  0  0  0
    0.6924   -0.3595   -1.6061 C   0  0  0  0  0  0  0  0  0  0  0  0
    0.3776    0.5355   -2.1525 H   0  0  0  0  0  0  0  0  0  0  0  0
    1.7764   -0.3022   -1.4810 H   0  0  0  0  0  0  0  0  0  0  0  0
    0.3631   -1.5583   -2.4879 C   0  0  0  0  0  0  0  0  0  0  0  0
   -0.1701   -1.4283   -3.5733 O   0  0  0  0  0  0  0  0  0  0  0  0
    0.6961   -2.8350   -2.1362 N   0  0  0  0  0  0  0  0  0  0  0  0
    0.2976   -3.5490   -2.7378 H   0  0  0  0  0  0  0  0  0  0  0  0
    0.7587   -3.0270   -1.1362 H   0  0  0  0  0  0  0  0  0  0  0  0
   -0.1361    1.0746    0.3162 C   0  0  0  0  0  0  0  0  0  0  0  0
   -1.0939    1.7551   -0.0286 O   0  0  0  0  0  0  0  0  0  0  0  0
    0.7572    1.5792    1.2437 N   0  0  0  0  0  0  0  0  0  0  0  0
    1.5204    0.9809    1.5457 H   0  0  0  0  0  0  0  0  0  0  0  0
    0.6415    2.9146    1.8178 C   0  0  0  0  0  0  0  0  0  0  0  0
   -0.3152    3.0267    2.3389 H   0  0  0  0  0  0  0  0  0  0  0  0
    1.4483    3.0896    2.5362 H   0  0  0  0  0  0  0  0  0  0  0  0
    0.7065    3.6755    1.0328 H   0  0  0  0  0  0  0  0  0  0  0  0
  1  2  1  0  0  0  0
  2  3  1  0  0  0  0
  2  4  1  0  0  0  0
  2  5  1  0  0  0  0
  5  6  2  0  0  0  0
  5  7  1  0  0  0  0
  7  8  1  0  0  0  0
  7  9  1  0  0  0  0
  9 10  1  0  0  0  0
  9 11  1  0  0  0  0
  9 19  1  0  0  0  0
 11 12  1  0  0  0  0
 11 13  1  0  0  0  0
 11 14  1  0  0  0  0
 14 15  2  0  0  0  0
 14 16  1  0  0  0  0
 16 17  1  0  0  0  0
 16 18  1  0  0  0  0
 19 20  2  0  0  0  0
 19 21  1  0  0  0  0
 21 22  1  0  0  0  0
 21 23  1  0  0  0  0
 23 24  1  0  0  0  0
 23 25  1  0  0  0  0
 23 26  1  0  0  0  0
M  END
$$$$

  -OEChem-04042215573D

 26 25  0     1  0  0  0  0  0999 V2000
   -2.9969   -3.8833    0.6704 H   0  0  0  0  0  0  0  0  0  0  0  0
   -2.9874   -2.8634    0.2758 C   0  0  0  0  0  0  0  0  0  0  0  0
   -3.6039   -2.2314    0.9197 H   0  0  0  0  0  0  0  0  0  0  0  0
   -3.4134   -2.8711   -0.7307 H   0  0  0  0  0  0  0  0  0  0  0  0
   -1.5680   -2.3305    0.2315 C   0  0  0  0  0  0  0  0  0  0  0  0
   -0.6286   -3.0405    0.5619 O   0  0  0  0  0  0  0  0  0  0  0  0
   -1.3236   -1.0496   -0.2186 N   0  0  0  0  0  0  0  0  0  0  0  0
   -2.1343   -0.4663   -0.4281 H   0  0  0  0  0  0  0  0  0  0  0  0
   -0.0136   -0.3774   -0.2060 C   0  0  1  0  0  0  0  0  0  0  0  0
    0.6424   -0.9078    0.4922 H   0  0  0  0  0  0  0  0  0  0  0  0
    0.6728   -0.3763   -1.5920 C   0  0  0  0  0  0  0  0  0  0  0  0
    0.3661    0.5237   -2.1353 H   0  0  0  0  0  0  0  0  0  0  0  0
    1.7563   -0.3262   -1.4594 H   0  0  0  0  0  0  0  0  0  0  0  0
    0.3498   -1.5636   -2.4916 C   0  0  0  0  0  0  0  0  0  0  0  0
    0.0825   -1.4114   -3.6682 O   0  0  0  0  0  0  0  0  0  0  0  0
    0.5609   -2.8550   -2.1006 N   0  0  0  0  0  0  0  0  0  0  0  0
    0.2380   -3.5587   -2.7568 H   0  0  0  0  0  0  0  0  0  0  0  0
    0.5076   -3.0528   -1.1001 H   0  0  0  0  0  0  0  0  0  0  0  0
   -0.1504    1.0660    0.3183 C   0  0  0  0  0  0  0  0  0  0  0  0
   -1.1082    1.7469   -0.0260 O   0  0  0  0  0  0  0  0  0  0  0  0
    0.7470    1.5704    1.2418 N   0  0  0  0  0  0  0  0  0  0  0  0
    1.5118    0.9718    1.5398 H   0  0  0  0  0  0  0  0  0  0  0  0
    0.6435    2.9113    1.8053 C   0  0  0  0  0  0  0  0  0  0  0  0
   -0.3063    3.0318    2.3369 H   0  0  0  0  0  0  0  0  0  0  0  0
    1.4597    3.0888    2.5123 H   0  0  0  0  0  0  0  0  0  0  0  0
    0.7024    3.6652    1.0131 H   0  0  0  0  0  0  0  0  0  0  0  0
  1  2  1  0  0  0  0
  2  3  1  0  0  0  0
  2  4  1  0  0  0  0
  2  5  1  0  0  0  0
  5  6  2  0  0  0  0
  5  7  1  0  0  0  0
  7  8  1  0  0  0  0
  7  9  1  0  0  0  0
  9 10  1  0  0  0  0
  9 11  1  0  0  0  0
  9 19  1  0  0  0  0
 11 12  1  0  0  0  0
 11 13  1  0  0  0  0
 11 14  1  0  0  0  0
 14 15  2  0  0  0  0
 14 16  1  0  0  0  0
 16 17  1  0  0  0  0
 16 18  1  0  0  0  0
 19 20  2  0  0  0  0
 19 21  1  0  0  0  0
 21 22  1  0  0  0  0
 21 23  1  0  0  0  0
 23 24  1  0  0  0  0
 23 25  1  0  0  0  0
 23 26  1  0  0  0  0
M  END
$$$$

  -OEChem-04042215573D

 26 25  0     1  0  0  0  0  0999 V2000
   -3.0698   -3.8422    0.7306 H   0  0  0  0  0  0  0  0  0  0  0  0
   -3.0479   -2.8256    0.3279 C   0  0  0  0  0  0  0  0  0  0  0  0
   -3.6439   -2.1779    0.9757 H   0  0  0  0  0  0  0  0  0  0  0  0
   -3.4887   -2.8330   -0.6721 H   0  0  0  0  0  0  0  0  0  0  0  0
   -1.6195   -2.3200    0.2599 C   0  0  0  0  0  0  0  0  0  0  0  0
   -0.6906   -3.0466    0.5810 O   0  0  0  0  0  0  0  0  0  0  0  0
   -1.3560   -1.0455   -0.1970 N   0  0  0  0  0  0  0  0  0  0  0  0
   -2.1602   -0.4471   -0.3885 H   0  0  0  0  0  0  0  0  0  0  0  0
   -0.0372   -0.3885   -0.1982 C   0  0  1  0  0  0  0  0  0  0  0  0
    0.6195   -0.9251    0.4949 H   0  0  0  0  0  0  0  0  0  0  0  0
    0.6439   -0.3813   -1.5889 C   0  0  0  0  0  0  0  0  0  0  0  0
    0.3432    0.5281   -2.1196 H   0  0  0  0  0  0  0  0  0  0  0  0
    1.7278   -0.3398   -1.4548 H   0  0  0  0  0  0  0  0  0  0  0  0
    0.3232   -1.5470   -2.5173 C   0  0  0  0  0  0  0  0  0  0  0  0
    0.3293   -1.3969   -3.7241 O   0  0  0  0  0  0  0  0  0  0  0  0
    0.3924   -2.8485   -2.1096 N   0  0  0  0  0  0  0  0  0  0  0  0
    0.1542   -3.5461   -2.8070 H   0  0  0  0  0  0  0  0  0  0  0  0
    0.2576   -3.0544   -1.1185 H   0  0  0  0  0  0  0  0  0  0  0  0
   -0.1622    1.0576    0.3216 C   0  0  0  0  0  0  0  0  0  0  0  0
   -1.1213    1.7402   -0.0163 O   0  0  0  0  0  0  0  0  0  0  0  0
    0.7431    1.5610    1.2377 N   0  0  0  0  0  0  0  0  0  0  0  0
    1.5099    0.9616    1.5291 H   0  0  0  0  0  0  0  0  0  0  0  0
    0.6498    2.9053    1.7956 C   0  0  0  0  0  0  0  0  0  0  0  0
   -0.2944    3.0327    2.3357 H   0  0  0  0  0  0  0  0  0  0  0  0
    1.4733    3.0832    2.4938 H   0  0  0  0  0  0  0  0  0  0  0  0
    0.7040    3.6551    0.9992 H   0  0  0  0  0  0  0  0  0  0  0  0
  1  2  1  0  0  0  0
  2  3  1  0  0  0  0
  2  4  1  0  0  0  0
  2  5  1  0  0  0  0
  5  6  2  0  0  0  0
  5  7  1  0  0  0  0
  7  8  1  0  0  0  0
  7  9  1  0  0  0  0
  9 10  1  0  0  0  0
  9 11  1  0  0  0  0
  9 19  1  0  0  0  0
 11 12  1  0  0  0  0
 11 13  1  0  0  0  0
 11 14  1  0  0  0  0
 14 15  2  0  0  0  0
 14 16  1  0  0  0  0
 16 17  1  0  0  0  0
 16 18  1  0  0  0  0
 19 20  2  0  0  0  0
 19 21  1  0  0  0  0
 21 22  1  0  0  0  0
 21 23  1  0  0  0  0
 23 24  1  0  0  0  0
 23 25  1  0  0  0  0
 23 26  1  0  0  0  0
M  END
$$$$

  -OEChem-04042215573D

 26 25  0     1  0  0  0  0  0999 V2000
   -3.1277   -3.8112    0.7878 H   0  0  0  0  0  0  0  0  0  0  0  0
   -3.1012   -2.7991    0.3744 C   0  0  0  0  0  0  0  0  0  0  0  0
   -3.6887   -2.1402    1.0185 H   0  0  0  0  0  0  0  0  0  0  0  0
   -3.5476   -2.8143   -0.6231 H   0  0  0  0  0  0  0  0  0  0  0  0
   -1.6700   -2.3036    0.2927 C   0  0  0  0  0  0  0  0  0  0  0  0
   -0.7426   -3.0352    0.6089 O   0  0  0  0  0  0  0  0  0  0  0  0
   -1.4022   -1.0313   -0.1685 N   0  0  0  0  0  0  0  0  0  0  0  0
   -2.2034   -0.4280   -0.3560 H   0  0  0  0  0  0  0  0  0  0  0  0
   -0.0760   -0.3907   -0.1948 C   0  0  1  0  0  0  0  0  0  0  0  0
    0.5854   -0.9354    0.4875 H   0  0  0  0  0  0  0  0  0  0  0  0
    0.5953   -0.3752   -1.5926 C   0  0  0  0  0  0  0  0  0  0  0  0
    0.2957    0.5444   -2.1056 H   0  0  0  0  0  0  0  0  0  0  0  0
    1.6792   -0.3350   -1.4586 H   0  0  0  0  0  0  0  0  0  0  0  0
    0.2853   -1.5099   -2.5658 C   0  0  0  0  0  0  0  0  0  0  0  0
    0.5664   -1.3887   -3.7427 O   0  0  0  0  0  0  0  0  0  0  0  0
    0.0409   -2.7989   -2.1893 N   0  0  0  0  0  0  0  0  0  0  0  0
    0.1979   -3.5133   -2.8930 H   0  0  0  0  0  0  0  0  0  0  0  0
    0.0586   -3.0376   -1.1968 H   0  0  0  0  0  0  0  0  0  0  0  0
   -0.1794    1.0556    0.3305 C   0  0  0  0  0  0  0  0  0  0  0  0
   -1.1352    1.7498    0.0067 O   0  0  0  0  0  0  0  0  0  0  0  0
    0.7470    1.5489    1.2308 N   0  0  0  0  0  0  0  0  0  0  0  0
    1.5134    0.9418    1.5071 H   0  0  0  0  0  0  0  0  0  0  0  0
    0.6805    2.8950    1.7875 C   0  0  0  0  0  0  0  0  0  0  0  0
   -0.2538    3.0354    2.3413 H   0  0  0  0  0  0  0  0  0  0  0  0
    1.5168    3.0631    2.4730 H   0  0  0  0  0  0  0  0  0  0  0  0
    0.7327    3.6427    0.9890 H   0  0  0  0  0  0  0  0  0  0  0  0
  1  2  1  0  0  0  0
  2  3  1  0  0  0  0
  2  4  1  0  0  0  0
  2  5  1  0  0  0  0
  5  6  2  0  0  0  0
  5  7  1  0  0  0  0
  7  8  1  0  0  0  0
  7  9  1  0  0  0  0
  9 10  1  0  0  0  0
  9 11  1  0  0  0  0
  9 19  1  0  0  0  0
 11 12  1  0  0  0  0
 11 13  1  0  0  0  0
 11 14  1  0  0  0  0
 14 15  2  0  0  0  0
 14 16  1  0  0  0  0
 16 17  1  0  0  0  0
 16 18  1  0  0  0  0
 19 20  2  0  0  0  0
 19 21  1  0  0  0  0
 21 22  1  0  0  0  0
 21 23  1  0  0  0  0
 23 24  1  0  0  0  0
 23 25  1  0  0  0  0
 23 26  1  0  0  0  0
M  END
$$$$

  -OEChem-04042215573D

 26 25  0     1  0  0  0  0  0999 V2000
   -3.1102   -3.7856    0.8778 H   0  0  0  0  0  0  0  0  0  0  0  0
   -3.1122   -2.7496    0.5274 C   0  0  0  0  0  0  0  0  0  0  0  0
   -3.5770   -2.1207    1.2908 H   0  0  0  0  0  0  0  0  0  0  0  0
   -3.7004   -2.6889   -0.3920 H   0  0  0  0  0  0  0  0  0  0  0  0
   -1.6933   -2.2833    0.2649 C   0  0  0  0  0  0  0  0  0  0  0  0
   -0.7570   -3.0623    0.3518 O   0  0  0  0  0  0  0  0  0  0  0  0
   -1.4526   -0.9953   -0.1631 N   0  0  0  0  0  0  0  0  0  0  0  0
   -2.2551   -0.3651   -0.1931 H   0  0  0  0  0  0  0  0  0  0  0  0
   -0.1277   -0.3567   -0.2457 C   0  0  1  0  0  0  0  0  0  0  0  0
    0.5531   -0.9211    0.4011 H   0  0  0  0  0  0  0  0  0  0  0  0
    0.5227   -0.3099   -1.6590 C   0  0  0  0  0  0  0  0  0  0  0  0
    0.4502    0.7153   -2.0355 H   0  0  0  0  0  0  0  0  0  0  0  0
    1.5865   -0.5379   -1.5498 H   0  0  0  0  0  0  0  0  0  0  0  0
   -0.0163   -1.1905   -2.7867 C   0  0  0  0  0  0  0  0  0  0  0  0
    0.5085   -1.1296   -3.8821 O   0  0  0  0  0  0  0  0  0  0  0  0
   -0.6482   -2.3848   -2.6011 N   0  0  0  0  0  0  0  0  0  0  0  0
   -0.5290   -3.0334   -3.3730 H   0  0  0  0  0  0  0  0  0  0  0  0
   -0.6350   -2.7533   -1.6509 H   0  0  0  0  0  0  0  0  0  0  0  0
   -0.2085    1.0673    0.3414 C   0  0  0  0  0  0  0  0  0  0  0  0
   -1.1940    1.7581    0.1139 O   0  0  0  0  0  0  0  0  0  0  0  0
    0.7643    1.5333    1.2066 N   0  0  0  0  0  0  0  0  0  0  0  0
    1.5565    0.9287    1.4040 H   0  0  0  0  0  0  0  0  0  0  0  0
    0.7068    2.8460    1.8393 C   0  0  0  0  0  0  0  0  0  0  0  0
   -0.1954    2.9366    2.4534 H   0  0  0  0  0  0  0  0  0  0  0  0
    1.5786    2.9944    2.4837 H   0  0  0  0  0  0  0  0  0  0  0  0
    0.6987    3.6366    1.0815 H   0  0  0  0  0  0  0  0  0  0  0  0
  1  2  1  0  0  0  0
  2  3  1  0  0  0  0
  2  4  1  0  0  0  0
  2  5  1  0  0  0  0
  5  6  2  0  0  0  0
  5  7  1  0  0  0  0
  7  8  1  0  0  0  0
  7  9  1  0  0  0  0
  9 10  1  0  0  0  0
  9 11  1  0  0  0  0
  9 19  1  0  0  0  0
 11 12  1  0  0  0  0
 11 13  1  0  0  0  0
 11 14  1  0  0  0  0
 14 15  2  0  0  0  0
 14 16  1  0  0  0  0
 16 17  1  0  0  0  0
 16 18  1  0  0  0  0
 19 20  2  0  0  0  0
 19 21  1  0  0  0  0
 21 22  1  0  0  0  0
 21 23  1  0  0  0  0
 23 24  1  0  0  0  0
 23 25  1  0  0  0  0
 23 26  1  0  0  0  0
M  END
$$$$

  -OEChem-04042215573D

 26 25  0     1  0  0  0  0  0999 V2000
   -2.9849   -3.8524    0.9765 H   0  0  0  0  0  0  0  0  0  0  0  0
   -3.0059   -2.8404    0.5623 C   0  0  0  0  0  0  0  0  0  0  0  0
   -3.5085   -2.1803    1.2736 H   0  0  0  0  0  0  0  0  0  0  0  0
   -3.5711   -2.8540   -0.3727 H   0  0  0  0  0  0  0  0  0  0  0  0
   -1.5926   -2.3513    0.3085 C   0  0  0  0  0  0  0  0  0  0  0  0
   -0.6433   -3.0932    0.4949 O   0  0  0  0  0  0  0  0  0  0  0  0
   -1.3795   -1.0701   -0.1611 N   0  0  0  0  0  0  0  0  0  0  0  0
   -2.1858   -0.4431   -0.1722 H   0  0  0  0  0  0  0  0  0  0  0  0
   -0.0589   -0.4185   -0.2132 C   0  0  1  0  0  0  0  0  0  0  0  0
    0.6009   -0.9482    0.4829 H   0  0  0  0  0  0  0  0  0  0  0  0
    0.6633   -0.4066   -1.5921 C   0  0  0  0  0  0  0  0  0  0  0  0
    0.5992    0.6052   -2.0036 H   0  0  0  0  0  0  0  0  0  0  0  0
    1.7224   -0.6169   -1.4189 H   0  0  0  0  0  0  0  0  0  0  0  0
    0.1959   -1.3244   -2.7222 C   0  0  0  0  0  0  0  0  0  0  0  0
    0.9221   -1.5074   -3.6802 O   0  0  0  0  0  0  0  0  0  0  0  0
   -1.0787   -1.7760   -2.9041 N   0  0  0  0  0  0  0  0  0  0  0  0
   -1.1991   -2.4572   -3.6473 H   0  0  0  0  0  0  0  0  0  0  0  0
   -1.6844   -1.7925   -2.0930 H   0  0  0  0  0  0  0  0  0  0  0  0
   -0.1853    1.0226    0.3214 C   0  0  0  0  0  0  0  0  0  0  0  0
   -1.1803    1.6810    0.0430 O   0  0  0  0  0  0  0  0  0  0  0  0
    0.7434    1.5332    1.2093 N   0  0  0  0  0  0  0  0  0  0  0  0
    1.5473    0.9567    1.4422 H   0  0  0  0  0  0  0  0  0  0  0  0
    0.6402    2.8646    1.7951 C   0  0  0  0  0  0  0  0  0  0  0  0
   -0.2910    2.9634    2.3628 H   0  0  0  0  0  0  0  0  0  0  0  0
    1.4786    3.0449    2.4747 H   0  0  0  0  0  0  0  0  0  0  0  0
    0.6586    3.6299    1.0121 H   0  0  0  0  0  0  0  0  0  0  0  0
  1  2  1  0  0  0  0
  2  3  1  0  0  0  0
  2  4  1  0  0  0  0
  2  5  1  0  0  0  0
  5  6  2  0  0  0  0
  5  7  1  0  0  0  0
  7  8  1  0  0  0  0
  7  9  1  0  0  0  0
  9 10  1  0  0  0  0
  9 11  1  0  0  0  0
  9 19  1  0  0  0  0
 11 12  1  0  0  0  0
 11 13  1  0  0  0  0
 11 14  1  0  0  0  0
 14 15  2  0  0  0  0
 14 16  1  0  0  0  0
 16 17  1  0  0  0  0
 16 18  1  0  0  0  0
 19 20  2  0  0  0  0
 19 21  1  0  0  0  0
 21 22  1  0  0  0  0
 21 23  1  0  0  0  0
 23 24  1  0  0  0  0
 23 25  1  0  0  0  0
 23 26  1  0  0  0  0
M  END
$$$$

  -OEChem-04042215573D

 26 25  0     1  0  0  0  0  0999 V2000
   -2.9512   -3.8798    0.9379 H   0  0  0  0  0  0  0  0  0  0  0  0
   -2.9782   -2.8710    0.5163 C   0  0  0  0  0  0  0  0  0  0  0  0
   -3.5036   -2.2132    1.2130 H   0  0  0  0  0  0  0  0  0  0  0  0
   -3.5238   -2.8995   -0.4299 H   0  0  0  0  0  0  0  0  0  0  0  0
   -1.5670   -2.3642    0.2864 C   0  0  0  0  0  0  0  0  0  0  0  0
   -0.6119   -3.0894    0.5076 O   0  0  0  0  0  0  0  0  0  0  0  0
   -1.3630   -1.0786   -0.1756 N   0  0  0  0  0  0  0  0  0  0  0  0
   -2.1734   -0.4578   -0.1698 H   0  0  0  0  0  0  0  0  0  0  0  0
   -0.0462   -0.4186   -0.2151 C   0  0  1  0  0  0  0  0  0  0  0  0
    0.6172   -0.9474    0.4785 H   0  0  0  0  0  0  0  0  0  0  0  0
    0.6611   -0.4142   -1.5982 C   0  0  0  0  0  0  0  0  0  0  0  0
    0.5936    0.5911   -2.0246 H   0  0  0  0  0  0  0  0  0  0  0  0
    1.7222   -0.6292   -1.4426 H   0  0  0  0  0  0  0  0  0  0  0  0
    0.1449   -1.3577   -2.6817 C   0  0  0  0  0  0  0  0  0  0  0  0
    0.9098   -1.8010   -3.5167 O   0  0  0  0  0  0  0  0  0  0  0  0
   -1.1724   -1.4652   -3.0254 N   0  0  0  0  0  0  0  0  0  0  0  0
   -1.3881   -2.1520   -3.7414 H   0  0  0  0  0  0  0  0  0  0  0  0
   -1.8640   -1.2120   -2.3296 H   0  0  0  0  0  0  0  0  0  0  0  0
   -0.1778    1.0191    0.3240 C   0  0  0  0  0  0  0  0  0  0  0  0
   -1.1696    1.6771    0.0331 O   0  0  0  0  0  0  0  0  0  0  0  0
    0.7434    1.5305    1.2191 N   0  0  0  0  0  0  0  0  0  0  0  0
    1.5413    0.9508    1.4649 H   0  0  0  0  0  0  0  0  0  0  0  0
    0.6345    2.8618    1.8040 C   0  0  0  0  0  0  0  0  0  0  0  0
   -0.3005    2.9588    2.3660 H   0  0  0  0  0  0  0  0  0  0  0  0
    1.4687    3.0441    2.4884 H   0  0  0  0  0  0  0  0  0  0  0  0
    0.6565    3.6272    1.0211 H   0  0  0  0  0  0  0  0  0  0  0  0
  1  2  1  0  0  0  0
  2  3  1  0  0  0  0
  2  4  1  0  0  0  0
  2  5  1  0  0  0  0
  5  6  2  0  0  0  0
  5  7  1  0  0  0  0
  7  8  1  0  0  0  0
  7  9  1  0  0  0  0
  9 10  1  0  0  0  0
  9 11  1  0  0  0  0
  9 19  1  0  0  0  0
 11 12  1  0  0  0  0
 11 13  1  0  0  0  0
 11 14  1  0  0  0  0
 14 15  2  0  0  0  0
 14 16  1  0  0  0  0
 16 17  1  0  0  0  0
 16 18  1  0  0  0  0
 19 20  2  0  0  0  0
 19 21  1  0  0  0  0
 21 22  1  0  0  0  0
 21 23  1  0  0  0  0
 23 24  1  0  0  0  0
 23 25  1  0  0  0  0
 23 26  1  0  0  0  0
M  END
$$$$

  -OEChem-04042215573D

 26 25  0     1  0  0  0  0  0999 V2000
   -2.9412   -3.9094    0.8609 H   0  0  0  0  0  0  0  0  0  0  0  0
   -2.9634   -2.8969    0.4483 C   0  0  0  0  0  0  0  0  0  0  0  0
   -3.5235   -2.2521    1.1298 H   0  0  0  0  0  0  0  0  0  0  0  0
   -3.4703   -2.9221   -0.5193 H   0  0  0  0  0  0  0  0  0  0  0  0
   -1.5506   -2.3716    0.2787 C   0  0  0  0  0  0  0  0  0  0  0  0
   -0.5972   -3.0786    0.5591 O   0  0  0  0  0  0  0  0  0  0  0  0
   -1.3458   -1.0846   -0.1784 N   0  0  0  0  0  0  0  0  0  0  0  0
   -2.1640   -0.4769   -0.2161 H   0  0  0  0  0  0  0  0  0  0  0  0
   -0.0326   -0.4183   -0.2095 C   0  0  1  0  0  0  0  0  0  0  0  0
    0.6400   -0.9479    0.4742 H   0  0  0  0  0  0  0  0  0  0  0  0
    0.6481   -0.4020   -1.6037 C   0  0  0  0  0  0  0  0  0  0  0  0
    0.5793    0.6042   -2.0276 H   0  0  0  0  0  0  0  0  0  0  0  0
    1.7108   -0.6268   -1.4748 H   0  0  0  0  0  0  0  0  0  0  0  0
    0.0841   -1.3490   -2.6571 C   0  0  0  0  0  0  0  0  0  0  0  0
    0.8239   -2.0221   -3.3487 O   0  0  0  0  0  0  0  0  0  0  0  0
   -1.1945   -1.2429   -3.1280 N   0  0  0  0  0  0  0  0  0  0  0  0
   -1.4789   -1.9209   -3.8283 H   0  0  0  0  0  0  0  0  0  0  0  0
   -1.8809   -0.7436   -2.5740 H   0  0  0  0  0  0  0  0  0  0  0  0
   -0.1711    1.0174    0.3315 C   0  0  0  0  0  0  0  0  0  0  0  0
   -1.1491    1.6830    0.0116 O   0  0  0  0  0  0  0  0  0  0  0  0
    0.7439    1.5302    1.2318 N   0  0  0  0  0  0  0  0  0  0  0  0
    1.5283    0.9419    1.5000 H   0  0  0  0  0  0  0  0  0  0  0  0
    0.6390    2.8670    1.8043 C   0  0  0  0  0  0  0  0  0  0  0  0
   -0.2985    2.9736    2.3601 H   0  0  0  0  0  0  0  0  0  0  0  0
    1.4706    3.0506    2.4913 H   0  0  0  0  0  0  0  0  0  0  0  0
    0.6696    3.6256    1.0150 H   0  0  0  0  0  0  0  0  0  0  0  0
  1  2  1  0  0  0  0
  2  3  1  0  0  0  0
  2  4  1  0  0  0  0
  2  5  1  0  0  0  0
  5  6  2  0  0  0  0
  5  7  1  0  0  0  0
  7  8  1  0  0  0  0
  7  9  1  0  0  0  0
  9 10  1  0  0  0  0
  9 11  1  0  0  0  0
  9 19  1  0  0  0  0
 11 12  1  0  0  0  0
 11 13  1  0  0  0  0
 11 14  1  0  0  0  0
 14 15  2  0  0  0  0
 14 16  1  0  0  0  0
 16 17  1  0  0  0  0
 16 18  1  0  0  0  0
 19 20  2  0  0  0  0
 19 21  1  0  0  0  0
 21 22  1  0  0  0  0
 21 23  1  0  0  0  0
 23 24  1  0  0  0  0
 23 25  1  0  0  0  0
 23 26  1  0  0  0  0
M  END
$$$$

  -OEChem-04042215573D

 26 25  0     1  0  0  0  0  0999 V2000
   -2.9209   -3.9736    0.7706 H   0  0  0  0  0  0  0  0  0  0  0  0
   -2.9386   -2.9530    0.3778 C   0  0  0  0  0  0  0  0  0  0  0  0
   -3.5790   -2.3400    1.0166 H   0  0  0  0  0  0  0  0  0  0  0  0
   -3.3534   -2.9729   -0.6330 H   0  0  0  0  0  0  0  0  0  0  0  0
   -1.5342   -2.3801    0.3481 C   0  0  0  0  0  0  0  0  0  0  0  0
   -0.5958   -3.0363    0.7698 O   0  0  0  0  0  0  0  0  0  0  0  0
   -1.3244   -1.1003   -0.1255 N   0  0  0  0  0  0  0  0  0  0  0  0
   -2.1469   -0.5450   -0.3541 H   0  0  0  0  0  0  0  0  0  0  0  0
   -0.0158   -0.4284   -0.1763 C   0  0  1  0  0  0  0  0  0  0  0  0
    0.6816   -0.9510    0.4874 H   0  0  0  0  0  0  0  0  0  0  0  0
    0.6025   -0.4060   -1.5990 C   0  0  0  0  0  0  0  0  0  0  0  0
    0.5272    0.6005   -2.0207 H   0  0  0  0  0  0  0  0  0  0  0  0
    1.6675   -0.6436   -1.5223 H   0  0  0  0  0  0  0  0  0  0  0  0
   -0.0300   -1.3568   -2.6074 C   0  0  0  0  0  0  0  0  0  0  0  0
    0.6157   -2.2327   -3.1491 O   0  0  0  0  0  0  0  0  0  0  0  0
   -1.2533   -1.1045   -3.1642 N   0  0  0  0  0  0  0  0  0  0  0  0
   -1.4367   -1.5864   -4.0395 H   0  0  0  0  0  0  0  0  0  0  0  0
   -1.6771   -0.1995   -2.9867 H   0  0  0  0  0  0  0  0  0  0  0  0
   -0.1571    1.0137    0.3463 C   0  0  0  0  0  0  0  0  0  0  0  0
   -1.0987    1.6993   -0.0365 O   0  0  0  0  0  0  0  0  0  0  0  0
    0.7624    1.5420    1.2330 N   0  0  0  0  0  0  0  0  0  0  0  0
    1.5040    0.9318    1.5661 H   0  0  0  0  0  0  0  0  0  0  0  0
    0.6570    2.8870    1.7856 C   0  0  0  0  0  0  0  0  0  0  0  0
   -0.2775    2.9998    2.3453 H   0  0  0  0  0  0  0  0  0  0  0  0
    1.4922    3.0836    2.4648 H   0  0  0  0  0  0  0  0  0  0  0  0
    0.6804    3.6332    0.9844 H   0  0  0  0  0  0  0  0  0  0  0  0
  1  2  1  0  0  0  0
  2  3  1  0  0  0  0
  2  4  1  0  0  0  0
  2  5  1  0  0  0  0
  5  6  2  0  0  0  0
  5  7  1  0  0  0  0
  7  8  1  0  0  0  0
  7  9  1  0  0  0  0
  9 10  1  0  0  0  0
  9 11  1  0  0  0  0
  9 19  1  0  0  0  0
 11 12  1  0  0  0  0
 11 13  1  0  0  0  0
 11 14  1  0  0  0  0
 14 15  2  0  0  0  0
 14 16  1  0  0  0  0
 16 17  1  0  0  0  0
 16 18  1  0  0  0  0
 19 20  2  0  0  0  0
 19 21  1  0  0  0  0
 21 22  1  0  0  0  0
 21 23  1  0  0  0  0
 23 24  1  0  0  0  0
 23 25  1  0  0  0  0
 23 26  1  0  0  0  0
M  END
$$$$

  -OEChem-04042215573D

 26 25  0     1  0  0  0  0  0999 V2000
   -2.9136   -3.9763    0.6829 H   0  0  0  0  0  0  0  0  0  0  0  0
   -2.9291   -2.9543    0.2940 C   0  0  0  0  0  0  0  0  0  0  0  0
   -3.6022   -2.3526    0.9093 H   0  0  0  0  0  0  0  0  0  0  0  0
   -3.3032   -2.9750   -0.7325 H   0  0  0  0  0  0  0  0  0  0  0  0
   -1.5322   -2.3639    0.3232 C   0  0  0  0  0  0  0  0  0  0  0  0
   -0.6074   -3.0047    0.7958 O   0  0  0  0  0  0  0  0  0  0  0  0
   -1.3187   -1.0817   -0.1425 N   0  0  0  0  0  0  0  0  0  0  0  0
   -2.1347   -0.5435   -0.4282 H   0  0  0  0  0  0  0  0  0  0  0  0
   -0.0091   -0.4108   -0.1837 C   0  0  1  0  0  0  0  0  0  0  0  0
    0.6886   -0.9402    0.4743 H   0  0  0  0  0  0  0  0  0  0  0  0
    0.6019   -0.3786   -1.6092 C   0  0  0  0  0  0  0  0  0  0  0  0
    0.5294    0.6308   -2.0240 H   0  0  0  0  0  0  0  0  0  0  0  0
    1.6658   -0.6226   -1.5433 H   0  0  0  0  0  0  0  0  0  0  0  0
   -0.0463   -1.3238   -2.6116 C   0  0  0  0  0  0  0  0  0  0  0  0
    0.4900   -2.3554   -2.9654 O   0  0  0  0  0  0  0  0  0  0  0  0
   -1.1950   -0.9894   -3.2736 N   0  0  0  0  0  0  0  0  0  0  0  0
   -1.4046   -1.5472   -4.0965 H   0  0  0  0  0  0  0  0  0  0  0  0
   -1.5249   -0.0315   -3.2102 H   0  0  0  0  0  0  0  0  0  0  0  0
   -0.1473    1.0291    0.3460 C   0  0  0  0  0  0  0  0  0  0  0  0
   -1.0748    1.7272   -0.0483 O   0  0  0  0  0  0  0  0  0  0  0  0
    0.7717    1.5480    1.2388 N   0  0  0  0  0  0  0  0  0  0  0  0
    1.4995    0.9271    1.5824 H   0  0  0  0  0  0  0  0  0  0  0  0
    0.6726    2.8916    1.7965 C   0  0  0  0  0  0  0  0  0  0  0  0
   -0.2687    3.0116    2.3431 H   0  0  0  0  0  0  0  0  0  0  0  0
    1.4998    3.0757    2.4888 H   0  0  0  0  0  0  0  0  0  0  0  0
    0.7155    3.6418    1.0000 H   0  0  0  0  0  0  0  0  0  0  0  0
  1  2  1  0  0  0  0
  2  3  1  0  0  0  0
  2  4  1  0  0  0  0
  2  5  1  0  0  0  0
  5  6  2  0  0  0  0
  5  7  1  0  0  0  0
  7  8  1  0  0  0  0
  7  9  1  0  0  0  0
  9 10  1  0  0  0  0
  9 11  1  0  0  0  0
  9 19  1  0  0  0  0
 11 12  1  0  0  0  0
 11 13  1  0  0  0  0
 11 14  1  0  0  0  0
 14 15  2  0  0  0  0
 14 16  1  0  0  0  0
 16 17  1  0  0  0  0
 16 18  1  0  0  0  0
 19 20  2  0  0  0  0
 19 21  1  0  0  0  0
 21 22  1  0  0  0  0
 21 23  1  0  0  0  0
 23 24  1  0  0  0  0
 23 25  1  0  0  0  0
 23 26  1  0  0  0  0
M  END
$$$$

  -OEChem-04042215573D

 26 25  0     1  0  0  0  0  0999 V2000
   -2.9253   -3.9565    0.5867 H   0  0  0  0  0  0  0  0  0  0  0  0
   -2.9268   -2.9341    0.1983 C   0  0  0  0  0  0  0  0  0  0  0  0
   -3.6162   -2.3312    0.7941 H   0  0  0  0  0  0  0  0  0  0  0  0
   -3.2704   -2.9534   -0.8388 H   0  0  0  0  0  0  0  0  0  0  0  0
   -1.5295   -2.3476    0.2679 C   0  0  0  0  0  0  0  0  0  0  0  0
   -0.6221   -2.9888    0.7728 O   0  0  0  0  0  0  0  0  0  0  0  0
   -1.3013   -1.0646   -0.1901 N   0  0  0  0  0  0  0  0  0  0  0  0
   -2.1107   -0.5136   -0.4694 H   0  0  0  0  0  0  0  0  0  0  0  0
    0.0129   -0.4013   -0.2005 C   0  0  1  0  0  0  0  0  0  0  0  0
    0.6953   -0.9372    0.4682 H   0  0  0  0  0  0  0  0  0  0  0  0
    0.6503   -0.3632   -1.6139 C   0  0  0  0  0  0  0  0  0  0  0  0
    0.5961    0.6497   -2.0233 H   0  0  0  0  0  0  0  0  0  0  0  0
    1.7102   -0.6188   -1.5309 H   0  0  0  0  0  0  0  0  0  0  0  0
    0.0146   -1.2973   -2.6336 C   0  0  0  0  0  0  0  0  0  0  0  0
    0.3965   -2.4398   -2.7946 O   0  0  0  0  0  0  0  0  0  0  0  0
   -1.0035   -0.8814   -3.4452 N   0  0  0  0  0  0  0  0  0  0  0  0
   -1.4399   -1.5823   -4.0366 H   0  0  0  0  0  0  0  0  0  0  0  0
   -1.4452    0.0176   -3.2807 H   0  0  0  0  0  0  0  0  0  0  0  0
   -0.1304    1.0374    0.3307 C   0  0  0  0  0  0  0  0  0  0  0  0
   -1.0481    1.7392   -0.0805 O   0  0  0  0  0  0  0  0  0  0  0  0
    0.7703    1.5498    1.2455 N   0  0  0  0  0  0  0  0  0  0  0  0
    1.4885    0.9255    1.6033 H   0  0  0  0  0  0  0  0  0  0  0  0
    0.6700    2.8959    1.7962 C   0  0  0  0  0  0  0  0  0  0  0  0
   -0.2785    3.0231    2.3283 H   0  0  0  0  0  0  0  0  0  0  0  0
    1.4881    3.0790    2.4994 H   0  0  0  0  0  0  0  0  0  0  0  0
    0.7285    3.6423    0.9970 H   0  0  0  0  0  0  0  0  0  0  0  0
  1  2  1  0  0  0  0
  2  3  1  0  0  0  0
  2  4  1  0  0  0  0
  2  5  1  0  0  0  0
  5  6  2  0  0  0  0
  5  7  1  0  0  0  0
  7  8  1  0  0  0  0
  7  9  1  0  0  0  0
  9 10  1  0  0  0  0
  9 11  1  0  0  0  0
  9 19  1  0  0  0  0
 11 12  1  0  0  0  0
 11 13  1  0  0  0  0
 11 14  1  0  0  0  0
 14 15  2  0  0  0  0
 14 16  1  0  0  0  0
 16 17  1  0  0  0  0
 16 18  1  0  0  0  0
 19 20  2  0  0  0  0
 19 21  1  0  0  0  0
 21 22  1  0  0  0  0
 21 23  1  0  0  0  0
 23 24  1  0  0  0  0
 23 25  1  0  0  0  0
 23 26  1  0  0  0  0
M  END
$$$$

  -OEChem-04042215573D

 26 25  0     1  0  0  0  0  0999 V2000
   -2.9133   -3.9669    0.5380 H   0  0  0  0  0  0  0  0  0  0  0  0
   -2.9082   -2.9545    0.1246 C   0  0  0  0  0  0  0  0  0  0  0  0
   -3.6537   -2.3540    0.6512 H   0  0  0  0  0  0  0  0  0  0  0  0
   -3.1717   -3.0071   -0.9345 H   0  0  0  0  0  0  0  0  0  0  0  0
   -1.5333   -2.3334    0.2825 C   0  0  0  0  0  0  0  0  0  0  0  0
   -0.6534   -2.9406    0.8724 O   0  0  0  0  0  0  0  0  0  0  0  0
   -1.3007   -1.0539   -0.1842 N   0  0  0  0  0  0  0  0  0  0  0  0
   -2.0923   -0.5383   -0.5627 H   0  0  0  0  0  0  0  0  0  0  0  0
    0.0160   -0.3957   -0.1898 C   0  0  1  0  0  0  0  0  0  0  0  0
    0.6940   -0.9313    0.4834 H   0  0  0  0  0  0  0  0  0  0  0  0
    0.6568   -0.3669   -1.6031 C   0  0  0  0  0  0  0  0  0  0  0  0
    0.6117    0.6459   -2.0141 H   0  0  0  0  0  0  0  0  0  0  0  0
    1.7147   -0.6291   -1.5165 H   0  0  0  0  0  0  0  0  0  0  0  0
    0.0223   -1.3015   -2.6243 C   0  0  0  0  0  0  0  0  0  0  0  0
    0.2013   -2.5036   -2.6129 O   0  0  0  0  0  0  0  0  0  0  0  0
   -0.8338   -0.8338   -3.5813 N   0  0  0  0  0  0  0  0  0  0  0  0
   -1.3359   -1.5318   -4.1219 H   0  0  0  0  0  0  0  0  0  0  0  0
   -1.1747    0.1206   -3.5210 H   0  0  0  0  0  0  0  0  0  0  0  0
   -0.1201    1.0483    0.3297 C   0  0  0  0  0  0  0  0  0  0  0  0
   -1.0131    1.7647   -0.1095 O   0  0  0  0  0  0  0  0  0  0  0  0
    0.7807    1.5577    1.2461 N   0  0  0  0  0  0  0  0  0  0  0  0
    1.4698    0.9193    1.6345 H   0  0  0  0  0  0  0  0  0  0  0  0
    0.6924    2.9089    1.7861 C   0  0  0  0  0  0  0  0  0  0  0  0
   -0.2479    3.0431    2.3312 H   0  0  0  0  0  0  0  0  0  0  0  0
    1.5217    3.0958    2.4751 H   0  0  0  0  0  0  0  0  0  0  0  0
    0.7416    3.6484    0.9798 H   0  0  0  0  0  0  0  0  0  0  0  0
  1  2  1  0  0  0  0
  2  3  1  0  0  0  0
  2  4  1  0  0  0  0
  2  5  1  0  0  0  0
  5  6  2  0  0  0  0
  5  7  1  0  0  0  0
  7  8  1  0  0  0  0
  7  9  1  0  0  0  0
  9 10  1  0  0  0  0
  9 11  1  0  0  0  0
  9 19  1  0  0  0  0
 11 12  1  0  0  0  0
 11 13  1  0  0  0  0
 11 14  1  0  0  0  0
 14 15  2  0  0  0  0
 14 16  1  0  0  0  0
 16 17  1  0  0  0  0
 16 18  1  0  0  0  0
 19 20  2  0  0  0  0
 19 21  1  0  0  0  0
 21 22  1  0  0  0  0
 21 23  1  0  0  0  0
 23 24  1  0  0  0  0
 23 25  1  0  0  0  0
 23 26  1  0  0  0  0
M  END
$$$$

  -OEChem-04042215573D

 26 25  0     1  0  0  0  0  0999 V2000
   -2.9035   -3.9804    0.5315 H   0  0  0  0  0  0  0  0  0  0  0  0
   -2.8957   -2.9758    0.0998 C   0  0  0  0  0  0  0  0  0  0  0  0
   -3.6799   -2.3806    0.5732 H   0  0  0  0  0  0  0  0  0  0  0  0
   -3.0990   -3.0527   -0.9711 H   0  0  0  0  0  0  0  0  0  0  0  0
   -1.5438   -2.3242    0.3192 C   0  0  0  0  0  0  0  0  0  0  0  0
   -0.6846   -2.9017    0.9680 O   0  0  0  0  0  0  0  0  0  0  0  0
   -1.3117   -1.0491   -0.1602 N   0  0  0  0  0  0  0  0  0  0  0  0
   -2.0846   -0.5712   -0.6174 H   0  0  0  0  0  0  0  0  0  0  0  0
    0.0073   -0.3971   -0.1734 C   0  0  1  0  0  0  0  0  0  0  0  0
    0.6840   -0.9302    0.5030 H   0  0  0  0  0  0  0  0  0  0  0  0
    0.6488   -0.3821   -1.5888 C   0  0  0  0  0  0  0  0  0  0  0  0
    0.6065    0.6306   -2.0004 H   0  0  0  0  0  0  0  0  0  0  0  0
    1.7061   -0.6433   -1.4969 H   0  0  0  0  0  0  0  0  0  0  0  0
    0.0269   -1.3157   -2.6226 C   0  0  0  0  0  0  0  0  0  0  0  0
   -0.0272   -2.5229   -2.4862 O   0  0  0  0  0  0  0  0  0  0  0  0
   -0.5896   -0.8253   -3.7389 N   0  0  0  0  0  0  0  0  0  0  0  0
   -1.1339   -1.4904   -4.2804 H   0  0  0  0  0  0  0  0  0  0  0  0
   -0.7818    0.1695   -3.8010 H   0  0  0  0  0  0  0  0  0  0  0  0
   -0.1185    1.0527    0.3338 C   0  0  0  0  0  0  0  0  0  0  0  0
   -0.9921    1.7809   -0.1243 O   0  0  0  0  0  0  0  0  0  0  0  0
    0.7888    1.5618    1.2441 N   0  0  0  0  0  0  0  0  0  0  0  0
    1.4571    0.9144    1.6532 H   0  0  0  0  0  0  0  0  0  0  0  0
    0.7122    2.9186    1.7724 C   0  0  0  0  0  0  0  0  0  0  0  0
   -0.2249    3.0641    2.3202 H   0  0  0  0  0  0  0  0  0  0  0  0
    1.5459    3.1058    2.4560 H   0  0  0  0  0  0  0  0  0  0  0  0
    0.7627    3.6505    0.9594 H   0  0  0  0  0  0  0  0  0  0  0  0
  1  2  1  0  0  0  0
  2  3  1  0  0  0  0
  2  4  1  0  0  0  0
  2  5  1  0  0  0  0
  5  6  2  0  0  0  0
  5  7  1  0  0  0  0
  7  8  1  0  0  0  0
  7  9  1  0  0  0  0
  9 10  1  0  0  0  0
  9 11  1  0  0  0  0
  9 19  1  0  0  0  0
 11 12  1  0  0  0  0
 11 13  1  0  0  0  0
 11 14  1  0  0  0  0
 14 15  2  0  0  0  0
 14 16  1  0  0  0  0
 16 17  1  0  0  0  0
 16 18  1  0  0  0  0
 19 20  2  0  0  0  0
 19 21  1  0  0  0  0
 21 22  1  0  0  0  0
 21 23  1  0  0  0  0
 23 24  1  0  0  0  0
 23 25  1  0  0  0  0
 23 26  1  0  0  0  0
M  END
$$$$

  -OEChem-04042215573D

 26 25  0     1  0  0  0  0  0999 V2000
   -2.9032   -3.9921    0.5723 H   0  0  0  0  0  0  0  0  0  0  0  0
   -2.8979   -2.9951    0.1231 C   0  0  0  0  0  0  0  0  0  0  0  0
   -3.7043   -2.4037    0.5631 H   0  0  0  0  0  0  0  0  0  0  0  0
   -3.0686   -3.0940   -0.9519 H   0  0  0  0  0  0  0  0  0  0  0  0
   -1.5626   -2.3184    0.3682 C   0  0  0  0  0  0  0  0  0  0  0  0
   -0.7097   -2.8750    1.0442 O   0  0  0  0  0  0  0  0  0  0  0  0
   -1.3369   -1.0469   -0.1245 N   0  0  0  0  0  0  0  0  0  0  0  0
   -2.0955   -0.6055   -0.6384 H   0  0  0  0  0  0  0  0  0  0  0  0
   -0.0159   -0.4010   -0.1592 C   0  0  1  0  0  0  0  0  0  0  0  0
    0.6638   -0.9313    0.5160 H   0  0  0  0  0  0  0  0  0  0  0  0
    0.6222   -0.3962   -1.5790 C   0  0  0  0  0  0  0  0  0  0  0  0
    0.5768    0.6174   -1.9880 H   0  0  0  0  0  0  0  0  0  0  0  0
    1.6804   -0.6518   -1.4823 H   0  0  0  0  0  0  0  0  0  0  0  0
    0.0203   -1.3243   -2.6338 C   0  0  0  0  0  0  0  0  0  0  0  0
   -0.2790   -2.4866   -2.4355 O   0  0  0  0  0  0  0  0  0  0  0  0
   -0.2706   -0.8659   -3.8874 N   0  0  0  0  0  0  0  0  0  0  0  0
   -0.8237   -1.4859   -4.4719 H   0  0  0  0  0  0  0  0  0  0  0  0
   -0.2664    0.1339   -4.0610 H   0  0  0  0  0  0  0  0  0  0  0  0
   -0.1283    1.0531    0.3395 C   0  0  0  0  0  0  0  0  0  0  0  0
   -0.9942    1.7894   -0.1200 O   0  0  0  0  0  0  0  0  0  0  0  0
    0.7948    1.5611    1.2346 N   0  0  0  0  0  0  0  0  0  0  0  0
    1.4513    0.9070    1.6519 H   0  0  0  0  0  0  0  0  0  0  0  0
    0.7321    2.9205    1.7574 C   0  0  0  0  0  0  0  0  0  0  0  0
   -0.1974    3.0733    2.3158 H   0  0  0  0  0  0  0  0  0  0  0  0
    1.5751    3.1063    2.4299 H   0  0  0  0  0  0  0  0  0  0  0  0
    0.7766    3.6482    0.9403 H   0  0  0  0  0  0  0  0  0  0  0  0
  1  2  1  0  0  0  0
  2  3  1  0  0  0  0
  2  4  1  0  0  0  0
  2  5  1  0  0  0  0
  5  6  2  0  0  0  0
  5  7  1  0  0  0  0
  7  8  1  0  0  0  0
  7  9  1  0  0  0  0
  9 10  1  0  0  0  0
  9 11  1  0  0  0  0
  9 19  1  0  0  0  0
 11 12  1  0  0  0  0
 11 13  1  0  0  0  0
 11 14  1  0  0  0  0
 14 15  2  0  0  0  0
 14 16  1  0  0  0  0
 16 17  1  0  0  0  0
 16 18  1  0  0  0  0
 19 20  2  0  0  0  0
 19 21  1  0  0  0  0
 21 22  1  0  0  0  0
 21 23  1  0  0  0  0
 23 24  1  0  0  0  0
 23 25  1  0  0  0  0
 23 26  1  0  0  0  0
M  END
$$$$

  -OEChem-04042215573D

 26 25  0     1  0  0  0  0  0999 V2000
   -2.9110   -4.0000    0.6120 H   0  0  0  0  0  0  0  0  0  0  0  0
   -2.9138   -3.0023    0.1648 C   0  0  0  0  0  0  0  0  0  0  0  0
   -3.7209   -2.4162    0.6102 H   0  0  0  0  0  0  0  0  0  0  0  0
   -3.0903   -3.0997   -0.9094 H   0  0  0  0  0  0  0  0  0  0  0  0
   -1.5811   -2.3187    0.4040 C   0  0  0  0  0  0  0  0  0  0  0  0
   -0.7216   -2.8705    1.0765 O   0  0  0  0  0  0  0  0  0  0  0  0
   -1.3626   -1.0487   -0.0951 N   0  0  0  0  0  0  0  0  0  0  0  0
   -2.1131   -0.6343   -0.6422 H   0  0  0  0  0  0  0  0  0  0  0  0
   -0.0414   -0.4063   -0.1518 C   0  0  1  0  0  0  0  0  0  0  0  0
    0.6428   -0.9347    0.5200 H   0  0  0  0  0  0  0  0  0  0  0  0
    0.5929   -0.4074   -1.5762 C   0  0  0  0  0  0  0  0  0  0  0  0
    0.5373    0.6070   -1.9824 H   0  0  0  0  0  0  0  0  0  0  0  0
    1.6535   -0.6512   -1.4764 H   0  0  0  0  0  0  0  0  0  0  0  0
    0.0139   -1.3284   -2.6540 C   0  0  0  0  0  0  0  0  0  0  0  0
   -0.5232   -2.4017   -2.4548 O   0  0  0  0  0  0  0  0  0  0  0  0
    0.0656   -0.9671   -3.9703 N   0  0  0  0  0  0  0  0  0  0  0  0
   -0.4725   -1.5425   -4.6118 H   0  0  0  0  0  0  0  0  0  0  0  0
    0.2978   -0.0097   -4.2121 H   0  0  0  0  0  0  0  0  0  0  0  0
   -0.1429    1.0498    0.3460 C   0  0  0  0  0  0  0  0  0  0  0  0
   -1.0076    1.7912   -0.1067 O   0  0  0  0  0  0  0  0  0  0  0  0
    0.7958    1.5568    1.2259 N   0  0  0  0  0  0  0  0  0  0  0  0
    1.4501    0.8998    1.6419 H   0  0  0  0  0  0  0  0  0  0  0  0
    0.7479    2.9194    1.7425 C   0  0  0  0  0  0  0  0  0  0  0  0
   -0.1721    3.0804    2.3141 H   0  0  0  0  0  0  0  0  0  0  0  0
    1.6020    3.1044    2.4009 H   0  0  0  0  0  0  0  0  0  0  0  0
    0.7836    3.6429    0.9212 H   0  0  0  0  0  0  0  0  0  0  0  0
  1  2  1  0  0  0  0
  2  3  1  0  0  0  0
  2  4  1  0  0  0  0
  2  5  1  0  0  0  0
  5  6  2  0  0  0  0
  5  7  1  0  0  0  0
  7  8  1  0  0  0  0
  7  9  1  0  0  0  0
  9 10  1  0  0  0  0
  9 11  1  0  0  0  0
  9 19  1  0  0  0  0
 11 12  1  0  0  0  0
 11 13  1  0  0  0  0
 11 14  1  0  0  0  0
 14 15  2  0  0  0  0
 14 16  1  0  0  0  0
 16 17  1  0  0  0  0
 16 18  1  0  0  0  0
 19 20  2  0  0  0  0
 19 21  1  0  0  0  0
 21 22  1  0  0  0  0
 21 23  1  0  0  0  0
 23 24  1  0  0  0  0
 23 25  1  0  0  0  0
 23 26  1  0  0  0  0
M  END
$$$$

  -OEChem-04042215573D

 26 25  0     1  0  0  0  0  0999 V2000
   -2.9204   -4.0022    0.6343 H   0  0  0  0  0  0  0  0  0  0  0  0
   -2.9295   -3.0022    0.1926 C   0  0  0  0  0  0  0  0  0  0  0  0
   -3.7353   -2.4208    0.6466 H   0  0  0  0  0  0  0  0  0  0  0  0
   -3.1135   -3.0941   -0.8809 H   0  0  0  0  0  0  0  0  0  0  0  0
   -1.5973   -2.3154    0.4258 C   0  0  0  0  0  0  0  0  0  0  0  0
   -0.7306   -2.8685    1.0881 O   0  0  0  0  0  0  0  0  0  0  0  0
   -1.3829   -1.0466   -0.0771 N   0  0  0  0  0  0  0  0  0  0  0  0
   -2.1257   -0.6534   -0.6500 H   0  0  0  0  0  0  0  0  0  0  0  0
   -0.0618   -0.4073   -0.1491 C   0  0  1  0  0  0  0  0  0  0  0  0
    0.6241   -0.9345    0.5218 H   0  0  0  0  0  0  0  0  0  0  0  0
    0.5734   -0.4169   -1.5744 C   0  0  0  0  0  0  0  0  0  0  0  0
    0.5125    0.5957   -1.9839 H   0  0  0  0  0  0  0  0  0  0  0  0
    1.6349   -0.6533   -1.4661 H   0  0  0  0  0  0  0  0  0  0  0  0
    0.0137   -1.3354   -2.6668 C   0  0  0  0  0  0  0  0  0  0  0  0
   -0.7391   -2.2777   -2.5053 O   0  0  0  0  0  0  0  0  0  0  0  0
    0.3576   -1.1249   -3.9715 N   0  0  0  0  0  0  0  0  0  0  0  0
   -0.1632   -1.6599   -4.6606 H   0  0  0  0  0  0  0  0  0  0  0  0
    0.8052   -0.2527   -4.2314 H   0  0  0  0  0  0  0  0  0  0  0  0
   -0.1529    1.0499    0.3476 C   0  0  0  0  0  0  0  0  0  0  0  0
   -1.0166    1.7967   -0.0975 O   0  0  0  0  0  0  0  0  0  0  0  0
    0.7986    1.5532    1.2160 N   0  0  0  0  0  0  0  0  0  0  0  0
    1.4522    0.8926    1.6273 H   0  0  0  0  0  0  0  0  0  0  0  0
    0.7627    2.9162    1.7324 C   0  0  0  0  0  0  0  0  0  0  0  0
   -0.1510    3.0816    2.3128 H   0  0  0  0  0  0  0  0  0  0  0  0
    1.6242    3.0966    2.3825 H   0  0  0  0  0  0  0  0  0  0  0  0
    0.7943    3.6395    0.9107 H   0  0  0  0  0  0  0  0  0  0  0  0
  1  2  1  0  0  0  0
  2  3  1  0  0  0  0
  2  4  1  0  0  0  0
  2  5  1  0  0  0  0
  5  6  2  0  0  0  0
  5  7  1  0  0  0  0
  7  8  1  0  0  0  0
  7  9  1  0  0  0  0
  9 10  1  0  0  0  0
  9 11  1  0  0  0  0
  9 19  1  0  0  0  0
 11 12  1  0  0  0  0
 11 13  1  0  0  0  0
 11 14  1  0  0  0  0
 14 15  2  0  0  0  0
 14 16  1  0  0  0  0
 16 17  1  0  0  0  0
 16 18  1  0  0  0  0
 19 20  2  0  0  0  0
 19 21  1  0  0  0  0
 21 22  1  0  0  0  0
 21 23  1  0  0  0  0
 23 24  1  0  0  0  0
 23 25  1  0  0  0  0
 23 26  1  0  0  0  0
M  END
$$$$

  -OEChem-04042215573D

 26 25  0     1  0  0  0  0  0999 V2000
   -2.9294   -4.0008    0.6357 H   0  0  0  0  0  0  0  0  0  0  0  0
   -2.9421   -2.9963    0.2044 C   0  0  0  0  0  0  0  0  0  0  0  0
   -3.7435   -2.4195    0.6715 H   0  0  0  0  0  0  0  0  0  0  0  0
   -3.1364   -3.0769   -0.8682 H   0  0  0  0  0  0  0  0  0  0  0  0
   -1.6080   -2.3115    0.4329 C   0  0  0  0  0  0  0  0  0  0  0  0
   -0.7360   -2.8709    1.0834 O   0  0  0  0  0  0  0  0  0  0  0  0
   -1.3938   -1.0432   -0.0702 N   0  0  0  0  0  0  0  0  0  0  0  0
   -2.1275   -0.6659   -0.6661 H   0  0  0  0  0  0  0  0  0  0  0  0
   -0.0727   -0.4059   -0.1466 C   0  0  1  0  0  0  0  0  0  0  0  0
    0.6111   -0.9326    0.5270 H   0  0  0  0  0  0  0  0  0  0  0  0
    0.5668   -0.4243   -1.5706 C   0  0  0  0  0  0  0  0  0  0  0  0
    0.5073    0.5859   -1.9864 H   0  0  0  0  0  0  0  0  0  0  0  0
    1.6277   -0.6592   -1.4523 H   0  0  0  0  0  0  0  0  0  0  0  0
    0.0179   -1.3458   -2.6675 C   0  0  0  0  0  0  0  0  0  0  0  0
   -0.9162   -2.1205   -2.5719 O   0  0  0  0  0  0  0  0  0  0  0  0
    0.5851   -1.3273   -3.9096 N   0  0  0  0  0  0  0  0  0  0  0  0
    0.0810   -1.8292   -4.6351 H   0  0  0  0  0  0  0  0  0  0  0  0
    1.2199   -0.5749   -4.1535 H   0  0  0  0  0  0  0  0  0  0  0  0
   -0.1563    1.0519    0.3496 C   0  0  0  0  0  0  0  0  0  0  0  0
   -1.0155    1.8045   -0.0939 O   0  0  0  0  0  0  0  0  0  0  0  0
    0.8013    1.5508    1.2140 N   0  0  0  0  0  0  0  0  0  0  0  0
    1.4490    0.8860    1.6279 H   0  0  0  0  0  0  0  0  0  0  0  0
    0.7722    2.9138    1.7309 C   0  0  0  0  0  0  0  0  0  0  0  0
   -0.1383    3.0822    2.3156 H   0  0  0  0  0  0  0  0  0  0  0  0
    1.6372    3.0916    2.3771 H   0  0  0  0  0  0  0  0  0  0  0  0
    0.8022    3.6368    0.9088 H   0  0  0  0  0  0  0  0  0  0  0  0
  1  2  1  0  0  0  0
  2  3  1  0  0  0  0
  2  4  1  0  0  0  0
  2  5  1  0  0  0  0
  5  6  2  0  0  0  0
  5  7  1  0  0  0  0
  7  8  1  0  0  0  0
  7  9  1  0  0  0  0
  9 10  1  0  0  0  0
  9 11  1  0  0  0  0
  9 19  1  0  0  0  0
 11 12  1  0  0  0  0
 11 13  1  0  0  0  0
 11 14  1  0  0  0  0
 14 15  2  0  0  0  0
 14 16  1  0  0  0  0
 16 17  1  0  0  0  0
 16 18  1  0  0  0  0
 19 20  2  0  0  0  0
 19 21  1  0  0  0  0
 21 22  1  0  0  0  0
 21 23  1  0  0  0  0
 23 24  1  0  0  0  0
 23 25  1  0  0  0  0
 23 26  1  0  0  0  0
M  END
$$$$

  -OEChem-04042215573D

 26 25  0     1  0  0  0  0  0999 V2000
   -2.9076   -4.0066    0.5967 H   0  0  0  0  0  0  0  0  0  0  0  0
   -2.9342   -2.9915    0.1915 C   0  0  0  0  0  0  0  0  0  0  0  0
   -3.7245   -2.4292    0.6944 H   0  0  0  0  0  0  0  0  0  0  0  0
   -3.1571   -3.0446   -0.8774 H   0  0  0  0  0  0  0  0  0  0  0  0
   -1.5966   -2.3080    0.4024 C   0  0  0  0  0  0  0  0  0  0  0  0
   -0.6999   -2.8870    1.0000 O   0  0  0  0  0  0  0  0  0  0  0  0
   -1.4000   -1.0278   -0.0750 N   0  0  0  0  0  0  0  0  0  0  0  0
   -2.1418   -0.6516   -0.6629 H   0  0  0  0  0  0  0  0  0  0  0  0
   -0.0869   -0.3772   -0.1634 C   0  0  1  0  0  0  0  0  0  0  0  0
    0.6113   -0.9119    0.4882 H   0  0  0  0  0  0  0  0  0  0  0  0
    0.5277   -0.3722   -1.5975 C   0  0  0  0  0  0  0  0  0  0  0  0
    0.4501    0.6410   -2.0034 H   0  0  0  0  0  0  0  0  0  0  0  0
    1.5926   -0.5956   -1.4980 H   0  0  0  0  0  0  0  0  0  0  0  0
   -0.0357   -1.2870   -2.6933 C   0  0  0  0  0  0  0  0  0  0  0  0
   -1.1021   -1.8751   -2.6733 O   0  0  0  0  0  0  0  0  0  0  0  0
    0.6835   -1.4971   -3.8353 N   0  0  0  0  0  0  0  0  0  0  0  0
    0.3384   -2.2266   -4.4528 H   0  0  0  0  0  0  0  0  0  0  0  0
    1.6542   -1.2064   -3.8748 H   0  0  0  0  0  0  0  0  0  0  0  0
   -0.1664    1.0697    0.3657 C   0  0  0  0  0  0  0  0  0  0  0  0
   -1.0450    1.8246   -0.0326 O   0  0  0  0  0  0  0  0  0  0  0  0
    0.8071    1.5561    1.2199 N   0  0  0  0  0  0  0  0  0  0  0  0
    1.4753    0.8900    1.5971 H   0  0  0  0  0  0  0  0  0  0  0  0
    0.7813    2.9079    1.7664 C   0  0  0  0  0  0  0  0  0  0  0  0
   -0.1208    3.0603    2.3682 H   0  0  0  0  0  0  0  0  0  0  0  0
    1.6554    3.0755    2.4031 H   0  0  0  0  0  0  0  0  0  0  0  0
    0.7958    3.6485    0.9598 H   0  0  0  0  0  0  0  0  0  0  0  0
  1  2  1  0  0  0  0
  2  3  1  0  0  0  0
  2  4  1  0  0  0  0
  2  5  1  0  0  0  0
  5  6  2  0  0  0  0
  5  7  1  0  0  0  0
  7  8  1  0  0  0  0
  7  9  1  0  0  0  0
  9 10  1  0  0  0  0
  9 11  1  0  0  0  0
  9 19  1  0  0  0  0
 11 12  1  0  0  0  0
 11 13  1  0  0  0  0
 11 14  1  0  0  0  0
 14 15  2  0  0  0  0
 14 16  1  0  0  0  0
 16 17  1  0  0  0  0
 16 18  1  0  0  0  0
 19 20  2  0  0  0  0
 19 21  1  0  0  0  0
 21 22  1  0  0  0  0
 21 23  1  0  0  0  0
 23 24  1  0  0  0  0
 23 25  1  0  0  0  0
 23 26  1  0  0  0  0
M  END
$$$$

  -OEChem-04042215573D

 26 25  0     1  0  0  0  0  0999 V2000
   -2.8947   -4.0078    0.5466 H   0  0  0  0  0  0  0  0  0  0  0  0
   -2.9226   -2.9861    0.1584 C   0  0  0  0  0  0  0  0  0  0  0  0
   -3.7095   -2.4318    0.6753 H   0  0  0  0  0  0  0  0  0  0  0  0
   -3.1527   -3.0210   -0.9098 H   0  0  0  0  0  0  0  0  0  0  0  0
   -1.5836   -2.3063    0.3725 C   0  0  0  0  0  0  0  0  0  0  0  0
   -0.6792   -2.8982    0.9448 O   0  0  0  0  0  0  0  0  0  0  0  0
   -1.3873   -1.0221   -0.0923 N   0  0  0  0  0  0  0  0  0  0  0  0
   -2.1274   -0.6416   -0.6806 H   0  0  0  0  0  0  0  0  0  0  0  0
   -0.0783   -0.3620   -0.1666 C   0  0  1  0  0  0  0  0  0  0  0  0
    0.6178   -0.8966    0.4873 H   0  0  0  0  0  0  0  0  0  0  0  0
    0.5402   -0.3574   -1.5974 C   0  0  0  0  0  0  0  0  0  0  0  0
    0.4567    0.6520   -2.0112 H   0  0  0  0  0  0  0  0  0  0  0  0
    1.6067   -0.5731   -1.4966 H   0  0  0  0  0  0  0  0  0  0  0  0
   -0.0305   -1.2867   -2.6764 C   0  0  0  0  0  0  0  0  0  0  0  0
   -1.1864   -1.6644   -2.7558 O   0  0  0  0  0  0  0  0  0  0  0  0
    0.7791   -1.7706   -3.6642 N   0  0  0  0  0  0  0  0  0  0  0  0
    0.3823   -2.5036   -4.2452 H   0  0  0  0  0  0  0  0  0  0  0  0
    1.7847   -1.6763   -3.5738 H   0  0  0  0  0  0  0  0  0  0  0  0
   -0.1638    1.0813    0.3711 C   0  0  0  0  0  0  0  0  0  0  0  0
   -1.0457    1.8352   -0.0209 O   0  0  0  0  0  0  0  0  0  0  0  0
    0.8043    1.5639    1.2335 N   0  0  0  0  0  0  0  0  0  0  0  0
    1.4769    0.8991    1.6045 H   0  0  0  0  0  0  0  0  0  0  0  0
    0.7756    2.9131    1.7859 C   0  0  0  0  0  0  0  0  0  0  0  0
   -0.1273    3.0619    2.3873 H   0  0  0  0  0  0  0  0  0  0  0  0
    1.6487    3.0794    2.4240 H   0  0  0  0  0  0  0  0  0  0  0  0
    0.7900    3.6571    0.9824 H   0  0  0  0  0  0  0  0  0  0  0  0
  1  2  1  0  0  0  0
  2  3  1  0  0  0  0
  2  4  1  0  0  0  0
  2  5  1  0  0  0  0
  5  6  2  0  0  0  0
  5  7  1  0  0  0  0
  7  8  1  0  0  0  0
  7  9  1  0  0  0  0
  9 10  1  0  0  0  0
  9 11  1  0  0  0  0
  9 19  1  0  0  0  0
 11 12  1  0  0  0  0
 11 13  1  0  0  0  0
 11 14  1  0  0  0  0
 14 15  2  0  0  0  0
 14 16  1  0  0  0  0
 16 17  1  0  0  0  0
 16 18  1  0  0  0  0
 19 20  2  0  0  0  0
 19 21  1  0  0  0  0
 21 22  1  0  0  0  0
 21 23  1  0  0  0  0
 23 24  1  0  0  0  0
 23 25  1  0  0  0  0
 23 26  1  0  0  0  0
M  END
$$$$

  -OEChem-04042215573D

 26 25  0     1  0  0  0  0  0999 V2000
   -2.8693   -4.0131    0.4793 H   0  0  0  0  0  0  0  0  0  0  0  0
   -2.9022   -2.9820    0.1175 C   0  0  0  0  0  0  0  0  0  0  0  0
   -3.6772   -2.4391    0.6636 H   0  0  0  0  0  0  0  0  0  0  0  0
   -3.1532   -2.9893   -0.9464 H   0  0  0  0  0  0  0  0  0  0  0  0
   -1.5577   -2.3107    0.3226 C   0  0  0  0  0  0  0  0  0  0  0  0
   -0.6404   -2.9200    0.8545 O   0  0  0  0  0  0  0  0  0  0  0  0
   -1.3647   -1.0199   -0.1233 N   0  0  0  0  0  0  0  0  0  0  0  0
   -2.1156   -0.6185   -0.6844 H   0  0  0  0  0  0  0  0  0  0  0  0
   -0.0630   -0.3432   -0.1790 C   0  0  1  0  0  0  0  0  0  0  0  0
    0.6320   -0.8781    0.4763 H   0  0  0  0  0  0  0  0  0  0  0  0
    0.5597   -0.3317   -1.6050 C   0  0  0  0  0  0  0  0  0  0  0  0
    0.4599    0.6734   -2.0260 H   0  0  0  0  0  0  0  0  0  0  0  0
    1.6296   -0.5321   -1.5098 H   0  0  0  0  0  0  0  0  0  0  0  0
   -0.0223   -1.2796   -2.6586 C   0  0  0  0  0  0  0  0  0  0  0  0
   -1.2128   -1.4480   -2.8595 O   0  0  0  0  0  0  0  0  0  0  0  0
    0.7957   -2.0559   -3.4290 N   0  0  0  0  0  0  0  0  0  0  0  0
    0.3329   -2.7913   -3.9556 H   0  0  0  0  0  0  0  0  0  0  0  0
    1.7685   -2.1588   -3.1616 H   0  0  0  0  0  0  0  0  0  0  0  0
   -0.1608    1.0937    0.3731 C   0  0  0  0  0  0  0  0  0  0  0  0
   -1.0555    1.8402   -0.0028 O   0  0  0  0  0  0  0  0  0  0  0  0
    0.7988    1.5740    1.2462 N   0  0  0  0  0  0  0  0  0  0  0  0
    1.4890    0.9162    1.5965 H   0  0  0  0  0  0  0  0  0  0  0  0
    0.7628    2.9193    1.8076 C   0  0  0  0  0  0  0  0  0  0  0  0
   -0.1420    3.0598    2.4083 H   0  0  0  0  0  0  0  0  0  0  0  0
    1.6340    3.0854    2.4484 H   0  0  0  0  0  0  0  0  0  0  0  0
    0.7752    3.6684    1.0087 H   0  0  0  0  0  0  0  0  0  0  0  0
  1  2  1  0  0  0  0
  2  3  1  0  0  0  0
  2  4  1  0  0  0  0
  2  5  1  0  0  0  0
  5  6  2  0  0  0  0
  5  7  1  0  0  0  0
  7  8  1  0  0  0  0
  7  9  1  0  0  0  0
  9 10  1  0  0  0  0
  9 11  1  0  0  0  0
  9 19  1  0  0  0  0
 11 12  1  0  0  0  0
 11 13  1  0  0  0  0
 11 14  1  0  0  0  0
 14 15  2  0  0  0  0
 14 16  1  0  0  0  0
 16 17  1  0  0  0  0
 16 18  1  0  0  0  0
 19 20  2  0  0  0  0
 19 21  1  0  0  0  0
 21 22  1  0  0  0  0
 21 23  1  0  0  0  0
 23 24  1  0  0  0  0
 23 25  1  0  0  0  0
 23 26  1  0  0  0  0
M  END
$$$$

  -OEChem-04042215573D

 26 25  0     1  0  0  0  0  0999 V2000
   -2.8431   -4.0063    0.4379 H   0  0  0  0  0  0  0  0  0  0  0  0
   -2.8763   -2.9710    0.0878 C   0  0  0  0  0  0  0  0  0  0  0  0
   -3.6251   -2.4253    0.6670 H   0  0  0  0  0  0  0  0  0  0  0  0
   -3.1655   -2.9634   -0.9664 H   0  0  0  0  0  0  0  0  0  0  0  0
   -1.5175   -2.3176    0.2520 C   0  0  0  0  0  0  0  0  0  0  0  0
   -0.5804   -2.9509    0.7168 O   0  0  0  0  0  0  0  0  0  0  0  0
   -1.3282   -1.0198   -0.1733 N   0  0  0  0  0  0  0  0  0  0  0  0
   -2.1051   -0.5768   -0.6639 H   0  0  0  0  0  0  0  0  0  0  0  0
   -0.0345   -0.3250   -0.2087 C   0  0  1  0  0  0  0  0  0  0  0  0
    0.6589   -0.8592    0.4485 H   0  0  0  0  0  0  0  0  0  0  0  0
    0.5937   -0.3082   -1.6285 C   0  0  0  0  0  0  0  0  0  0  0  0
    0.4767    0.6915   -2.0578 H   0  0  0  0  0  0  0  0  0  0  0  0
    1.6668   -0.4952   -1.5417 H   0  0  0  0  0  0  0  0  0  0  0  0
   -0.0008   -1.2784   -2.6497 C   0  0  0  0  0  0  0  0  0  0  0  0
   -1.1682   -1.2554   -2.9993 O   0  0  0  0  0  0  0  0  0  0  0  0
    0.7269   -2.3264   -3.1365 N   0  0  0  0  0  0  0  0  0  0  0  0
    0.1852   -3.0450   -3.6077 H   0  0  0  0  0  0  0  0  0  0  0  0
    1.5828   -2.5805   -2.6553 H   0  0  0  0  0  0  0  0  0  0  0  0
   -0.1500    1.1040    0.3594 C   0  0  0  0  0  0  0  0  0  0  0  0
   -1.0684    1.8341    0.0102 O   0  0  0  0  0  0  0  0  0  0  0  0
    0.7976    1.5852    1.2452 N   0  0  0  0  0  0  0  0  0  0  0  0
    1.5132    0.9410    1.5685 H   0  0  0  0  0  0  0  0  0  0  0  0
    0.7329    2.9172    1.8351 C   0  0  0  0  0  0  0  0  0  0  0  0
   -0.1829    3.0316    2.4246 H   0  0  0  0  0  0  0  0  0  0  0  0
    1.5911    3.0821    2.4935 H   0  0  0  0  0  0  0  0  0  0  0  0
    0.7462    3.6836    1.0529 H   0  0  0  0  0  0  0  0  0  0  0  0
  1  2  1  0  0  0  0
  2  3  1  0  0  0  0
  2  4  1  0  0  0  0
  2  5  1  0  0  0  0
  5  6  2  0  0  0  0
  5  7  1  0  0  0  0
  7  8  1  0  0  0  0
  7  9  1  0  0  0  0
  9 10  1  0  0  0  0
  9 11  1  0  0  0  0
  9 19  1  0  0  0  0
 11 12  1  0  0  0  0
 11 13  1  0  0  0  0
 11 14  1  0  0  0  0
 14 15  2  0  0  0  0
 14 16  1  0  0  0  0
 16 17  1  0  0  0  0
 16 18  1  0  0  0  0
 19 20  2  0  0  0  0
 19 21  1  0  0  0  0
 21 22  1  0  0  0  0
 21 23  1  0  0  0  0
 23 24  1  0  0  0  0
 23 25  1  0  0  0  0
 23 26  1  0  0  0  0
M  END
$$$$

  -OEChem-04042215573D

 26 25  0     1  0  0  0  0  0999 V2000
   -2.8375   -3.9842    0.4556 H   0  0  0  0  0  0  0  0  0  0  0  0
   -2.8686   -2.9488    0.1053 C   0  0  0  0  0  0  0  0  0  0  0  0
   -3.5647   -2.3849    0.7309 H   0  0  0  0  0  0  0  0  0  0  0  0
   -3.2263   -2.9347   -0.9275 H   0  0  0  0  0  0  0  0  0  0  0  0
   -1.4870   -2.3279    0.1792 C   0  0  0  0  0  0  0  0  0  0  0  0
   -0.5300   -2.9912    0.5530 O   0  0  0  0  0  0  0  0  0  0  0  0
   -1.2967   -1.0260   -0.2321 N   0  0  0  0  0  0  0  0  0  0  0  0
   -2.1041   -0.5269   -0.6058 H   0  0  0  0  0  0  0  0  0  0  0  0
   -0.0076   -0.3204   -0.2435 C   0  0  1  0  0  0  0  0  0  0  0  0
    0.6761   -0.8526    0.4255 H   0  0  0  0  0  0  0  0  0  0  0  0
    0.6435   -0.3066   -1.6494 C   0  0  0  0  0  0  0  0  0  0  0  0
    0.5235    0.6875   -2.0910 H   0  0  0  0  0  0  0  0  0  0  0  0
    1.7166   -0.4904   -1.5553 H   0  0  0  0  0  0  0  0  0  0  0  0
    0.0506   -1.2973   -2.6469 C   0  0  0  0  0  0  0  0  0  0  0  0
   -1.0260   -1.1212   -3.1885 O   0  0  0  0  0  0  0  0  0  0  0  0
    0.6180   -2.5222   -2.8524 N   0  0  0  0  0  0  0  0  0  0  0  0
    0.0156   -3.1939   -3.3187 H   0  0  0  0  0  0  0  0  0  0  0  0
    1.2764   -2.8539   -2.1546 H   0  0  0  0  0  0  0  0  0  0  0  0
   -0.1425    1.1030    0.3331 C   0  0  0  0  0  0  0  0  0  0  0  0
   -1.0884    1.8093    0.0099 O   0  0  0  0  0  0  0  0  0  0  0  0
    0.7878    1.5862    1.2356 N   0  0  0  0  0  0  0  0  0  0  0  0
    1.5313    0.9608    1.5319 H   0  0  0  0  0  0  0  0  0  0  0  0
    0.6909    2.9044    1.8513 C   0  0  0  0  0  0  0  0  0  0  0  0
   -0.2418    2.9956    2.4180 H   0  0  0  0  0  0  0  0  0  0  0  0
    1.5287    3.0644    2.5365 H   0  0  0  0  0  0  0  0  0  0  0  0
    0.7164    3.6873    1.0860 H   0  0  0  0  0  0  0  0  0  0  0  0
  1  2  1  0  0  0  0
  2  3  1  0  0  0  0
  2  4  1  0  0  0  0
  2  5  1  0  0  0  0
  5  6  2  0  0  0  0
  5  7  1  0  0  0  0
  7  8  1  0  0  0  0
  7  9  1  0  0  0  0
  9 10  1  0  0  0  0
  9 11  1  0  0  0  0
  9 19  1  0  0  0  0
 11 12  1  0  0  0  0
 11 13  1  0  0  0  0
 11 14  1  0  0  0  0
 14 15  2  0  0  0  0
 14 16  1  0  0  0  0
 16 17  1  0  0  0  0
 16 18  1  0  0  0  0
 19 20  2  0  0  0  0
 19 21  1  0  0  0  0
 21 22  1  0  0  0  0
 21 23  1  0  0  0  0
 23 24  1  0  0  0  0
 23 25  1  0  0  0  0
 23 26  1  0  0  0  0
M  END
$$$$

  -OEChem-04042215573D

 26 25  0     1  0  0  0  0  0999 V2000
   -2.8511   -3.9570    0.5163 H   0  0  0  0  0  0  0  0  0  0  0  0
   -2.8792   -2.9247    0.1570 C   0  0  0  0  0  0  0  0  0  0  0  0
   -3.5248   -2.3396    0.8164 H   0  0  0  0  0  0  0  0  0  0  0  0
   -3.2965   -2.9129   -0.8531 H   0  0  0  0  0  0  0  0  0  0  0  0
   -1.4820   -2.3354    0.1427 C   0  0  0  0  0  0  0  0  0  0  0  0
   -0.5147   -3.0252    0.4341 O   0  0  0  0  0  0  0  0  0  0  0  0
   -1.2873   -1.0338   -0.2686 N   0  0  0  0  0  0  0  0  0  0  0  0
   -2.1109   -0.4906   -0.5285 H   0  0  0  0  0  0  0  0  0  0  0  0
    0.0037   -0.3298   -0.2601 C   0  0  1  0  0  0  0  0  0  0  0  0
    0.6720   -0.8601    0.4259 H   0  0  0  0  0  0  0  0  0  0  0  0
    0.6856   -0.3268   -1.6495 C   0  0  0  0  0  0  0  0  0  0  0  0
    0.5795    0.6648   -2.1007 H   0  0  0  0  0  0  0  0  0  0  0  0
    1.7552   -0.5178   -1.5338 H   0  0  0  0  0  0  0  0  0  0  0  0
    0.1065   -1.3276   -2.6426 C   0  0  0  0  0  0  0  0  0  0  0  0
   -0.8076   -1.0454   -3.3946 O   0  0  0  0  0  0  0  0  0  0  0  0
    0.4865   -2.6391   -2.6342 N   0  0  0  0  0  0  0  0  0  0  0  0
   -0.1271   -3.2537   -3.1602 H   0  0  0  0  0  0  0  0  0  0  0  0
    0.8992   -2.9872   -1.7724 H   0  0  0  0  0  0  0  0  0  0  0  0
   -0.1423    1.0942    0.3121 C   0  0  0  0  0  0  0  0  0  0  0  0
   -1.1066    1.7813    0.0019 O   0  0  0  0  0  0  0  0  0  0  0  0
    0.7713    1.5809    1.2297 N   0  0  0  0  0  0  0  0  0  0  0  0
    1.5347    0.9724    1.5099 H   0  0  0  0  0  0  0  0  0  0  0  0
    0.6560    2.8952    1.8507 C   0  0  0  0  0  0  0  0  0  0  0  0
   -0.2897    2.9802    2.3964 H   0  0  0  0  0  0  0  0  0  0  0  0
    1.4772    3.0533    2.5564 H   0  0  0  0  0  0  0  0  0  0  0  0
    0.6963    3.6829    1.0909 H   0  0  0  0  0  0  0  0  0  0  0  0
  1  2  1  0  0  0  0
  2  3  1  0  0  0  0
  2  4  1  0  0  0  0
  2  5  1  0  0  0  0
  5  6  2  0  0  0  0
  5  7  1  0  0  0  0
  7  8  1  0  0  0  0
  7  9  1  0  0  0  0
  9 10  1  0  0  0  0
  9 11  1  0  0  0  0
  9 19  1  0  0  0  0
 11 12  1  0  0  0  0
 11 13  1  0  0  0  0
 11 14  1  0  0  0  0
 14 15  2  0  0  0  0
 14 16  1  0  0  0  0
 16 17  1  0  0  0  0
 16 18  1  0  0  0  0
 19 20  2  0  0  0  0
 19 21  1  0  0  0  0
 21 22  1  0  0  0  0
 21 23  1  0  0  0  0
 23 24  1  0  0  0  0
 23 25  1  0  0  0  0
 23 26  1  0  0  0  0
M  END
$$$$

  -OEChem-04042215573D

 26 25  0     1  0  0  0  0  0999 V2000
   -2.8991   -3.9226    0.6038 H   0  0  0  0  0  0  0  0  0  0  0  0
   -2.9209   -2.8930    0.2361 C   0  0  0  0  0  0  0  0  0  0  0  0
   -3.5200   -2.2873    0.9205 H   0  0  0  0  0  0  0  0  0  0  0  0
   -3.3867   -2.8809   -0.7526 H   0  0  0  0  0  0  0  0  0  0  0  0
   -1.5125   -2.3373    0.1498 C   0  0  0  0  0  0  0  0  0  0  0  0
   -0.5486   -3.0504    0.3925 O   0  0  0  0  0  0  0  0  0  0  0  0
   -1.3032   -1.0409   -0.2714 N   0  0  0  0  0  0  0  0  0  0  0  0
   -2.1267   -0.4663   -0.4542 H   0  0  0  0  0  0  0  0  0  0  0  0
   -0.0040   -0.3498   -0.2535 C   0  0  1  0  0  0  0  0  0  0  0  0
    0.6495   -0.8805    0.4468 H   0  0  0  0  0  0  0  0  0  0  0  0
    0.7031   -0.3565   -1.6298 C   0  0  0  0  0  0  0  0  0  0  0  0
    0.6183    0.6365   -2.0827 H   0  0  0  0  0  0  0  0  0  0  0  0
    1.7677   -0.5606   -1.4925 H   0  0  0  0  0  0  0  0  0  0  0  0
    0.1391   -1.3530   -2.6352 C   0  0  0  0  0  0  0  0  0  0  0  0
   -0.5543   -1.0069   -3.5727 O   0  0  0  0  0  0  0  0  0  0  0  0
    0.3674   -2.6945   -2.5191 N   0  0  0  0  0  0  0  0  0  0  0  0
   -0.1982   -3.2704   -3.1344 H   0  0  0  0  0  0  0  0  0  0  0  0
    0.5756   -3.0400   -1.5829 H   0  0  0  0  0  0  0  0  0  0  0  0
   -0.1494    1.0794    0.3059 C   0  0  0  0  0  0  0  0  0  0  0  0
   -1.1207    1.7568   -0.0042 O   0  0  0  0  0  0  0  0  0  0  0  0
    0.7530    1.5713    1.2318 N   0  0  0  0  0  0  0  0  0  0  0  0
    1.5300    0.9763    1.5036 H   0  0  0  0  0  0  0  0  0  0  0  0
    0.6338    2.8927    1.8372 C   0  0  0  0  0  0  0  0  0  0  0  0
   -0.3087    2.9783    2.3881 H   0  0  0  0  0  0  0  0  0  0  0  0
    1.4588    3.0656    2.5350 H   0  0  0  0  0  0  0  0  0  0  0  0
    0.6630    3.6708    1.0673 H   0  0  0  0  0  0  0  0  0  0  0  0
  1  2  1  0  0  0  0
  2  3  1  0  0  0  0
  2  4  1  0  0  0  0
  2  5  1  0  0  0  0
  5  6  2  0  0  0  0
  5  7  1  0  0  0  0
  7  8  1  0  0  0  0
  7  9  1  0  0  0  0
  9 10  1  0  0  0  0
  9 11  1  0  0  0  0
  9 19  1  0  0  0  0
 11 12  1  0  0  0  0
 11 13  1  0  0  0  0
 11 14  1  0  0  0  0
 14 15  2  0  0  0  0
 14 16  1  0  0  0  0
 16 17  1  0  0  0  0
 16 18  1  0  0  0  0
 19 20  2  0  0  0  0
 19 21  1  0  0  0  0
 21 22  1  0  0  0  0
 21 23  1  0  0  0  0
 23 24  1  0  0  0  0
 23 25  1  0  0  0  0
 23 26  1  0  0  0  0
M  END
$$$$

  -OEChem-04042215573D

 26 25  0     1  0  0  0  0  0999 V2000
   -2.9600   -3.8855    0.6754 H   0  0  0  0  0  0  0  0  0  0  0  0
   -2.9696   -2.8579    0.3012 C   0  0  0  0  0  0  0  0  0  0  0  0
   -3.5455   -2.2370    0.9919 H   0  0  0  0  0  0  0  0  0  0  0  0
   -3.4528   -2.8435   -0.6791 H   0  0  0  0  0  0  0  0  0  0  0  0
   -1.5529   -2.3288    0.1865 C   0  0  0  0  0  0  0  0  0  0  0  0
   -0.5980   -3.0574    0.4163 O   0  0  0  0  0  0  0  0  0  0  0  0
   -1.3271   -1.0399   -0.2483 N   0  0  0  0  0  0  0  0  0  0  0  0
   -2.1450   -0.4485   -0.4011 H   0  0  0  0  0  0  0  0  0  0  0  0
   -0.0197   -0.3626   -0.2405 C   0  0  1  0  0  0  0  0  0  0  0  0
    0.6307   -0.8938    0.4626 H   0  0  0  0  0  0  0  0  0  0  0  0
    0.6879   -0.3771   -1.6175 C   0  0  0  0  0  0  0  0  0  0  0  0
    0.6150    0.6179   -2.0683 H   0  0  0  0  0  0  0  0  0  0  0  0
    1.7498   -0.5926   -1.4764 H   0  0  0  0  0  0  0  0  0  0  0  0
    0.1239   -1.3664   -2.6304 C   0  0  0  0  0  0  0  0  0  0  0  0
   -0.3276   -1.0040   -3.7000 O   0  0  0  0  0  0  0  0  0  0  0  0
    0.2320   -2.7166   -2.4526 N   0  0  0  0  0  0  0  0  0  0  0  0
   -0.2745   -3.2811   -3.1272 H   0  0  0  0  0  0  0  0  0  0  0  0
    0.3234   -3.0520   -1.4929 H   0  0  0  0  0  0  0  0  0  0  0  0
   -0.1568    1.0726    0.3056 C   0  0  0  0  0  0  0  0  0  0  0  0
   -1.1328    1.7456   -0.0003 O   0  0  0  0  0  0  0  0  0  0  0  0
    0.7481    1.5688    1.2264 N   0  0  0  0  0  0  0  0  0  0  0  0
    1.5281    0.9765    1.4959 H   0  0  0  0  0  0  0  0  0  0  0  0
    0.6284    2.8915    1.8289 C   0  0  0  0  0  0  0  0  0  0  0  0
   -0.3164    2.9797    2.3758 H   0  0  0  0  0  0  0  0  0  0  0  0
    1.4504    3.0645    2.5302 H   0  0  0  0  0  0  0  0  0  0  0  0
    0.6627    3.6686    1.0578 H   0  0  0  0  0  0  0  0  0  0  0  0
  1  2  1  0  0  0  0
  2  3  1  0  0  0  0
  2  4  1  0  0  0  0
  2  5  1  0  0  0  0
  5  6  2  0  0  0  0
  5  7  1  0  0  0  0
  7  8  1  0  0  0  0
  7  9  1  0  0  0  0
  9 10  1  0  0  0  0
  9 11  1  0  0  0  0
  9 19  1  0  0  0  0
 11 12  1  0  0  0  0
 11 13  1  0  0  0  0
 11 14  1  0  0  0  0
 14 15  2  0  0  0  0
 14 16  1  0  0  0  0
 16 17  1  0  0  0  0
 16 18  1  0  0  0  0
 19 20  2  0  0  0  0
 19 21  1  0  0  0  0
 21 22  1  0  0  0  0
 21 23  1  0  0  0  0
 23 24  1  0  0  0  0
 23 25  1  0  0  0  0
 23 26  1  0  0  0  0
M  END
$$$$

  -OEChem-04042215573D

 26 25  0     1  0  0  0  0  0999 V2000
   -3.0253   -3.8450    0.7618 H   0  0  0  0  0  0  0  0  0  0  0  0
   -3.0240   -2.8248    0.3678 C   0  0  0  0  0  0  0  0  0  0  0  0
   -3.5760   -2.1813    1.0571 H   0  0  0  0  0  0  0  0  0  0  0  0
   -3.5258   -2.8204   -0.6031 H   0  0  0  0  0  0  0  0  0  0  0  0
   -1.6006   -2.3231    0.2173 C   0  0  0  0  0  0  0  0  0  0  0  0
   -0.6551   -3.0693    0.4257 O   0  0  0  0  0  0  0  0  0  0  0  0
   -1.3602   -1.0388   -0.2233 N   0  0  0  0  0  0  0  0  0  0  0  0
   -2.1718   -0.4312   -0.3424 H   0  0  0  0  0  0  0  0  0  0  0  0
   -0.0452   -0.3749   -0.2267 C   0  0  1  0  0  0  0  0  0  0  0  0
    0.6054   -0.9112    0.4722 H   0  0  0  0  0  0  0  0  0  0  0  0
    0.6594   -0.3801   -1.6071 C   0  0  0  0  0  0  0  0  0  0  0  0
    0.5943    0.6217   -2.0442 H   0  0  0  0  0  0  0  0  0  0  0  0
    1.7196   -0.6055   -1.4672 H   0  0  0  0  0  0  0  0  0  0  0  0
    0.0994   -1.3483   -2.6424 C   0  0  0  0  0  0  0  0  0  0  0  0
   -0.0913   -1.0030   -3.7929 O   0  0  0  0  0  0  0  0  0  0  0  0
    0.0864   -2.6979   -2.4305 N   0  0  0  0  0  0  0  0  0  0  0  0
   -0.3404   -3.2579   -3.1613 H   0  0  0  0  0  0  0  0  0  0  0  0
    0.0822   -3.0311   -1.4653 H   0  0  0  0  0  0  0  0  0  0  0  0
   -0.1740    1.0623    0.3165 C   0  0  0  0  0  0  0  0  0  0  0  0
   -1.1514    1.7357    0.0155 O   0  0  0  0  0  0  0  0  0  0  0  0
    0.7366    1.5577    1.2317 N   0  0  0  0  0  0  0  0  0  0  0  0
    1.5244    0.9693    1.4870 H   0  0  0  0  0  0  0  0  0  0  0  0
    0.6361    2.8904    1.8152 C   0  0  0  0  0  0  0  0  0  0  0  0
   -0.3049    2.9987    2.3647 H   0  0  0  0  0  0  0  0  0  0  0  0
    1.4632    3.0631    2.5103 H   0  0  0  0  0  0  0  0  0  0  0  0
    0.6772    3.6552    1.0324 H   0  0  0  0  0  0  0  0  0  0  0  0
  1  2  1  0  0  0  0
  2  3  1  0  0  0  0
  2  4  1  0  0  0  0
  2  5  1  0  0  0  0
  5  6  2  0  0  0  0
  5  7  1  0  0  0  0
  7  8  1  0  0  0  0
  7  9  1  0  0  0  0
  9 10  1  0  0  0  0
  9 11  1  0  0  0  0
  9 19  1  0  0  0  0
 11 12  1  0  0  0  0
 11 13  1  0  0  0  0
 11 14  1  0  0  0  0
 14 15  2  0  0  0  0
 14 16  1  0  0  0  0
 16 17  1  0  0  0  0
 16 18  1  0  0  0  0
 19 20  2  0  0  0  0
 19 21  1  0  0  0  0
 21 22  1  0  0  0  0
 21 23  1  0  0  0  0
 23 24  1  0  0  0  0
 23 25  1  0  0  0  0
 23 26  1  0  0  0  0
M  END
$$$$

  -OEChem-04042215573D

 26 25  0     1  0  0  0  0  0999 V2000
   -3.0803   -3.8138    0.8251 H   0  0  0  0  0  0  0  0  0  0  0  0
   -3.0763   -2.7975    0.4215 C   0  0  0  0  0  0  0  0  0  0  0  0
   -3.6246   -2.1451    1.1055 H   0  0  0  0  0  0  0  0  0  0  0  0
   -3.5797   -2.8010   -0.5486 H   0  0  0  0  0  0  0  0  0  0  0  0
   -1.6513   -2.3025    0.2626 C   0  0  0  0  0  0  0  0  0  0  0  0
   -0.7078   -3.0504    0.4767 O   0  0  0  0  0  0  0  0  0  0  0  0
   -1.4070   -1.0202   -0.1833 N   0  0  0  0  0  0  0  0  0  0  0  0
   -2.2150   -0.4094   -0.3078 H   0  0  0  0  0  0  0  0  0  0  0  0
   -0.0851   -0.3724   -0.2154 C   0  0  1  0  0  0  0  0  0  0  0  0
    0.5754   -0.9162    0.4686 H   0  0  0  0  0  0  0  0  0  0  0  0
    0.5959   -0.3706   -1.6099 C   0  0  0  0  0  0  0  0  0  0  0  0
    0.5333    0.6388   -2.0293 H   0  0  0  0  0  0  0  0  0  0  0  0
    1.6559   -0.6044   -1.4827 H   0  0  0  0  0  0  0  0  0  0  0  0
    0.0349   -1.3103   -2.6737 C   0  0  0  0  0  0  0  0  0  0  0  0
    0.1041   -1.0172   -3.8521 O   0  0  0  0  0  0  0  0  0  0  0  0
   -0.2175   -2.6321   -2.4391 N   0  0  0  0  0  0  0  0  0  0  0  0
   -0.2560   -3.2445   -3.2475 H   0  0  0  0  0  0  0  0  0  0  0  0
   -0.0732   -3.0088   -1.5017 H   0  0  0  0  0  0  0  0  0  0  0  0
   -0.1909    1.0652    0.3326 C   0  0  0  0  0  0  0  0  0  0  0  0
   -1.1612    1.7532    0.0408 O   0  0  0  0  0  0  0  0  0  0  0  0
    0.7426    1.5511    1.2297 N   0  0  0  0  0  0  0  0  0  0  0  0
    1.5235    0.9504    1.4777 H   0  0  0  0  0  0  0  0  0  0  0  0
    0.6698    2.8863    1.8114 C   0  0  0  0  0  0  0  0  0  0  0  0
   -0.2606    3.0088    2.3759 H   0  0  0  0  0  0  0  0  0  0  0  0
    1.5109    3.0489    2.4922 H   0  0  0  0  0  0  0  0  0  0  0  0
    0.7083    3.6486    1.0261 H   0  0  0  0  0  0  0  0  0  0  0  0
  1  2  1  0  0  0  0
  2  3  1  0  0  0  0
  2  4  1  0  0  0  0
  2  5  1  0  0  0  0
  5  6  2  0  0  0  0
  5  7  1  0  0  0  0
  7  8  1  0  0  0  0
  7  9  1  0  0  0  0
  9 10  1  0  0  0  0
  9 11  1  0  0  0  0
  9 19  1  0  0  0  0
 11 12  1  0  0  0  0
 11 13  1  0  0  0  0
 11 14  1  0  0  0  0
 14 15  2  0  0  0  0
 14 16  1  0  0  0  0
 16 17  1  0  0  0  0
 16 18  1  0  0  0  0
 19 20  2  0  0  0  0
 19 21  1  0  0  0  0
 21 22  1  0  0  0  0
 21 23  1  0  0  0  0
 23 24  1  0  0  0  0
 23 25  1  0  0  0  0
 23 26  1  0  0  0  0
M  END
$$$$

  -OEChem-04042215573D

 26 25  0     1  0  0  0  0  0999 V2000
   -3.1084   -3.7870    0.8820 H   0  0  0  0  0  0  0  0  0  0  0  0
   -3.1072   -2.7697    0.4806 C   0  0  0  0  0  0  0  0  0  0  0  0
   -3.6208   -2.1123    1.1865 H   0  0  0  0  0  0  0  0  0  0  0  0
   -3.6465   -2.7640   -0.4700 H   0  0  0  0  0  0  0  0  0  0  0  0
   -1.6834   -2.2922    0.2693 C   0  0  0  0  0  0  0  0  0  0  0  0
   -0.7427   -3.0566    0.4263 O   0  0  0  0  0  0  0  0  0  0  0  0
   -1.4390   -1.0079   -0.1695 N   0  0  0  0  0  0  0  0  0  0  0  0
   -2.2446   -0.3862   -0.2493 H   0  0  0  0  0  0  0  0  0  0  0  0
   -0.1139   -0.3677   -0.2249 C   0  0  1  0  0  0  0  0  0  0  0  0
    0.5548   -0.9227    0.4420 H   0  0  0  0  0  0  0  0  0  0  0  0
    0.5527   -0.3456   -1.6281 C   0  0  0  0  0  0  0  0  0  0  0  0
    0.4878    0.6718   -2.0272 H   0  0  0  0  0  0  0  0  0  0  0  0
    1.6138   -0.5795   -1.5089 H   0  0  0  0  0  0  0  0  0  0  0  0
    0.0010   -1.2560   -2.7233 C   0  0  0  0  0  0  0  0  0  0  0  0
    0.3159   -1.0586   -3.8813 O   0  0  0  0  0  0  0  0  0  0  0  0
   -0.4256   -2.5338   -2.5018 N   0  0  0  0  0  0  0  0  0  0  0  0
   -0.3390   -3.1597   -3.2962 H   0  0  0  0  0  0  0  0  0  0  0  0
   -0.3296   -2.9051   -1.5562 H   0  0  0  0  0  0  0  0  0  0  0  0
   -0.2054    1.0643    0.3402 C   0  0  0  0  0  0  0  0  0  0  0  0
   -1.1810    1.7560    0.0757 O   0  0  0  0  0  0  0  0  0  0  0  0
    0.7469    1.5399    1.2227 N   0  0  0  0  0  0  0  0  0  0  0  0
    1.5357    0.9385    1.4426 H   0  0  0  0  0  0  0  0  0  0  0  0
    0.6900    2.8704    1.8168 C   0  0  0  0  0  0  0  0  0  0  0  0
   -0.2302    2.9927    2.3976 H   0  0  0  0  0  0  0  0  0  0  0  0
    1.5426    3.0232    2.4853 H   0  0  0  0  0  0  0  0  0  0  0  0
    0.7197    3.6391    1.0375 H   0  0  0  0  0  0  0  0  0  0  0  0
  1  2  1  0  0  0  0
  2  3  1  0  0  0  0
  2  4  1  0  0  0  0
  2  5  1  0  0  0  0
  5  6  2  0  0  0  0
  5  7  1  0  0  0  0
  7  8  1  0  0  0  0
  7  9  1  0  0  0  0
  9 10  1  0  0  0  0
  9 11  1  0  0  0  0
  9 19  1  0  0  0  0
 11 12  1  0  0  0  0
 11 13  1  0  0  0  0
 11 14  1  0  0  0  0
 14 15  2  0  0  0  0
 14 16  1  0  0  0  0
 16 17  1  0  0  0  0
 16 18  1  0  0  0  0
 19 20  2  0  0  0  0
 19 21  1  0  0  0  0
 21 22  1  0  0  0  0
 21 23  1  0  0  0  0
 23 24  1  0  0  0  0
 23 25  1  0  0  0  0
 23 26  1  0  0  0  0
M  END
$$$$

  -OEChem-04042215573D

 26 25  0     1  0  0  0  0  0999 V2000
   -3.0460   -3.8179    0.8519 H   0  0  0  0  0  0  0  0  0  0  0  0
   -3.0611   -2.7583    0.5819 C   0  0  0  0  0  0  0  0  0  0  0  0
   -3.4543   -2.1861    1.4256 H   0  0  0  0  0  0  0  0  0  0  0  0
   -3.7208   -2.6230   -0.2789 H   0  0  0  0  0  0  0  0  0  0  0  0
   -1.6610   -2.2839    0.2430 C   0  0  0  0  0  0  0  0  0  0  0  0
   -0.7237   -3.0640    0.2444 O   0  0  0  0  0  0  0  0  0  0  0  0
   -1.4475   -0.9852   -0.1654 N   0  0  0  0  0  0  0  0  0  0  0  0
   -2.2505   -0.3554   -0.1277 H   0  0  0  0  0  0  0  0  0  0  0  0
   -0.1287   -0.3374   -0.2614 C   0  0  1  0  0  0  0  0  0  0  0  0
    0.5648   -0.9009    0.3726 H   0  0  0  0  0  0  0  0  0  0  0  0
    0.5172   -0.2622   -1.6772 C   0  0  0  0  0  0  0  0  0  0  0  0
    0.7156    0.7865   -1.9193 H   0  0  0  0  0  0  0  0  0  0  0  0
    1.4865   -0.7653   -1.6220 H   0  0  0  0  0  0  0  0  0  0  0  0
   -0.2021   -0.8451   -2.8945 C   0  0  0  0  0  0  0  0  0  0  0  0
    0.3292   -0.7644   -3.9854 O   0  0  0  0  0  0  0  0  0  0  0  0
   -1.0884   -1.8802   -2.8484 N   0  0  0  0  0  0  0  0  0  0  0  0
   -1.1108   -2.4296   -3.7021 H   0  0  0  0  0  0  0  0  0  0  0  0
   -1.1382   -2.3672   -1.9582 H   0  0  0  0  0  0  0  0  0  0  0  0
   -0.2191    1.0729    0.3572 C   0  0  0  0  0  0  0  0  0  0  0  0
   -1.2208    1.7521    0.1686 O   0  0  0  0  0  0  0  0  0  0  0  0
    0.7628    1.5317    1.2159 N   0  0  0  0  0  0  0  0  0  0  0  0
    1.5706    0.9367    1.3769 H   0  0  0  0  0  0  0  0  0  0  0  0
    0.7017    2.8280    1.8813 C   0  0  0  0  0  0  0  0  0  0  0  0
   -0.1675    2.8778    2.5454 H   0  0  0  0  0  0  0  0  0  0  0  0
    1.6034    2.9886    2.4800 H   0  0  0  0  0  0  0  0  0  0  0  0
    0.6292    3.6347    1.1444 H   0  0  0  0  0  0  0  0  0  0  0  0
  1  2  1  0  0  0  0
  2  3  1  0  0  0  0
  2  4  1  0  0  0  0
  2  5  1  0  0  0  0
  5  6  2  0  0  0  0
  5  7  1  0  0  0  0
  7  8  1  0  0  0  0
  7  9  1  0  0  0  0
  9 10  1  0  0  0  0
  9 11  1  0  0  0  0
  9 19  1  0  0  0  0
 11 12  1  0  0  0  0
 11 13  1  0  0  0  0
 11 14  1  0  0  0  0
 14 15  2  0  0  0  0
 14 16  1  0  0  0  0
 16 17  1  0  0  0  0
 16 18  1  0  0  0  0
 19 20  2  0  0  0  0
 19 21  1  0  0  0  0
 21 22  1  0  0  0  0
 21 23  1  0  0  0  0
 23 24  1  0  0  0  0
 23 25  1  0  0  0  0
 23 26  1  0  0  0  0
M  END
$$$$

  -OEChem-04042215573D

 26 25  0     1  0  0  0  0  0999 V2000
   -2.9103   -3.8935    0.9974 H   0  0  0  0  0  0  0  0  0  0  0  0
   -2.9517   -2.8874    0.5703 C   0  0  0  0  0  0  0  0  0  0  0  0
   -3.4554   -2.2255    1.2792 H   0  0  0  0  0  0  0  0  0  0  0  0
   -3.5276   -2.9225   -0.3576 H   0  0  0  0  0  0  0  0  0  0  0  0
   -1.5491   -2.3803    0.2920 C   0  0  0  0  0  0  0  0  0  0  0  0
   -0.5866   -3.1066    0.4759 O   0  0  0  0  0  0  0  0  0  0  0  0
   -1.3610   -1.0917   -0.1678 N   0  0  0  0  0  0  0  0  0  0  0  0
   -2.1687   -0.4691   -0.1177 H   0  0  0  0  0  0  0  0  0  0  0  0
   -0.0459   -0.4305   -0.2261 C   0  0  1  0  0  0  0  0  0  0  0  0
    0.6327   -0.9513    0.4588 H   0  0  0  0  0  0  0  0  0  0  0  0
    0.6467   -0.4051   -1.6195 C   0  0  0  0  0  0  0  0  0  0  0  0
    0.8470    0.6333   -1.8995 H   0  0  0  0  0  0  0  0  0  0  0  0
    1.6159   -0.9012   -1.5153 H   0  0  0  0  0  0  0  0  0  0  0  0
   -0.0452   -1.0434   -2.8237 C   0  0  0  0  0  0  0  0  0  0  0  0
    0.5958   -1.2708   -3.8319 O   0  0  0  0  0  0  0  0  0  0  0  0
   -1.3965   -1.0868   -3.0133 N   0  0  0  0  0  0  0  0  0  0  0  0
   -1.7179   -1.5703   -3.8462 H   0  0  0  0  0  0  0  0  0  0  0  0
   -1.9950   -0.9983   -2.2011 H   0  0  0  0  0  0  0  0  0  0  0  0
   -0.1905    1.0019    0.3260 C   0  0  0  0  0  0  0  0  0  0  0  0
   -1.1973    1.6472    0.0583 O   0  0  0  0  0  0  0  0  0  0  0  0
    0.7354    1.5175    1.2136 N   0  0  0  0  0  0  0  0  0  0  0  0
    1.5488    0.9502    1.4362 H   0  0  0  0  0  0  0  0  0  0  0  0
    0.6192    2.8439    1.8080 C   0  0  0  0  0  0  0  0  0  0  0  0
   -0.3103    2.9280    2.3809 H   0  0  0  0  0  0  0  0  0  0  0  0
    1.4590    3.0302    2.4844 H   0  0  0  0  0  0  0  0  0  0  0  0
    0.6245    3.6141    1.0295 H   0  0  0  0  0  0  0  0  0  0  0  0
  1  2  1  0  0  0  0
  2  3  1  0  0  0  0
  2  4  1  0  0  0  0
  2  5  1  0  0  0  0
  5  6  2  0  0  0  0
  5  7  1  0  0  0  0
  7  8  1  0  0  0  0
  7  9  1  0  0  0  0
  9 10  1  0  0  0  0
  9 11  1  0  0  0  0
  9 19  1  0  0  0  0
 11 12  1  0  0  0  0
 11 13  1  0  0  0  0
 11 14  1  0  0  0  0
 14 15  2  0  0  0  0
 14 16  1  0  0  0  0
 16 17  1  0  0  0  0
 16 18  1  0  0  0  0
 19 20  2  0  0  0  0
 19 21  1  0  0  0  0
 21 22  1  0  0  0  0
 21 23  1  0  0  0  0
 23 24  1  0  0  0  0
 23 25  1  0  0  0  0
 23 26  1  0  0  0  0
M  END
$$$$

  -OEChem-04042215573D

 26 25  0     1  0  0  0  0  0999 V2000
   -2.8872   -4.0138    0.9060 H   0  0  0  0  0  0  0  0  0  0  0  0
   -2.9149   -2.9963    0.5060 C   0  0  0  0  0  0  0  0  0  0  0  0
   -3.5177   -2.3728    1.1706 H   0  0  0  0  0  0  0  0  0  0  0  0
   -3.3796   -3.0200   -0.4827 H   0  0  0  0  0  0  0  0  0  0  0  0
   -1.5090   -2.4360    0.4026 C   0  0  0  0  0  0  0  0  0  0  0  0
   -0.5544   -3.1002    0.7730 O   0  0  0  0  0  0  0  0  0  0  0  0
   -1.3101   -1.1647   -0.0959 N   0  0  0  0  0  0  0  0  0  0  0  0
   -2.1385   -0.6005   -0.2777 H   0  0  0  0  0  0  0  0  0  0  0  0
   -0.0017   -0.4946   -0.1696 C   0  0  1  0  0  0  0  0  0  0  0  0
    0.7076   -0.9920    0.5009 H   0  0  0  0  0  0  0  0  0  0  0  0
    0.6117   -0.4657   -1.5973 C   0  0  0  0  0  0  0  0  0  0  0  0
    0.8122    0.5658   -1.9013 H   0  0  0  0  0  0  0  0  0  0  0  0
    1.5747   -0.9829   -1.5597 H   0  0  0  0  0  0  0  0  0  0  0  0
   -0.2053   -1.1141   -2.7093 C   0  0  0  0  0  0  0  0  0  0  0  0
    0.3451   -1.6245   -3.6658 O   0  0  0  0  0  0  0  0  0  0  0  0
   -1.4866   -0.7181   -2.9749 N   0  0  0  0  0  0  0  0  0  0  0  0
   -1.7659   -0.8427   -3.9436 H   0  0  0  0  0  0  0  0  0  0  0  0
   -1.8257    0.0920   -2.4641 H   0  0  0  0  0  0  0  0  0  0  0  0
   -0.1749    0.9509    0.3345 C   0  0  0  0  0  0  0  0  0  0  0  0
   -1.1330    1.6059   -0.0625 O   0  0  0  0  0  0  0  0  0  0  0  0
    0.7301    1.5155    1.2133 N   0  0  0  0  0  0  0  0  0  0  0  0
    1.4967    0.9356    1.5440 H   0  0  0  0  0  0  0  0  0  0  0  0
    0.5974    2.8711    1.7334 C   0  0  0  0  0  0  0  0  0  0  0  0
   -0.3380    2.9767    2.2930 H   0  0  0  0  0  0  0  0  0  0  0  0
    1.4298    3.1019    2.4050 H   0  0  0  0  0  0  0  0  0  0  0  0
    0.6027    3.5984    0.9146 H   0  0  0  0  0  0  0  0  0  0  0  0
  1  2  1  0  0  0  0
  2  3  1  0  0  0  0
  2  4  1  0  0  0  0
  2  5  1  0  0  0  0
  5  6  2  0  0  0  0
  5  7  1  0  0  0  0
  7  8  1  0  0  0  0
  7  9  1  0  0  0  0
  9 10  1  0  0  0  0
  9 11  1  0  0  0  0
  9 19  1  0  0  0  0
 11 12  1  0  0  0  0
 11 13  1  0  0  0  0
 11 14  1  0  0  0  0
 14 15  2  0  0  0  0
 14 16  1  0  0  0  0
 16 17  1  0  0  0  0
 16 18  1  0  0  0  0
 19 20  2  0  0  0  0
 19 21  1  0  0  0  0
 21 22  1  0  0  0  0
 21 23  1  0  0  0  0
 23 24  1  0  0  0  0
 23 25  1  0  0  0  0
 23 26  1  0  0  0  0
M  END
$$$$

  -OEChem-04042215573D

 26 25  0     1  0  0  0  0  0999 V2000
   -2.8894   -4.0152    0.8078 H   0  0  0  0  0  0  0  0  0  0  0  0
   -2.9115   -2.9967    0.4101 C   0  0  0  0  0  0  0  0  0  0  0  0
   -3.5549   -2.3832    1.0454 H   0  0  0  0  0  0  0  0  0  0  0  0
   -3.3264   -3.0228   -0.6006 H   0  0  0  0  0  0  0  0  0  0  0  0
   -1.5097   -2.4181    0.3782 C   0  0  0  0  0  0  0  0  0  0  0  0
   -0.5665   -3.0682    0.7993 O   0  0  0  0  0  0  0  0  0  0  0  0
   -1.3050   -1.1428   -0.1074 N   0  0  0  0  0  0  0  0  0  0  0  0
   -2.1282   -0.6013   -0.3655 H   0  0  0  0  0  0  0  0  0  0  0  0
    0.0042   -0.4726   -0.1715 C   0  0  1  0  0  0  0  0  0  0  0  0
    0.7186   -0.9796    0.4862 H   0  0  0  0  0  0  0  0  0  0  0  0
    0.5980   -0.4227   -1.6057 C   0  0  0  0  0  0  0  0  0  0  0  0
    0.7986    0.6110   -1.9022 H   0  0  0  0  0  0  0  0  0  0  0  0
    1.5589   -0.9453   -1.5929 H   0  0  0  0  0  0  0  0  0  0  0  0
   -0.2546   -1.0575   -2.6967 C   0  0  0  0  0  0  0  0  0  0  0  0
    0.2286   -1.7940   -3.5345 O   0  0  0  0  0  0  0  0  0  0  0  0
   -1.4815   -0.5469   -3.0196 N   0  0  0  0  0  0  0  0  0  0  0  0
   -1.7923   -0.7522   -3.9646 H   0  0  0  0  0  0  0  0  0  0  0  0
   -1.7459    0.3339   -2.5862 H   0  0  0  0  0  0  0  0  0  0  0  0
   -0.1656    0.9688    0.3450 C   0  0  0  0  0  0  0  0  0  0  0  0
   -1.1019    1.6428   -0.0723 O   0  0  0  0  0  0  0  0  0  0  0  0
    0.7404    1.5213    1.2306 N   0  0  0  0  0  0  0  0  0  0  0  0
    1.4867    0.9257    1.5795 H   0  0  0  0  0  0  0  0  0  0  0  0
    0.6212    2.8779    1.7514 C   0  0  0  0  0  0  0  0  0  0  0  0
   -0.3234    2.9995    2.2917 H   0  0  0  0  0  0  0  0  0  0  0  0
    1.4435    3.0923    2.4409 H   0  0  0  0  0  0  0  0  0  0  0  0
    0.6566    3.6063    0.9344 H   0  0  0  0  0  0  0  0  0  0  0  0
  1  2  1  0  0  0  0
  2  3  1  0  0  0  0
  2  4  1  0  0  0  0
  2  5  1  0  0  0  0
  5  6  2  0  0  0  0
  5  7  1  0  0  0  0
  7  8  1  0  0  0  0
  7  9  1  0  0  0  0
  9 10  1  0  0  0  0
  9 11  1  0  0  0  0
  9 19  1  0  0  0  0
 11 12  1  0  0  0  0
 11 13  1  0  0  0  0
 11 14  1  0  0  0  0
 14 15  2  0  0  0  0
 14 16  1  0  0  0  0
 16 17  1  0  0  0  0
 16 18  1  0  0  0  0
 19 20  2  0  0  0  0
 19 21  1  0  0  0  0
 21 22  1  0  0  0  0
 21 23  1  0  0  0  0
 23 24  1  0  0  0  0
 23 25  1  0  0  0  0
 23 26  1  0  0  0  0
M  END
$$$$

  -OEChem-04042215573D

 26 25  0     1  0  0  0  0  0999 V2000
   -2.8936   -4.0092    0.7099 H   0  0  0  0  0  0  0  0  0  0  0  0
   -2.9101   -2.9886    0.3173 C   0  0  0  0  0  0  0  0  0  0  0  0
   -3.5892   -2.3874    0.9264 H   0  0  0  0  0  0  0  0  0  0  0  0
   -3.2785   -3.0138   -0.7112 H   0  0  0  0  0  0  0  0  0  0  0  0
   -1.5156   -2.3925    0.3518 C   0  0  0  0  0  0  0  0  0  0  0  0
   -0.5879   -3.0291    0.8251 O   0  0  0  0  0  0  0  0  0  0  0  0
   -1.3015   -1.1156   -0.1263 N   0  0  0  0  0  0  0  0  0  0  0  0
   -2.1127   -0.5913   -0.4494 H   0  0  0  0  0  0  0  0  0  0  0  0
    0.0111   -0.4502   -0.1765 C   0  0  1  0  0  0  0  0  0  0  0  0
    0.7224   -0.9661    0.4776 H   0  0  0  0  0  0  0  0  0  0  0  0
    0.6017   -0.3918   -1.6114 C   0  0  0  0  0  0  0  0  0  0  0  0
    0.8084    0.6419   -1.9038 H   0  0  0  0  0  0  0  0  0  0  0  0
    1.5594   -0.9206   -1.6092 H   0  0  0  0  0  0  0  0  0  0  0  0
   -0.2686   -1.0171   -2.6927 C   0  0  0  0  0  0  0  0  0  0  0  0
    0.1132   -1.9487   -3.3741 O   0  0  0  0  0  0  0  0  0  0  0  0
   -1.4336   -0.4213   -3.0899 N   0  0  0  0  0  0  0  0  0  0  0  0
   -1.7843   -0.7098   -3.9985 H   0  0  0  0  0  0  0  0  0  0  0  0
   -1.6306    0.5141   -2.7430 H   0  0  0  0  0  0  0  0  0  0  0  0
   -0.1518    0.9905    0.3449 C   0  0  0  0  0  0  0  0  0  0  0  0
   -1.0654    1.6824   -0.0930 O   0  0  0  0  0  0  0  0  0  0  0  0
    0.7524    1.5313    1.2394 N   0  0  0  0  0  0  0  0  0  0  0  0
    1.4765    0.9205    1.6080 H   0  0  0  0  0  0  0  0  0  0  0  0
    0.6428    2.8876    1.7632 C   0  0  0  0  0  0  0  0  0  0  0  0
   -0.3047    3.0164    2.2969 H   0  0  0  0  0  0  0  0  0  0  0  0
    1.4622    3.0916    2.4593 H   0  0  0  0  0  0  0  0  0  0  0  0
    0.6917    3.6190    0.9495 H   0  0  0  0  0  0  0  0  0  0  0  0
  1  2  1  0  0  0  0
  2  3  1  0  0  0  0
  2  4  1  0  0  0  0
  2  5  1  0  0  0  0
  5  6  2  0  0  0  0
  5  7  1  0  0  0  0
  7  8  1  0  0  0  0
  7  9  1  0  0  0  0
  9 10  1  0  0  0  0
  9 11  1  0  0  0  0
  9 19  1  0  0  0  0
 11 12  1  0  0  0  0
 11 13  1  0  0  0  0
 11 14  1  0  0  0  0
 14 15  2  0  0  0  0
 14 16  1  0  0  0  0
 16 17  1  0  0  0  0
 16 18  1  0  0  0  0
 19 20  2  0  0  0  0
 19 21  1  0  0  0  0
 21 22  1  0  0  0  0
 21 23  1  0  0  0  0
 23 24  1  0  0  0  0
 23 25  1  0  0  0  0
 23 26  1  0  0  0  0
M  END
$$$$

  -OEChem-04042215573D

 26 25  0     1  0  0  0  0  0999 V2000
   -2.8948   -3.9974    0.6217 H   0  0  0  0  0  0  0  0  0  0  0  0
   -2.9035   -2.9803    0.2200 C   0  0  0  0  0  0  0  0  0  0  0  0
   -3.6224   -2.3828    0.7856 H   0  0  0  0  0  0  0  0  0  0  0  0
   -3.2139   -3.0187   -0.8271 H   0  0  0  0  0  0  0  0  0  0  0  0
   -1.5213   -2.3650    0.3254 C   0  0  0  0  0  0  0  0  0  0  0  0
   -0.6112   -2.9864    0.8511 O   0  0  0  0  0  0  0  0  0  0  0  0
   -1.3025   -1.0859   -0.1447 N   0  0  0  0  0  0  0  0  0  0  0  0
   -2.1010   -0.5802   -0.5239 H   0  0  0  0  0  0  0  0  0  0  0  0
    0.0111   -0.4227   -0.1792 C   0  0  1  0  0  0  0  0  0  0  0  0
    0.7148   -0.9454    0.4774 H   0  0  0  0  0  0  0  0  0  0  0  0
    0.6097   -0.3710   -1.6106 C   0  0  0  0  0  0  0  0  0  0  0  0
    0.8196    0.6610   -1.9057 H   0  0  0  0  0  0  0  0  0  0  0  0
    1.5659   -0.9019   -1.6042 H   0  0  0  0  0  0  0  0  0  0  0  0
   -0.2614   -1.0009   -2.6883 C   0  0  0  0  0  0  0  0  0  0  0  0
   -0.0104   -2.0839   -3.1803 O   0  0  0  0  0  0  0  0  0  0  0  0
   -1.3489   -0.3423   -3.1911 N   0  0  0  0  0  0  0  0  0  0  0  0
   -1.7407   -0.7163   -4.0504 H   0  0  0  0  0  0  0  0  0  0  0  0
   -1.4782    0.6368   -2.9498 H   0  0  0  0  0  0  0  0  0  0  0  0
   -0.1416    1.0175    0.3462 C   0  0  0  0  0  0  0  0  0  0  0  0
   -1.0346    1.7278   -0.1040 O   0  0  0  0  0  0  0  0  0  0  0  0
    0.7641    1.5424    1.2487 N   0  0  0  0  0  0  0  0  0  0  0  0
    1.4669    0.9152    1.6307 H   0  0  0  0  0  0  0  0  0  0  0  0
    0.6733    2.8992    1.7744 C   0  0  0  0  0  0  0  0  0  0  0  0
   -0.2702    3.0399    2.3121 H   0  0  0  0  0  0  0  0  0  0  0  0
    1.4981    3.0919    2.4670 H   0  0  0  0  0  0  0  0  0  0  0  0
    0.7283    3.6302    0.9609 H   0  0  0  0  0  0  0  0  0  0  0  0
  1  2  1  0  0  0  0
  2  3  1  0  0  0  0
  2  4  1  0  0  0  0
  2  5  1  0  0  0  0
  5  6  2  0  0  0  0
  5  7  1  0  0  0  0
  7  8  1  0  0  0  0
  7  9  1  0  0  0  0
  9 10  1  0  0  0  0
  9 11  1  0  0  0  0
  9 19  1  0  0  0  0
 11 12  1  0  0  0  0
 11 13  1  0  0  0  0
 11 14  1  0  0  0  0
 14 15  2  0  0  0  0
 14 16  1  0  0  0  0
 16 17  1  0  0  0  0
 16 18  1  0  0  0  0
 19 20  2  0  0  0  0
 19 21  1  0  0  0  0
 21 22  1  0  0  0  0
 21 23  1  0  0  0  0
 23 24  1  0  0  0  0
 23 25  1  0  0  0  0
 23 26  1  0  0  0  0
M  END
$$$$

  -OEChem-04042215573D

 26 25  0     1  0  0  0  0  0999 V2000
   -2.9220   -3.9614    0.5645 H   0  0  0  0  0  0  0  0  0  0  0  0
   -2.9122   -2.9492    0.1506 C   0  0  0  0  0  0  0  0  0  0  0  0
   -3.6361   -2.3378    0.6944 H   0  0  0  0  0  0  0  0  0  0  0  0
   -3.2018   -2.9974   -0.9020 H   0  0  0  0  0  0  0  0  0  0  0  0
   -1.5258   -2.3471    0.2762 C   0  0  0  0  0  0  0  0  0  0  0  0
   -0.6332   -2.9732    0.8259 O   0  0  0  0  0  0  0  0  0  0  0  0
   -1.2870   -1.0705   -0.1927 N   0  0  0  0  0  0  0  0  0  0  0  0
   -2.0786   -0.5467   -0.5602 H   0  0  0  0  0  0  0  0  0  0  0  0
    0.0340   -0.4204   -0.1966 C   0  0  1  0  0  0  0  0  0  0  0  0
    0.7181   -0.9464    0.4780 H   0  0  0  0  0  0  0  0  0  0  0  0
    0.6678   -0.3720   -1.6127 C   0  0  0  0  0  0  0  0  0  0  0  0
    0.9010    0.6577   -1.8994 H   0  0  0  0  0  0  0  0  0  0  0  0
    1.6158   -0.9164   -1.5854 H   0  0  0  0  0  0  0  0  0  0  0  0
   -0.1824   -0.9907   -2.7130 C   0  0  0  0  0  0  0  0  0  0  0  0
   -0.1068   -2.1644   -3.0218 O   0  0  0  0  0  0  0  0  0  0  0  0
   -1.1120   -0.2448   -3.3813 N   0  0  0  0  0  0  0  0  0  0  0  0
   -1.7510   -0.7501   -3.9876 H   0  0  0  0  0  0  0  0  0  0  0  0
   -1.3536    0.6755   -3.0237 H   0  0  0  0  0  0  0  0  0  0  0  0
   -0.1231    1.0217    0.3219 C   0  0  0  0  0  0  0  0  0  0  0  0
   -1.0051    1.7327   -0.1486 O   0  0  0  0  0  0  0  0  0  0  0  0
    0.7616    1.5444    1.2464 N   0  0  0  0  0  0  0  0  0  0  0  0
    1.4531    0.9157    1.6464 H   0  0  0  0  0  0  0  0  0  0  0  0
    0.6663    2.9048    1.7623 C   0  0  0  0  0  0  0  0  0  0  0  0
   -0.2841    3.0500    2.2866 H   0  0  0  0  0  0  0  0  0  0  0  0
    1.4825    3.1011    2.4643 H   0  0  0  0  0  0  0  0  0  0  0  0
    0.7330    3.6306    0.9450 H   0  0  0  0  0  0  0  0  0  0  0  0
  1  2  1  0  0  0  0
  2  3  1  0  0  0  0
  2  4  1  0  0  0  0
  2  5  1  0  0  0  0
  5  6  2  0  0  0  0
  5  7  1  0  0  0  0
  7  8  1  0  0  0  0
  7  9  1  0  0  0  0
  9 10  1  0  0  0  0
  9 11  1  0  0  0  0
  9 19  1  0  0  0  0
 11 12  1  0  0  0  0
 11 13  1  0  0  0  0
 11 14  1  0  0  0  0
 14 15  2  0  0  0  0
 14 16  1  0  0  0  0
 16 17  1  0  0  0  0
 16 18  1  0  0  0  0
 19 20  2  0  0  0  0
 19 21  1  0  0  0  0
 21 22  1  0  0  0  0
 21 23  1  0  0  0  0
 23 24  1  0  0  0  0
 23 25  1  0  0  0  0
 23 26  1  0  0  0  0
M  END
$$$$

  -OEChem-04042215573D

 26 25  0     1  0  0  0  0  0999 V2000
   -2.9125   -3.9691    0.5270 H   0  0  0  0  0  0  0  0  0  0  0  0
   -2.8992   -2.9626    0.1000 C   0  0  0  0  0  0  0  0  0  0  0  0
   -3.6668   -2.3598    0.5911 H   0  0  0  0  0  0  0  0  0  0  0  0
   -3.1237   -3.0314   -0.9674 H   0  0  0  0  0  0  0  0  0  0  0  0
   -1.5348   -2.3298    0.2967 C   0  0  0  0  0  0  0  0  0  0  0  0
   -0.6642   -2.9283    0.9101 O   0  0  0  0  0  0  0  0  0  0  0  0
   -1.2932   -1.0572   -0.1819 N   0  0  0  0  0  0  0  0  0  0  0  0
   -2.0655   -0.5687   -0.6293 H   0  0  0  0  0  0  0  0  0  0  0  0
    0.0298   -0.4129   -0.1870 C   0  0  1  0  0  0  0  0  0  0  0  0
    0.7081   -0.9384    0.4937 H   0  0  0  0  0  0  0  0  0  0  0  0
    0.6700   -0.3846   -1.6022 C   0  0  0  0  0  0  0  0  0  0  0  0
    0.9114    0.6414   -1.8951 H   0  0  0  0  0  0  0  0  0  0  0  0
    1.6154   -0.9325   -1.5628 H   0  0  0  0  0  0  0  0  0  0  0  0
   -0.1678   -1.0115   -2.7097 C   0  0  0  0  0  0  0  0  0  0  0  0
   -0.2976   -2.2138   -2.8430 O   0  0  0  0  0  0  0  0  0  0  0  0
   -0.9227   -0.2349   -3.5420 N   0  0  0  0  0  0  0  0  0  0  0  0
   -1.6094   -0.7241   -4.1083 H   0  0  0  0  0  0  0  0  0  0  0  0
   -1.0609    0.7424   -3.3006 H   0  0  0  0  0  0  0  0  0  0  0  0
   -0.1147    1.0350    0.3196 C   0  0  0  0  0  0  0  0  0  0  0  0
   -0.9738    1.7600   -0.1712 O   0  0  0  0  0  0  0  0  0  0  0  0
    0.7755    1.5537    1.2411 N   0  0  0  0  0  0  0  0  0  0  0  0
    1.4400    0.9123    1.6658 H   0  0  0  0  0  0  0  0  0  0  0  0
    0.6907    2.9162    1.7527 C   0  0  0  0  0  0  0  0  0  0  0  0
   -0.2593    3.0711    2.2749 H   0  0  0  0  0  0  0  0  0  0  0  0
    1.5074    3.1077    2.4552 H   0  0  0  0  0  0  0  0  0  0  0  0
    0.7645    3.6391    0.9334 H   0  0  0  0  0  0  0  0  0  0  0  0
  1  2  1  0  0  0  0
  2  3  1  0  0  0  0
  2  4  1  0  0  0  0
  2  5  1  0  0  0  0
  5  6  2  0  0  0  0
  5  7  1  0  0  0  0
  7  8  1  0  0  0  0
  7  9  1  0  0  0  0
  9 10  1  0  0  0  0
  9 11  1  0  0  0  0
  9 19  1  0  0  0  0
 11 12  1  0  0  0  0
 11 13  1  0  0  0  0
 11 14  1  0  0  0  0
 14 15  2  0  0  0  0
 14 16  1  0  0  0  0
 16 17  1  0  0  0  0
 16 18  1  0  0  0  0
 19 20  2  0  0  0  0
 19 21  1  0  0  0  0
 21 22  1  0  0  0  0
 21 23  1  0  0  0  0
 23 24  1  0  0  0  0
 23 25  1  0  0  0  0
 23 26  1  0  0  0  0
M  END
$$$$

  -OEChem-04042215573D

 26 25  0     1  0  0  0  0  0999 V2000
   -2.9044   -3.9837    0.5373 H   0  0  0  0  0  0  0  0  0  0  0  0
   -2.8937   -2.9812    0.1009 C   0  0  0  0  0  0  0  0  0  0  0  0
   -3.6867   -2.3864    0.5598 H   0  0  0  0  0  0  0  0  0  0  0  0
   -3.0811   -3.0637   -0.9727 H   0  0  0  0  0  0  0  0  0  0  0  0
   -1.5478   -2.3230    0.3358 C   0  0  0  0  0  0  0  0  0  0  0  0
   -0.6868   -2.9002    0.9835 O   0  0  0  0  0  0  0  0  0  0  0  0
   -1.3118   -1.0535   -0.1536 N   0  0  0  0  0  0  0  0  0  0  0  0
   -2.0686   -0.6022   -0.6621 H   0  0  0  0  0  0  0  0  0  0  0  0
    0.0113   -0.4123   -0.1734 C   0  0  1  0  0  0  0  0  0  0  0  0
    0.6901   -0.9338    0.5096 H   0  0  0  0  0  0  0  0  0  0  0  0
    0.6527   -0.4005   -1.5904 C   0  0  0  0  0  0  0  0  0  0  0  0
    0.8972    0.6244   -1.8845 H   0  0  0  0  0  0  0  0  0  0  0  0
    1.5982   -0.9464   -1.5386 H   0  0  0  0  0  0  0  0  0  0  0  0
   -0.1615   -1.0338   -2.7162 C   0  0  0  0  0  0  0  0  0  0  0  0
   -0.5135   -2.1991   -2.7233 O   0  0  0  0  0  0  0  0  0  0  0  0
   -0.6608   -0.2703   -3.7325 N   0  0  0  0  0  0  0  0  0  0  0  0
   -1.3680   -0.7140   -4.3110 H   0  0  0  0  0  0  0  0  0  0  0  0
   -0.6527    0.7395   -3.6264 H   0  0  0  0  0  0  0  0  0  0  0  0
   -0.1199    1.0401    0.3248 C   0  0  0  0  0  0  0  0  0  0  0  0
   -0.9680    1.7745   -0.1703 O   0  0  0  0  0  0  0  0  0  0  0  0
    0.7838    1.5566    1.2347 N   0  0  0  0  0  0  0  0  0  0  0  0
    1.4345    0.9077    1.6690 H   0  0  0  0  0  0  0  0  0  0  0  0
    0.7112    2.9217    1.7418 C   0  0  0  0  0  0  0  0  0  0  0  0
   -0.2330    3.0828    2.2726 H   0  0  0  0  0  0  0  0  0  0  0  0
    1.5357    3.1120    2.4357 H   0  0  0  0  0  0  0  0  0  0  0  0
    0.7809    3.6413    0.9193 H   0  0  0  0  0  0  0  0  0  0  0  0
  1  2  1  0  0  0  0
  2  3  1  0  0  0  0
  2  4  1  0  0  0  0
  2  5  1  0  0  0  0
  5  6  2  0  0  0  0
  5  7  1  0  0  0  0
  7  8  1  0  0  0  0
  7  9  1  0  0  0  0
  9 10  1  0  0  0  0
  9 11  1  0  0  0  0
  9 19  1  0  0  0  0
 11 12  1  0  0  0  0
 11 13  1  0  0  0  0
 11 14  1  0  0  0  0
 14 15  2  0  0  0  0
 14 16  1  0  0  0  0
 16 17  1  0  0  0  0
 16 18  1  0  0  0  0
 19 20  2  0  0  0  0
 19 21  1  0  0  0  0
 21 22  1  0  0  0  0
 21 23  1  0  0  0  0
 23 24  1  0  0  0  0
 23 25  1  0  0  0  0
 23 26  1  0  0  0  0
M  END
$$$$

  -OEChem-04042215573D

 26 25  0     1  0  0  0  0  0999 V2000
   -2.8991   -4.0019    0.5745 H   0  0  0  0  0  0  0  0  0  0  0  0
   -2.9001   -2.9978    0.1418 C   0  0  0  0  0  0  0  0  0  0  0  0
   -3.7014   -2.4144    0.6009 H   0  0  0  0  0  0  0  0  0  0  0  0
   -3.0848   -3.0787   -0.9325 H   0  0  0  0  0  0  0  0  0  0  0  0
   -1.5632   -2.3225    0.3815 C   0  0  0  0  0  0  0  0  0  0  0  0
   -0.6991   -2.8870    1.0370 O   0  0  0  0  0  0  0  0  0  0  0  0
   -1.3386   -1.0539   -0.1156 N   0  0  0  0  0  0  0  0  0  0  0  0
   -2.0815   -0.6436   -0.6763 H   0  0  0  0  0  0  0  0  0  0  0  0
   -0.0162   -0.4146   -0.1611 C   0  0  1  0  0  0  0  0  0  0  0  0
    0.6694   -0.9341    0.5163 H   0  0  0  0  0  0  0  0  0  0  0  0
    0.6175   -0.4089   -1.5849 C   0  0  0  0  0  0  0  0  0  0  0  0
    0.8564    0.6185   -1.8746 H   0  0  0  0  0  0  0  0  0  0  0  0
    1.5673   -0.9471   -1.5295 H   0  0  0  0  0  0  0  0  0  0  0  0
   -0.1738   -1.0410   -2.7324 C   0  0  0  0  0  0  0  0  0  0  0  0
   -0.7497   -2.1123   -2.6730 O   0  0  0  0  0  0  0  0  0  0  0  0
   -0.3494   -0.3706   -3.9092 N   0  0  0  0  0  0  0  0  0  0  0  0
   -1.0480   -0.7596   -4.5358 H   0  0  0  0  0  0  0  0  0  0  0  0
   -0.1381    0.6216   -3.9395 H   0  0  0  0  0  0  0  0  0  0  0  0
   -0.1356    1.0398    0.3365 C   0  0  0  0  0  0  0  0  0  0  0  0
   -0.9838    1.7806   -0.1477 O   0  0  0  0  0  0  0  0  0  0  0  0
    0.7872    1.5547    1.2285 N   0  0  0  0  0  0  0  0  0  0  0  0
    1.4339    0.9015    1.6623 H   0  0  0  0  0  0  0  0  0  0  0  0
    0.7285    2.9212    1.7332 C   0  0  0  0  0  0  0  0  0  0  0  0
   -0.2037    3.0860    2.2837 H   0  0  0  0  0  0  0  0  0  0  0  0
    1.5682    3.1116    2.4084 H   0  0  0  0  0  0  0  0  0  0  0  0
    0.7817    3.6379    0.9069 H   0  0  0  0  0  0  0  0  0  0  0  0
  1  2  1  0  0  0  0
  2  3  1  0  0  0  0
  2  4  1  0  0  0  0
  2  5  1  0  0  0  0
  5  6  2  0  0  0  0
  5  7  1  0  0  0  0
  7  8  1  0  0  0  0
  7  9  1  0  0  0  0
  9 10  1  0  0  0  0
  9 11  1  0  0  0  0
  9 19  1  0  0  0  0
 11 12  1  0  0  0  0
 11 13  1  0  0  0  0
 11 14  1  0  0  0  0
 14 15  2  0  0  0  0
 14 16  1  0  0  0  0
 16 17  1  0  0  0  0
 16 18  1  0  0  0  0
 19 20  2  0  0  0  0
 19 21  1  0  0  0  0
 21 22  1  0  0  0  0
 21 23  1  0  0  0  0
 23 24  1  0  0  0  0
 23 25  1  0  0  0  0
 23 26  1  0  0  0  0
M  END
$$$$

  -OEChem-04042215573D

 26 25  0     1  0  0  0  0  0999 V2000
   -2.8937   -4.0144    0.6109 H   0  0  0  0  0  0  0  0  0  0  0  0
   -2.9082   -3.0093    0.1808 C   0  0  0  0  0  0  0  0  0  0  0  0
   -3.7157   -2.4372    0.6434 H   0  0  0  0  0  0  0  0  0  0  0  0
   -3.0948   -3.0890   -0.8932 H   0  0  0  0  0  0  0  0  0  0  0  0
   -1.5792   -2.3184    0.4194 C   0  0  0  0  0  0  0  0  0  0  0  0
   -0.7077   -2.8740    1.0732 O   0  0  0  0  0  0  0  0  0  0  0  0
   -1.3678   -1.0499   -0.0825 N   0  0  0  0  0  0  0  0  0  0  0  0
   -2.0995   -0.6770   -0.6835 H   0  0  0  0  0  0  0  0  0  0  0  0
   -0.0465   -0.4123   -0.1538 C   0  0  1  0  0  0  0  0  0  0  0  0
    0.6474   -0.9309    0.5156 H   0  0  0  0  0  0  0  0  0  0  0  0
    0.5760   -0.4107   -1.5849 C   0  0  0  0  0  0  0  0  0  0  0  0
    0.8044    0.6197   -1.8727 H   0  0  0  0  0  0  0  0  0  0  0  0
    1.5308   -0.9396   -1.5287 H   0  0  0  0  0  0  0  0  0  0  0  0
   -0.1963   -1.0394   -2.7506 C   0  0  0  0  0  0  0  0  0  0  0  0
   -0.9795   -1.9685   -2.6708 O   0  0  0  0  0  0  0  0  0  0  0  0
   -0.0534   -0.5434   -4.0150 N   0  0  0  0  0  0  0  0  0  0  0  0
   -0.7231   -0.8833   -4.6991 H   0  0  0  0  0  0  0  0  0  0  0  0
    0.3814    0.3650   -4.1380 H   0  0  0  0  0  0  0  0  0  0  0  0
   -0.1522    1.0427    0.3461 C   0  0  0  0  0  0  0  0  0  0  0  0
   -1.0028    1.7904   -0.1222 O   0  0  0  0  0  0  0  0  0  0  0  0
    0.7915    1.5519    1.2195 N   0  0  0  0  0  0  0  0  0  0  0  0
    1.4396    0.8936    1.6434 H   0  0  0  0  0  0  0  0  0  0  0  0
    0.7485    2.9175    1.7285 C   0  0  0  0  0  0  0  0  0  0  0  0
   -0.1724    3.0854    2.2968 H   0  0  0  0  0  0  0  0  0  0  0  0
    1.6018    3.1025    2.3879 H   0  0  0  0  0  0  0  0  0  0  0  0
    0.7892    3.6363    0.9033 H   0  0  0  0  0  0  0  0  0  0  0  0
  1  2  1  0  0  0  0
  2  3  1  0  0  0  0
  2  4  1  0  0  0  0
  2  5  1  0  0  0  0
  5  6  2  0  0  0  0
  5  7  1  0  0  0  0
  7  8  1  0  0  0  0
  7  9  1  0  0  0  0
  9 10  1  0  0  0  0
  9 11  1  0  0  0  0
  9 19  1  0  0  0  0
 11 12  1  0  0  0  0
 11 13  1  0  0  0  0
 11 14  1  0  0  0  0
 14 15  2  0  0  0  0
 14 16  1  0  0  0  0
 16 17  1  0  0  0  0
 16 18  1  0  0  0  0
 19 20  2  0  0  0  0
 19 21  1  0  0  0  0
 21 22  1  0  0  0  0
 21 23  1  0  0  0  0
 23 24  1  0  0  0  0
 23 25  1  0  0  0  0
 23 26  1  0  0  0  0
M  END
$$$$

  -OEChem-04042215573D

 26 25  0     1  0  0  0  0  0999 V2000
   -2.8967   -4.0218    0.6239 H   0  0  0  0  0  0  0  0  0  0  0  0
   -2.9168   -3.0148    0.1986 C   0  0  0  0  0  0  0  0  0  0  0  0
   -3.7270   -2.4491    0.6644 H   0  0  0  0  0  0  0  0  0  0  0  0
   -3.1040   -3.0902   -0.8758 H   0  0  0  0  0  0  0  0  0  0  0  0
   -1.5918   -2.3168    0.4401 C   0  0  0  0  0  0  0  0  0  0  0  0
   -0.7154   -2.8720    1.0878 O   0  0  0  0  0  0  0  0  0  0  0  0
   -1.3857   -1.0482   -0.0630 N   0  0  0  0  0  0  0  0  0  0  0  0
   -2.1064   -0.7001   -0.6931 H   0  0  0  0  0  0  0  0  0  0  0  0
   -0.0652   -0.4114   -0.1473 C   0  0  1  0  0  0  0  0  0  0  0  0
    0.6325   -0.9305    0.5177 H   0  0  0  0  0  0  0  0  0  0  0  0
    0.5516   -0.4123   -1.5825 C   0  0  0  0  0  0  0  0  0  0  0  0
    0.7755    0.6188   -1.8715 H   0  0  0  0  0  0  0  0  0  0  0  0
    1.5082   -0.9376   -1.5233 H   0  0  0  0  0  0  0  0  0  0  0  0
   -0.2097   -1.0386   -2.7587 C   0  0  0  0  0  0  0  0  0  0  0  0
   -1.1697   -1.7852   -2.6904 O   0  0  0  0  0  0  0  0  0  0  0  0
    0.1776   -0.7635   -4.0390 N   0  0  0  0  0  0  0  0  0  0  0  0
   -0.4644   -1.0624   -4.7676 H   0  0  0  0  0  0  0  0  0  0  0  0
    0.8118    0.0104   -4.2051 H   0  0  0  0  0  0  0  0  0  0  0  0
   -0.1617    1.0442    0.3544 C   0  0  0  0  0  0  0  0  0  0  0  0
   -1.0118    1.7975   -0.1051 O   0  0  0  0  0  0  0  0  0  0  0  0
    0.7936    1.5493    1.2177 N   0  0  0  0  0  0  0  0  0  0  0  0
    1.4399    0.8876    1.6384 H   0  0  0  0  0  0  0  0  0  0  0  0
    0.7658    2.9171    1.7222 C   0  0  0  0  0  0  0  0  0  0  0  0
   -0.1452    3.0921    2.3041 H   0  0  0  0  0  0  0  0  0  0  0  0
    1.6305    3.0999    2.3674 H   0  0  0  0  0  0  0  0  0  0  0  0
    0.7976    3.6328    0.8940 H   0  0  0  0  0  0  0  0  0  0  0  0
  1  2  1  0  0  0  0
  2  3  1  0  0  0  0
  2  4  1  0  0  0  0
  2  5  1  0  0  0  0
  5  6  2  0  0  0  0
  5  7  1  0  0  0  0
  7  8  1  0  0  0  0
  7  9  1  0  0  0  0
  9 10  1  0  0  0  0
  9 11  1  0  0  0  0
  9 19  1  0  0  0  0
 11 12  1  0  0  0  0
 11 13  1  0  0  0  0
 11 14  1  0  0  0  0
 14 15  2  0  0  0  0
 14 16  1  0  0  0  0
 16 17  1  0  0  0  0
 16 18  1  0  0  0  0
 19 20  2  0  0  0  0
 19 21  1  0  0  0  0
 21 22  1  0  0  0  0
 21 23  1  0  0  0  0
 23 24  1  0  0  0  0
 23 25  1  0  0  0  0
 23 26  1  0  0  0  0
M  END
$$$$

  -OEChem-04042215573D

 26 25  0     1  0  0  0  0  0999 V2000
   -2.9043   -4.0171    0.6176 H   0  0  0  0  0  0  0  0  0  0  0  0
   -2.9232   -3.0070    0.1997 C   0  0  0  0  0  0  0  0  0  0  0  0
   -3.7345   -2.4445    0.6678 H   0  0  0  0  0  0  0  0  0  0  0  0
   -3.1087   -3.0741   -0.8754 H   0  0  0  0  0  0  0  0  0  0  0  0
   -1.5988   -2.3105    0.4483 C   0  0  0  0  0  0  0  0  0  0  0  0
   -0.7211   -2.8718    1.0888 O   0  0  0  0  0  0  0  0  0  0  0  0
   -1.3897   -1.0434   -0.0553 N   0  0  0  0  0  0  0  0  0  0  0  0
   -2.0992   -0.7083   -0.7064 H   0  0  0  0  0  0  0  0  0  0  0  0
   -0.0689   -0.4093   -0.1422 C   0  0  1  0  0  0  0  0  0  0  0  0
    0.6278   -0.9286    0.5236 H   0  0  0  0  0  0  0  0  0  0  0  0
    0.5444   -0.4185   -1.5792 C   0  0  0  0  0  0  0  0  0  0  0  0
    0.7688    0.6106   -1.8756 H   0  0  0  0  0  0  0  0  0  0  0  0
    1.5004   -0.9450   -1.5156 H   0  0  0  0  0  0  0  0  0  0  0  0
   -0.2171   -1.0477   -2.7549 C   0  0  0  0  0  0  0  0  0  0  0  0
   -1.3134   -1.5783   -2.7170 O   0  0  0  0  0  0  0  0  0  0  0  0
    0.3339   -1.0260   -4.0041 N   0  0  0  0  0  0  0  0  0  0  0  0
   -0.2845   -1.2941   -4.7644 H   0  0  0  0  0  0  0  0  0  0  0  0
    1.1305   -0.4241   -4.1823 H   0  0  0  0  0  0  0  0  0  0  0  0
   -0.1586    1.0477    0.3580 C   0  0  0  0  0  0  0  0  0  0  0  0
   -1.0096    1.8036   -0.0950 O   0  0  0  0  0  0  0  0  0  0  0  0
    0.8006    1.5507    1.2186 N   0  0  0  0  0  0  0  0  0  0  0  0
    1.4454    0.8874    1.6389 H   0  0  0  0  0  0  0  0  0  0  0  0
    0.7714    2.9168    1.7279 C   0  0  0  0  0  0  0  0  0  0  0  0
   -0.1397    3.0881    2.3109 H   0  0  0  0  0  0  0  0  0  0  0  0
    1.6358    3.0991    2.3736 H   0  0  0  0  0  0  0  0  0  0  0  0
    0.8013    3.6351    0.9017 H   0  0  0  0  0  0  0  0  0  0  0  0
  1  2  1  0  0  0  0
  2  3  1  0  0  0  0
  2  4  1  0  0  0  0
  2  5  1  0  0  0  0
  5  6  2  0  0  0  0
  5  7  1  0  0  0  0
  7  8  1  0  0  0  0
  7  9  1  0  0  0  0
  9 10  1  0  0  0  0
  9 11  1  0  0  0  0
  9 19  1  0  0  0  0
 11 12  1  0  0  0  0
 11 13  1  0  0  0  0
 11 14  1  0  0  0  0
 14 15  2  0  0  0  0
 14 16  1  0  0  0  0
 16 17  1  0  0  0  0
 16 18  1  0  0  0  0
 19 20  2  0  0  0  0
 19 21  1  0  0  0  0
 21 22  1  0  0  0  0
 21 23  1  0  0  0  0
 23 24  1  0  0  0  0
 23 25  1  0  0  0  0
 23 26  1  0  0  0  0
M  END
$$$$

  -OEChem-04042215573D

 26 25  0     1  0  0  0  0  0999 V2000
   -2.8854   -4.0213    0.5544 H   0  0  0  0  0  0  0  0  0  0  0  0
   -2.9190   -2.9934    0.1830 C   0  0  0  0  0  0  0  0  0  0  0  0
   -3.7029   -2.4493    0.7151 H   0  0  0  0  0  0  0  0  0  0  0  0
   -3.1587   -3.0115   -0.8834 H   0  0  0  0  0  0  0  0  0  0  0  0
   -1.5803   -2.3127    0.3977 C   0  0  0  0  0  0  0  0  0  0  0  0
   -0.6753   -2.9029    0.9705 O   0  0  0  0  0  0  0  0  0  0  0  0
   -1.3841   -1.0316   -0.0734 N   0  0  0  0  0  0  0  0  0  0  0  0
   -2.1154   -0.6670   -0.6849 H   0  0  0  0  0  0  0  0  0  0  0  0
   -0.0743   -0.3754   -0.1597 C   0  0  1  0  0  0  0  0  0  0  0  0
    0.6326   -0.9012    0.4900 H   0  0  0  0  0  0  0  0  0  0  0  0
    0.5252   -0.3596   -1.6008 C   0  0  0  0  0  0  0  0  0  0  0  0
    0.7240    0.6757   -1.8935 H   0  0  0  0  0  0  0  0  0  0  0  0
    1.4920   -0.8663   -1.5502 H   0  0  0  0  0  0  0  0  0  0  0  0
   -0.2455   -0.9908   -2.7690 C   0  0  0  0  0  0  0  0  0  0  0  0
   -1.4232   -1.3051   -2.7756 O   0  0  0  0  0  0  0  0  0  0  0  0
    0.3967   -1.2449   -3.9473 N   0  0  0  0  0  0  0  0  0  0  0  0
   -0.1194   -1.7871   -4.6343 H   0  0  0  0  0  0  0  0  0  0  0  0
    1.4075   -1.1790   -3.9943 H   0  0  0  0  0  0  0  0  0  0  0  0
   -0.1687    1.0687    0.3763 C   0  0  0  0  0  0  0  0  0  0  0  0
   -1.0461    1.8222   -0.0260 O   0  0  0  0  0  0  0  0  0  0  0  0
    0.7991    1.5593    1.2346 N   0  0  0  0  0  0  0  0  0  0  0  0
    1.4747    0.8989    1.6079 H   0  0  0  0  0  0  0  0  0  0  0  0
    0.7692    2.9133    1.7754 C   0  0  0  0  0  0  0  0  0  0  0  0
   -0.1364    3.0675    2.3715 H   0  0  0  0  0  0  0  0  0  0  0  0
    1.6395    3.0845    2.4162 H   0  0  0  0  0  0  0  0  0  0  0  0
    0.7876    3.6504    0.9656 H   0  0  0  0  0  0  0  0  0  0  0  0
  1  2  1  0  0  0  0
  2  3  1  0  0  0  0
  2  4  1  0  0  0  0
  2  5  1  0  0  0  0
  5  6  2  0  0  0  0
  5  7  1  0  0  0  0
  7  8  1  0  0  0  0
  7  9  1  0  0  0  0
  9 10  1  0  0  0  0
  9 11  1  0  0  0  0
  9 19  1  0  0  0  0
 11 12  1  0  0  0  0
 11 13  1  0  0  0  0
 11 14  1  0  0  0  0
 14 15  2  0  0  0  0
 14 16  1  0  0  0  0
 16 17  1  0  0  0  0
 16 18  1  0  0  0  0
 19 20  2  0  0  0  0
 19 21  1  0  0  0  0
 21 22  1  0  0  0  0
 21 23  1  0  0  0  0
 23 24  1  0  0  0  0
 23 25  1  0  0  0  0
 23 26  1  0  0  0  0
M  END
$$$$

  -OEChem-04042215573D

 26 25  0     1  0  0  0  0  0999 V2000
   -2.8823   -4.0137    0.5133 H   0  0  0  0  0  0  0  0  0  0  0  0
   -2.9138   -2.9803    0.1578 C   0  0  0  0  0  0  0  0  0  0  0  0
   -3.6846   -2.4388    0.7114 H   0  0  0  0  0  0  0  0  0  0  0  0
   -3.1708   -2.9797   -0.9048 H   0  0  0  0  0  0  0  0  0  0  0  0
   -1.5668   -2.3132    0.3615 C   0  0  0  0  0  0  0  0  0  0  0  0
   -0.6554   -2.9197    0.9059 O   0  0  0  0  0  0  0  0  0  0  0  0
   -1.3663   -1.0293   -0.0983 N   0  0  0  0  0  0  0  0  0  0  0  0
   -2.1048   -0.6417   -0.6875 H   0  0  0  0  0  0  0  0  0  0  0  0
   -0.0605   -0.3631   -0.1660 C   0  0  1  0  0  0  0  0  0  0  0  0
    0.6411   -0.8887    0.4893 H   0  0  0  0  0  0  0  0  0  0  0  0
    0.5489   -0.3502   -1.6006 C   0  0  0  0  0  0  0  0  0  0  0  0
    0.7385    0.6839   -1.9035 H   0  0  0  0  0  0  0  0  0  0  0  0
    1.5202   -0.8478   -1.5443 H   0  0  0  0  0  0  0  0  0  0  0  0
   -0.2304   -0.9987   -2.7517 C   0  0  0  0  0  0  0  0  0  0  0  0
   -1.4446   -1.0767   -2.8313 O   0  0  0  0  0  0  0  0  0  0  0  0
    0.4341   -1.5528   -3.8087 N   0  0  0  0  0  0  0  0  0  0  0  0
   -0.1297   -2.0935   -4.4582 H   0  0  0  0  0  0  0  0  0  0  0  0
    1.4345   -1.7062   -3.7451 H   0  0  0  0  0  0  0  0  0  0  0  0
   -0.1644    1.0781    0.3754 C   0  0  0  0  0  0  0  0  0  0  0  0
   -1.0504    1.8261   -0.0176 O   0  0  0  0  0  0  0  0  0  0  0  0
    0.7941    1.5670    1.2451 N   0  0  0  0  0  0  0  0  0  0  0  0
    1.4767    0.9098    1.6109 H   0  0  0  0  0  0  0  0  0  0  0  0
    0.7559    2.9171    1.7944 C   0  0  0  0  0  0  0  0  0  0  0  0
   -0.1528    3.0641    2.3875 H   0  0  0  0  0  0  0  0  0  0  0  0
    1.6228    3.0874    2.4400 H   0  0  0  0  0  0  0  0  0  0  0  0
    0.7751    3.6593    0.9894 H   0  0  0  0  0  0  0  0  0  0  0  0
  1  2  1  0  0  0  0
  2  3  1  0  0  0  0
  2  4  1  0  0  0  0
  2  5  1  0  0  0  0
  5  6  2  0  0  0  0
  5  7  1  0  0  0  0
  7  8  1  0  0  0  0
  7  9  1  0  0  0  0
  9 10  1  0  0  0  0
  9 11  1  0  0  0  0
  9 19  1  0  0  0  0
 11 12  1  0  0  0  0
 11 13  1  0  0  0  0
 11 14  1  0  0  0  0
 14 15  2  0  0  0  0
 14 16  1  0  0  0  0
 16 17  1  0  0  0  0
 16 18  1  0  0  0  0
 19 20  2  0  0  0  0
 19 21  1  0  0  0  0
 21 22  1  0  0  0  0
 21 23  1  0  0  0  0
 23 24  1  0  0  0  0
 23 25  1  0  0  0  0
 23 26  1  0  0  0  0
M  END
$$$$

  -OEChem-04042215573D

 26 25  0     1  0  0  0  0  0999 V2000
   -2.8733   -3.9999    0.4796 H   0  0  0  0  0  0  0  0  0  0  0  0
   -2.9010   -2.9635    0.1321 C   0  0  0  0  0  0  0  0  0  0  0  0
   -3.6447   -2.4145    0.7147 H   0  0  0  0  0  0  0  0  0  0  0  0
   -3.1933   -2.9513   -0.9212 H   0  0  0  0  0  0  0  0  0  0  0  0
   -1.5387   -2.3175    0.2966 C   0  0  0  0  0  0  0  0  0  0  0  0
   -0.6131   -2.9473    0.7879 O   0  0  0  0  0  0  0  0  0  0  0  0
   -1.3377   -1.0272   -0.1437 N   0  0  0  0  0  0  0  0  0  0  0  0
   -2.0971   -0.5984   -0.6750 H   0  0  0  0  0  0  0  0  0  0  0  0
   -0.0382   -0.3454   -0.1875 C   0  0  1  0  0  0  0  0  0  0  0  0
    0.6584   -0.8719    0.4728 H   0  0  0  0  0  0  0  0  0  0  0  0
    0.5829   -0.3296   -1.6141 C   0  0  0  0  0  0  0  0  0  0  0  0
    0.7556    0.7048   -1.9259 H   0  0  0  0  0  0  0  0  0  0  0  0
    1.5617   -0.8118   -1.5577 H   0  0  0  0  0  0  0  0  0  0  0  0
   -0.2088   -0.9985   -2.7416 C   0  0  0  0  0  0  0  0  0  0  0  0
   -1.4054   -0.8518   -2.9225 O   0  0  0  0  0  0  0  0  0  0  0  0
    0.3949   -1.8695   -3.6036 N   0  0  0  0  0  0  0  0  0  0  0  0
   -0.2298   -2.4088   -4.1961 H   0  0  0  0  0  0  0  0  0  0  0  0
    1.3167   -2.2271   -3.3770 H   0  0  0  0  0  0  0  0  0  0  0  0
   -0.1563    1.0896    0.3676 C   0  0  0  0  0  0  0  0  0  0  0  0
   -1.0599    1.8262   -0.0053 O   0  0  0  0  0  0  0  0  0  0  0  0
    0.7895    1.5767    1.2522 N   0  0  0  0  0  0  0  0  0  0  0  0
    1.4854    0.9259    1.6042 H   0  0  0  0  0  0  0  0  0  0  0  0
    0.7306    2.9177    1.8223 C   0  0  0  0  0  0  0  0  0  0  0  0
   -0.1876    3.0470    2.4048 H   0  0  0  0  0  0  0  0  0  0  0  0
    1.5863    3.0864    2.4831 H   0  0  0  0  0  0  0  0  0  0  0  0
    0.7539    3.6727    1.0294 H   0  0  0  0  0  0  0  0  0  0  0  0
  1  2  1  0  0  0  0
  2  3  1  0  0  0  0
  2  4  1  0  0  0  0
  2  5  1  0  0  0  0
  5  6  2  0  0  0  0
  5  7  1  0  0  0  0
  7  8  1  0  0  0  0
  7  9  1  0  0  0  0
  9 10  1  0  0  0  0
  9 11  1  0  0  0  0
  9 19  1  0  0  0  0
 11 12  1  0  0  0  0
 11 13  1  0  0  0  0
 11 14  1  0  0  0  0
 14 15  2  0  0  0  0
 14 16  1  0  0  0  0
 16 17  1  0  0  0  0
 16 18  1  0  0  0  0
 19 20  2  0  0  0  0
 19 21  1  0  0  0  0
 21 22  1  0  0  0  0
 21 23  1  0  0  0  0
 23 24  1  0  0  0  0
 23 25  1  0  0  0  0
 23 26  1  0  0  0  0
M  END
$$$$

  -OEChem-04042215573D

 26 25  0     1  0  0  0  0  0999 V2000
   -2.8674   -3.9767    0.4692 H   0  0  0  0  0  0  0  0  0  0  0  0
   -2.8909   -2.9397    0.1230 C   0  0  0  0  0  0  0  0  0  0  0  0
   -3.5971   -2.3775    0.7390 H   0  0  0  0  0  0  0  0  0  0  0  0
   -3.2306   -2.9214   -0.9157 H   0  0  0  0  0  0  0  0  0  0  0  0
   -1.5100   -2.3206    0.2247 C   0  0  0  0  0  0  0  0  0  0  0  0
   -0.5679   -2.9782    0.6421 O   0  0  0  0  0  0  0  0  0  0  0  0
   -1.3077   -1.0254   -0.1999 N   0  0  0  0  0  0  0  0  0  0  0  0
   -2.0967   -0.5435   -0.6333 H   0  0  0  0  0  0  0  0  0  0  0  0
   -0.0126   -0.3319   -0.2212 C   0  0  1  0  0  0  0  0  0  0  0  0
    0.6746   -0.8581    0.4491 H   0  0  0  0  0  0  0  0  0  0  0  0
    0.6288   -0.3200   -1.6349 C   0  0  0  0  0  0  0  0  0  0  0  0
    0.7868    0.7134   -1.9582 H   0  0  0  0  0  0  0  0  0  0  0  0
    1.6132   -0.7900   -1.5734 H   0  0  0  0  0  0  0  0  0  0  0  0
   -0.1690   -1.0119   -2.7387 C   0  0  0  0  0  0  0  0  0  0  0  0
   -1.2916   -0.6701   -3.0652 O   0  0  0  0  0  0  0  0  0  0  0  0
    0.2954   -2.1425   -3.3484 N   0  0  0  0  0  0  0  0  0  0  0  0
   -0.3897   -2.6530   -3.8978 H   0  0  0  0  0  0  0  0  0  0  0  0
    1.0671   -2.6403   -2.9170 H   0  0  0  0  0  0  0  0  0  0  0  0
   -0.1455    1.0975    0.3438 C   0  0  0  0  0  0  0  0  0  0  0  0
   -1.0815    1.8111    0.0085 O   0  0  0  0  0  0  0  0  0  0  0  0
    0.7864    1.5849    1.2429 N   0  0  0  0  0  0  0  0  0  0  0  0
    1.5198    0.9550    1.5540 H   0  0  0  0  0  0  0  0  0  0  0  0
    0.6925    2.9081    1.8487 C   0  0  0  0  0  0  0  0  0  0  0  0
   -0.2380    3.0032    2.4183 H   0  0  0  0  0  0  0  0  0  0  0  0
    1.5331    3.0735    2.5293 H   0  0  0  0  0  0  0  0  0  0  0  0
    0.7149    3.6856    1.0777 H   0  0  0  0  0  0  0  0  0  0  0  0
  1  2  1  0  0  0  0
  2  3  1  0  0  0  0
  2  4  1  0  0  0  0
  2  5  1  0  0  0  0
  5  6  2  0  0  0  0
  5  7  1  0  0  0  0
  7  8  1  0  0  0  0
  7  9  1  0  0  0  0
  9 10  1  0  0  0  0
  9 11  1  0  0  0  0
  9 19  1  0  0  0  0
 11 12  1  0  0  0  0
 11 13  1  0  0  0  0
 11 14  1  0  0  0  0
 14 15  2  0  0  0  0
 14 16  1  0  0  0  0
 16 17  1  0  0  0  0
 16 18  1  0  0  0  0
 19 20  2  0  0  0  0
 19 21  1  0  0  0  0
 21 22  1  0  0  0  0
 21 23  1  0  0  0  0
 23 24  1  0  0  0  0
 23 25  1  0  0  0  0
 23 26  1  0  0  0  0
M  END
$$$$

  -OEChem-04042215573D

 26 25  0     1  0  0  0  0  0999 V2000
   -2.8691   -3.9496    0.5056 H   0  0  0  0  0  0  0  0  0  0  0  0
   -2.8914   -2.9153    0.1516 C   0  0  0  0  0  0  0  0  0  0  0  0
   -3.5399   -2.3314    0.8092 H   0  0  0  0  0  0  0  0  0  0  0  0
   -3.3016   -2.8968   -0.8612 H   0  0  0  0  0  0  0  0  0  0  0  0
   -1.4924   -2.3295    0.1521 C   0  0  0  0  0  0  0  0  0  0  0  0
   -0.5318   -3.0207    0.4585 O   0  0  0  0  0  0  0  0  0  0  0  0
   -1.2913   -1.0297   -0.2583 N   0  0  0  0  0  0  0  0  0  0  0  0
   -2.1084   -0.4908   -0.5481 H   0  0  0  0  0  0  0  0  0  0  0  0
    0.0011   -0.3292   -0.2554 C   0  0  1  0  0  0  0  0  0  0  0  0
    0.6739   -0.8555    0.4294 H   0  0  0  0  0  0  0  0  0  0  0  0
    0.6756   -0.3251   -1.6503 C   0  0  0  0  0  0  0  0  0  0  0  0
    0.8318    0.7061   -1.9816 H   0  0  0  0  0  0  0  0  0  0  0  0
    1.6612   -0.7907   -1.5717 H   0  0  0  0  0  0  0  0  0  0  0  0
   -0.1103   -1.0360   -2.7466 C   0  0  0  0  0  0  0  0  0  0  0  0
   -1.0990   -0.5517   -3.2651 O   0  0  0  0  0  0  0  0  0  0  0  0
    0.1677   -2.3277   -3.0930 N   0  0  0  0  0  0  0  0  0  0  0  0
   -0.5533   -2.7880   -3.6403 H   0  0  0  0  0  0  0  0  0  0  0  0
    0.7259   -2.8764   -2.4457 H   0  0  0  0  0  0  0  0  0  0  0  0
   -0.1464    1.0943    0.3190 C   0  0  0  0  0  0  0  0  0  0  0  0
   -1.1104    1.7839    0.0141 O   0  0  0  0  0  0  0  0  0  0  0  0
    0.7699    1.5799    1.2346 N   0  0  0  0  0  0  0  0  0  0  0  0
    1.5313    0.9691    1.5151 H   0  0  0  0  0  0  0  0  0  0  0  0
    0.6560    2.8934    1.8575 C   0  0  0  0  0  0  0  0  0  0  0  0
   -0.2849    2.9751    2.4121 H   0  0  0  0  0  0  0  0  0  0  0  0
    1.4831    3.0536    2.5556 H   0  0  0  0  0  0  0  0  0  0  0  0
    0.6871    3.6817    1.0980 H   0  0  0  0  0  0  0  0  0  0  0  0
  1  2  1  0  0  0  0
  2  3  1  0  0  0  0
  2  4  1  0  0  0  0
  2  5  1  0  0  0  0
  5  6  2  0  0  0  0
  5  7  1  0  0  0  0
  7  8  1  0  0  0  0
  7  9  1  0  0  0  0
  9 10  1  0  0  0  0
  9 11  1  0  0  0  0
  9 19  1  0  0  0  0
 11 12  1  0  0  0  0
 11 13  1  0  0  0  0
 11 14  1  0  0  0  0
 14 15  2  0  0  0  0
 14 16  1  0  0  0  0
 16 17  1  0  0  0  0
 16 18  1  0  0  0  0
 19 20  2  0  0  0  0
 19 21  1  0  0  0  0
 21 22  1  0  0  0  0
 21 23  1  0  0  0  0
 23 24  1  0  0  0  0
 23 25  1  0  0  0  0
 23 26  1  0  0  0  0
M  END
$$$$

  -OEChem-04042215573D

 26 25  0     1  0  0  0  0  0999 V2000
   -2.8894   -3.9183    0.5761 H   0  0  0  0  0  0  0  0  0  0  0  0
   -2.9135   -2.8825    0.2262 C   0  0  0  0  0  0  0  0  0  0  0  0
   -3.4972   -2.2863    0.9317 H   0  0  0  0  0  0  0  0  0  0  0  0
   -3.3984   -2.8510   -0.7526 H   0  0  0  0  0  0  0  0  0  0  0  0
   -1.5043   -2.3308    0.1227 C   0  0  0  0  0  0  0  0  0  0  0  0
   -0.5391   -3.0510    0.3333 O   0  0  0  0  0  0  0  0  0  0  0  0
   -1.2988   -1.0319   -0.2894 N   0  0  0  0  0  0  0  0  0  0  0  0
   -2.1234   -0.4554   -0.4620 H   0  0  0  0  0  0  0  0  0  0  0  0
   -0.0015   -0.3385   -0.2734 C   0  0  1  0  0  0  0  0  0  0  0  0
    0.6540   -0.8651    0.4283 H   0  0  0  0  0  0  0  0  0  0  0  0
    0.7065   -0.3518   -1.6504 C   0  0  0  0  0  0  0  0  0  0  0  0
    0.8764    0.6754   -1.9878 H   0  0  0  0  0  0  0  0  0  0  0  0
    1.6866   -0.8239   -1.5465 H   0  0  0  0  0  0  0  0  0  0  0  0
   -0.0592   -1.0725   -2.7525 C   0  0  0  0  0  0  0  0  0  0  0  0
   -0.8548   -0.5032   -3.4750 O   0  0  0  0  0  0  0  0  0  0  0  0
    0.0429   -2.4249   -2.9161 N   0  0  0  0  0  0  0  0  0  0  0  0
   -0.6641   -2.8360   -3.5176 H   0  0  0  0  0  0  0  0  0  0  0  0
    0.3930   -2.9606   -2.1251 H   0  0  0  0  0  0  0  0  0  0  0  0
   -0.1516    1.0863    0.2971 C   0  0  0  0  0  0  0  0  0  0  0  0
   -1.1351    1.7573    0.0133 O   0  0  0  0  0  0  0  0  0  0  0  0
    0.7541    1.5728    1.2228 N   0  0  0  0  0  0  0  0  0  0  0  0
    1.5369    0.9792    1.4808 H   0  0  0  0  0  0  0  0  0  0  0  0
    0.6223    2.8788    1.8582 C   0  0  0  0  0  0  0  0  0  0  0  0
   -0.3169    2.9399    2.4181 H   0  0  0  0  0  0  0  0  0  0  0  0
    1.4504    3.0474    2.5535 H   0  0  0  0  0  0  0  0  0  0  0  0
    0.6357    3.6742    1.1054 H   0  0  0  0  0  0  0  0  0  0  0  0
  1  2  1  0  0  0  0
  2  3  1  0  0  0  0
  2  4  1  0  0  0  0
  2  5  1  0  0  0  0
  5  6  2  0  0  0  0
  5  7  1  0  0  0  0
  7  8  1  0  0  0  0
  7  9  1  0  0  0  0
  9 10  1  0  0  0  0
  9 11  1  0  0  0  0
  9 19  1  0  0  0  0
 11 12  1  0  0  0  0
 11 13  1  0  0  0  0
 11 14  1  0  0  0  0
 14 15  2  0  0  0  0
 14 16  1  0  0  0  0
 16 17  1  0  0  0  0
 16 18  1  0  0  0  0
 19 20  2  0  0  0  0
 19 21  1  0  0  0  0
 21 22  1  0  0  0  0
 21 23  1  0  0  0  0
 23 24  1  0  0  0  0
 23 25  1  0  0  0  0
 23 26  1  0  0  0  0
M  END
$$$$

  -OEChem-04042215573D

 26 25  0     1  0  0  0  0  0999 V2000
   -2.9265   -3.8828    0.6700 H   0  0  0  0  0  0  0  0  0  0  0  0
   -2.9471   -2.8491    0.3137 C   0  0  0  0  0  0  0  0  0  0  0  0
   -3.4811   -2.2359    1.0440 H   0  0  0  0  0  0  0  0  0  0  0  0
   -3.4809   -2.8142   -0.6394 H   0  0  0  0  0  0  0  0  0  0  0  0
   -1.5340   -2.3286    0.1341 C   0  0  0  0  0  0  0  0  0  0  0  0
   -0.5744   -3.0710    0.2836 O   0  0  0  0  0  0  0  0  0  0  0  0
   -1.3206   -1.0338   -0.2858 N   0  0  0  0  0  0  0  0  0  0  0  0
   -2.1414   -0.4353   -0.3889 H   0  0  0  0  0  0  0  0  0  0  0  0
   -0.0161   -0.3529   -0.2708 C   0  0  1  0  0  0  0  0  0  0  0  0
    0.6299   -0.8813    0.4385 H   0  0  0  0  0  0  0  0  0  0  0  0
    0.7065   -0.3749   -1.6399 C   0  0  0  0  0  0  0  0  0  0  0  0
    0.8913    0.6505   -1.9749 H   0  0  0  0  0  0  0  0  0  0  0  0
    1.6800   -0.8577   -1.5239 H   0  0  0  0  0  0  0  0  0  0  0  0
   -0.0487   -1.0919   -2.7513 C   0  0  0  0  0  0  0  0  0  0  0  0
   -0.6168   -0.4913   -3.6433 O   0  0  0  0  0  0  0  0  0  0  0  0
   -0.0832   -2.4564   -2.8183 N   0  0  0  0  0  0  0  0  0  0  0  0
   -0.7407   -2.8397   -3.4900 H   0  0  0  0  0  0  0  0  0  0  0  0
    0.1101   -2.9681   -1.9583 H   0  0  0  0  0  0  0  0  0  0  0  0
   -0.1630    1.0748    0.2928 C   0  0  0  0  0  0  0  0  0  0  0  0
   -1.1558    1.7361    0.0179 O   0  0  0  0  0  0  0  0  0  0  0  0
    0.7396    1.5636    1.2199 N   0  0  0  0  0  0  0  0  0  0  0  0
    1.5349    0.9808    1.4644 H   0  0  0  0  0  0  0  0  0  0  0  0
    0.6052    2.8717    1.8507 C   0  0  0  0  0  0  0  0  0  0  0  0
   -0.3351    2.9337    2.4086 H   0  0  0  0  0  0  0  0  0  0  0  0
    1.4316    3.0432    2.5472 H   0  0  0  0  0  0  0  0  0  0  0  0
    0.6192    3.6648    1.0954 H   0  0  0  0  0  0  0  0  0  0  0  0
  1  2  1  0  0  0  0
  2  3  1  0  0  0  0
  2  4  1  0  0  0  0
  2  5  1  0  0  0  0
  5  6  2  0  0  0  0
  5  7  1  0  0  0  0
  7  8  1  0  0  0  0
  7  9  1  0  0  0  0
  9 10  1  0  0  0  0
  9 11  1  0  0  0  0
  9 19  1  0  0  0  0
 11 12  1  0  0  0  0
 11 13  1  0  0  0  0
 11 14  1  0  0  0  0
 14 15  2  0  0  0  0
 14 16  1  0  0  0  0
 16 17  1  0  0  0  0
 16 18  1  0  0  0  0
 19 20  2  0  0  0  0
 19 21  1  0  0  0  0
 21 22  1  0  0  0  0
 21 23  1  0  0  0  0
 23 24  1  0  0  0  0
 23 25  1  0  0  0  0
 23 26  1  0  0  0  0
M  END
$$$$

  -OEChem-04042215573D

 26 25  0     1  0  0  0  0  0999 V2000
   -2.9722   -3.8524    0.7514 H   0  0  0  0  0  0  0  0  0  0  0  0
   -2.9871   -2.8218    0.3865 C   0  0  0  0  0  0  0  0  0  0  0  0
   -3.4915   -2.1945    1.1255 H   0  0  0  0  0  0  0  0  0  0  0  0
   -3.5462   -2.7870   -0.5517 H   0  0  0  0  0  0  0  0  0  0  0  0
   -1.5723   -2.3231    0.1639 C   0  0  0  0  0  0  0  0  0  0  0  0
   -0.6202   -3.0809    0.2757 O   0  0  0  0  0  0  0  0  0  0  0  0
   -1.3522   -1.0311   -0.2613 N   0  0  0  0  0  0  0  0  0  0  0  0
   -2.1680   -0.4202   -0.3232 H   0  0  0  0  0  0  0  0  0  0  0  0
   -0.0421   -0.3595   -0.2595 C   0  0  1  0  0  0  0  0  0  0  0  0
    0.6050   -0.8907    0.4466 H   0  0  0  0  0  0  0  0  0  0  0  0
    0.6779   -0.3800   -1.6310 C   0  0  0  0  0  0  0  0  0  0  0  0
    0.8692    0.6467   -1.9592 H   0  0  0  0  0  0  0  0  0  0  0  0
    1.6485   -0.8694   -1.5165 H   0  0  0  0  0  0  0  0  0  0  0  0
   -0.0737   -1.0877   -2.7513 C   0  0  0  0  0  0  0  0  0  0  0  0
   -0.4031   -0.5107   -3.7699 O   0  0  0  0  0  0  0  0  0  0  0  0
   -0.2168   -2.4470   -2.7583 N   0  0  0  0  0  0  0  0  0  0  0  0
   -0.8039   -2.8281   -3.4932 H   0  0  0  0  0  0  0  0  0  0  0  0
   -0.1298   -2.9375   -1.8682 H   0  0  0  0  0  0  0  0  0  0  0  0
   -0.1796    1.0699    0.3025 C   0  0  0  0  0  0  0  0  0  0  0  0
   -1.1752    1.7311    0.0366 O   0  0  0  0  0  0  0  0  0  0  0  0
    0.7315    1.5575    1.2219 N   0  0  0  0  0  0  0  0  0  0  0  0
    1.5359    0.9800    1.4489 H   0  0  0  0  0  0  0  0  0  0  0  0
    0.6115    2.8708    1.8444 C   0  0  0  0  0  0  0  0  0  0  0  0
   -0.3259    2.9455    2.4057 H   0  0  0  0  0  0  0  0  0  0  0  0
    1.4421    3.0387    2.5367 H   0  0  0  0  0  0  0  0  0  0  0  0
    0.6301    3.6583    1.0836 H   0  0  0  0  0  0  0  0  0  0  0  0
  1  2  1  0  0  0  0
  2  3  1  0  0  0  0
  2  4  1  0  0  0  0
  2  5  1  0  0  0  0
  5  6  2  0  0  0  0
  5  7  1  0  0  0  0
  7  8  1  0  0  0  0
  7  9  1  0  0  0  0
  9 10  1  0  0  0  0
  9 11  1  0  0  0  0
  9 19  1  0  0  0  0
 11 12  1  0  0  0  0
 11 13  1  0  0  0  0
 11 14  1  0  0  0  0
 14 15  2  0  0  0  0
 14 16  1  0  0  0  0
 16 17  1  0  0  0  0
 16 18  1  0  0  0  0
 19 20  2  0  0  0  0
 19 21  1  0  0  0  0
 21 22  1  0  0  0  0
 21 23  1  0  0  0  0
 23 24  1  0  0  0  0
 23 25  1  0  0  0  0
 23 26  1  0  0  0  0
M  END
$$$$

  -OEChem-04042215573D

 26 25  0     1  0  0  0  0  0999 V2000
   -3.0204   -3.8258    0.8227 H   0  0  0  0  0  0  0  0  0  0  0  0
   -3.0352   -2.7982    0.4492 C   0  0  0  0  0  0  0  0  0  0  0  0
   -3.5409   -2.1648    1.1821 H   0  0  0  0  0  0  0  0  0  0  0  0
   -3.5930   -2.7715   -0.4903 H   0  0  0  0  0  0  0  0  0  0  0  0
   -1.6197   -2.3022    0.2241 C   0  0  0  0  0  0  0  0  0  0  0  0
   -0.6688   -3.0598    0.3513 O   0  0  0  0  0  0  0  0  0  0  0  0
   -1.3968   -1.0125   -0.2085 N   0  0  0  0  0  0  0  0  0  0  0  0
   -2.2092   -0.3977   -0.2728 H   0  0  0  0  0  0  0  0  0  0  0  0
   -0.0798   -0.3564   -0.2396 C   0  0  1  0  0  0  0  0  0  0  0  0
    0.5816   -0.8940    0.4486 H   0  0  0  0  0  0  0  0  0  0  0  0
    0.6065   -0.3699   -1.6304 C   0  0  0  0  0  0  0  0  0  0  0  0
    0.8051    0.6596   -1.9458 H   0  0  0  0  0  0  0  0  0  0  0  0
    1.5732   -0.8713   -1.5386 H   0  0  0  0  0  0  0  0  0  0  0  0
   -0.1582   -1.0513   -2.7608 C   0  0  0  0  0  0  0  0  0  0  0  0
   -0.2504   -0.5347   -3.8580 O   0  0  0  0  0  0  0  0  0  0  0  0
   -0.4851   -2.3779   -2.7168 N   0  0  0  0  0  0  0  0  0  0  0  0
   -0.6994   -2.8317   -3.5990 H   0  0  0  0  0  0  0  0  0  0  0  0
   -0.2463   -2.9214   -1.8883 H   0  0  0  0  0  0  0  0  0  0  0  0
   -0.1937    1.0741    0.3255 C   0  0  0  0  0  0  0  0  0  0  0  0
   -1.1825    1.7489    0.0680 O   0  0  0  0  0  0  0  0  0  0  0  0
    0.7409    1.5560    1.2239 N   0  0  0  0  0  0  0  0  0  0  0  0
    1.5386    0.9667    1.4441 H   0  0  0  0  0  0  0  0  0  0  0  0
    0.6467    2.8727    1.8441 C   0  0  0  0  0  0  0  0  0  0  0  0
   -0.2791    2.9588    2.4227 H   0  0  0  0  0  0  0  0  0  0  0  0
    1.4920    3.0345    2.5199 H   0  0  0  0  0  0  0  0  0  0  0  0
    0.6595    3.6577    1.0805 H   0  0  0  0  0  0  0  0  0  0  0  0
  1  2  1  0  0  0  0
  2  3  1  0  0  0  0
  2  4  1  0  0  0  0
  2  5  1  0  0  0  0
  5  6  2  0  0  0  0
  5  7  1  0  0  0  0
  7  8  1  0  0  0  0
  7  9  1  0  0  0  0
  9 10  1  0  0  0  0
  9 11  1  0  0  0  0
  9 19  1  0  0  0  0
 11 12  1  0  0  0  0
 11 13  1  0  0  0  0
 11 14  1  0  0  0  0
 14 15  2  0  0  0  0
 14 16  1  0  0  0  0
 16 17  1  0  0  0  0
 16 18  1  0  0  0  0
 19 20  2  0  0  0  0
 19 21  1  0  0  0  0
 21 22  1  0  0  0  0
 21 23  1  0  0  0  0
 23 24  1  0  0  0  0
 23 25  1  0  0  0  0
 23 26  1  0  0  0  0
M  END
$$$$

  -OEChem-04042215573D

 26 25  0     1  0  0  0  0  0999 V2000
   -3.0429   -3.8036    0.8811 H   0  0  0  0  0  0  0  0  0  0  0  0
   -3.0610   -2.7745    0.5115 C   0  0  0  0  0  0  0  0  0  0  0  0
   -3.5360   -2.1391    1.2632 H   0  0  0  0  0  0  0  0  0  0  0  0
   -3.6495   -2.7397   -0.4088 H   0  0  0  0  0  0  0  0  0  0  0  0
   -1.6493   -2.2906    0.2406 C   0  0  0  0  0  0  0  0  0  0  0  0
   -0.7028   -3.0593    0.3212 O   0  0  0  0  0  0  0  0  0  0  0  0
   -1.4274   -0.9988   -0.1862 N   0  0  0  0  0  0  0  0  0  0  0  0
   -2.2367   -0.3773   -0.2179 H   0  0  0  0  0  0  0  0  0  0  0  0
   -0.1076   -0.3496   -0.2422 C   0  0  1  0  0  0  0  0  0  0  0  0
    0.5651   -0.8970    0.4269 H   0  0  0  0  0  0  0  0  0  0  0  0
    0.5578   -0.3411   -1.6452 C   0  0  0  0  0  0  0  0  0  0  0  0
    0.7566    0.6937   -1.9417 H   0  0  0  0  0  0  0  0  0  0  0  0
    1.5239   -0.8466   -1.5706 H   0  0  0  0  0  0  0  0  0  0  0  0
   -0.2050   -0.9946   -2.7942 C   0  0  0  0  0  0  0  0  0  0  0  0
   -0.0674   -0.5870   -3.9318 O   0  0  0  0  0  0  0  0  0  0  0  0
   -0.6725   -2.2767   -2.7249 N   0  0  0  0  0  0  0  0  0  0  0  0
   -0.7562   -2.7597   -3.6137 H   0  0  0  0  0  0  0  0  0  0  0  0
   -0.4779   -2.8043   -1.8747 H   0  0  0  0  0  0  0  0  0  0  0  0
   -0.2078    1.0756    0.3388 C   0  0  0  0  0  0  0  0  0  0  0  0
   -1.1985    1.7555    0.1025 O   0  0  0  0  0  0  0  0  0  0  0  0
    0.7457    1.5487    1.2217 N   0  0  0  0  0  0  0  0  0  0  0  0
    1.5441    0.9543    1.4250 H   0  0  0  0  0  0  0  0  0  0  0  0
    0.6680    2.8619    1.8511 C   0  0  0  0  0  0  0  0  0  0  0  0
   -0.2485    2.9498    2.4443 H   0  0  0  0  0  0  0  0  0  0  0  0
    1.5244    3.0149    2.5149 H   0  0  0  0  0  0  0  0  0  0  0  0
    0.6734    3.6512    1.0920 H   0  0  0  0  0  0  0  0  0  0  0  0
  1  2  1  0  0  0  0
  2  3  1  0  0  0  0
  2  4  1  0  0  0  0
  2  5  1  0  0  0  0
  5  6  2  0  0  0  0
  5  7  1  0  0  0  0
  7  8  1  0  0  0  0
  7  9  1  0  0  0  0
  9 10  1  0  0  0  0
  9 11  1  0  0  0  0
  9 19  1  0  0  0  0
 11 12  1  0  0  0  0
 11 13  1  0  0  0  0
 11 14  1  0  0  0  0
 14 15  2  0  0  0  0
 14 16  1  0  0  0  0
 16 17  1  0  0  0  0
 16 18  1  0  0  0  0
 19 20  2  0  0  0  0
 19 21  1  0  0  0  0
 21 22  1  0  0  0  0
 21 23  1  0  0  0  0
 23 24  1  0  0  0  0
 23 25  1  0  0  0  0
 23 26  1  0  0  0  0
M  END
$$$$

  -OEChem-04042215573D

 26 25  0     1  0  0  0  0  0999 V2000
   -3.0432   -3.7946    0.9194 H   0  0  0  0  0  0  0  0  0  0  0  0
   -3.0689   -2.7631    0.5569 C   0  0  0  0  0  0  0  0  0  0  0  0
   -3.5177   -2.1311    1.3272 H   0  0  0  0  0  0  0  0  0  0  0  0
   -3.6863   -2.7198   -0.3439 H   0  0  0  0  0  0  0  0  0  0  0  0
   -1.6648   -2.2821    0.2446 C   0  0  0  0  0  0  0  0  0  0  0  0
   -0.7224   -3.0583    0.2663 O   0  0  0  0  0  0  0  0  0  0  0  0
   -1.4495   -0.9854   -0.1687 N   0  0  0  0  0  0  0  0  0  0  0  0
   -2.2564   -0.3599   -0.1580 H   0  0  0  0  0  0  0  0  0  0  0  0
   -0.1310   -0.3361   -0.2529 C   0  0  1  0  0  0  0  0  0  0  0  0
    0.5570   -0.8942    0.3916 H   0  0  0  0  0  0  0  0  0  0  0  0
    0.5129   -0.2945   -1.6675 C   0  0  0  0  0  0  0  0  0  0  0  0
    0.7058    0.7480   -1.9398 H   0  0  0  0  0  0  0  0  0  0  0  0
    1.4818   -0.7973   -1.6119 H   0  0  0  0  0  0  0  0  0  0  0  0
   -0.2414   -0.9165   -2.8406 C   0  0  0  0  0  0  0  0  0  0  0  0
    0.1013   -0.6546   -3.9777 O   0  0  0  0  0  0  0  0  0  0  0  0
   -0.8659   -2.1279   -2.7620 N   0  0  0  0  0  0  0  0  0  0  0  0
   -0.8857   -2.6428   -3.6367 H   0  0  0  0  0  0  0  0  0  0  0  0
   -0.7460   -2.6405   -1.8897 H   0  0  0  0  0  0  0  0  0  0  0  0
   -0.2182    1.0796    0.3528 C   0  0  0  0  0  0  0  0  0  0  0  0
   -1.2156    1.7612    0.1515 O   0  0  0  0  0  0  0  0  0  0  0  0
    0.7582    1.5410    1.2166 N   0  0  0  0  0  0  0  0  0  0  0  0
    1.5640    0.9459    1.3865 H   0  0  0  0  0  0  0  0  0  0  0  0
    0.6975    2.8447    1.8673 C   0  0  0  0  0  0  0  0  0  0  0  0
   -0.2106    2.9291    2.4737 H   0  0  0  0  0  0  0  0  0  0  0  0
    1.5632    2.9812    2.5224 H   0  0  0  0  0  0  0  0  0  0  0  0
    0.6984    3.6460    1.1209 H   0  0  0  0  0  0  0  0  0  0  0  0
  1  2  1  0  0  0  0
  2  3  1  0  0  0  0
  2  4  1  0  0  0  0
  2  5  1  0  0  0  0
  5  6  2  0  0  0  0
  5  7  1  0  0  0  0
  7  8  1  0  0  0  0
  7  9  1  0  0  0  0
  9 10  1  0  0  0  0
  9 11  1  0  0  0  0
  9 19  1  0  0  0  0
 11 12  1  0  0  0  0
 11 13  1  0  0  0  0
 11 14  1  0  0  0  0
 14 15  2  0  0  0  0
 14 16  1  0  0  0  0
 16 17  1  0  0  0  0
 16 18  1  0  0  0  0
 19 20  2  0  0  0  0
 19 21  1  0  0  0  0
 21 22  1  0  0  0  0
 21 23  1  0  0  0  0
 23 24  1  0  0  0  0
 23 25  1  0  0  0  0
 23 26  1  0  0  0  0
M  END
$$$$

  -OEChem-04042215573D

 26 25  0     1  0  0  0  0  0999 V2000
   -2.8910   -3.8868    0.9860 H   0  0  0  0  0  0  0  0  0  0  0  0
   -2.9380   -2.8734    0.5769 C   0  0  0  0  0  0  0  0  0  0  0  0
   -3.4209   -2.2214    1.3092 H   0  0  0  0  0  0  0  0  0  0  0  0
   -3.5371   -2.8898   -0.3368 H   0  0  0  0  0  0  0  0  0  0  0  0
   -1.5403   -2.3681    0.2724 C   0  0  0  0  0  0  0  0  0  0  0  0
   -0.5765   -3.1005    0.4216 O   0  0  0  0  0  0  0  0  0  0  0  0
   -1.3578   -1.0751   -0.1762 N   0  0  0  0  0  0  0  0  0  0  0  0
   -2.1622   -0.4493   -0.1055 H   0  0  0  0  0  0  0  0  0  0  0  0
   -0.0424   -0.4165   -0.2469 C   0  0  1  0  0  0  0  0  0  0  0  0
    0.6535   -0.9397    0.4184 H   0  0  0  0  0  0  0  0  0  0  0  0
    0.6223   -0.3499   -1.6522 C   0  0  0  0  0  0  0  0  0  0  0  0
    1.0938    0.6290   -1.7804 H   0  0  0  0  0  0  0  0  0  0  0  0
    1.4245   -1.0930   -1.6571 H   0  0  0  0  0  0  0  0  0  0  0  0
   -0.1925   -0.6197   -2.9190 C   0  0  0  0  0  0  0  0  0  0  0  0
    0.3554   -0.5611   -4.0031 O   0  0  0  0  0  0  0  0  0  0  0  0
   -1.5379   -0.8366   -2.9875 N   0  0  0  0  0  0  0  0  0  0  0  0
   -1.8940   -1.1386   -3.8892 H   0  0  0  0  0  0  0  0  0  0  0  0
   -2.0202   -1.0842   -2.1322 H   0  0  0  0  0  0  0  0  0  0  0  0
   -0.1924    1.0077    0.3266 C   0  0  0  0  0  0  0  0  0  0  0  0
   -1.2115    1.6463    0.0918 O   0  0  0  0  0  0  0  0  0  0  0  0
    0.7414    1.5156    1.2107 N   0  0  0  0  0  0  0  0  0  0  0  0
    1.5616    0.9507    1.4135 H   0  0  0  0  0  0  0  0  0  0  0  0
    0.6147    2.8234    1.8432 C   0  0  0  0  0  0  0  0  0  0  0  0
   -0.3074    2.8774    2.4316 H   0  0  0  0  0  0  0  0  0  0  0  0
    1.4617    3.0032    2.5124 H   0  0  0  0  0  0  0  0  0  0  0  0
    0.5972    3.6154    1.0869 H   0  0  0  0  0  0  0  0  0  0  0  0
  1  2  1  0  0  0  0
  2  3  1  0  0  0  0
  2  4  1  0  0  0  0
  2  5  1  0  0  0  0
  5  6  2  0  0  0  0
  5  7  1  0  0  0  0
  7  8  1  0  0  0  0
  7  9  1  0  0  0  0
  9 10  1  0  0  0  0
  9 11  1  0  0  0  0
  9 19  1  0  0  0  0
 11 12  1  0  0  0  0
 11 13  1  0  0  0  0
 11 14  1  0  0  0  0
 14 15  2  0  0  0  0
 14 16  1  0  0  0  0
 16 17  1  0  0  0  0
 16 18  1  0  0  0  0
 19 20  2  0  0  0  0
 19 21  1  0  0  0  0
 21 22  1  0  0  0  0
 21 23  1  0  0  0  0
 23 24  1  0  0  0  0
 23 25  1  0  0  0  0
 23 26  1  0  0  0  0
M  END
$$$$

  -OEChem-04042215573D

 26 25  0     1  0  0  0  0  0999 V2000
   -2.8547   -4.0766    0.8749 H   0  0  0  0  0  0  0  0  0  0  0  0
   -2.8833   -3.0584    0.4770 C   0  0  0  0  0  0  0  0  0  0  0  0
   -3.5225   -2.4468    1.1183 H   0  0  0  0  0  0  0  0  0  0  0  0
   -3.3077   -3.0861   -0.5297 H   0  0  0  0  0  0  0  0  0  0  0  0
   -1.4839   -2.4748    0.4324 C   0  0  0  0  0  0  0  0  0  0  0  0
   -0.5368   -3.1125    0.8637 O   0  0  0  0  0  0  0  0  0  0  0  0
   -1.2820   -1.2139   -0.0889 N   0  0  0  0  0  0  0  0  0  0  0  0
   -2.1053   -0.6896   -0.3803 H   0  0  0  0  0  0  0  0  0  0  0  0
    0.0272   -0.5443   -0.1698 C   0  0  1  0  0  0  0  0  0  0  0  0
    0.7559   -1.0240    0.4927 H   0  0  0  0  0  0  0  0  0  0  0  0
    0.6012   -0.4891   -1.6116 C   0  0  0  0  0  0  0  0  0  0  0  0
    1.0693    0.4814   -1.8012 H   0  0  0  0  0  0  0  0  0  0  0  0
    1.3876   -1.2458   -1.6826 H   0  0  0  0  0  0  0  0  0  0  0  0
   -0.3799   -0.7755   -2.7432 C   0  0  0  0  0  0  0  0  0  0  0  0
    0.0270   -1.0254   -3.8612 O   0  0  0  0  0  0  0  0  0  0  0  0
   -1.6134   -0.1852   -2.7627 N   0  0  0  0  0  0  0  0  0  0  0  0
   -1.9648   -0.0218   -3.7017 H   0  0  0  0  0  0  0  0  0  0  0  0
   -1.7613    0.5398   -2.0606 H   0  0  0  0  0  0  0  0  0  0  0  0
   -0.1751    0.9057    0.3104 C   0  0  0  0  0  0  0  0  0  0  0  0
   -1.1174    1.5491   -0.1437 O   0  0  0  0  0  0  0  0  0  0  0  0
    0.7098    1.5013    1.1889 N   0  0  0  0  0  0  0  0  0  0  0  0
    1.4626    0.9309    1.5649 H   0  0  0  0  0  0  0  0  0  0  0  0
    0.5579    2.8699    1.6679 C   0  0  0  0  0  0  0  0  0  0  0  0
   -0.3865    2.9827    2.2107 H   0  0  0  0  0  0  0  0  0  0  0  0
    1.3785    3.1275    2.3443 H   0  0  0  0  0  0  0  0  0  0  0  0
    0.5689    3.5737    0.8289 H   0  0  0  0  0  0  0  0  0  0  0  0
  1  2  1  0  0  0  0
  2  3  1  0  0  0  0
  2  4  1  0  0  0  0
  2  5  1  0  0  0  0
  5  6  2  0  0  0  0
  5  7  1  0  0  0  0
  7  8  1  0  0  0  0
  7  9  1  0  0  0  0
  9 10  1  0  0  0  0
  9 11  1  0  0  0  0
  9 19  1  0  0  0  0
 11 12  1  0  0  0  0
 11 13  1  0  0  0  0
 11 14  1  0  0  0  0
 14 15  2  0  0  0  0
 14 16  1  0  0  0  0
 16 17  1  0  0  0  0
 16 18  1  0  0  0  0
 19 20  2  0  0  0  0
 19 21  1  0  0  0  0
 21 22  1  0  0  0  0
 21 23  1  0  0  0  0
 23 24  1  0  0  0  0
 23 25  1  0  0  0  0
 23 26  1  0  0  0  0
M  END
$$$$

  -OEChem-04042215573D

 26 25  0     1  0  0  0  0  0999 V2000
   -2.8609   -4.0677    0.7906 H   0  0  0  0  0  0  0  0  0  0  0  0
   -2.8859   -3.0512    0.3879 C   0  0  0  0  0  0  0  0  0  0  0  0
   -3.5581   -2.4456    1.0004 H   0  0  0  0  0  0  0  0  0  0  0  0
   -3.2688   -3.0877   -0.6351 H   0  0  0  0  0  0  0  0  0  0  0  0
   -1.4931   -2.4504    0.3975 C   0  0  0  0  0  0  0  0  0  0  0  0
   -0.5544   -3.0803    0.8582 O   0  0  0  0  0  0  0  0  0  0  0  0
   -1.2879   -1.1824   -0.1053 N   0  0  0  0  0  0  0  0  0  0  0  0
   -2.1026   -0.6725   -0.4436 H   0  0  0  0  0  0  0  0  0  0  0  0
    0.0222   -0.5129   -0.1701 C   0  0  1  0  0  0  0  0  0  0  0  0
    0.7503   -1.0057    0.4834 H   0  0  0  0  0  0  0  0  0  0  0  0
    0.5898   -0.4381   -1.6121 C   0  0  0  0  0  0  0  0  0  0  0  0
    1.0561    0.5342   -1.7965 H   0  0  0  0  0  0  0  0  0  0  0  0
    1.3746   -1.1948   -1.7009 H   0  0  0  0  0  0  0  0  0  0  0  0
   -0.4157   -0.7111   -2.7237 C   0  0  0  0  0  0  0  0  0  0  0  0
   -0.0731   -1.2085   -3.7788 O   0  0  0  0  0  0  0  0  0  0  0  0
   -1.5941   -0.0187   -2.7800 N   0  0  0  0  0  0  0  0  0  0  0  0
   -1.9746    0.0837   -3.7161 H   0  0  0  0  0  0  0  0  0  0  0  0
   -1.6965    0.7515   -2.1180 H   0  0  0  0  0  0  0  0  0  0  0  0
   -0.1718    0.9326    0.3280 C   0  0  0  0  0  0  0  0  0  0  0  0
   -1.0904    1.6007   -0.1389 O   0  0  0  0  0  0  0  0  0  0  0  0
    0.7164    1.5070    1.2171 N   0  0  0  0  0  0  0  0  0  0  0  0
    1.4526    0.9188    1.5986 H   0  0  0  0  0  0  0  0  0  0  0  0
    0.5912    2.8774    1.6983 C   0  0  0  0  0  0  0  0  0  0  0  0
   -0.3583    3.0128    2.2270 H   0  0  0  0  0  0  0  0  0  0  0  0
    1.4075    3.1116    2.3884 H   0  0  0  0  0  0  0  0  0  0  0  0
    0.6336    3.5829    0.8618 H   0  0  0  0  0  0  0  0  0  0  0  0
  1  2  1  0  0  0  0
  2  3  1  0  0  0  0
  2  4  1  0  0  0  0
  2  5  1  0  0  0  0
  5  6  2  0  0  0  0
  5  7  1  0  0  0  0
  7  8  1  0  0  0  0
  7  9  1  0  0  0  0
  9 10  1  0  0  0  0
  9 11  1  0  0  0  0
  9 19  1  0  0  0  0
 11 12  1  0  0  0  0
 11 13  1  0  0  0  0
 11 14  1  0  0  0  0
 14 15  2  0  0  0  0
 14 16  1  0  0  0  0
 16 17  1  0  0  0  0
 16 18  1  0  0  0  0
 19 20  2  0  0  0  0
 19 21  1  0  0  0  0
 21 22  1  0  0  0  0
 21 23  1  0  0  0  0
 23 24  1  0  0  0  0
 23 25  1  0  0  0  0
 23 26  1  0  0  0  0
M  END
$$$$

  -OEChem-04042215573D

 26 25  0     1  0  0  0  0  0999 V2000
   -2.8781   -4.0411    0.7015 H   0  0  0  0  0  0  0  0  0  0  0  0
   -2.8933   -3.0196    0.3111 C   0  0  0  0  0  0  0  0  0  0  0  0
   -3.5787   -2.4206    0.9156 H   0  0  0  0  0  0  0  0  0  0  0  0
   -3.2528   -3.0432   -0.7207 H   0  0  0  0  0  0  0  0  0  0  0  0
   -1.5008   -2.4199    0.3590 C   0  0  0  0  0  0  0  0  0  0  0  0
   -0.5762   -3.0490    0.8489 O   0  0  0  0  0  0  0  0  0  0  0  0
   -1.2835   -1.1489   -0.1311 N   0  0  0  0  0  0  0  0  0  0  0  0
   -2.0865   -0.6430   -0.5020 H   0  0  0  0  0  0  0  0  0  0  0  0
    0.0303   -0.4862   -0.1780 C   0  0  1  0  0  0  0  0  0  0  0  0
    0.7524   -0.9909    0.4730 H   0  0  0  0  0  0  0  0  0  0  0  0
    0.6006   -0.4044   -1.6180 C   0  0  0  0  0  0  0  0  0  0  0  0
    1.0714    0.5664   -1.7985 H   0  0  0  0  0  0  0  0  0  0  0  0
    1.3814   -1.1646   -1.7135 H   0  0  0  0  0  0  0  0  0  0  0  0
   -0.4172   -0.6663   -2.7203 C   0  0  0  0  0  0  0  0  0  0  0  0
   -0.1735   -1.3888   -3.6672 O   0  0  0  0  0  0  0  0  0  0  0  0
   -1.5384    0.1096   -2.8292 N   0  0  0  0  0  0  0  0  0  0  0  0
   -1.9664    0.1321   -3.7498 H   0  0  0  0  0  0  0  0  0  0  0  0
   -1.5990    0.9278   -2.2218 H   0  0  0  0  0  0  0  0  0  0  0  0
   -0.1553    0.9573    0.3300 C   0  0  0  0  0  0  0  0  0  0  0  0
   -1.0508    1.6453   -0.1525 O   0  0  0  0  0  0  0  0  0  0  0  0
    0.7304    1.5168    1.2311 N   0  0  0  0  0  0  0  0  0  0  0  0
    1.4449    0.9135    1.6298 H   0  0  0  0  0  0  0  0  0  0  0  0
    0.6097    2.8841    1.7227 C   0  0  0  0  0  0  0  0  0  0  0  0
   -0.3487    3.0246    2.2337 H   0  0  0  0  0  0  0  0  0  0  0  0
    1.4145    3.1039    2.4308 H   0  0  0  0  0  0  0  0  0  0  0  0
    0.6748    3.5970    0.8940 H   0  0  0  0  0  0  0  0  0  0  0  0
  1  2  1  0  0  0  0
  2  3  1  0  0  0  0
  2  4  1  0  0  0  0
  2  5  1  0  0  0  0
  5  6  2  0  0  0  0
  5  7  1  0  0  0  0
  7  8  1  0  0  0  0
  7  9  1  0  0  0  0
  9 10  1  0  0  0  0
  9 11  1  0  0  0  0
  9 19  1  0  0  0  0
 11 12  1  0  0  0  0
 11 13  1  0  0  0  0
 11 14  1  0  0  0  0
 14 15  2  0  0  0  0
 14 16  1  0  0  0  0
 16 17  1  0  0  0  0
 16 18  1  0  0  0  0
 19 20  2  0  0  0  0
 19 21  1  0  0  0  0
 21 22  1  0  0  0  0
 21 23  1  0  0  0  0
 23 24  1  0  0  0  0
 23 25  1  0  0  0  0
 23 26  1  0  0  0  0
M  END
$$$$

  -OEChem-04042215573D

 26 25  0     1  0  0  0  0  0999 V2000
   -2.8848   -4.0249    0.6094 H   0  0  0  0  0  0  0  0  0  0  0  0
   -2.8925   -3.0078    0.2076 C   0  0  0  0  0  0  0  0  0  0  0  0
   -3.6238   -2.4146    0.7617 H   0  0  0  0  0  0  0  0  0  0  0  0
   -3.1866   -3.0480   -0.8443 H   0  0  0  0  0  0  0  0  0  0  0  0
   -1.5154   -2.3847    0.3346 C   0  0  0  0  0  0  0  0  0  0  0  0
   -0.6099   -2.9995    0.8760 O   0  0  0  0  0  0  0  0  0  0  0  0
   -1.2903   -1.1116   -0.1472 N   0  0  0  0  0  0  0  0  0  0  0  0
   -2.0761   -0.6242   -0.5752 H   0  0  0  0  0  0  0  0  0  0  0  0
    0.0262   -0.4533   -0.1746 C   0  0  1  0  0  0  0  0  0  0  0  0
    0.7374   -0.9662    0.4820 H   0  0  0  0  0  0  0  0  0  0  0  0
    0.6103   -0.3787   -1.6089 C   0  0  0  0  0  0  0  0  0  0  0  0
    1.0848    0.5901   -1.7903 H   0  0  0  0  0  0  0  0  0  0  0  0
    1.3906   -1.1404   -1.6967 H   0  0  0  0  0  0  0  0  0  0  0  0
   -0.4058   -0.6430   -2.7118 C   0  0  0  0  0  0  0  0  0  0  0  0
   -0.2863   -1.5559   -3.5059 O   0  0  0  0  0  0  0  0  0  0  0  0
   -1.4640    0.2021   -2.9009 N   0  0  0  0  0  0  0  0  0  0  0  0
   -1.9480    0.1304   -3.7906 H   0  0  0  0  0  0  0  0  0  0  0  0
   -1.4878    1.0710   -2.3668 H   0  0  0  0  0  0  0  0  0  0  0  0
   -0.1439    0.9911    0.3359 C   0  0  0  0  0  0  0  0  0  0  0  0
   -1.0097    1.7028   -0.1657 O   0  0  0  0  0  0  0  0  0  0  0  0
    0.7445    1.5307    1.2469 N   0  0  0  0  0  0  0  0  0  0  0  0
    1.4342    0.9085    1.6601 H   0  0  0  0  0  0  0  0  0  0  0  0
    0.6566    2.9028    1.7320 C   0  0  0  0  0  0  0  0  0  0  0  0
   -0.2947    3.0666    2.2492 H   0  0  0  0  0  0  0  0  0  0  0  0
    1.4713    3.1090    2.4329 H   0  0  0  0  0  0  0  0  0  0  0  0
    0.7315    3.6098    0.8991 H   0  0  0  0  0  0  0  0  0  0  0  0
  1  2  1  0  0  0  0
  2  3  1  0  0  0  0
  2  4  1  0  0  0  0
  2  5  1  0  0  0  0
  5  6  2  0  0  0  0
  5  7  1  0  0  0  0
  7  8  1  0  0  0  0
  7  9  1  0  0  0  0
  9 10  1  0  0  0  0
  9 11  1  0  0  0  0
  9 19  1  0  0  0  0
 11 12  1  0  0  0  0
 11 13  1  0  0  0  0
 11 14  1  0  0  0  0
 14 15  2  0  0  0  0
 14 16  1  0  0  0  0
 16 17  1  0  0  0  0
 16 18  1  0  0  0  0
 19 20  2  0  0  0  0
 19 21  1  0  0  0  0
 21 22  1  0  0  0  0
 21 23  1  0  0  0  0
 23 24  1  0  0  0  0
 23 25  1  0  0  0  0
 23 26  1  0  0  0  0
M  END
$$$$

  -OEChem-04042215573D

 26 25  0     1  0  0  0  0  0999 V2000
   -2.9254   -3.9685    0.5649 H   0  0  0  0  0  0  0  0  0  0  0  0
   -2.9112   -2.9551    0.1538 C   0  0  0  0  0  0  0  0  0  0  0  0
   -3.6304   -2.3414    0.7014 H   0  0  0  0  0  0  0  0  0  0  0  0
   -3.2042   -2.9986   -0.8983 H   0  0  0  0  0  0  0  0  0  0  0  0
   -1.5210   -2.3609    0.2771 C   0  0  0  0  0  0  0  0  0  0  0  0
   -0.6289   -2.9925    0.8213 O   0  0  0  0  0  0  0  0  0  0  0  0
   -1.2715   -1.0907   -0.2012 N   0  0  0  0  0  0  0  0  0  0  0  0
   -2.0554   -0.5716   -0.5920 H   0  0  0  0  0  0  0  0  0  0  0  0
    0.0535   -0.4483   -0.1985 C   0  0  1  0  0  0  0  0  0  0  0  0
    0.7439   -0.9667    0.4757 H   0  0  0  0  0  0  0  0  0  0  0  0
    0.6734   -0.3760   -1.6171 C   0  0  0  0  0  0  0  0  0  0  0  0
    1.1658    0.5864   -1.7853 H   0  0  0  0  0  0  0  0  0  0  0  0
    1.4444   -1.1482   -1.6923 H   0  0  0  0  0  0  0  0  0  0  0  0
   -0.3248   -0.6253   -2.7380 C   0  0  0  0  0  0  0  0  0  0  0  0
   -0.3672   -1.6664   -3.3656 O   0  0  0  0  0  0  0  0  0  0  0  0
   -1.2361    0.3370   -3.0711 N   0  0  0  0  0  0  0  0  0  0  0  0
   -1.9712    0.0694   -3.7180 H   0  0  0  0  0  0  0  0  0  0  0  0
   -1.3619    1.1260   -2.4367 H   0  0  0  0  0  0  0  0  0  0  0  0
   -0.1220    0.9965    0.3073 C   0  0  0  0  0  0  0  0  0  0  0  0
   -0.9834    1.7049   -0.2067 O   0  0  0  0  0  0  0  0  0  0  0  0
    0.7440    1.5342    1.2404 N   0  0  0  0  0  0  0  0  0  0  0  0
    1.4254    0.9118    1.6668 H   0  0  0  0  0  0  0  0  0  0  0  0
    0.6465    2.9063    1.7234 C   0  0  0  0  0  0  0  0  0  0  0  0
   -0.3153    3.0702    2.2205 H   0  0  0  0  0  0  0  0  0  0  0  0
    1.4467    3.1124    2.4408 H   0  0  0  0  0  0  0  0  0  0  0  0
    0.7390    3.6132    0.8921 H   0  0  0  0  0  0  0  0  0  0  0  0
  1  2  1  0  0  0  0
  2  3  1  0  0  0  0
  2  4  1  0  0  0  0
  2  5  1  0  0  0  0
  5  6  2  0  0  0  0
  5  7  1  0  0  0  0
  7  8  1  0  0  0  0
  7  9  1  0  0  0  0
  9 10  1  0  0  0  0
  9 11  1  0  0  0  0
  9 19  1  0  0  0  0
 11 12  1  0  0  0  0
 11 13  1  0  0  0  0
 11 14  1  0  0  0  0
 14 15  2  0  0  0  0
 14 16  1  0  0  0  0
 16 17  1  0  0  0  0
 16 18  1  0  0  0  0
 19 20  2  0  0  0  0
 19 21  1  0  0  0  0
 21 22  1  0  0  0  0
 21 23  1  0  0  0  0
 23 24  1  0  0  0  0
 23 25  1  0  0  0  0
 23 26  1  0  0  0  0
M  END
$$$$

  -OEChem-04042215573D

 26 25  0     1  0  0  0  0  0999 V2000
   -2.9249   -3.9682    0.4996 H   0  0  0  0  0  0  0  0  0  0  0  0
   -2.9015   -2.9590    0.0790 C   0  0  0  0  0  0  0  0  0  0  0  0
   -3.6652   -2.3527    0.5716 H   0  0  0  0  0  0  0  0  0  0  0  0
   -3.1244   -3.0185   -0.9895 H   0  0  0  0  0  0  0  0  0  0  0  0
   -1.5329   -2.3381    0.2841 C   0  0  0  0  0  0  0  0  0  0  0  0
   -0.6673   -2.9455    0.8955 O   0  0  0  0  0  0  0  0  0  0  0  0
   -1.2740   -1.0730   -0.2027 N   0  0  0  0  0  0  0  0  0  0  0  0
   -2.0330   -0.5898   -0.6783 H   0  0  0  0  0  0  0  0  0  0  0  0
    0.0541   -0.4380   -0.1910 C   0  0  1  0  0  0  0  0  0  0  0  0
    0.7345   -0.9567    0.4926 H   0  0  0  0  0  0  0  0  0  0  0  0
    0.6864   -0.3862   -1.6055 C   0  0  0  0  0  0  0  0  0  0  0  0
    1.1895    0.5696   -1.7792 H   0  0  0  0  0  0  0  0  0  0  0  0
    1.4518   -1.1650   -1.6655 H   0  0  0  0  0  0  0  0  0  0  0  0
   -0.3003   -0.6430   -2.7353 C   0  0  0  0  0  0  0  0  0  0  0  0
   -0.5296   -1.7539   -3.1754 O   0  0  0  0  0  0  0  0  0  0  0  0
   -1.0911    0.3704   -3.1961 N   0  0  0  0  0  0  0  0  0  0  0  0
   -1.8782    0.0924   -3.7740 H   0  0  0  0  0  0  0  0  0  0  0  0
   -1.1496    1.2161   -2.6299 H   0  0  0  0  0  0  0  0  0  0  0  0
   -0.1074    1.0137    0.2997 C   0  0  0  0  0  0  0  0  0  0  0  0
   -0.9319    1.7391   -0.2495 O   0  0  0  0  0  0  0  0  0  0  0  0
    0.7589    1.5464    1.2357 N   0  0  0  0  0  0  0  0  0  0  0  0
    1.4077    0.9110    1.6927 H   0  0  0  0  0  0  0  0  0  0  0  0
    0.6793    2.9248    1.7039 C   0  0  0  0  0  0  0  0  0  0  0  0
   -0.2845    3.1095    2.1899 H   0  0  0  0  0  0  0  0  0  0  0  0
    1.4758    3.1249    2.4272 H   0  0  0  0  0  0  0  0  0  0  0  0
    0.7915    3.6221    0.8668 H   0  0  0  0  0  0  0  0  0  0  0  0
  1  2  1  0  0  0  0
  2  3  1  0  0  0  0
  2  4  1  0  0  0  0
  2  5  1  0  0  0  0
  5  6  2  0  0  0  0
  5  7  1  0  0  0  0
  7  8  1  0  0  0  0
  7  9  1  0  0  0  0
  9 10  1  0  0  0  0
  9 11  1  0  0  0  0
  9 19  1  0  0  0  0
 11 12  1  0  0  0  0
 11 13  1  0  0  0  0
 11 14  1  0  0  0  0
 14 15  2  0  0  0  0
 14 16  1  0  0  0  0
 16 17  1  0  0  0  0
 16 18  1  0  0  0  0
 19 20  2  0  0  0  0
 19 21  1  0  0  0  0
 21 22  1  0  0  0  0
 21 23  1  0  0  0  0
 23 24  1  0  0  0  0
 23 25  1  0  0  0  0
 23 26  1  0  0  0  0
M  END
$$$$

  -OEChem-04042215573D

 26 25  0     1  0  0  0  0  0999 V2000
   -2.9135   -3.9821    0.4780 H   0  0  0  0  0  0  0  0  0  0  0  0
   -2.8866   -2.9817    0.0374 C   0  0  0  0  0  0  0  0  0  0  0  0
   -3.6956   -2.3846    0.4643 H   0  0  0  0  0  0  0  0  0  0  0  0
   -3.0357   -3.0688   -1.0420 H   0  0  0  0  0  0  0  0  0  0  0  0
   -1.5500   -2.3217    0.3173 C   0  0  0  0  0  0  0  0  0  0  0  0
   -0.7083   -2.8982    0.9900 O   0  0  0  0  0  0  0  0  0  0  0  0
   -1.2903   -1.0622   -0.1828 N   0  0  0  0  0  0  0  0  0  0  0  0
   -2.0155   -0.6351   -0.7550 H   0  0  0  0  0  0  0  0  0  0  0  0
    0.0405   -0.4351   -0.1750 C   0  0  1  0  0  0  0  0  0  0  0  0
    0.7151   -0.9513    0.5160 H   0  0  0  0  0  0  0  0  0  0  0  0
    0.6808   -0.4064   -1.5882 C   0  0  0  0  0  0  0  0  0  0  0  0
    1.1956    0.5424   -1.7661 H   0  0  0  0  0  0  0  0  0  0  0  0
    1.4409   -1.1915   -1.6308 H   0  0  0  0  0  0  0  0  0  0  0  0
   -0.2861   -0.6725   -2.7357 C   0  0  0  0  0  0  0  0  0  0  0  0
   -0.7180   -1.7796   -3.0015 O   0  0  0  0  0  0  0  0  0  0  0  0
   -0.9016    0.3696   -3.3666 N   0  0  0  0  0  0  0  0  0  0  0  0
   -1.7233    0.1231   -3.9098 H   0  0  0  0  0  0  0  0  0  0  0  0
   -0.8604    1.2782   -2.9092 H   0  0  0  0  0  0  0  0  0  0  0  0
   -0.1043    1.0235    0.3009 C   0  0  0  0  0  0  0  0  0  0  0  0
   -0.9012    1.7629   -0.2687 O   0  0  0  0  0  0  0  0  0  0  0  0
    0.7702    1.5524    1.2318 N   0  0  0  0  0  0  0  0  0  0  0  0
    1.3929    0.9076    1.7112 H   0  0  0  0  0  0  0  0  0  0  0  0
    0.7153    2.9387    1.6805 C   0  0  0  0  0  0  0  0  0  0  0  0
   -0.2454    3.1478    2.1628 H   0  0  0  0  0  0  0  0  0  0  0  0
    1.5148    3.1347    2.4016 H   0  0  0  0  0  0  0  0  0  0  0  0
    0.8407    3.6217    0.8337 H   0  0  0  0  0  0  0  0  0  0  0  0
  1  2  1  0  0  0  0
  2  3  1  0  0  0  0
  2  4  1  0  0  0  0
  2  5  1  0  0  0  0
  5  6  2  0  0  0  0
  5  7  1  0  0  0  0
  7  8  1  0  0  0  0
  7  9  1  0  0  0  0
  9 10  1  0  0  0  0
  9 11  1  0  0  0  0
  9 19  1  0  0  0  0
 11 12  1  0  0  0  0
 11 13  1  0  0  0  0
 11 14  1  0  0  0  0
 14 15  2  0  0  0  0
 14 16  1  0  0  0  0
 16 17  1  0  0  0  0
 16 18  1  0  0  0  0
 19 20  2  0  0  0  0
 19 21  1  0  0  0  0
 21 22  1  0  0  0  0
 21 23  1  0  0  0  0
 23 24  1  0  0  0  0
 23 25  1  0  0  0  0
 23 26  1  0  0  0  0
M  END
$$$$

  -OEChem-04042215573D

 26 25  0     1  0  0  0  0  0999 V2000
   -2.8971   -4.0064    0.4964 H   0  0  0  0  0  0  0  0  0  0  0  0
   -2.8857   -3.0013    0.0661 C   0  0  0  0  0  0  0  0  0  0  0  0
   -3.7082   -2.4231    0.4936 H   0  0  0  0  0  0  0  0  0  0  0  0
   -3.0266   -3.0805   -1.0151 H   0  0  0  0  0  0  0  0  0  0  0  0
   -1.5635   -2.3194    0.3618 C   0  0  0  0  0  0  0  0  0  0  0  0
   -0.7265   -2.8758    1.0577 O   0  0  0  0  0  0  0  0  0  0  0  0
   -1.3135   -1.0626   -0.1498 N   0  0  0  0  0  0  0  0  0  0  0  0
   -2.0171   -0.6841   -0.7803 H   0  0  0  0  0  0  0  0  0  0  0  0
    0.0167   -0.4370   -0.1615 C   0  0  1  0  0  0  0  0  0  0  0  0
    0.6947   -0.9486    0.5294 H   0  0  0  0  0  0  0  0  0  0  0  0
    0.6558   -0.4232   -1.5783 C   0  0  0  0  0  0  0  0  0  0  0  0
    1.1756    0.5231   -1.7548 H   0  0  0  0  0  0  0  0  0  0  0  0
    1.4162   -1.2080   -1.6060 H   0  0  0  0  0  0  0  0  0  0  0  0
   -0.2835   -0.6995   -2.7509 C   0  0  0  0  0  0  0  0  0  0  0  0
   -0.9189   -1.7303   -2.8861 O   0  0  0  0  0  0  0  0  0  0  0  0
   -0.6343    0.3065   -3.6037 N   0  0  0  0  0  0  0  0  0  0  0  0
   -1.4588    0.1222   -4.1672 H   0  0  0  0  0  0  0  0  0  0  0  0
   -0.4426    1.2583   -3.3037 H   0  0  0  0  0  0  0  0  0  0  0  0
   -0.1153    1.0256    0.3072 C   0  0  0  0  0  0  0  0  0  0  0  0
   -0.9072    1.7722   -0.2583 O   0  0  0  0  0  0  0  0  0  0  0  0
    0.7764    1.5516    1.2237 N   0  0  0  0  0  0  0  0  0  0  0  0
    1.3841    0.8994    1.7120 H   0  0  0  0  0  0  0  0  0  0  0  0
    0.7316    2.9377    1.6744 C   0  0  0  0  0  0  0  0  0  0  0  0
   -0.2126    3.1426    2.1898 H   0  0  0  0  0  0  0  0  0  0  0  0
    1.5553    3.1365    2.3668 H   0  0  0  0  0  0  0  0  0  0  0  0
    0.8250    3.6220    0.8244 H   0  0  0  0  0  0  0  0  0  0  0  0
  1  2  1  0  0  0  0
  2  3  1  0  0  0  0
  2  4  1  0  0  0  0
  2  5  1  0  0  0  0
  5  6  2  0  0  0  0
  5  7  1  0  0  0  0
  7  8  1  0  0  0  0
  7  9  1  0  0  0  0
  9 10  1  0  0  0  0
  9 11  1  0  0  0  0
  9 19  1  0  0  0  0
 11 12  1  0  0  0  0
 11 13  1  0  0  0  0
 11 14  1  0  0  0  0
 14 15  2  0  0  0  0
 14 16  1  0  0  0  0
 16 17  1  0  0  0  0
 16 18  1  0  0  0  0
 19 20  2  0  0  0  0
 19 21  1  0  0  0  0
 21 22  1  0  0  0  0
 21 23  1  0  0  0  0
 23 24  1  0  0  0  0
 23 25  1  0  0  0  0
 23 26  1  0  0  0  0
M  END
$$$$

  -OEChem-04042215573D

 26 25  0     1  0  0  0  0  0999 V2000
   -2.8817   -4.0230    0.5499 H   0  0  0  0  0  0  0  0  0  0  0  0
   -2.8874   -3.0170    0.1219 C   0  0  0  0  0  0  0  0  0  0  0  0
   -3.7130   -2.4502    0.5583 H   0  0  0  0  0  0  0  0  0  0  0  0
   -3.0382   -3.0945   -0.9581 H   0  0  0  0  0  0  0  0  0  0  0  0
   -1.5714   -2.3190    0.4070 C   0  0  0  0  0  0  0  0  0  0  0  0
   -0.7185   -2.8691    1.0889 O   0  0  0  0  0  0  0  0  0  0  0  0
   -1.3436   -1.0588   -0.1051 N   0  0  0  0  0  0  0  0  0  0  0  0
   -2.0432   -0.7142   -0.7605 H   0  0  0  0  0  0  0  0  0  0  0  0
   -0.0171   -0.4298   -0.1512 C   0  0  1  0  0  0  0  0  0  0  0  0
    0.6751   -0.9418    0.5253 H   0  0  0  0  0  0  0  0  0  0  0  0
    0.6012   -0.4195   -1.5799 C   0  0  0  0  0  0  0  0  0  0  0  0
    1.1112    0.5322   -1.7549 H   0  0  0  0  0  0  0  0  0  0  0  0
    1.3697   -1.1963   -1.6080 H   0  0  0  0  0  0  0  0  0  0  0  0
   -0.3219   -0.7019   -2.7692 C   0  0  0  0  0  0  0  0  0  0  0  0
   -1.1482   -1.5966   -2.8159 O   0  0  0  0  0  0  0  0  0  0  0  0
   -0.3423    0.1383   -3.8450 N   0  0  0  0  0  0  0  0  0  0  0  0
   -1.1331    0.0178   -4.4710 H   0  0  0  0  0  0  0  0  0  0  0  0
    0.0753    1.0571   -3.7392 H   0  0  0  0  0  0  0  0  0  0  0  0
   -0.1348    1.0307    0.3291 C   0  0  0  0  0  0  0  0  0  0  0  0
   -0.9450    1.7826   -0.2006 O   0  0  0  0  0  0  0  0  0  0  0  0
    0.7853    1.5495    1.2218 N   0  0  0  0  0  0  0  0  0  0  0  0
    1.4028    0.8922    1.6906 H   0  0  0  0  0  0  0  0  0  0  0  0
    0.7452    2.9289    1.6932 C   0  0  0  0  0  0  0  0  0  0  0  0
   -0.1897    3.1232    2.2293 H   0  0  0  0  0  0  0  0  0  0  0  0
    1.5812    3.1207    2.3727 H   0  0  0  0  0  0  0  0  0  0  0  0
    0.8201    3.6252    0.8512 H   0  0  0  0  0  0  0  0  0  0  0  0
  1  2  1  0  0  0  0
  2  3  1  0  0  0  0
  2  4  1  0  0  0  0
  2  5  1  0  0  0  0
  5  6  2  0  0  0  0
  5  7  1  0  0  0  0
  7  8  1  0  0  0  0
  7  9  1  0  0  0  0
  9 10  1  0  0  0  0
  9 11  1  0  0  0  0
  9 19  1  0  0  0  0
 11 12  1  0  0  0  0
 11 13  1  0  0  0  0
 11 14  1  0  0  0  0
 14 15  2  0  0  0  0
 14 16  1  0  0  0  0
 16 17  1  0  0  0  0
 16 18  1  0  0  0  0
 19 20  2  0  0  0  0
 19 21  1  0  0  0  0
 21 22  1  0  0  0  0
 21 23  1  0  0  0  0
 23 24  1  0  0  0  0
 23 25  1  0  0  0  0
 23 26  1  0  0  0  0
M  END
$$$$

  -OEChem-04042215573D

 26 25  0     1  0  0  0  0  0999 V2000
   -2.8742   -4.0367    0.5776 H   0  0  0  0  0  0  0  0  0  0  0  0
   -2.8929   -3.0267    0.1592 C   0  0  0  0  0  0  0  0  0  0  0  0
   -3.7167   -2.4704    0.6123 H   0  0  0  0  0  0  0  0  0  0  0  0
   -3.0584   -3.0950   -0.9193 H   0  0  0  0  0  0  0  0  0  0  0  0
   -1.5787   -2.3203    0.4327 C   0  0  0  0  0  0  0  0  0  0  0  0
   -0.7125   -2.8702    1.0980 O   0  0  0  0  0  0  0  0  0  0  0  0
   -1.3648   -1.0567   -0.0765 N   0  0  0  0  0  0  0  0  0  0  0  0
   -2.0606   -0.7329   -0.7483 H   0  0  0  0  0  0  0  0  0  0  0  0
   -0.0422   -0.4232   -0.1447 C   0  0  1  0  0  0  0  0  0  0  0  0
    0.6609   -0.9352    0.5205 H   0  0  0  0  0  0  0  0  0  0  0  0
    0.5601   -0.4087   -1.5828 C   0  0  0  0  0  0  0  0  0  0  0  0
    1.0593    0.5491   -1.7560 H   0  0  0  0  0  0  0  0  0  0  0  0
    1.3365   -1.1773   -1.6142 H   0  0  0  0  0  0  0  0  0  0  0  0
   -0.3524   -0.6911   -2.7841 C   0  0  0  0  0  0  0  0  0  0  0  0
   -1.3422   -1.4026   -2.7804 O   0  0  0  0  0  0  0  0  0  0  0  0
   -0.1038   -0.0973   -3.9881 N   0  0  0  0  0  0  0  0  0  0  0  0
   -0.8529   -0.1695   -4.6707 H   0  0  0  0  0  0  0  0  0  0  0  0
    0.5265    0.6971   -4.0141 H   0  0  0  0  0  0  0  0  0  0  0  0
   -0.1527    1.0350    0.3459 C   0  0  0  0  0  0  0  0  0  0  0  0
   -0.9754    1.7911   -0.1570 O   0  0  0  0  0  0  0  0  0  0  0  0
    0.7861    1.5473    1.2230 N   0  0  0  0  0  0  0  0  0  0  0  0
    1.4108    0.8859    1.6758 H   0  0  0  0  0  0  0  0  0  0  0  0
    0.7590    2.9239    1.7032 C   0  0  0  0  0  0  0  0  0  0  0  0
   -0.1628    3.1169    2.2620 H   0  0  0  0  0  0  0  0  0  0  0  0
    1.6110    3.1102    2.3640 H   0  0  0  0  0  0  0  0  0  0  0  0
    0.8155    3.6250    0.8639 H   0  0  0  0  0  0  0  0  0  0  0  0
  1  2  1  0  0  0  0
  2  3  1  0  0  0  0
  2  4  1  0  0  0  0
  2  5  1  0  0  0  0
  5  6  2  0  0  0  0
  5  7  1  0  0  0  0
  7  8  1  0  0  0  0
  7  9  1  0  0  0  0
  9 10  1  0  0  0  0
  9 11  1  0  0  0  0
  9 19  1  0  0  0  0
 11 12  1  0  0  0  0
 11 13  1  0  0  0  0
 11 14  1  0  0  0  0
 14 15  2  0  0  0  0
 14 16  1  0  0  0  0
 16 17  1  0  0  0  0
 16 18  1  0  0  0  0
 19 20  2  0  0  0  0
 19 21  1  0  0  0  0
 21 22  1  0  0  0  0
 21 23  1  0  0  0  0
 23 24  1  0  0  0  0
 23 25  1  0  0  0  0
 23 26  1  0  0  0  0
M  END
$$$$

  -OEChem-04042215573D

 26 25  0     1  0  0  0  0  0999 V2000
   -2.8776   -4.0366    0.5870 H   0  0  0  0  0  0  0  0  0  0  0  0
   -2.9027   -3.0215    0.1815 C   0  0  0  0  0  0  0  0  0  0  0  0
   -3.7148   -2.4685    0.6594 H   0  0  0  0  0  0  0  0  0  0  0  0
   -3.0925   -3.0757   -0.8937 H   0  0  0  0  0  0  0  0  0  0  0  0
   -1.5809   -2.3220    0.4350 C   0  0  0  0  0  0  0  0  0  0  0  0
   -0.7004   -2.8836    1.0710 O   0  0  0  0  0  0  0  0  0  0  0  0
   -1.3737   -1.0546   -0.0666 N   0  0  0  0  0  0  0  0  0  0  0  0
   -2.0763   -0.7257   -0.7305 H   0  0  0  0  0  0  0  0  0  0  0  0
   -0.0557   -0.4143   -0.1451 C   0  0  1  0  0  0  0  0  0  0  0  0
    0.6524   -0.9271    0.5140 H   0  0  0  0  0  0  0  0  0  0  0  0
    0.5388   -0.4009   -1.5870 C   0  0  0  0  0  0  0  0  0  0  0  0
    1.0276    0.5614   -1.7644 H   0  0  0  0  0  0  0  0  0  0  0  0
    1.3216   -1.1633   -1.6149 H   0  0  0  0  0  0  0  0  0  0  0  0
   -0.3648   -0.6905   -2.7946 C   0  0  0  0  0  0  0  0  0  0  0  0
   -1.4778   -1.1872   -2.7670 O   0  0  0  0  0  0  0  0  0  0  0  0
    0.0665   -0.3838   -4.0535 N   0  0  0  0  0  0  0  0  0  0  0  0
   -0.6408   -0.4315   -4.7814 H   0  0  0  0  0  0  0  0  0  0  0  0
    0.8613    0.2371   -4.1595 H   0  0  0  0  0  0  0  0  0  0  0  0
   -0.1605    1.0414    0.3554 C   0  0  0  0  0  0  0  0  0  0  0  0
   -0.9970    1.7992   -0.1204 O   0  0  0  0  0  0  0  0  0  0  0  0
    0.7900    1.5481    1.2235 N   0  0  0  0  0  0  0  0  0  0  0  0
    1.4291    0.8863    1.6549 H   0  0  0  0  0  0  0  0  0  0  0  0
    0.7641    2.9195    1.7187 C   0  0  0  0  0  0  0  0  0  0  0  0
   -0.1537    3.1042    2.2870 H   0  0  0  0  0  0  0  0  0  0  0  0
    1.6210    3.1012    2.3746 H   0  0  0  0  0  0  0  0  0  0  0  0
    0.8121    3.6293    0.8861 H   0  0  0  0  0  0  0  0  0  0  0  0
  1  2  1  0  0  0  0
  2  3  1  0  0  0  0
  2  4  1  0  0  0  0
  2  5  1  0  0  0  0
  5  6  2  0  0  0  0
  5  7  1  0  0  0  0
  7  8  1  0  0  0  0
  7  9  1  0  0  0  0
  9 10  1  0  0  0  0
  9 11  1  0  0  0  0
  9 19  1  0  0  0  0
 11 12  1  0  0  0  0
 11 13  1  0  0  0  0
 11 14  1  0  0  0  0
 14 15  2  0  0  0  0
 14 16  1  0  0  0  0
 16 17  1  0  0  0  0
 16 18  1  0  0  0  0
 19 20  2  0  0  0  0
 19 21  1  0  0  0  0
 21 22  1  0  0  0  0
 21 23  1  0  0  0  0
 23 24  1  0  0  0  0
 23 25  1  0  0  0  0
 23 26  1  0  0  0  0
M  END
$$$$

  -OEChem-04042215573D

 26 25  0     1  0  0  0  0  0999 V2000
   -2.8852   -4.0317    0.5674 H   0  0  0  0  0  0  0  0  0  0  0  0
   -2.9153   -3.0041    0.1952 C   0  0  0  0  0  0  0  0  0  0  0  0
   -3.7055   -2.4602    0.7181 H   0  0  0  0  0  0  0  0  0  0  0  0
   -3.1423   -3.0223   -0.8740 H   0  0  0  0  0  0  0  0  0  0  0  0
   -1.5802   -2.3223    0.4264 C   0  0  0  0  0  0  0  0  0  0  0  0
   -0.6930   -2.8984    1.0398 O   0  0  0  0  0  0  0  0  0  0  0  0
   -1.3676   -1.0550   -0.0716 N   0  0  0  0  0  0  0  0  0  0  0  0
   -2.0776   -0.7073   -0.7195 H   0  0  0  0  0  0  0  0  0  0  0  0
   -0.0521   -0.4106   -0.1487 C   0  0  1  0  0  0  0  0  0  0  0  0
    0.6547   -0.9224    0.5125 H   0  0  0  0  0  0  0  0  0  0  0  0
    0.5422   -0.4058   -1.5898 C   0  0  0  0  0  0  0  0  0  0  0  0
    1.0268    0.5569   -1.7768 H   0  0  0  0  0  0  0  0  0  0  0  0
    1.3270   -1.1663   -1.6093 H   0  0  0  0  0  0  0  0  0  0  0  0
   -0.3606   -0.7069   -2.7954 C   0  0  0  0  0  0  0  0  0  0  0  0
   -1.5521   -0.9638   -2.7665 O   0  0  0  0  0  0  0  0  0  0  0  0
    0.1645   -0.6873   -4.0558 N   0  0  0  0  0  0  0  0  0  0  0  0
   -0.5123   -0.7091   -4.8135 H   0  0  0  0  0  0  0  0  0  0  0  0
    1.0769   -0.2690   -4.2009 H   0  0  0  0  0  0  0  0  0  0  0  0
   -0.1572    1.0450    0.3530 C   0  0  0  0  0  0  0  0  0  0  0  0
   -1.0061    1.7989   -0.1057 O   0  0  0  0  0  0  0  0  0  0  0  0
    0.7936    1.5518    1.2209 N   0  0  0  0  0  0  0  0  0  0  0  0
    1.4402    0.8915    1.6431 H   0  0  0  0  0  0  0  0  0  0  0  0
    0.7536    2.9162    1.7344 C   0  0  0  0  0  0  0  0  0  0  0  0
   -0.1605    3.0801    2.3148 H   0  0  0  0  0  0  0  0  0  0  0  0
    1.6147    3.1013    2.3838 H   0  0  0  0  0  0  0  0  0  0  0  0
    0.7819    3.6377    0.9110 H   0  0  0  0  0  0  0  0  0  0  0  0
  1  2  1  0  0  0  0
  2  3  1  0  0  0  0
  2  4  1  0  0  0  0
  2  5  1  0  0  0  0
  5  6  2  0  0  0  0
  5  7  1  0  0  0  0
  7  8  1  0  0  0  0
  7  9  1  0  0  0  0
  9 10  1  0  0  0  0
  9 11  1  0  0  0  0
  9 19  1  0  0  0  0
 11 12  1  0  0  0  0
 11 13  1  0  0  0  0
 11 14  1  0  0  0  0
 14 15  2  0  0  0  0
 14 16  1  0  0  0  0
 16 17  1  0  0  0  0
 16 18  1  0  0  0  0
 19 20  2  0  0  0  0
 19 21  1  0  0  0  0
 21 22  1  0  0  0  0
 21 23  1  0  0  0  0
 23 24  1  0  0  0  0
 23 25  1  0  0  0  0
 23 26  1  0  0  0  0
M  END
$$$$

  -OEChem-04042215573D

 26 25  0     1  0  0  0  0  0999 V2000
   -2.8791   -4.0167    0.5254 H   0  0  0  0  0  0  0  0  0  0  0  0
   -2.9087   -2.9822    0.1724 C   0  0  0  0  0  0  0  0  0  0  0  0
   -3.6692   -2.4366    0.7363 H   0  0  0  0  0  0  0  0  0  0  0  0
   -3.1791   -2.9778   -0.8866 H   0  0  0  0  0  0  0  0  0  0  0  0
   -1.5557   -2.3231    0.3609 C   0  0  0  0  0  0  0  0  0  0  0  0
   -0.6420   -2.9334    0.8970 O   0  0  0  0  0  0  0  0  0  0  0  0
   -1.3530   -1.0409   -0.1005 N   0  0  0  0  0  0  0  0  0  0  0  0
   -2.0931   -0.6447   -0.6842 H   0  0  0  0  0  0  0  0  0  0  0  0
   -0.0482   -0.3737   -0.1659 C   0  0  1  0  0  0  0  0  0  0  0  0
    0.6629   -0.8923    0.4851 H   0  0  0  0  0  0  0  0  0  0  0  0
    0.5431   -0.3468   -1.6062 C   0  0  0  0  0  0  0  0  0  0  0  0
    1.0054    0.6272   -1.7921 H   0  0  0  0  0  0  0  0  0  0  0  0
    1.3430   -1.0910   -1.6321 H   0  0  0  0  0  0  0  0  0  0  0  0
   -0.3699   -0.6546   -2.8009 C   0  0  0  0  0  0  0  0  0  0  0  0
   -1.5888   -0.6771   -2.7867 O   0  0  0  0  0  0  0  0  0  0  0  0
    0.1749   -0.9362   -4.0213 N   0  0  0  0  0  0  0  0  0  0  0  0
   -0.4665   -1.2564   -4.7411 H   0  0  0  0  0  0  0  0  0  0  0  0
    1.1715   -1.1046   -4.1027 H   0  0  0  0  0  0  0  0  0  0  0  0
   -0.1630    1.0679    0.3737 C   0  0  0  0  0  0  0  0  0  0  0  0
   -1.0456    1.8148   -0.0278 O   0  0  0  0  0  0  0  0  0  0  0  0
    0.7894    1.5622    1.2474 N   0  0  0  0  0  0  0  0  0  0  0  0
    1.4685    0.9069    1.6232 H   0  0  0  0  0  0  0  0  0  0  0  0
    0.7435    2.9143    1.7919 C   0  0  0  0  0  0  0  0  0  0  0  0
   -0.1709    3.0614    2.3762 H   0  0  0  0  0  0  0  0  0  0  0  0
    1.6041    3.0892    2.4448 H   0  0  0  0  0  0  0  0  0  0  0  0
    0.7680    3.6538    0.9843 H   0  0  0  0  0  0  0  0  0  0  0  0
  1  2  1  0  0  0  0
  2  3  1  0  0  0  0
  2  4  1  0  0  0  0
  2  5  1  0  0  0  0
  5  6  2  0  0  0  0
  5  7  1  0  0  0  0
  7  8  1  0  0  0  0
  7  9  1  0  0  0  0
  9 10  1  0  0  0  0
  9 11  1  0  0  0  0
  9 19  1  0  0  0  0
 11 12  1  0  0  0  0
 11 13  1  0  0  0  0
 11 14  1  0  0  0  0
 14 15  2  0  0  0  0
 14 16  1  0  0  0  0
 16 17  1  0  0  0  0
 16 18  1  0  0  0  0
 19 20  2  0  0  0  0
 19 21  1  0  0  0  0
 21 22  1  0  0  0  0
 21 23  1  0  0  0  0
 23 24  1  0  0  0  0
 23 25  1  0  0  0  0
 23 26  1  0  0  0  0
M  END
$$$$

  -OEChem-04042215573D

 26 25  0     1  0  0  0  0  0999 V2000
   -2.8881   -3.9925    0.5125 H   0  0  0  0  0  0  0  0  0  0  0  0
   -2.9092   -2.9570    0.1622 C   0  0  0  0  0  0  0  0  0  0  0  0
   -3.6448   -2.4003    0.7478 H   0  0  0  0  0  0  0  0  0  0  0  0
   -3.2085   -2.9452   -0.8890 H   0  0  0  0  0  0  0  0  0  0  0  0
   -1.5402   -2.3220    0.3150 C   0  0  0  0  0  0  0  0  0  0  0  0
   -0.6182   -2.9541    0.8095 O   0  0  0  0  0  0  0  0  0  0  0  0
   -1.3306   -1.0373   -0.1356 N   0  0  0  0  0  0  0  0  0  0  0  0
   -2.0891   -0.6003   -0.6641 H   0  0  0  0  0  0  0  0  0  0  0  0
   -0.0296   -0.3602   -0.1820 C   0  0  1  0  0  0  0  0  0  0  0  0
    0.6737   -0.8775    0.4787 H   0  0  0  0  0  0  0  0  0  0  0  0
    0.5768   -0.3432   -1.6132 C   0  0  0  0  0  0  0  0  0  0  0  0
    1.0277    0.6332   -1.8121 H   0  0  0  0  0  0  0  0  0  0  0  0
    1.3847   -1.0786   -1.6276 H   0  0  0  0  0  0  0  0  0  0  0  0
   -0.3458   -0.6734   -2.7916 C   0  0  0  0  0  0  0  0  0  0  0  0
   -1.5436   -0.4513   -2.8279 O   0  0  0  0  0  0  0  0  0  0  0  0
    0.1516   -1.2663   -3.9173 N   0  0  0  0  0  0  0  0  0  0  0  0
   -0.5336   -1.5877   -4.5951 H   0  0  0  0  0  0  0  0  0  0  0  0
    1.0868   -1.6583   -3.9046 H   0  0  0  0  0  0  0  0  0  0  0  0
   -0.1541    1.0791    0.3615 C   0  0  0  0  0  0  0  0  0  0  0  0
   -1.0600    1.8121   -0.0119 O   0  0  0  0  0  0  0  0  0  0  0  0
    0.7880    1.5724    1.2467 N   0  0  0  0  0  0  0  0  0  0  0  0
    1.4869    0.9258    1.6004 H   0  0  0  0  0  0  0  0  0  0  0  0
    0.7181    2.9119    1.8189 C   0  0  0  0  0  0  0  0  0  0  0  0
   -0.2069    3.0363    2.3920 H   0  0  0  0  0  0  0  0  0  0  0  0
    1.5662    3.0817    2.4890 H   0  0  0  0  0  0  0  0  0  0  0  0
    0.7467    3.6686    1.0276 H   0  0  0  0  0  0  0  0  0  0  0  0
  1  2  1  0  0  0  0
  2  3  1  0  0  0  0
  2  4  1  0  0  0  0
  2  5  1  0  0  0  0
  5  6  2  0  0  0  0
  5  7  1  0  0  0  0
  7  8  1  0  0  0  0
  7  9  1  0  0  0  0
  9 10  1  0  0  0  0
  9 11  1  0  0  0  0
  9 19  1  0  0  0  0
 11 12  1  0  0  0  0
 11 13  1  0  0  0  0
 11 14  1  0  0  0  0
 14 15  2  0  0  0  0
 14 16  1  0  0  0  0
 16 17  1  0  0  0  0
 16 18  1  0  0  0  0
 19 20  2  0  0  0  0
 19 21  1  0  0  0  0
 21 22  1  0  0  0  0
 21 23  1  0  0  0  0
 23 24  1  0  0  0  0
 23 25  1  0  0  0  0
 23 26  1  0  0  0  0
M  END
$$$$

  -OEChem-04042215573D

 26 25  0     1  0  0  0  0  0999 V2000
   -2.8885   -3.9679    0.4970 H   0  0  0  0  0  0  0  0  0  0  0  0
   -2.9045   -2.9324    0.1462 C   0  0  0  0  0  0  0  0  0  0  0  0
   -3.6103   -2.3633    0.7561 H   0  0  0  0  0  0  0  0  0  0  0  0
   -3.2396   -2.9164   -0.8940 H   0  0  0  0  0  0  0  0  0  0  0  0
   -1.5206   -2.3207    0.2524 C   0  0  0  0  0  0  0  0  0  0  0  0
   -0.5871   -2.9772    0.6896 O   0  0  0  0  0  0  0  0  0  0  0  0
   -1.3077   -1.0315   -0.1832 N   0  0  0  0  0  0  0  0  0  0  0  0
   -2.0895   -0.5467   -0.6286 H   0  0  0  0  0  0  0  0  0  0  0  0
   -0.0104   -0.3445   -0.2060 C   0  0  1  0  0  0  0  0  0  0  0  0
    0.6822   -0.8620    0.4658 H   0  0  0  0  0  0  0  0  0  0  0  0
    0.6178   -0.3351   -1.6245 C   0  0  0  0  0  0  0  0  0  0  0  0
    1.0547    0.6457   -1.8331 H   0  0  0  0  0  0  0  0  0  0  0  0
    1.4363   -1.0591   -1.6282 H   0  0  0  0  0  0  0  0  0  0  0  0
   -0.3131   -0.6865   -2.7864 C   0  0  0  0  0  0  0  0  0  0  0  0
   -1.4385   -0.2395   -2.9160 O   0  0  0  0  0  0  0  0  0  0  0  0
    0.0623   -1.5849   -3.7446 N   0  0  0  0  0  0  0  0  0  0  0  0
   -0.6727   -1.8952   -4.3735 H   0  0  0  0  0  0  0  0  0  0  0  0
    0.8746   -2.1696   -3.5803 H   0  0  0  0  0  0  0  0  0  0  0  0
   -0.1468    1.0904    0.3465 C   0  0  0  0  0  0  0  0  0  0  0  0
   -1.0816    1.8038    0.0084 O   0  0  0  0  0  0  0  0  0  0  0  0
    0.7826    1.5812    1.2464 N   0  0  0  0  0  0  0  0  0  0  0  0
    1.5090    0.9489    1.5685 H   0  0  0  0  0  0  0  0  0  0  0  0
    0.6898    2.9078    1.8446 C   0  0  0  0  0  0  0  0  0  0  0  0
   -0.2372    3.0054    2.4195 H   0  0  0  0  0  0  0  0  0  0  0  0
    1.5345    3.0791    2.5187 H   0  0  0  0  0  0  0  0  0  0  0  0
    0.7058    3.6802    1.0683 H   0  0  0  0  0  0  0  0  0  0  0  0
  1  2  1  0  0  0  0
  2  3  1  0  0  0  0
  2  4  1  0  0  0  0
  2  5  1  0  0  0  0
  5  6  2  0  0  0  0
  5  7  1  0  0  0  0
  7  8  1  0  0  0  0
  7  9  1  0  0  0  0
  9 10  1  0  0  0  0
  9 11  1  0  0  0  0
  9 19  1  0  0  0  0
 11 12  1  0  0  0  0
 11 13  1  0  0  0  0
 11 14  1  0  0  0  0
 14 15  2  0  0  0  0
 14 16  1  0  0  0  0
 16 17  1  0  0  0  0
 16 18  1  0  0  0  0
 19 20  2  0  0  0  0
 19 21  1  0  0  0  0
 21 22  1  0  0  0  0
 21 23  1  0  0  0  0
 23 24  1  0  0  0  0
 23 25  1  0  0  0  0
 23 26  1  0  0  0  0
M  END
$$$$

  -OEChem-04042215573D

 26 25  0     1  0  0  0  0  0999 V2000
   -2.8898   -3.9370    0.5111 H   0  0  0  0  0  0  0  0  0  0  0  0
   -2.9029   -2.9019    0.1588 C   0  0  0  0  0  0  0  0  0  0  0  0
   -3.5618   -2.3170    0.8053 H   0  0  0  0  0  0  0  0  0  0  0  0
   -3.2941   -2.8805   -0.8614 H   0  0  0  0  0  0  0  0  0  0  0  0
   -1.5022   -2.3205    0.1869 C   0  0  0  0  0  0  0  0  0  0  0  0
   -0.5557   -3.0049    0.5460 O   0  0  0  0  0  0  0  0  0  0  0  0
   -1.2876   -1.0280   -0.2384 N   0  0  0  0  0  0  0  0  0  0  0  0
   -2.0937   -0.4932   -0.5665 H   0  0  0  0  0  0  0  0  0  0  0  0
    0.0089   -0.3367   -0.2400 C   0  0  1  0  0  0  0  0  0  0  0  0
    0.6882   -0.8543    0.4451 H   0  0  0  0  0  0  0  0  0  0  0  0
    0.6647   -0.3371   -1.6433 C   0  0  0  0  0  0  0  0  0  0  0  0
    1.0931    0.6463   -1.8580 H   0  0  0  0  0  0  0  0  0  0  0  0
    1.4903   -1.0529   -1.6349 H   0  0  0  0  0  0  0  0  0  0  0  0
   -0.2646   -0.7050   -2.7971 C   0  0  0  0  0  0  0  0  0  0  0  0
   -1.2668   -0.0718   -3.0707 O   0  0  0  0  0  0  0  0  0  0  0  0
   -0.0704   -1.8404   -3.5315 N   0  0  0  0  0  0  0  0  0  0  0  0
   -0.8455   -2.1144   -4.1280 H   0  0  0  0  0  0  0  0  0  0  0  0
    0.5676   -2.5442   -3.1746 H   0  0  0  0  0  0  0  0  0  0  0  0
   -0.1401    1.0945    0.3186 C   0  0  0  0  0  0  0  0  0  0  0  0
   -1.1056    1.7829    0.0167 O   0  0  0  0  0  0  0  0  0  0  0  0
    0.7750    1.5846    1.2335 N   0  0  0  0  0  0  0  0  0  0  0  0
    1.5274    0.9693    1.5278 H   0  0  0  0  0  0  0  0  0  0  0  0
    0.6504    2.8937    1.8639 C   0  0  0  0  0  0  0  0  0  0  0  0
   -0.2865    2.9608    2.4270 H   0  0  0  0  0  0  0  0  0  0  0  0
    1.4816    3.0614    2.5554 H   0  0  0  0  0  0  0  0  0  0  0  0
    0.6650    3.6858    1.1078 H   0  0  0  0  0  0  0  0  0  0  0  0
  1  2  1  0  0  0  0
  2  3  1  0  0  0  0
  2  4  1  0  0  0  0
  2  5  1  0  0  0  0
  5  6  2  0  0  0  0
  5  7  1  0  0  0  0
  7  8  1  0  0  0  0
  7  9  1  0  0  0  0
  9 10  1  0  0  0  0
  9 11  1  0  0  0  0
  9 19  1  0  0  0  0
 11 12  1  0  0  0  0
 11 13  1  0  0  0  0
 11 14  1  0  0  0  0
 14 15  2  0  0  0  0
 14 16  1  0  0  0  0
 16 17  1  0  0  0  0
 16 18  1  0  0  0  0
 19 20  2  0  0  0  0
 19 21  1  0  0  0  0
 21 22  1  0  0  0  0
 21 23  1  0  0  0  0
 23 24  1  0  0  0  0
 23 25  1  0  0  0  0
 23 26  1  0  0  0  0
M  END
$$$$

  -OEChem-04042215573D

 26 25  0     1  0  0  0  0  0999 V2000
   -2.8970   -3.9088    0.5657 H   0  0  0  0  0  0  0  0  0  0  0  0
   -2.9108   -2.8755    0.2080 C   0  0  0  0  0  0  0  0  0  0  0  0
   -3.5106   -2.2729    0.8945 H   0  0  0  0  0  0  0  0  0  0  0  0
   -3.3704   -2.8503   -0.7831 H   0  0  0  0  0  0  0  0  0  0  0  0
   -1.4989   -2.3260    0.1376 C   0  0  0  0  0  0  0  0  0  0  0  0
   -0.5435   -3.0385    0.4069 O   0  0  0  0  0  0  0  0  0  0  0  0
   -1.2836   -1.0321   -0.2831 N   0  0  0  0  0  0  0  0  0  0  0  0
   -2.1019   -0.4581   -0.4928 H   0  0  0  0  0  0  0  0  0  0  0  0
    0.0154   -0.3438   -0.2660 C   0  0  1  0  0  0  0  0  0  0  0  0
    0.6789   -0.8626    0.4338 H   0  0  0  0  0  0  0  0  0  0  0  0
    0.7034   -0.3529   -1.6516 C   0  0  0  0  0  0  0  0  0  0  0  0
    1.1362    0.6294   -1.8625 H   0  0  0  0  0  0  0  0  0  0  0  0
    1.5275   -1.0702   -1.6274 H   0  0  0  0  0  0  0  0  0  0  0  0
   -0.2093   -0.7272   -2.8129 C   0  0  0  0  0  0  0  0  0  0  0  0
   -1.0386    0.0365   -3.2677 O   0  0  0  0  0  0  0  0  0  0  0  0
   -0.2172   -1.9918   -3.3299 N   0  0  0  0  0  0  0  0  0  0  0  0
   -1.0044   -2.2084   -3.9338 H   0  0  0  0  0  0  0  0  0  0  0  0
    0.2177   -2.7303   -2.7849 H   0  0  0  0  0  0  0  0  0  0  0  0
   -0.1426    1.0851    0.2948 C   0  0  0  0  0  0  0  0  0  0  0  0
   -1.1314    1.7502    0.0166 O   0  0  0  0  0  0  0  0  0  0  0  0
    0.7578    1.5759    1.2238 N   0  0  0  0  0  0  0  0  0  0  0  0
    1.5371    0.9821    1.4913 H   0  0  0  0  0  0  0  0  0  0  0  0
    0.6133    2.8780    1.8647 C   0  0  0  0  0  0  0  0  0  0  0  0
   -0.3263    2.9272    2.4253 H   0  0  0  0  0  0  0  0  0  0  0  0
    1.4399    3.0514    2.5604 H   0  0  0  0  0  0  0  0  0  0  0  0
    0.6190    3.6769    1.1156 H   0  0  0  0  0  0  0  0  0  0  0  0
  1  2  1  0  0  0  0
  2  3  1  0  0  0  0
  2  4  1  0  0  0  0
  2  5  1  0  0  0  0
  5  6  2  0  0  0  0
  5  7  1  0  0  0  0
  7  8  1  0  0  0  0
  7  9  1  0  0  0  0
  9 10  1  0  0  0  0
  9 11  1  0  0  0  0
  9 19  1  0  0  0  0
 11 12  1  0  0  0  0
 11 13  1  0  0  0  0
 11 14  1  0  0  0  0
 14 15  2  0  0  0  0
 14 16  1  0  0  0  0
 16 17  1  0  0  0  0
 16 18  1  0  0  0  0
 19 20  2  0  0  0  0
 19 21  1  0  0  0  0
 21 22  1  0  0  0  0
 21 23  1  0  0  0  0
 23 24  1  0  0  0  0
 23 25  1  0  0  0  0
 23 26  1  0  0  0  0
M  END
$$$$

  -OEChem-04042215573D

 26 25  0     1  0  0  0  0  0999 V2000
   -2.9165   -3.8846    0.6595 H   0  0  0  0  0  0  0  0  0  0  0  0
   -2.9325   -2.8554    0.2902 C   0  0  0  0  0  0  0  0  0  0  0  0
   -3.4823   -2.2354    1.0028 H   0  0  0  0  0  0  0  0  0  0  0  0
   -3.4477   -2.8338   -0.6733 H   0  0  0  0  0  0  0  0  0  0  0  0
   -1.5172   -2.3326    0.1333 C   0  0  0  0  0  0  0  0  0  0  0  0
   -0.5607   -3.0664    0.3299 O   0  0  0  0  0  0  0  0  0  0  0  0
   -1.3006   -1.0399   -0.2906 N   0  0  0  0  0  0  0  0  0  0  0  0
   -2.1201   -0.4433   -0.4151 H   0  0  0  0  0  0  0  0  0  0  0  0
    0.0034   -0.3590   -0.2703 C   0  0  1  0  0  0  0  0  0  0  0  0
    0.6579   -0.8782    0.4377 H   0  0  0  0  0  0  0  0  0  0  0  0
    0.7101   -0.3728   -1.6457 C   0  0  0  0  0  0  0  0  0  0  0  0
    1.1515    0.6072   -1.8514 H   0  0  0  0  0  0  0  0  0  0  0  0
    1.5294   -1.0955   -1.6119 H   0  0  0  0  0  0  0  0  0  0  0  0
   -0.1891   -0.7455   -2.8162 C   0  0  0  0  0  0  0  0  0  0  0  0
   -0.8115    0.0842   -3.4499 O   0  0  0  0  0  0  0  0  0  0  0  0
   -0.3507   -2.0471   -3.1995 N   0  0  0  0  0  0  0  0  0  0  0  0
   -1.1034   -2.2190   -3.8590 H   0  0  0  0  0  0  0  0  0  0  0  0
   -0.0768   -2.7720   -2.5419 H   0  0  0  0  0  0  0  0  0  0  0  0
   -0.1560    1.0705    0.2880 C   0  0  0  0  0  0  0  0  0  0  0  0
   -1.1563    1.7234    0.0207 O   0  0  0  0  0  0  0  0  0  0  0  0
    0.7393    1.5626    1.2208 N   0  0  0  0  0  0  0  0  0  0  0  0
    1.5357    0.9830    1.4689 H   0  0  0  0  0  0  0  0  0  0  0  0
    0.5952    2.8686    1.8536 C   0  0  0  0  0  0  0  0  0  0  0  0
   -0.3473    2.9241    2.4084 H   0  0  0  0  0  0  0  0  0  0  0  0
    1.4181    3.0433    2.5532 H   0  0  0  0  0  0  0  0  0  0  0  0
    0.6074    3.6628    1.0996 H   0  0  0  0  0  0  0  0  0  0  0  0
  1  2  1  0  0  0  0
  2  3  1  0  0  0  0
  2  4  1  0  0  0  0
  2  5  1  0  0  0  0
  5  6  2  0  0  0  0
  5  7  1  0  0  0  0
  7  8  1  0  0  0  0
  7  9  1  0  0  0  0
  9 10  1  0  0  0  0
  9 11  1  0  0  0  0
  9 19  1  0  0  0  0
 11 12  1  0  0  0  0
 11 13  1  0  0  0  0
 11 14  1  0  0  0  0
 14 15  2  0  0  0  0
 14 16  1  0  0  0  0
 16 17  1  0  0  0  0
 16 18  1  0  0  0  0
 19 20  2  0  0  0  0
 19 21  1  0  0  0  0
 21 22  1  0  0  0  0
 21 23  1  0  0  0  0
 23 24  1  0  0  0  0
 23 25  1  0  0  0  0
 23 26  1  0  0  0  0
M  END
$$$$

  -OEChem-04042215573D

 26 25  0     1  0  0  0  0  0999 V2000
   -2.9362   -3.8686    0.7322 H   0  0  0  0  0  0  0  0  0  0  0  0
   -2.9550   -2.8402    0.3608 C   0  0  0  0  0  0  0  0  0  0  0  0
   -3.4777   -2.2136    1.0879 H   0  0  0  0  0  0  0  0  0  0  0  0
   -3.4994   -2.8172   -0.5865 H   0  0  0  0  0  0  0  0  0  0  0  0
   -1.5404   -2.3306    0.1587 C   0  0  0  0  0  0  0  0  0  0  0  0
   -0.5862   -3.0777    0.3084 O   0  0  0  0  0  0  0  0  0  0  0  0
   -1.3222   -1.0402   -0.2718 N   0  0  0  0  0  0  0  0  0  0  0  0
   -2.1383   -0.4308   -0.3468 H   0  0  0  0  0  0  0  0  0  0  0  0
   -0.0129   -0.3678   -0.2636 C   0  0  1  0  0  0  0  0  0  0  0  0
    0.6425   -0.8885    0.4428 H   0  0  0  0  0  0  0  0  0  0  0  0
    0.6927   -0.3823   -1.6403 C   0  0  0  0  0  0  0  0  0  0  0  0
    1.1432    0.5946   -1.8416 H   0  0  0  0  0  0  0  0  0  0  0  0
    1.5057   -1.1122   -1.6088 H   0  0  0  0  0  0  0  0  0  0  0  0
   -0.2039   -0.7482   -2.8148 C   0  0  0  0  0  0  0  0  0  0  0  0
   -0.6051    0.0826   -3.6062 O   0  0  0  0  0  0  0  0  0  0  0  0
   -0.5025   -2.0513   -3.0992 N   0  0  0  0  0  0  0  0  0  0  0  0
   -1.2065   -2.2001   -3.8155 H   0  0  0  0  0  0  0  0  0  0  0  0
   -0.3579   -2.7448   -2.3696 H   0  0  0  0  0  0  0  0  0  0  0  0
   -0.1665    1.0629    0.2924 C   0  0  0  0  0  0  0  0  0  0  0  0
   -1.1731    1.7100    0.0334 O   0  0  0  0  0  0  0  0  0  0  0  0
    0.7336    1.5579    1.2188 N   0  0  0  0  0  0  0  0  0  0  0  0
    1.5419    0.9876    1.4499 H   0  0  0  0  0  0  0  0  0  0  0  0
    0.5928    2.8657    1.8486 C   0  0  0  0  0  0  0  0  0  0  0  0
   -0.3510    2.9261    2.4008 H   0  0  0  0  0  0  0  0  0  0  0  0
    1.4144    3.0381    2.5505 H   0  0  0  0  0  0  0  0  0  0  0  0
    0.6103    3.6585    1.0933 H   0  0  0  0  0  0  0  0  0  0  0  0
  1  2  1  0  0  0  0
  2  3  1  0  0  0  0
  2  4  1  0  0  0  0
  2  5  1  0  0  0  0
  5  6  2  0  0  0  0
  5  7  1  0  0  0  0
  7  8  1  0  0  0  0
  7  9  1  0  0  0  0
  9 10  1  0  0  0  0
  9 11  1  0  0  0  0
  9 19  1  0  0  0  0
 11 12  1  0  0  0  0
 11 13  1  0  0  0  0
 11 14  1  0  0  0  0
 14 15  2  0  0  0  0
 14 16  1  0  0  0  0
 16 17  1  0  0  0  0
 16 18  1  0  0  0  0
 19 20  2  0  0  0  0
 19 21  1  0  0  0  0
 21 22  1  0  0  0  0
 21 23  1  0  0  0  0
 23 24  1  0  0  0  0
 23 25  1  0  0  0  0
 23 26  1  0  0  0  0
M  END
$$$$

  -OEChem-04042215573D

 26 25  0     1  0  0  0  0  0999 V2000
   -2.9600   -3.8477    0.8072 H   0  0  0  0  0  0  0  0  0  0  0  0
   -2.9779   -2.8200    0.4338 C   0  0  0  0  0  0  0  0  0  0  0  0
   -3.4695   -2.1850    1.1748 H   0  0  0  0  0  0  0  0  0  0  0  0
   -3.5509   -2.7917   -0.4962 H   0  0  0  0  0  0  0  0  0  0  0  0
   -1.5650   -2.3278    0.1863 C   0  0  0  0  0  0  0  0  0  0  0  0
   -0.6155   -3.0876    0.2923 O   0  0  0  0  0  0  0  0  0  0  0  0
   -1.3472   -1.0378   -0.2447 N   0  0  0  0  0  0  0  0  0  0  0  0
   -2.1601   -0.4204   -0.2812 H   0  0  0  0  0  0  0  0  0  0  0  0
   -0.0342   -0.3726   -0.2537 C   0  0  1  0  0  0  0  0  0  0  0  0
    0.6282   -0.8985    0.4424 H   0  0  0  0  0  0  0  0  0  0  0  0
    0.6588   -0.3744   -1.6378 C   0  0  0  0  0  0  0  0  0  0  0  0
    1.1145    0.6022   -1.8280 H   0  0  0  0  0  0  0  0  0  0  0  0
    1.4670   -1.1100   -1.6195 H   0  0  0  0  0  0  0  0  0  0  0  0
   -0.2387   -0.7232   -2.8176 C   0  0  0  0  0  0  0  0  0  0  0  0
   -0.4180    0.0528   -3.7364 O   0  0  0  0  0  0  0  0  0  0  0  0
   -0.6572   -2.0066   -3.0338 N   0  0  0  0  0  0  0  0  0  0  0  0
   -1.2843   -2.1583   -3.8175 H   0  0  0  0  0  0  0  0  0  0  0  0
   -0.6077   -2.6723   -2.2665 H   0  0  0  0  0  0  0  0  0  0  0  0
   -0.1805    1.0564    0.3086 C   0  0  0  0  0  0  0  0  0  0  0  0
   -1.1878    1.7052    0.0555 O   0  0  0  0  0  0  0  0  0  0  0  0
    0.7290    1.5513    1.2256 N   0  0  0  0  0  0  0  0  0  0  0  0
    1.5417    0.9828    1.4457 H   0  0  0  0  0  0  0  0  0  0  0  0
    0.6007    2.8642    1.8472 C   0  0  0  0  0  0  0  0  0  0  0  0
   -0.3382    2.9335    2.4067 H   0  0  0  0  0  0  0  0  0  0  0  0
    1.4291    3.0377    2.5409 H   0  0  0  0  0  0  0  0  0  0  0  0
    0.6165    3.6516    1.0862 H   0  0  0  0  0  0  0  0  0  0  0  0
  1  2  1  0  0  0  0
  2  3  1  0  0  0  0
  2  4  1  0  0  0  0
  2  5  1  0  0  0  0
  5  6  2  0  0  0  0
  5  7  1  0  0  0  0
  7  8  1  0  0  0  0
  7  9  1  0  0  0  0
  9 10  1  0  0  0  0
  9 11  1  0  0  0  0
  9 19  1  0  0  0  0
 11 12  1  0  0  0  0
 11 13  1  0  0  0  0
 11 14  1  0  0  0  0
 14 15  2  0  0  0  0
 14 16  1  0  0  0  0
 16 17  1  0  0  0  0
 16 18  1  0  0  0  0
 19 20  2  0  0  0  0
 19 21  1  0  0  0  0
 21 22  1  0  0  0  0
 21 23  1  0  0  0  0
 23 24  1  0  0  0  0
 23 25  1  0  0  0  0
 23 26  1  0  0  0  0
M  END
$$$$

  -OEChem-04042215573D

 26 25  0     1  0  0  0  0  0999 V2000
   -2.9907   -3.8413    0.8421 H   0  0  0  0  0  0  0  0  0  0  0  0
   -3.0095   -2.8057    0.4910 C   0  0  0  0  0  0  0  0  0  0  0  0
   -3.4960   -2.1865    1.2487 H   0  0  0  0  0  0  0  0  0  0  0  0
   -3.5879   -2.7568   -0.4349 H   0  0  0  0  0  0  0  0  0  0  0  0
   -1.5975   -2.3094    0.2445 C   0  0  0  0  0  0  0  0  0  0  0  0
   -0.6455   -3.0658    0.3580 O   0  0  0  0  0  0  0  0  0  0  0  0
   -1.3836   -1.0182   -0.1855 N   0  0  0  0  0  0  0  0  0  0  0  0
   -2.1973   -0.4031   -0.2297 H   0  0  0  0  0  0  0  0  0  0  0  0
   -0.0686   -0.3613   -0.2360 C   0  0  1  0  0  0  0  0  0  0  0  0
    0.6174   -0.8945    0.4310 H   0  0  0  0  0  0  0  0  0  0  0  0
    0.5759   -0.3441   -1.6451 C   0  0  0  0  0  0  0  0  0  0  0  0
    1.0352    0.6324   -1.8288 H   0  0  0  0  0  0  0  0  0  0  0  0
    1.3786   -1.0857   -1.6611 H   0  0  0  0  0  0  0  0  0  0  0  0
   -0.3453   -0.6659   -2.8173 C   0  0  0  0  0  0  0  0  0  0  0  0
   -0.3245    0.0059   -3.8305 O   0  0  0  0  0  0  0  0  0  0  0  0
   -0.9291   -1.8934   -2.9637 N   0  0  0  0  0  0  0  0  0  0  0  0
   -1.1854   -2.1469   -3.9128 H   0  0  0  0  0  0  0  0  0  0  0  0
   -0.6914   -2.6149   -2.2881 H   0  0  0  0  0  0  0  0  0  0  0  0
   -0.1924    1.0637    0.3407 C   0  0  0  0  0  0  0  0  0  0  0  0
   -1.1947    1.7264    0.1043 O   0  0  0  0  0  0  0  0  0  0  0  0
    0.7476    1.5507    1.2305 N   0  0  0  0  0  0  0  0  0  0  0  0
    1.5552    0.9700    1.4372 H   0  0  0  0  0  0  0  0  0  0  0  0
    0.6448    2.8625    1.8590 C   0  0  0  0  0  0  0  0  0  0  0  0
   -0.2720    2.9318    2.4540 H   0  0  0  0  0  0  0  0  0  0  0  0
    1.4995    3.0338    2.5204 H   0  0  0  0  0  0  0  0  0  0  0  0
    0.6319    3.6512    1.0992 H   0  0  0  0  0  0  0  0  0  0  0  0
  1  2  1  0  0  0  0
  2  3  1  0  0  0  0
  2  4  1  0  0  0  0
  2  5  1  0  0  0  0
  5  6  2  0  0  0  0
  5  7  1  0  0  0  0
  7  8  1  0  0  0  0
  7  9  1  0  0  0  0
  9 10  1  0  0  0  0
  9 11  1  0  0  0  0
  9 19  1  0  0  0  0
 11 12  1  0  0  0  0
 11 13  1  0  0  0  0
 11 14  1  0  0  0  0
 14 15  2  0  0  0  0
 14 16  1  0  0  0  0
 16 17  1  0  0  0  0
 16 18  1  0  0  0  0
 19 20  2  0  0  0  0
 19 21  1  0  0  0  0
 21 22  1  0  0  0  0
 21 23  1  0  0  0  0
 23 24  1  0  0  0  0
 23 25  1  0  0  0  0
 23 26  1  0  0  0  0
M  END
$$$$

  -OEChem-04042215573D

 26 25  0     1  0  0  0  0  0999 V2000
   -2.9884   -3.8308    0.8958 H   0  0  0  0  0  0  0  0  0  0  0  0
   -3.0171   -2.7971    0.5398 C   0  0  0  0  0  0  0  0  0  0  0  0
   -3.4836   -2.1742    1.3072 H   0  0  0  0  0  0  0  0  0  0  0  0
   -3.6209   -2.7535   -0.3701 H   0  0  0  0  0  0  0  0  0  0  0  0
   -1.6119   -2.3027    0.2535 C   0  0  0  0  0  0  0  0  0  0  0  0
   -0.6606   -3.0639    0.3246 O   0  0  0  0  0  0  0  0  0  0  0  0
   -1.4050   -1.0068   -0.1663 N   0  0  0  0  0  0  0  0  0  0  0  0
   -2.2178   -0.3888   -0.1779 H   0  0  0  0  0  0  0  0  0  0  0  0
   -0.0902   -0.3508   -0.2400 C   0  0  1  0  0  0  0  0  0  0  0  0
    0.6089   -0.8937    0.4056 H   0  0  0  0  0  0  0  0  0  0  0  0
    0.5358   -0.2981   -1.6587 C   0  0  0  0  0  0  0  0  0  0  0  0
    0.9952    0.6821   -1.8201 H   0  0  0  0  0  0  0  0  0  0  0  0
    1.3384   -1.0390   -1.6972 H   0  0  0  0  0  0  0  0  0  0  0  0
   -0.3774   -0.5882   -2.8468 C   0  0  0  0  0  0  0  0  0  0  0  0
   -0.1621   -0.0644   -3.9229 O   0  0  0  0  0  0  0  0  0  0  0  0
   -1.1020   -1.7419   -2.9496 N   0  0  0  0  0  0  0  0  0  0  0  0
   -1.2862   -2.0426   -3.9019 H   0  0  0  0  0  0  0  0  0  0  0  0
   -0.9588   -2.4381   -2.2232 H   0  0  0  0  0  0  0  0  0  0  0  0
   -0.2038    1.0665    0.3577 C   0  0  0  0  0  0  0  0  0  0  0  0
   -1.2071    1.7349    0.1417 O   0  0  0  0  0  0  0  0  0  0  0  0
    0.7554    1.5432    1.2325 N   0  0  0  0  0  0  0  0  0  0  0  0
    1.5667    0.9593    1.4147 H   0  0  0  0  0  0  0  0  0  0  0  0
    0.6708    2.8496    1.8748 C   0  0  0  0  0  0  0  0  0  0  0  0
   -0.2412    2.9225    2.4765 H   0  0  0  0  0  0  0  0  0  0  0  0
    1.5313    3.0043    2.5328 H   0  0  0  0  0  0  0  0  0  0  0  0
    0.6621    3.6463    1.1234 H   0  0  0  0  0  0  0  0  0  0  0  0
  1  2  1  0  0  0  0
  2  3  1  0  0  0  0
  2  4  1  0  0  0  0
  2  5  1  0  0  0  0
  5  6  2  0  0  0  0
  5  7  1  0  0  0  0
  7  8  1  0  0  0  0
  7  9  1  0  0  0  0
  9 10  1  0  0  0  0
  9 11  1  0  0  0  0
  9 19  1  0  0  0  0
 11 12  1  0  0  0  0
 11 13  1  0  0  0  0
 11 14  1  0  0  0  0
 14 15  2  0  0  0  0
 14 16  1  0  0  0  0
 16 17  1  0  0  0  0
 16 18  1  0  0  0  0
 19 20  2  0  0  0  0
 19 21  1  0  0  0  0
 21 22  1  0  0  0  0
 21 23  1  0  0  0  0
 23 24  1  0  0  0  0
 23 25  1  0  0  0  0
 23 26  1  0  0  0  0
M  END
$$$$

  -OEChem-04042215573D

 26 25  0     1  0  0  0  0  0999 V2000
   -2.9763   -3.8420    0.8947 H   0  0  0  0  0  0  0  0  0  0  0  0
   -3.0038   -2.8018    0.5576 C   0  0  0  0  0  0  0  0  0  0  0  0
   -3.4636   -2.1914    1.3389 H   0  0  0  0  0  0  0  0  0  0  0  0
   -3.6127   -2.7398   -0.3478 H   0  0  0  0  0  0  0  0  0  0  0  0
   -1.5987   -2.3065    0.2722 C   0  0  0  0  0  0  0  0  0  0  0  0
   -0.6470   -3.0648    0.3557 O   0  0  0  0  0  0  0  0  0  0  0  0
   -1.3948   -1.0102   -0.1496 N   0  0  0  0  0  0  0  0  0  0  0  0
   -2.2054   -0.3890   -0.1469 H   0  0  0  0  0  0  0  0  0  0  0  0
   -0.0788   -0.3584   -0.2432 C   0  0  1  0  0  0  0  0  0  0  0  0
    0.6328   -0.9041    0.3861 H   0  0  0  0  0  0  0  0  0  0  0  0
    0.5331   -0.2651   -1.6698 C   0  0  0  0  0  0  0  0  0  0  0  0
    1.0035    0.7144   -1.8005 H   0  0  0  0  0  0  0  0  0  0  0  0
    1.3290   -1.0123   -1.7285 H   0  0  0  0  0  0  0  0  0  0  0  0
   -0.3570   -0.5096   -2.8881 C   0  0  0  0  0  0  0  0  0  0  0  0
    0.0330   -0.1713   -3.9891 O   0  0  0  0  0  0  0  0  0  0  0  0
   -1.3187   -1.4758   -2.9527 N   0  0  0  0  0  0  0  0  0  0  0  0
   -1.5007   -1.8204   -3.8905 H   0  0  0  0  0  0  0  0  0  0  0  0
   -1.3573   -2.1210   -2.1705 H   0  0  0  0  0  0  0  0  0  0  0  0
   -0.1965    1.0554    0.3631 C   0  0  0  0  0  0  0  0  0  0  0  0
   -1.2024    1.7216    0.1515 O   0  0  0  0  0  0  0  0  0  0  0  0
    0.7679    1.5365    1.2295 N   0  0  0  0  0  0  0  0  0  0  0  0
    1.5785    0.9519    1.4132 H   0  0  0  0  0  0  0  0  0  0  0  0
    0.6750    2.8363    1.8839 C   0  0  0  0  0  0  0  0  0  0  0  0
   -0.2284    2.8912    2.5006 H   0  0  0  0  0  0  0  0  0  0  0  0
    1.5436    2.9986    2.5295 H   0  0  0  0  0  0  0  0  0  0  0  0
    0.6428    3.6387    1.1393 H   0  0  0  0  0  0  0  0  0  0  0  0
  1  2  1  0  0  0  0
  2  3  1  0  0  0  0
  2  4  1  0  0  0  0
  2  5  1  0  0  0  0
  5  6  2  0  0  0  0
  5  7  1  0  0  0  0
  7  8  1  0  0  0  0
  7  9  1  0  0  0  0
  9 10  1  0  0  0  0
  9 11  1  0  0  0  0
  9 19  1  0  0  0  0
 11 12  1  0  0  0  0
 11 13  1  0  0  0  0
 11 14  1  0  0  0  0
 14 15  2  0  0  0  0
 14 16  1  0  0  0  0
 16 17  1  0  0  0  0
 16 18  1  0  0  0  0
 19 20  2  0  0  0  0
 19 21  1  0  0  0  0
 21 22  1  0  0  0  0
 21 23  1  0  0  0  0
 23 24  1  0  0  0  0
 23 25  1  0  0  0  0
 23 26  1  0  0  0  0
M  END
$$$$

  -OEChem-04042215573D

 26 25  0     1  0  0  0  0  0999 V2000
   -2.8273   -4.0984    0.8086 H   0  0  0  0  0  0  0  0  0  0  0  0
   -2.8685   -3.0770    0.4200 C   0  0  0  0  0  0  0  0  0  0  0  0
   -3.5181   -2.4801    1.0647 H   0  0  0  0  0  0  0  0  0  0  0  0
   -3.2892   -3.1010   -0.5884 H   0  0  0  0  0  0  0  0  0  0  0  0
   -1.4770   -2.4739    0.3855 C   0  0  0  0  0  0  0  0  0  0  0  0
   -0.5220   -3.1058    0.8085 O   0  0  0  0  0  0  0  0  0  0  0  0
   -1.2902   -1.2046   -0.1213 N   0  0  0  0  0  0  0  0  0  0  0  0
   -2.1190   -0.6932   -0.4204 H   0  0  0  0  0  0  0  0  0  0  0  0
    0.0107   -0.5173   -0.1891 C   0  0  1  0  0  0  0  0  0  0  0  0
    0.7392   -0.9974    0.4734 H   0  0  0  0  0  0  0  0  0  0  0  0
    0.5833   -0.4850   -1.6282 C   0  0  0  0  0  0  0  0  0  0  0  0
    1.2609    0.3665   -1.7395 H   0  0  0  0  0  0  0  0  0  0  0  0
    1.1754   -1.3938   -1.7662 H   0  0  0  0  0  0  0  0  0  0  0  0
   -0.4248   -0.4517   -2.7762 C   0  0  0  0  0  0  0  0  0  0  0  0
   -0.0291   -0.4313   -3.9254 O   0  0  0  0  0  0  0  0  0  0  0  0
   -1.6534    0.1352   -2.6562 N   0  0  0  0  0  0  0  0  0  0  0  0
   -2.0042    0.4930   -3.5399 H   0  0  0  0  0  0  0  0  0  0  0  0
   -1.7674    0.7257   -1.8305 H   0  0  0  0  0  0  0  0  0  0  0  0
   -0.1821    0.9316    0.3015 C   0  0  0  0  0  0  0  0  0  0  0  0
   -1.1410    1.5767   -0.1127 O   0  0  0  0  0  0  0  0  0  0  0  0
    0.7095    1.5135    1.1824 N   0  0  0  0  0  0  0  0  0  0  0  0
    1.4721    0.9409    1.5343 H   0  0  0  0  0  0  0  0  0  0  0  0
    0.5602    2.8733    1.6872 C   0  0  0  0  0  0  0  0  0  0  0  0
   -0.3800    2.9759    2.2392 H   0  0  0  0  0  0  0  0  0  0  0  0
    1.3858    3.1193    2.3619 H   0  0  0  0  0  0  0  0  0  0  0  0
    0.5645    3.5922    0.8610 H   0  0  0  0  0  0  0  0  0  0  0  0
  1  2  1  0  0  0  0
  2  3  1  0  0  0  0
  2  4  1  0  0  0  0
  2  5  1  0  0  0  0
  5  6  2  0  0  0  0
  5  7  1  0  0  0  0
  7  8  1  0  0  0  0
  7  9  1  0  0  0  0
  9 10  1  0  0  0  0
  9 11  1  0  0  0  0
  9 19  1  0  0  0  0
 11 12  1  0  0  0  0
 11 13  1  0  0  0  0
 11 14  1  0  0  0  0
 14 15  2  0  0  0  0
 14 16  1  0  0  0  0
 16 17  1  0  0  0  0
 16 18  1  0  0  0  0
 19 20  2  0  0  0  0
 19 21  1  0  0  0  0
 21 22  1  0  0  0  0
 21 23  1  0  0  0  0
 23 24  1  0  0  0  0
 23 25  1  0  0  0  0
 23 26  1  0  0  0  0
M  END
$$$$

  -OEChem-04042215573D

 26 25  0     1  0  0  0  0  0999 V2000
   -2.8331   -4.0845    0.7375 H   0  0  0  0  0  0  0  0  0  0  0  0
   -2.8720   -3.0646    0.3449 C   0  0  0  0  0  0  0  0  0  0  0  0
   -3.5471   -2.4724    0.9675 H   0  0  0  0  0  0  0  0  0  0  0  0
   -3.2613   -3.0957   -0.6757 H   0  0  0  0  0  0  0  0  0  0  0  0
   -1.4858   -2.4486    0.3514 C   0  0  0  0  0  0  0  0  0  0  0  0
   -0.5353   -3.0772    0.7893 O   0  0  0  0  0  0  0  0  0  0  0  0
   -1.2998   -1.1697   -0.1313 N   0  0  0  0  0  0  0  0  0  0  0  0
   -2.1231   -0.6676   -0.4606 H   0  0  0  0  0  0  0  0  0  0  0  0
   -0.0010   -0.4779   -0.1839 C   0  0  1  0  0  0  0  0  0  0  0  0
    0.7268   -0.9712    0.4692 H   0  0  0  0  0  0  0  0  0  0  0  0
    0.5669   -0.4335   -1.6233 C   0  0  0  0  0  0  0  0  0  0  0  0
    1.2370    0.4235   -1.7358 H   0  0  0  0  0  0  0  0  0  0  0  0
    1.1630   -1.3381   -1.7728 H   0  0  0  0  0  0  0  0  0  0  0  0
   -0.4627   -0.3957   -2.7504 C   0  0  0  0  0  0  0  0  0  0  0  0
   -0.1314   -0.6349   -3.8952 O   0  0  0  0  0  0  0  0  0  0  0  0
   -1.6321    0.3061   -2.6514 N   0  0  0  0  0  0  0  0  0  0  0  0
   -2.0055    0.6096   -3.5458 H   0  0  0  0  0  0  0  0  0  0  0  0
   -1.7040    0.9417   -1.8539 H   0  0  0  0  0  0  0  0  0  0  0  0
   -0.1790    0.9647    0.3301 C   0  0  0  0  0  0  0  0  0  0  0  0
   -1.1166    1.6380   -0.0869 O   0  0  0  0  0  0  0  0  0  0  0  0
    0.7227    1.5193    1.2184 N   0  0  0  0  0  0  0  0  0  0  0  0
    1.4707    0.9263    1.5681 H   0  0  0  0  0  0  0  0  0  0  0  0
    0.6064    2.8792    1.7315 C   0  0  0  0  0  0  0  0  0  0  0  0
   -0.3383    3.0063    2.2706 H   0  0  0  0  0  0  0  0  0  0  0  0
    1.4289    3.0949    2.4205 H   0  0  0  0  0  0  0  0  0  0  0  0
    0.6448    3.6036    0.9110 H   0  0  0  0  0  0  0  0  0  0  0  0
  1  2  1  0  0  0  0
  2  3  1  0  0  0  0
  2  4  1  0  0  0  0
  2  5  1  0  0  0  0
  5  6  2  0  0  0  0
  5  7  1  0  0  0  0
  7  8  1  0  0  0  0
  7  9  1  0  0  0  0
  9 10  1  0  0  0  0
  9 11  1  0  0  0  0
  9 19  1  0  0  0  0
 11 12  1  0  0  0  0
 11 13  1  0  0  0  0
 11 14  1  0  0  0  0
 14 15  2  0  0  0  0
 14 16  1  0  0  0  0
 16 17  1  0  0  0  0
 16 18  1  0  0  0  0
 19 20  2  0  0  0  0
 19 21  1  0  0  0  0
 21 22  1  0  0  0  0
 21 23  1  0  0  0  0
 23 24  1  0  0  0  0
 23 25  1  0  0  0  0
 23 26  1  0  0  0  0
M  END
$$$$

  -OEChem-04042215573D

 26 25  0     1  0  0  0  0  0999 V2000
   -2.8491   -4.0562    0.6617 H   0  0  0  0  0  0  0  0  0  0  0  0
   -2.8799   -3.0330    0.2766 C   0  0  0  0  0  0  0  0  0  0  0  0
   -3.5681   -2.4459    0.8896 H   0  0  0  0  0  0  0  0  0  0  0  0
   -3.2475   -3.0553   -0.7523 H   0  0  0  0  0  0  0  0  0  0  0  0
   -1.4948   -2.4161    0.3179 C   0  0  0  0  0  0  0  0  0  0  0  0
   -0.5543   -3.0457    0.7756 O   0  0  0  0  0  0  0  0  0  0  0  0
   -1.3007   -1.1327   -0.1490 N   0  0  0  0  0  0  0  0  0  0  0  0
   -2.1149   -0.6333   -0.5042 H   0  0  0  0  0  0  0  0  0  0  0  0
   -0.0003   -0.4444   -0.1840 C   0  0  1  0  0  0  0  0  0  0  0  0
    0.7213   -0.9492    0.4675 H   0  0  0  0  0  0  0  0  0  0  0  0
    0.5719   -0.3976   -1.6211 C   0  0  0  0  0  0  0  0  0  0  0  0
    1.2420    0.4591   -1.7341 H   0  0  0  0  0  0  0  0  0  0  0  0
    1.1673   -1.3026   -1.7742 H   0  0  0  0  0  0  0  0  0  0  0  0
   -0.4687   -0.3548   -2.7371 C   0  0  0  0  0  0  0  0  0  0  0  0
   -0.2410   -0.8403   -3.8282 O   0  0  0  0  0  0  0  0  0  0  0  0
   -1.5721    0.4503   -2.6772 N   0  0  0  0  0  0  0  0  0  0  0  0
   -1.9851    0.6812   -3.5756 H   0  0  0  0  0  0  0  0  0  0  0  0
   -1.6025    1.1371   -1.9201 H   0  0  0  0  0  0  0  0  0  0  0  0
   -0.1654    0.9956    0.3429 C   0  0  0  0  0  0  0  0  0  0  0  0
   -1.0791    1.6941   -0.0853 O   0  0  0  0  0  0  0  0  0  0  0  0
    0.7389    1.5298    1.2410 N   0  0  0  0  0  0  0  0  0  0  0  0
    1.4655    0.9177    1.6025 H   0  0  0  0  0  0  0  0  0  0  0  0
    0.6392    2.8871    1.7643 C   0  0  0  0  0  0  0  0  0  0  0  0
   -0.3114    3.0269    2.2899 H   0  0  0  0  0  0  0  0  0  0  0  0
    1.4546    3.0825    2.4675 H   0  0  0  0  0  0  0  0  0  0  0  0
    0.7026    3.6175    0.9509 H   0  0  0  0  0  0  0  0  0  0  0  0
  1  2  1  0  0  0  0
  2  3  1  0  0  0  0
  2  4  1  0  0  0  0
  2  5  1  0  0  0  0
  5  6  2  0  0  0  0
  5  7  1  0  0  0  0
  7  8  1  0  0  0  0
  7  9  1  0  0  0  0
  9 10  1  0  0  0  0
  9 11  1  0  0  0  0
  9 19  1  0  0  0  0
 11 12  1  0  0  0  0
 11 13  1  0  0  0  0
 11 14  1  0  0  0  0
 14 15  2  0  0  0  0
 14 16  1  0  0  0  0
 16 17  1  0  0  0  0
 16 18  1  0  0  0  0
 19 20  2  0  0  0  0
 19 21  1  0  0  0  0
 21 22  1  0  0  0  0
 21 23  1  0  0  0  0
 23 24  1  0  0  0  0
 23 25  1  0  0  0  0
 23 26  1  0  0  0  0
M  END
$$$$

  -OEChem-04042215573D

 26 25  0     1  0  0  0  0  0999 V2000
   -2.8652   -4.0306    0.5842 H   0  0  0  0  0  0  0  0  0  0  0  0
   -2.8878   -3.0057    0.2033 C   0  0  0  0  0  0  0  0  0  0  0  0
   -3.5976   -2.4241    0.7964 H   0  0  0  0  0  0  0  0  0  0  0  0
   -3.2212   -3.0248   -0.8373 H   0  0  0  0  0  0  0  0  0  0  0  0
   -1.5072   -2.3839    0.2922 C   0  0  0  0  0  0  0  0  0  0  0  0
   -0.5812   -3.0104    0.7828 O   0  0  0  0  0  0  0  0  0  0  0  0
   -1.3019   -1.0992   -0.1668 N   0  0  0  0  0  0  0  0  0  0  0  0
   -2.1047   -0.6036   -0.5521 H   0  0  0  0  0  0  0  0  0  0  0  0
    0.0021   -0.4171   -0.1827 C   0  0  1  0  0  0  0  0  0  0  0  0
    0.7127   -0.9306    0.4736 H   0  0  0  0  0  0  0  0  0  0  0  0
    0.5884   -0.3742   -1.6135 C   0  0  0  0  0  0  0  0  0  0  0  0
    1.2615    0.4806   -1.7236 H   0  0  0  0  0  0  0  0  0  0  0  0
    1.1828   -1.2805   -1.7624 H   0  0  0  0  0  0  0  0  0  0  0  0
   -0.4533   -0.3282   -2.7278 C   0  0  0  0  0  0  0  0  0  0  0  0
   -0.3602   -1.0283   -3.7176 O   0  0  0  0  0  0  0  0  0  0  0  0
   -1.4762    0.5783   -2.7304 N   0  0  0  0  0  0  0  0  0  0  0  0
   -1.9445    0.7283   -3.6185 H   0  0  0  0  0  0  0  0  0  0  0  0
   -1.4702    1.3128   -2.0189 H   0  0  0  0  0  0  0  0  0  0  0  0
   -0.1502    1.0235    0.3469 C   0  0  0  0  0  0  0  0  0  0  0  0
   -1.0363    1.7447   -0.1006 O   0  0  0  0  0  0  0  0  0  0  0  0
    0.7536    1.5410    1.2556 N   0  0  0  0  0  0  0  0  0  0  0  0
    1.4571    0.9123    1.6341 H   0  0  0  0  0  0  0  0  0  0  0  0
    0.6739    2.9006    1.7770 C   0  0  0  0  0  0  0  0  0  0  0  0
   -0.2708    3.0524    2.3099 H   0  0  0  0  0  0  0  0  0  0  0  0
    1.4973    3.0877    2.4731 H   0  0  0  0  0  0  0  0  0  0  0  0
    0.7400    3.6286    0.9615 H   0  0  0  0  0  0  0  0  0  0  0  0
  1  2  1  0  0  0  0
  2  3  1  0  0  0  0
  2  4  1  0  0  0  0
  2  5  1  0  0  0  0
  5  6  2  0  0  0  0
  5  7  1  0  0  0  0
  7  8  1  0  0  0  0
  7  9  1  0  0  0  0
  9 10  1  0  0  0  0
  9 11  1  0  0  0  0
  9 19  1  0  0  0  0
 11 12  1  0  0  0  0
 11 13  1  0  0  0  0
 11 14  1  0  0  0  0
 14 15  2  0  0  0  0
 14 16  1  0  0  0  0
 16 17  1  0  0  0  0
 16 18  1  0  0  0  0
 19 20  2  0  0  0  0
 19 21  1  0  0  0  0
 21 22  1  0  0  0  0
 21 23  1  0  0  0  0
 23 24  1  0  0  0  0
 23 25  1  0  0  0  0
 23 26  1  0  0  0  0
M  END
$$$$

  -OEChem-04042215573D

 26 25  0     1  0  0  0  0  0999 V2000
   -2.9044   -3.9715    0.5497 H   0  0  0  0  0  0  0  0  0  0  0  0
   -2.9075   -2.9477    0.1656 C   0  0  0  0  0  0  0  0  0  0  0  0
   -3.6014   -2.3496    0.7608 H   0  0  0  0  0  0  0  0  0  0  0  0
   -3.2478   -2.9630   -0.8727 H   0  0  0  0  0  0  0  0  0  0  0  0
   -1.5131   -2.3557    0.2437 C   0  0  0  0  0  0  0  0  0  0  0  0
   -0.5981   -3.0013    0.7303 O   0  0  0  0  0  0  0  0  0  0  0  0
   -1.2840   -1.0739   -0.2133 N   0  0  0  0  0  0  0  0  0  0  0  0
   -2.0856   -0.5459   -0.5538 H   0  0  0  0  0  0  0  0  0  0  0  0
    0.0296   -0.4098   -0.2050 C   0  0  1  0  0  0  0  0  0  0  0  0
    0.7212   -0.9298    0.4664 H   0  0  0  0  0  0  0  0  0  0  0  0
    0.6444   -0.3719   -1.6232 C   0  0  0  0  0  0  0  0  0  0  0  0
    1.3308    0.4738   -1.7218 H   0  0  0  0  0  0  0  0  0  0  0  0
    1.2285   -1.2859   -1.7670 H   0  0  0  0  0  0  0  0  0  0  0  0
   -0.3869   -0.3091   -2.7442 C   0  0  0  0  0  0  0  0  0  0  0  0
   -0.4658   -1.1690   -3.6006 O   0  0  0  0  0  0  0  0  0  0  0  0
   -1.2214    0.7635   -2.8822 N   0  0  0  0  0  0  0  0  0  0  0  0
   -1.9559    0.6882   -3.5785 H   0  0  0  0  0  0  0  0  0  0  0  0
   -1.3123    1.4128   -2.0977 H   0  0  0  0  0  0  0  0  0  0  0  0
   -0.1267    1.0312    0.3215 C   0  0  0  0  0  0  0  0  0  0  0  0
   -1.0160    1.7454   -0.1316 O   0  0  0  0  0  0  0  0  0  0  0  0
    0.7580    1.5467    1.2498 N   0  0  0  0  0  0  0  0  0  0  0  0
    1.4600    0.9195    1.6338 H   0  0  0  0  0  0  0  0  0  0  0  0
    0.6632    2.9022    1.7790 C   0  0  0  0  0  0  0  0  0  0  0  0
   -0.2920    3.0468    2.2946 H   0  0  0  0  0  0  0  0  0  0  0  0
    1.4724    3.0871    2.4922 H   0  0  0  0  0  0  0  0  0  0  0  0
    0.7420    3.6365    0.9703 H   0  0  0  0  0  0  0  0  0  0  0  0
  1  2  1  0  0  0  0
  2  3  1  0  0  0  0
  2  4  1  0  0  0  0
  2  5  1  0  0  0  0
  5  6  2  0  0  0  0
  5  7  1  0  0  0  0
  7  8  1  0  0  0  0
  7  9  1  0  0  0  0
  9 10  1  0  0  0  0
  9 11  1  0  0  0  0
  9 19  1  0  0  0  0
 11 12  1  0  0  0  0
 11 13  1  0  0  0  0
 11 14  1  0  0  0  0
 14 15  2  0  0  0  0
 14 16  1  0  0  0  0
 16 17  1  0  0  0  0
 16 18  1  0  0  0  0
 19 20  2  0  0  0  0
 19 21  1  0  0  0  0
 21 22  1  0  0  0  0
 21 23  1  0  0  0  0
 23 24  1  0  0  0  0
 23 25  1  0  0  0  0
 23 26  1  0  0  0  0
M  END
$$$$

  -OEChem-04042215573D

 26 25  0     1  0  0  0  0  0999 V2000
   -2.9082   -3.9709    0.4674 H   0  0  0  0  0  0  0  0  0  0  0  0
   -2.9028   -2.9481    0.0807 C   0  0  0  0  0  0  0  0  0  0  0  0
   -3.6455   -2.3605    0.6254 H   0  0  0  0  0  0  0  0  0  0  0  0
   -3.1711   -2.9718   -0.9786 H   0  0  0  0  0  0  0  0  0  0  0  0
   -1.5270   -2.3325    0.2506 C   0  0  0  0  0  0  0  0  0  0  0  0
   -0.6398   -2.9562    0.8121 O   0  0  0  0  0  0  0  0  0  0  0  0
   -1.2832   -1.0567   -0.2151 N   0  0  0  0  0  0  0  0  0  0  0  0
   -2.0579   -0.5619   -0.6532 H   0  0  0  0  0  0  0  0  0  0  0  0
    0.0347   -0.4023   -0.1933 C   0  0  1  0  0  0  0  0  0  0  0  0
    0.7166   -0.9233    0.4873 H   0  0  0  0  0  0  0  0  0  0  0  0
    0.6606   -0.3755   -1.6068 C   0  0  0  0  0  0  0  0  0  0  0  0
    1.3567    0.4623   -1.7054 H   0  0  0  0  0  0  0  0  0  0  0  0
    1.2367   -1.2953   -1.7439 H   0  0  0  0  0  0  0  0  0  0  0  0
   -0.3669   -0.3095   -2.7308 C   0  0  0  0  0  0  0  0  0  0  0  0
   -0.6391   -1.2723   -3.4229 O   0  0  0  0  0  0  0  0  0  0  0  0
   -1.0780    0.8309   -2.9710 N   0  0  0  0  0  0  0  0  0  0  0  0
   -1.8714    0.7329   -3.5962 H   0  0  0  0  0  0  0  0  0  0  0  0
   -1.1073    1.5276   -2.2237 H   0  0  0  0  0  0  0  0  0  0  0  0
   -0.1114    1.0454    0.3165 C   0  0  0  0  0  0  0  0  0  0  0  0
   -0.9551    1.7811   -0.1867 O   0  0  0  0  0  0  0  0  0  0  0  0
    0.7682    1.5567    1.2518 N   0  0  0  0  0  0  0  0  0  0  0  0
    1.4318    0.9143    1.6767 H   0  0  0  0  0  0  0  0  0  0  0  0
    0.7023    2.9265    1.7469 C   0  0  0  0  0  0  0  0  0  0  0  0
   -0.2510    3.1051    2.2553 H   0  0  0  0  0  0  0  0  0  0  0  0
    1.5140    3.1104    2.4574 H   0  0  0  0  0  0  0  0  0  0  0  0
    0.8000    3.6386    0.9205 H   0  0  0  0  0  0  0  0  0  0  0  0
  1  2  1  0  0  0  0
  2  3  1  0  0  0  0
  2  4  1  0  0  0  0
  2  5  1  0  0  0  0
  5  6  2  0  0  0  0
  5  7  1  0  0  0  0
  7  8  1  0  0  0  0
  7  9  1  0  0  0  0
  9 10  1  0  0  0  0
  9 11  1  0  0  0  0
  9 19  1  0  0  0  0
 11 12  1  0  0  0  0
 11 13  1  0  0  0  0
 11 14  1  0  0  0  0
 14 15  2  0  0  0  0
 14 16  1  0  0  0  0
 16 17  1  0  0  0  0
 16 18  1  0  0  0  0
 19 20  2  0  0  0  0
 19 21  1  0  0  0  0
 21 22  1  0  0  0  0
 21 23  1  0  0  0  0
 23 24  1  0  0  0  0
 23 25  1  0  0  0  0
 23 26  1  0  0  0  0
M  END
$$$$

  -OEChem-04042215573D

 26 25  0     1  0  0  0  0  0999 V2000
   -2.8988   -3.9826    0.4084 H   0  0  0  0  0  0  0  0  0  0  0  0
   -2.8894   -2.9628    0.0138 C   0  0  0  0  0  0  0  0  0  0  0  0
   -3.6839   -2.3889    0.4965 H   0  0  0  0  0  0  0  0  0  0  0  0
   -3.0778   -3.0006   -1.0623 H   0  0  0  0  0  0  0  0  0  0  0  0
   -1.5452   -2.3118    0.2774 C   0  0  0  0  0  0  0  0  0  0  0  0
   -0.6915   -2.9022    0.9218 O   0  0  0  0  0  0  0  0  0  0  0  0
   -1.2910   -1.0454   -0.2073 N   0  0  0  0  0  0  0  0  0  0  0  0
   -2.0221   -0.6108   -0.7671 H   0  0  0  0  0  0  0  0  0  0  0  0
    0.0324   -0.4032   -0.1799 C   0  0  1  0  0  0  0  0  0  0  0  0
    0.7049   -0.9222    0.5114 H   0  0  0  0  0  0  0  0  0  0  0  0
    0.6683   -0.3930   -1.5898 C   0  0  0  0  0  0  0  0  0  0  0  0
    1.3762    0.4348   -1.6893 H   0  0  0  0  0  0  0  0  0  0  0  0
    1.2341   -1.3203   -1.7183 H   0  0  0  0  0  0  0  0  0  0  0  0
   -0.3500   -0.3259   -2.7224 C   0  0  0  0  0  0  0  0  0  0  0  0
   -0.8259   -1.3222   -3.2349 O   0  0  0  0  0  0  0  0  0  0  0  0
   -0.9215    0.8609   -3.0780 N   0  0  0  0  0  0  0  0  0  0  0  0
   -1.7575    0.7794   -3.6476 H   0  0  0  0  0  0  0  0  0  0  0  0
   -0.8678    1.6117   -2.3877 H   0  0  0  0  0  0  0  0  0  0  0  0
   -0.0990    1.0549    0.3046 C   0  0  0  0  0  0  0  0  0  0  0  0
   -0.8894    1.8103   -0.2527 O   0  0  0  0  0  0  0  0  0  0  0  0
    0.7799    1.5647    1.2417 N   0  0  0  0  0  0  0  0  0  0  0  0
    1.3976    0.9086    1.7123 H   0  0  0  0  0  0  0  0  0  0  0  0
    0.7413    2.9467    1.7053 C   0  0  0  0  0  0  0  0  0  0  0  0
   -0.2138    3.1596    2.1970 H   0  0  0  0  0  0  0  0  0  0  0  0
    1.5480    3.1270    2.4223 H   0  0  0  0  0  0  0  0  0  0  0  0
    0.8674    3.6378    0.8651 H   0  0  0  0  0  0  0  0  0  0  0  0
  1  2  1  0  0  0  0
  2  3  1  0  0  0  0
  2  4  1  0  0  0  0
  2  5  1  0  0  0  0
  5  6  2  0  0  0  0
  5  7  1  0  0  0  0
  7  8  1  0  0  0  0
  7  9  1  0  0  0  0
  9 10  1  0  0  0  0
  9 11  1  0  0  0  0
  9 19  1  0  0  0  0
 11 12  1  0  0  0  0
 11 13  1  0  0  0  0
 11 14  1  0  0  0  0
 14 15  2  0  0  0  0
 14 16  1  0  0  0  0
 16 17  1  0  0  0  0
 16 18  1  0  0  0  0
 19 20  2  0  0  0  0
 19 21  1  0  0  0  0
 21 22  1  0  0  0  0
 21 23  1  0  0  0  0
 23 24  1  0  0  0  0
 23 25  1  0  0  0  0
 23 26  1  0  0  0  0
M  END
$$$$

  -OEChem-04042215573D

 26 25  0     1  0  0  0  0  0999 V2000
   -2.9044   -3.9853    0.4409 H   0  0  0  0  0  0  0  0  0  0  0  0
   -2.8777   -2.9873   -0.0051 C   0  0  0  0  0  0  0  0  0  0  0  0
   -3.7100   -2.4005    0.3906 H   0  0  0  0  0  0  0  0  0  0  0  0
   -2.9904   -3.0823   -1.0883 H   0  0  0  0  0  0  0  0  0  0  0  0
   -1.5620   -2.3042    0.3158 C   0  0  0  0  0  0  0  0  0  0  0  0
   -0.7333   -2.8639    1.0184 O   0  0  0  0  0  0  0  0  0  0  0  0
   -1.3040   -1.0473   -0.1902 N   0  0  0  0  0  0  0  0  0  0  0  0
   -1.9889   -0.6801   -0.8489 H   0  0  0  0  0  0  0  0  0  0  0  0
    0.0244   -0.4157   -0.1688 C   0  0  1  0  0  0  0  0  0  0  0  0
    0.6937   -0.9305    0.5283 H   0  0  0  0  0  0  0  0  0  0  0  0
    0.6638   -0.4162   -1.5790 C   0  0  0  0  0  0  0  0  0  0  0  0
    1.3838    0.4015   -1.6763 H   0  0  0  0  0  0  0  0  0  0  0  0
    1.2197   -1.3501   -1.7002 H   0  0  0  0  0  0  0  0  0  0  0  0
   -0.3399   -0.3466   -2.7267 C   0  0  0  0  0  0  0  0  0  0  0  0
   -1.0183   -1.2978   -3.0724 O   0  0  0  0  0  0  0  0  0  0  0  0
   -0.7299    0.8592   -3.2308 N   0  0  0  0  0  0  0  0  0  0  0  0
   -1.5932    0.8285   -3.7641 H   0  0  0  0  0  0  0  0  0  0  0  0
   -0.5634    1.6651   -2.6294 H   0  0  0  0  0  0  0  0  0  0  0  0
   -0.0954    1.0512    0.2926 C   0  0  0  0  0  0  0  0  0  0  0  0
   -0.8495    1.8155   -0.3011 O   0  0  0  0  0  0  0  0  0  0  0  0
    0.7872    1.5644    1.2250 N   0  0  0  0  0  0  0  0  0  0  0  0
    1.3763    0.9039    1.7250 H   0  0  0  0  0  0  0  0  0  0  0  0
    0.7670    2.9547    1.6645 C   0  0  0  0  0  0  0  0  0  0  0  0
   -0.1993    3.1997    2.1178 H   0  0  0  0  0  0  0  0  0  0  0  0
    1.5515    3.1272    2.4078 H   0  0  0  0  0  0  0  0  0  0  0  0
    0.9406    3.6279    0.8183 H   0  0  0  0  0  0  0  0  0  0  0  0
  1  2  1  0  0  0  0
  2  3  1  0  0  0  0
  2  4  1  0  0  0  0
  2  5  1  0  0  0  0
  5  6  2  0  0  0  0
  5  7  1  0  0  0  0
  7  8  1  0  0  0  0
  7  9  1  0  0  0  0
  9 10  1  0  0  0  0
  9 11  1  0  0  0  0
  9 19  1  0  0  0  0
 11 12  1  0  0  0  0
 11 13  1  0  0  0  0
 11 14  1  0  0  0  0
 14 15  2  0  0  0  0
 14 16  1  0  0  0  0
 16 17  1  0  0  0  0
 16 18  1  0  0  0  0
 19 20  2  0  0  0  0
 19 21  1  0  0  0  0
 21 22  1  0  0  0  0
 21 23  1  0  0  0  0
 23 24  1  0  0  0  0
 23 25  1  0  0  0  0
 23 26  1  0  0  0  0
M  END
$$$$

  -OEChem-04042215573D

 26 25  0     1  0  0  0  0  0999 V2000
   -2.8806   -4.0222    0.4515 H   0  0  0  0  0  0  0  0  0  0  0  0
   -2.8788   -3.0111    0.0354 C   0  0  0  0  0  0  0  0  0  0  0  0
   -3.7184   -2.4529    0.4563 H   0  0  0  0  0  0  0  0  0  0  0  0
   -3.0009   -3.0760   -1.0490 H   0  0  0  0  0  0  0  0  0  0  0  0
   -1.5743   -2.3107    0.3642 C   0  0  0  0  0  0  0  0  0  0  0  0
   -0.7465   -2.8557    1.0798 O   0  0  0  0  0  0  0  0  0  0  0  0
   -1.3245   -1.0576   -0.1543 N   0  0  0  0  0  0  0  0  0  0  0  0
   -1.9894   -0.7315   -0.8557 H   0  0  0  0  0  0  0  0  0  0  0  0
    0.0039   -0.4293   -0.1551 C   0  0  1  0  0  0  0  0  0  0  0  0
    0.6803   -0.9402    0.5379 H   0  0  0  0  0  0  0  0  0  0  0  0
    0.6349   -0.4314   -1.5717 C   0  0  0  0  0  0  0  0  0  0  0  0
    1.3604    0.3821   -1.6634 H   0  0  0  0  0  0  0  0  0  0  0  0
    1.1892   -1.3662   -1.6899 H   0  0  0  0  0  0  0  0  0  0  0  0
   -0.3515   -0.3630   -2.7389 C   0  0  0  0  0  0  0  0  0  0  0  0
   -1.2143   -1.1992   -2.9468 O   0  0  0  0  0  0  0  0  0  0  0  0
   -0.4723    0.7765   -3.4790 N   0  0  0  0  0  0  0  0  0  0  0  0
   -1.3337    0.8366   -4.0135 H   0  0  0  0  0  0  0  0  0  0  0  0
   -0.0983    1.6262   -3.0662 H   0  0  0  0  0  0  0  0  0  0  0  0
   -0.1109    1.0400    0.2991 C   0  0  0  0  0  0  0  0  0  0  0  0
   -0.8661    1.8043   -0.2917 O   0  0  0  0  0  0  0  0  0  0  0  0
    0.7848    1.5566    1.2172 N   0  0  0  0  0  0  0  0  0  0  0  0
    1.3627    0.8947    1.7283 H   0  0  0  0  0  0  0  0  0  0  0  0
    0.7699    2.9495    1.6484 C   0  0  0  0  0  0  0  0  0  0  0  0
   -0.1775    3.1874    2.1433 H   0  0  0  0  0  0  0  0  0  0  0  0
    1.5860    3.1355    2.3532 H   0  0  0  0  0  0  0  0  0  0  0  0
    0.8973    3.6188    0.7910 H   0  0  0  0  0  0  0  0  0  0  0  0
  1  2  1  0  0  0  0
  2  3  1  0  0  0  0
  2  4  1  0  0  0  0
  2  5  1  0  0  0  0
  5  6  2  0  0  0  0
  5  7  1  0  0  0  0
  7  8  1  0  0  0  0
  7  9  1  0  0  0  0
  9 10  1  0  0  0  0
  9 11  1  0  0  0  0
  9 19  1  0  0  0  0
 11 12  1  0  0  0  0
 11 13  1  0  0  0  0
 11 14  1  0  0  0  0
 14 15  2  0  0  0  0
 14 16  1  0  0  0  0
 16 17  1  0  0  0  0
 16 18  1  0  0  0  0
 19 20  2  0  0  0  0
 19 21  1  0  0  0  0
 21 22  1  0  0  0  0
 21 23  1  0  0  0  0
 23 24  1  0  0  0  0
 23 25  1  0  0  0  0
 23 26  1  0  0  0  0
M  END
$$$$

  -OEChem-04042215573D

 26 25  0     1  0  0  0  0  0999 V2000
   -2.8738   -4.0364    0.5066 H   0  0  0  0  0  0  0  0  0  0  0  0
   -2.8846   -3.0226    0.0975 C   0  0  0  0  0  0  0  0  0  0  0  0
   -3.7122   -2.4679    0.5459 H   0  0  0  0  0  0  0  0  0  0  0  0
   -3.0374   -3.0799   -0.9835 H   0  0  0  0  0  0  0  0  0  0  0  0
   -1.5722   -2.3226    0.3944 C   0  0  0  0  0  0  0  0  0  0  0  0
   -0.7202   -2.8753    1.0750 O   0  0  0  0  0  0  0  0  0  0  0  0
   -1.3424   -1.0630   -0.1162 N   0  0  0  0  0  0  0  0  0  0  0  0
   -2.0207   -0.7393   -0.8075 H   0  0  0  0  0  0  0  0  0  0  0  0
   -0.0201   -0.4257   -0.1492 C   0  0  1  0  0  0  0  0  0  0  0  0
    0.6736   -0.9366    0.5264 H   0  0  0  0  0  0  0  0  0  0  0  0
    0.5879   -0.4163   -1.5783 C   0  0  0  0  0  0  0  0  0  0  0  0
    1.3047    0.4052   -1.6659 H   0  0  0  0  0  0  0  0  0  0  0  0
    1.1518   -1.3443   -1.7029 H   0  0  0  0  0  0  0  0  0  0  0  0
   -0.3895   -0.3523   -2.7578 C   0  0  0  0  0  0  0  0  0  0  0  0
   -1.4042   -1.0214   -2.8583 O   0  0  0  0  0  0  0  0  0  0  0  0
   -0.2216    0.5695   -3.7506 N   0  0  0  0  0  0  0  0  0  0  0  0
   -1.0346    0.7065   -4.3442 H   0  0  0  0  0  0  0  0  0  0  0  0
    0.3915    1.3559   -3.5634 H   0  0  0  0  0  0  0  0  0  0  0  0
   -0.1336    1.0376    0.3246 C   0  0  0  0  0  0  0  0  0  0  0  0
   -0.9249    1.7991   -0.2187 O   0  0  0  0  0  0  0  0  0  0  0  0
    0.7852    1.5508    1.2221 N   0  0  0  0  0  0  0  0  0  0  0  0
    1.3876    0.8886    1.7032 H   0  0  0  0  0  0  0  0  0  0  0  0
    0.7636    2.9355    1.6789 C   0  0  0  0  0  0  0  0  0  0  0  0
   -0.1733    3.1512    2.2031 H   0  0  0  0  0  0  0  0  0  0  0  0
    1.5958    3.1202    2.3649 H   0  0  0  0  0  0  0  0  0  0  0  0
    0.8586    3.6215    0.8307 H   0  0  0  0  0  0  0  0  0  0  0  0
  1  2  1  0  0  0  0
  2  3  1  0  0  0  0
  2  4  1  0  0  0  0
  2  5  1  0  0  0  0
  5  6  2  0  0  0  0
  5  7  1  0  0  0  0
  7  8  1  0  0  0  0
  7  9  1  0  0  0  0
  9 10  1  0  0  0  0
  9 11  1  0  0  0  0
  9 19  1  0  0  0  0
 11 12  1  0  0  0  0
 11 13  1  0  0  0  0
 11 14  1  0  0  0  0
 14 15  2  0  0  0  0
 14 16  1  0  0  0  0
 16 17  1  0  0  0  0
 16 18  1  0  0  0  0
 19 20  2  0  0  0  0
 19 21  1  0  0  0  0
 21 22  1  0  0  0  0
 21 23  1  0  0  0  0
 23 24  1  0  0  0  0
 23 25  1  0  0  0  0
 23 26  1  0  0  0  0
M  END
$$$$

  -OEChem-04042215573D

 26 25  0     1  0  0  0  0  0999 V2000
   -2.8680   -4.0432    0.5259 H   0  0  0  0  0  0  0  0  0  0  0  0
   -2.8930   -3.0210    0.1387 C   0  0  0  0  0  0  0  0  0  0  0  0
   -3.7017   -2.4752    0.6304 H   0  0  0  0  0  0  0  0  0  0  0  0
   -3.0881   -3.0552   -0.9363 H   0  0  0  0  0  0  0  0  0  0  0  0
   -1.5692   -2.3286    0.3997 C   0  0  0  0  0  0  0  0  0  0  0  0
   -0.6948   -2.8944    1.0402 O   0  0  0  0  0  0  0  0  0  0  0  0
   -1.3522   -1.0627   -0.1002 N   0  0  0  0  0  0  0  0  0  0  0  0
   -2.0484   -0.7232   -0.7675 H   0  0  0  0  0  0  0  0  0  0  0  0
   -0.0363   -0.4152   -0.1502 C   0  0  1  0  0  0  0  0  0  0  0  0
    0.6677   -0.9271    0.5139 H   0  0  0  0  0  0  0  0  0  0  0  0
    0.5580   -0.3991   -1.5860 C   0  0  0  0  0  0  0  0  0  0  0  0
    1.2628    0.4325   -1.6725 H   0  0  0  0  0  0  0  0  0  0  0  0
    1.1337   -1.3198   -1.7107 H   0  0  0  0  0  0  0  0  0  0  0  0
   -0.4102   -0.3425   -2.7760 C   0  0  0  0  0  0  0  0  0  0  0  0
   -1.5385   -0.8049   -2.7987 O   0  0  0  0  0  0  0  0  0  0  0  0
   -0.0451    0.2876   -3.9307 N   0  0  0  0  0  0  0  0  0  0  0  0
   -0.8039    0.4617   -4.5834 H   0  0  0  0  0  0  0  0  0  0  0  0
    0.7470    0.9202   -3.9035 H   0  0  0  0  0  0  0  0  0  0  0  0
   -0.1475    1.0431    0.3403 C   0  0  0  0  0  0  0  0  0  0  0  0
   -0.9639    1.8039   -0.1639 O   0  0  0  0  0  0  0  0  0  0  0  0
    0.7869    1.5506    1.2253 N   0  0  0  0  0  0  0  0  0  0  0  0
    1.4073    0.8868    1.6805 H   0  0  0  0  0  0  0  0  0  0  0  0
    0.7593    2.9260    1.7087 C   0  0  0  0  0  0  0  0  0  0  0  0
   -0.1660    3.1193    2.2617 H   0  0  0  0  0  0  0  0  0  0  0  0
    1.6069    3.1092    2.3759 H   0  0  0  0  0  0  0  0  0  0  0  0
    0.8226    3.6289    0.8713 H   0  0  0  0  0  0  0  0  0  0  0  0
  1  2  1  0  0  0  0
  2  3  1  0  0  0  0
  2  4  1  0  0  0  0
  2  5  1  0  0  0  0
  5  6  2  0  0  0  0
  5  7  1  0  0  0  0
  7  8  1  0  0  0  0
  7  9  1  0  0  0  0
  9 10  1  0  0  0  0
  9 11  1  0  0  0  0
  9 19  1  0  0  0  0
 11 12  1  0  0  0  0
 11 13  1  0  0  0  0
 11 14  1  0  0  0  0
 14 15  2  0  0  0  0
 14 16  1  0  0  0  0
 16 17  1  0  0  0  0
 16 18  1  0  0  0  0
 19 20  2  0  0  0  0
 19 21  1  0  0  0  0
 21 22  1  0  0  0  0
 21 23  1  0  0  0  0
 23 24  1  0  0  0  0
 23 25  1  0  0  0  0
 23 26  1  0  0  0  0
M  END
$$$$

  -OEChem-04042215573D

 26 25  0     1  0  0  0  0  0999 V2000
   -2.8753   -4.0402    0.5262 H   0  0  0  0  0  0  0  0  0  0  0  0
   -2.9034   -3.0100    0.1610 C   0  0  0  0  0  0  0  0  0  0  0  0
   -3.6896   -2.4668    0.6908 H   0  0  0  0  0  0  0  0  0  0  0  0
   -3.1350   -3.0203   -0.9071 H   0  0  0  0  0  0  0  0  0  0  0  0
   -1.5649   -2.3347    0.3908 C   0  0  0  0  0  0  0  0  0  0  0  0
   -0.6761   -2.9181    0.9942 O   0  0  0  0  0  0  0  0  0  0  0  0
   -1.3495   -1.0651   -0.0990 N   0  0  0  0  0  0  0  0  0  0  0  0
   -2.0643   -0.6976   -0.7319 H   0  0  0  0  0  0  0  0  0  0  0  0
   -0.0391   -0.4087   -0.1540 C   0  0  1  0  0  0  0  0  0  0  0  0
    0.6686   -0.9200    0.5065 H   0  0  0  0  0  0  0  0  0  0  0  0
    0.5498   -0.3943   -1.5918 C   0  0  0  0  0  0  0  0  0  0  0  0
    1.2464    0.4437   -1.6836 H   0  0  0  0  0  0  0  0  0  0  0  0
    1.1321   -1.3117   -1.7107 H   0  0  0  0  0  0  0  0  0  0  0  0
   -0.4143   -0.3499   -2.7864 C   0  0  0  0  0  0  0  0  0  0  0  0
   -1.6115   -0.5791   -2.7549 O   0  0  0  0  0  0  0  0  0  0  0  0
    0.0515   -0.0190   -4.0264 N   0  0  0  0  0  0  0  0  0  0  0  0
   -0.6652    0.1857   -4.7168 H   0  0  0  0  0  0  0  0  0  0  0  0
    0.9633    0.4183   -4.1016 H   0  0  0  0  0  0  0  0  0  0  0  0
   -0.1522    1.0460    0.3474 C   0  0  0  0  0  0  0  0  0  0  0  0
   -0.9893    1.8029   -0.1270 O   0  0  0  0  0  0  0  0  0  0  0  0
    0.7873    1.5520    1.2280 N   0  0  0  0  0  0  0  0  0  0  0  0
    1.4232    0.8906    1.6645 H   0  0  0  0  0  0  0  0  0  0  0  0
    0.7511    2.9217    1.7277 C   0  0  0  0  0  0  0  0  0  0  0  0
   -0.1656    3.0966    2.3004 H   0  0  0  0  0  0  0  0  0  0  0  0
    1.6093    3.1091    2.3801 H   0  0  0  0  0  0  0  0  0  0  0  0
    0.7882    3.6347    0.8973 H   0  0  0  0  0  0  0  0  0  0  0  0
  1  2  1  0  0  0  0
  2  3  1  0  0  0  0
  2  4  1  0  0  0  0
  2  5  1  0  0  0  0
  5  6  2  0  0  0  0
  5  7  1  0  0  0  0
  7  8  1  0  0  0  0
  7  9  1  0  0  0  0
  9 10  1  0  0  0  0
  9 11  1  0  0  0  0
  9 19  1  0  0  0  0
 11 12  1  0  0  0  0
 11 13  1  0  0  0  0
 11 14  1  0  0  0  0
 14 15  2  0  0  0  0
 14 16  1  0  0  0  0
 16 17  1  0  0  0  0
 16 18  1  0  0  0  0
 19 20  2  0  0  0  0
 19 21  1  0  0  0  0
 21 22  1  0  0  0  0
 21 23  1  0  0  0  0
 23 24  1  0  0  0  0
 23 25  1  0  0  0  0
 23 26  1  0  0  0  0
M  END
$$$$

  -OEChem-04042215573D

 26 25  0     1  0  0  0  0  0999 V2000
   -2.8861   -4.0202    0.5379 H   0  0  0  0  0  0  0  0  0  0  0  0
   -2.9120   -2.9879    0.1788 C   0  0  0  0  0  0  0  0  0  0  0  0
   -3.6709   -2.4368    0.7395 H   0  0  0  0  0  0  0  0  0  0  0  0
   -3.1824   -2.9890   -0.8802 H   0  0  0  0  0  0  0  0  0  0  0  0
   -1.5566   -2.3328    0.3651 C   0  0  0  0  0  0  0  0  0  0  0  0
   -0.6524   -2.9362    0.9244 O   0  0  0  0  0  0  0  0  0  0  0  0
   -1.3425   -1.0589   -0.1135 N   0  0  0  0  0  0  0  0  0  0  0  0
   -2.0771   -0.6580   -0.7024 H   0  0  0  0  0  0  0  0  0  0  0  0
   -0.0372   -0.3922   -0.1652 C   0  0  1  0  0  0  0  0  0  0  0  0
    0.6691   -0.9025    0.4976 H   0  0  0  0  0  0  0  0  0  0  0  0
    0.5540   -0.3915   -1.6009 C   0  0  0  0  0  0  0  0  0  0  0  0
    1.2422    0.4519   -1.7058 H   0  0  0  0  0  0  0  0  0  0  0  0
    1.1434   -1.3061   -1.7050 H   0  0  0  0  0  0  0  0  0  0  0  0
   -0.4121   -0.3700   -2.7937 C   0  0  0  0  0  0  0  0  0  0  0  0
   -1.6295   -0.3532   -2.7329 O   0  0  0  0  0  0  0  0  0  0  0  0
    0.0779   -0.3570   -4.0681 N   0  0  0  0  0  0  0  0  0  0  0  0
   -0.6014   -0.1517   -4.7955 H   0  0  0  0  0  0  0  0  0  0  0  0
    1.0588   -0.1453   -4.2144 H   0  0  0  0  0  0  0  0  0  0  0  0
   -0.1503    1.0597    0.3454 C   0  0  0  0  0  0  0  0  0  0  0  0
   -1.0149    1.8098   -0.0871 O   0  0  0  0  0  0  0  0  0  0  0  0
    0.7926    1.5605    1.2256 N   0  0  0  0  0  0  0  0  0  0  0  0
    1.4501    0.9015    1.6325 H   0  0  0  0  0  0  0  0  0  0  0  0
    0.7360    2.9149    1.7638 C   0  0  0  0  0  0  0  0  0  0  0  0
   -0.1863    3.0615    2.3358 H   0  0  0  0  0  0  0  0  0  0  0  0
    1.5877    3.0946    2.4268 H   0  0  0  0  0  0  0  0  0  0  0  0
    0.7682    3.6518    0.9542 H   0  0  0  0  0  0  0  0  0  0  0  0
  1  2  1  0  0  0  0
  2  3  1  0  0  0  0
  2  4  1  0  0  0  0
  2  5  1  0  0  0  0
  5  6  2  0  0  0  0
  5  7  1  0  0  0  0
  7  8  1  0  0  0  0
  7  9  1  0  0  0  0
  9 10  1  0  0  0  0
  9 11  1  0  0  0  0
  9 19  1  0  0  0  0
 11 12  1  0  0  0  0
 11 13  1  0  0  0  0
 11 14  1  0  0  0  0
 14 15  2  0  0  0  0
 14 16  1  0  0  0  0
 16 17  1  0  0  0  0
 16 18  1  0  0  0  0
 19 20  2  0  0  0  0
 19 21  1  0  0  0  0
 21 22  1  0  0  0  0
 21 23  1  0  0  0  0
 23 24  1  0  0  0  0
 23 25  1  0  0  0  0
 23 26  1  0  0  0  0
M  END
$$$$

  -OEChem-04042215573D

 26 25  0     1  0  0  0  0  0999 V2000
   -2.8798   -3.9901    0.5082 H   0  0  0  0  0  0  0  0  0  0  0  0
   -2.9027   -2.9561    0.1534 C   0  0  0  0  0  0  0  0  0  0  0  0
   -3.6316   -2.3954    0.7436 H   0  0  0  0  0  0  0  0  0  0  0  0
   -3.2118   -2.9483   -0.8949 H   0  0  0  0  0  0  0  0  0  0  0  0
   -1.5313   -2.3236    0.2919 C   0  0  0  0  0  0  0  0  0  0  0  0
   -0.6042   -2.9599    0.7709 O   0  0  0  0  0  0  0  0  0  0  0  0
   -1.3252   -1.0359   -0.1511 N   0  0  0  0  0  0  0  0  0  0  0  0
   -2.0926   -0.5809   -0.6515 H   0  0  0  0  0  0  0  0  0  0  0  0
   -0.0295   -0.3490   -0.1859 C   0  0  1  0  0  0  0  0  0  0  0  0
    0.6756   -0.8652    0.4735 H   0  0  0  0  0  0  0  0  0  0  0  0
    0.5702   -0.3381   -1.6156 C   0  0  0  0  0  0  0  0  0  0  0  0
    1.2413    0.5186   -1.7234 H   0  0  0  0  0  0  0  0  0  0  0  0
    1.1762   -1.2422   -1.7159 H   0  0  0  0  0  0  0  0  0  0  0  0
   -0.4031   -0.3307   -2.8001 C   0  0  0  0  0  0  0  0  0  0  0  0
   -1.5930   -0.0763   -2.7384 O   0  0  0  0  0  0  0  0  0  0  0  0
    0.0433   -0.6249   -4.0571 N   0  0  0  0  0  0  0  0  0  0  0  0
   -0.6656   -0.7254   -4.7780 H   0  0  0  0  0  0  0  0  0  0  0  0
    0.9732   -1.0082   -4.1860 H   0  0  0  0  0  0  0  0  0  0  0  0
   -0.1528    1.0897    0.3603 C   0  0  0  0  0  0  0  0  0  0  0  0
   -1.0629    1.8242    0.0019 O   0  0  0  0  0  0  0  0  0  0  0  0
    0.7898    1.5757    1.2493 N   0  0  0  0  0  0  0  0  0  0  0  0
    1.4863    0.9248    1.5999 H   0  0  0  0  0  0  0  0  0  0  0  0
    0.7191    2.9097    1.8343 C   0  0  0  0  0  0  0  0  0  0  0  0
   -0.2013    3.0250    2.4163 H   0  0  0  0  0  0  0  0  0  0  0  0
    1.5723    3.0774    2.4986 H   0  0  0  0  0  0  0  0  0  0  0  0
    0.7380    3.6733    1.0496 H   0  0  0  0  0  0  0  0  0  0  0  0
  1  2  1  0  0  0  0
  2  3  1  0  0  0  0
  2  4  1  0  0  0  0
  2  5  1  0  0  0  0
  5  6  2  0  0  0  0
  5  7  1  0  0  0  0
  7  8  1  0  0  0  0
  7  9  1  0  0  0  0
  9 10  1  0  0  0  0
  9 11  1  0  0  0  0
  9 19  1  0  0  0  0
 11 12  1  0  0  0  0
 11 13  1  0  0  0  0
 11 14  1  0  0  0  0
 14 15  2  0  0  0  0
 14 16  1  0  0  0  0
 16 17  1  0  0  0  0
 16 18  1  0  0  0  0
 19 20  2  0  0  0  0
 19 21  1  0  0  0  0
 21 22  1  0  0  0  0
 21 23  1  0  0  0  0
 23 24  1  0  0  0  0
 23 25  1  0  0  0  0
 23 26  1  0  0  0  0
M  END
$$$$

  -OEChem-04042215573D

 26 25  0     1  0  0  0  0  0999 V2000
   -2.8893   -3.9597    0.5079 H   0  0  0  0  0  0  0  0  0  0  0  0
   -2.9069   -2.9255    0.1535 C   0  0  0  0  0  0  0  0  0  0  0  0
   -3.6041   -2.3527    0.7698 H   0  0  0  0  0  0  0  0  0  0  0  0
   -3.2541   -2.9126   -0.8826 H   0  0  0  0  0  0  0  0  0  0  0  0
   -1.5202   -2.3169    0.2411 C   0  0  0  0  0  0  0  0  0  0  0  0
   -0.5834   -2.9756    0.6677 O   0  0  0  0  0  0  0  0  0  0  0  0
   -1.3101   -1.0264   -0.1917 N   0  0  0  0  0  0  0  0  0  0  0  0
   -2.0988   -0.5282   -0.6101 H   0  0  0  0  0  0  0  0  0  0  0  0
   -0.0162   -0.3337   -0.2089 C   0  0  1  0  0  0  0  0  0  0  0  0
    0.6773   -0.8490    0.4638 H   0  0  0  0  0  0  0  0  0  0  0  0
    0.6065   -0.3394   -1.6261 C   0  0  0  0  0  0  0  0  0  0  0  0
    1.2717    0.5207   -1.7421 H   0  0  0  0  0  0  0  0  0  0  0  0
    1.2198   -1.2404   -1.7078 H   0  0  0  0  0  0  0  0  0  0  0  0
   -0.3701   -0.3525   -2.8044 C   0  0  0  0  0  0  0  0  0  0  0  0
   -1.4823    0.1416   -2.7875 O   0  0  0  0  0  0  0  0  0  0  0  0
   -0.0332   -0.9541   -3.9836 N   0  0  0  0  0  0  0  0  0  0  0  0
   -0.7814   -1.0554   -4.6634 H   0  0  0  0  0  0  0  0  0  0  0  0
    0.7816   -1.5566   -4.0211 H   0  0  0  0  0  0  0  0  0  0  0  0
   -0.1463    1.1028    0.3431 C   0  0  0  0  0  0  0  0  0  0  0  0
   -1.0933    1.8137    0.0368 O   0  0  0  0  0  0  0  0  0  0  0  0
    0.7880    1.5857    1.2427 N   0  0  0  0  0  0  0  0  0  0  0  0
    1.5155    0.9500    1.5555 H   0  0  0  0  0  0  0  0  0  0  0  0
    0.6917    2.9023    1.8625 C   0  0  0  0  0  0  0  0  0  0  0  0
   -0.2234    2.9790    2.4592 H   0  0  0  0  0  0  0  0  0  0  0  0
    1.5493    3.0751    2.5197 H   0  0  0  0  0  0  0  0  0  0  0  0
    0.6800    3.6862    1.0978 H   0  0  0  0  0  0  0  0  0  0  0  0
  1  2  1  0  0  0  0
  2  3  1  0  0  0  0
  2  4  1  0  0  0  0
  2  5  1  0  0  0  0
  5  6  2  0  0  0  0
  5  7  1  0  0  0  0
  7  8  1  0  0  0  0
  7  9  1  0  0  0  0
  9 10  1  0  0  0  0
  9 11  1  0  0  0  0
  9 19  1  0  0  0  0
 11 12  1  0  0  0  0
 11 13  1  0  0  0  0
 11 14  1  0  0  0  0
 14 15  2  0  0  0  0
 14 16  1  0  0  0  0
 16 17  1  0  0  0  0
 16 18  1  0  0  0  0
 19 20  2  0  0  0  0
 19 21  1  0  0  0  0
 21 22  1  0  0  0  0
 21 23  1  0  0  0  0
 23 24  1  0  0  0  0
 23 25  1  0  0  0  0
 23 26  1  0  0  0  0
M  END
$$$$

  -OEChem-04042215573D

 26 25  0     1  0  0  0  0  0999 V2000
   -2.8974   -3.9242    0.5374 H   0  0  0  0  0  0  0  0  0  0  0  0
   -2.9105   -2.8926    0.1749 C   0  0  0  0  0  0  0  0  0  0  0  0
   -3.5600   -2.2992    0.8230 H   0  0  0  0  0  0  0  0  0  0  0  0
   -3.3133   -2.8800   -0.8409 H   0  0  0  0  0  0  0  0  0  0  0  0
   -1.5075   -2.3159    0.1822 C   0  0  0  0  0  0  0  0  0  0  0  0
   -0.5602   -3.0014    0.5373 O   0  0  0  0  0  0  0  0  0  0  0  0
   -1.2948   -1.0225   -0.2416 N   0  0  0  0  0  0  0  0  0  0  0  0
   -2.1042   -0.4788   -0.5469 H   0  0  0  0  0  0  0  0  0  0  0  0
   -0.0012   -0.3276   -0.2387 C   0  0  1  0  0  0  0  0  0  0  0  0
    0.6790   -0.8427    0.4475 H   0  0  0  0  0  0  0  0  0  0  0  0
    0.6494   -0.3418   -1.6406 C   0  0  0  0  0  0  0  0  0  0  0  0
    1.3098    0.5222   -1.7559 H   0  0  0  0  0  0  0  0  0  0  0  0
    1.2704   -1.2385   -1.7087 H   0  0  0  0  0  0  0  0  0  0  0  0
   -0.3241   -0.3651   -2.8175 C   0  0  0  0  0  0  0  0  0  0  0  0
   -1.3109    0.3410   -2.8931 O   0  0  0  0  0  0  0  0  0  0  0  0
   -0.1577   -1.2373   -3.8555 N   0  0  0  0  0  0  0  0  0  0  0  0
   -0.9396   -1.3118   -4.4998 H   0  0  0  0  0  0  0  0  0  0  0  0
    0.4940   -2.0074   -3.7510 H   0  0  0  0  0  0  0  0  0  0  0  0
   -0.1446    1.1053    0.3193 C   0  0  0  0  0  0  0  0  0  0  0  0
   -1.1278    1.7854    0.0603 O   0  0  0  0  0  0  0  0  0  0  0  0
    0.7761    1.5863    1.2335 N   0  0  0  0  0  0  0  0  0  0  0  0
    1.5396    0.9741    1.5046 H   0  0  0  0  0  0  0  0  0  0  0  0
    0.6550    2.8879    1.8797 C   0  0  0  0  0  0  0  0  0  0  0  0
   -0.2773    2.9472    2.4511 H   0  0  0  0  0  0  0  0  0  0  0  0
    1.4918    3.0496    2.5660 H   0  0  0  0  0  0  0  0  0  0  0  0
    0.6616    3.6881    1.1321 H   0  0  0  0  0  0  0  0  0  0  0  0
  1  2  1  0  0  0  0
  2  3  1  0  0  0  0
  2  4  1  0  0  0  0
  2  5  1  0  0  0  0
  5  6  2  0  0  0  0
  5  7  1  0  0  0  0
  7  8  1  0  0  0  0
  7  9  1  0  0  0  0
  9 10  1  0  0  0  0
  9 11  1  0  0  0  0
  9 19  1  0  0  0  0
 11 12  1  0  0  0  0
 11 13  1  0  0  0  0
 11 14  1  0  0  0  0
 14 15  2  0  0  0  0
 14 16  1  0  0  0  0
 16 17  1  0  0  0  0
 16 18  1  0  0  0  0
 19 20  2  0  0  0  0
 19 21  1  0  0  0  0
 21 22  1  0  0  0  0
 21 23  1  0  0  0  0
 23 24  1  0  0  0  0
 23 25  1  0  0  0  0
 23 26  1  0  0  0  0
M  END
$$$$

  -OEChem-04042215573D

 26 25  0     1  0  0  0  0  0999 V2000
   -2.9009   -3.8912    0.5622 H   0  0  0  0  0  0  0  0  0  0  0  0
   -2.9108   -2.8595    0.1999 C   0  0  0  0  0  0  0  0  0  0  0  0
   -3.5144   -2.2530    0.8796 H   0  0  0  0  0  0  0  0  0  0  0  0
   -3.3635   -2.8380   -0.7944 H   0  0  0  0  0  0  0  0  0  0  0  0
   -1.4976   -2.3125    0.1358 C   0  0  0  0  0  0  0  0  0  0  0  0
   -0.5466   -3.0223    0.4266 O   0  0  0  0  0  0  0  0  0  0  0  0
   -1.2797   -1.0197   -0.2872 N   0  0  0  0  0  0  0  0  0  0  0  0
   -2.0966   -0.4414   -0.4919 H   0  0  0  0  0  0  0  0  0  0  0  0
    0.0185   -0.3323   -0.2667 C   0  0  1  0  0  0  0  0  0  0  0  0
    0.6837   -0.8483    0.4336 H   0  0  0  0  0  0  0  0  0  0  0  0
    0.6949   -0.3571   -1.6543 C   0  0  0  0  0  0  0  0  0  0  0  0
    1.3568    0.5061   -1.7646 H   0  0  0  0  0  0  0  0  0  0  0  0
    1.3166   -1.2541   -1.7138 H   0  0  0  0  0  0  0  0  0  0  0  0
   -0.2707   -0.3804   -2.8344 C   0  0  0  0  0  0  0  0  0  0  0  0
   -1.0850    0.4971   -3.0415 O   0  0  0  0  0  0  0  0  0  0  0  0
   -0.3353   -1.4518   -3.6796 N   0  0  0  0  0  0  0  0  0  0  0  0
   -1.1409   -1.4737   -4.2980 H   0  0  0  0  0  0  0  0  0  0  0  0
    0.1137   -2.3175   -3.3992 H   0  0  0  0  0  0  0  0  0  0  0  0
   -0.1368    1.0998    0.2903 C   0  0  0  0  0  0  0  0  0  0  0  0
   -1.1446    1.7524    0.0540 O   0  0  0  0  0  0  0  0  0  0  0  0
    0.7662    1.5852    1.2200 N   0  0  0  0  0  0  0  0  0  0  0  0
    1.5509    0.9930    1.4746 H   0  0  0  0  0  0  0  0  0  0  0  0
    0.6108    2.8725    1.8881 C   0  0  0  0  0  0  0  0  0  0  0  0
   -0.3226    2.8979    2.4603 H   0  0  0  0  0  0  0  0  0  0  0  0
    1.4432    3.0445    2.5773 H   0  0  0  0  0  0  0  0  0  0  0  0
    0.5961    3.6854    1.1544 H   0  0  0  0  0  0  0  0  0  0  0  0
  1  2  1  0  0  0  0
  2  3  1  0  0  0  0
  2  4  1  0  0  0  0
  2  5  1  0  0  0  0
  5  6  2  0  0  0  0
  5  7  1  0  0  0  0
  7  8  1  0  0  0  0
  7  9  1  0  0  0  0
  9 10  1  0  0  0  0
  9 11  1  0  0  0  0
  9 19  1  0  0  0  0
 11 12  1  0  0  0  0
 11 13  1  0  0  0  0
 11 14  1  0  0  0  0
 14 15  2  0  0  0  0
 14 16  1  0  0  0  0
 16 17  1  0  0  0  0
 16 18  1  0  0  0  0
 19 20  2  0  0  0  0
 19 21  1  0  0  0  0
 21 22  1  0  0  0  0
 21 23  1  0  0  0  0
 23 24  1  0  0  0  0
 23 25  1  0  0  0  0
 23 26  1  0  0  0  0
M  END
$$$$

  -OEChem-04042215573D

 26 25  0     1  0  0  0  0  0999 V2000
   -2.9111   -3.8752    0.6224 H   0  0  0  0  0  0  0  0  0  0  0  0
   -2.9196   -2.8460    0.2528 C   0  0  0  0  0  0  0  0  0  0  0  0
   -3.4847   -2.2256    0.9528 H   0  0  0  0  0  0  0  0  0  0  0  0
   -3.4135   -2.8247   -0.7216 H   0  0  0  0  0  0  0  0  0  0  0  0
   -1.5015   -2.3223    0.1264 C   0  0  0  0  0  0  0  0  0  0  0  0
   -0.5504   -3.0484    0.3713 O   0  0  0  0  0  0  0  0  0  0  0  0
   -1.2794   -1.0322   -0.3032 N   0  0  0  0  0  0  0  0  0  0  0  0
   -2.0960   -0.4340   -0.4400 H   0  0  0  0  0  0  0  0  0  0  0  0
    0.0241   -0.3530   -0.2748 C   0  0  1  0  0  0  0  0  0  0  0  0
    0.6814   -0.8673    0.4343 H   0  0  0  0  0  0  0  0  0  0  0  0
    0.7165   -0.3786   -1.6539 C   0  0  0  0  0  0  0  0  0  0  0  0
    1.3837    0.4818   -1.7562 H   0  0  0  0  0  0  0  0  0  0  0  0
    1.3352   -1.2779   -1.7134 H   0  0  0  0  0  0  0  0  0  0  0  0
   -0.2419   -0.3939   -2.8372 C   0  0  0  0  0  0  0  0  0  0  0  0
   -0.8540    0.5924   -3.1949 O   0  0  0  0  0  0  0  0  0  0  0  0
   -0.5127   -1.5446   -3.5217 N   0  0  0  0  0  0  0  0  0  0  0  0
   -1.3066   -1.5015   -4.1537 H   0  0  0  0  0  0  0  0  0  0  0  0
   -0.2432   -2.4285   -3.1019 H   0  0  0  0  0  0  0  0  0  0  0  0
   -0.1404    1.0804    0.2749 C   0  0  0  0  0  0  0  0  0  0  0  0
   -1.1590    1.7167    0.0382 O   0  0  0  0  0  0  0  0  0  0  0  0
    0.7493    1.5729    1.2132 N   0  0  0  0  0  0  0  0  0  0  0  0
    1.5507    0.9988    1.4567 H   0  0  0  0  0  0  0  0  0  0  0  0
    0.5823    2.8635    1.8714 C   0  0  0  0  0  0  0  0  0  0  0  0
   -0.3584    2.8898    2.4316 H   0  0  0  0  0  0  0  0  0  0  0  0
    1.4052    3.0415    2.5702 H   0  0  0  0  0  0  0  0  0  0  0  0
    0.5750    3.6716    1.1323 H   0  0  0  0  0  0  0  0  0  0  0  0
  1  2  1  0  0  0  0
  2  3  1  0  0  0  0
  2  4  1  0  0  0  0
  2  5  1  0  0  0  0
  5  6  2  0  0  0  0
  5  7  1  0  0  0  0
  7  8  1  0  0  0  0
  7  9  1  0  0  0  0
  9 10  1  0  0  0  0
  9 11  1  0  0  0  0
  9 19  1  0  0  0  0
 11 12  1  0  0  0  0
 11 13  1  0  0  0  0
 11 14  1  0  0  0  0
 14 15  2  0  0  0  0
 14 16  1  0  0  0  0
 16 17  1  0  0  0  0
 16 18  1  0  0  0  0
 19 20  2  0  0  0  0
 19 21  1  0  0  0  0
 21 22  1  0  0  0  0
 21 23  1  0  0  0  0
 23 24  1  0  0  0  0
 23 25  1  0  0  0  0
 23 26  1  0  0  0  0
M  END
$$$$

  -OEChem-04042215573D

 26 25  0     1  0  0  0  0  0999 V2000
   -2.9242   -3.8736    0.6855 H   0  0  0  0  0  0  0  0  0  0  0  0
   -2.9339   -2.8456    0.3126 C   0  0  0  0  0  0  0  0  0  0  0  0
   -3.4741   -2.2181    1.0259 H   0  0  0  0  0  0  0  0  0  0  0  0
   -3.4547   -2.8227   -0.6477 H   0  0  0  0  0  0  0  0  0  0  0  0
   -1.5153   -2.3350    0.1449 C   0  0  0  0  0  0  0  0  0  0  0  0
   -0.5644   -3.0721    0.3530 O   0  0  0  0  0  0  0  0  0  0  0  0
   -1.2932   -1.0465   -0.2896 N   0  0  0  0  0  0  0  0  0  0  0  0
   -2.1088   -0.4382   -0.3802 H   0  0  0  0  0  0  0  0  0  0  0  0
    0.0138   -0.3721   -0.2674 C   0  0  1  0  0  0  0  0  0  0  0  0
    0.6723   -0.8867    0.4407 H   0  0  0  0  0  0  0  0  0  0  0  0
    0.7075   -0.3887   -1.6457 C   0  0  0  0  0  0  0  0  0  0  0  0
    1.3779    0.4705   -1.7396 H   0  0  0  0  0  0  0  0  0  0  0  0
    1.3227   -1.2897   -1.7142 H   0  0  0  0  0  0  0  0  0  0  0  0
   -0.2492   -0.3934   -2.8293 C   0  0  0  0  0  0  0  0  0  0  0  0
   -0.6494    0.6327   -3.3422 O   0  0  0  0  0  0  0  0  0  0  0  0
   -0.6807   -1.5603   -3.3946 N   0  0  0  0  0  0  0  0  0  0  0  0
   -1.4374   -1.4744   -4.0664 H   0  0  0  0  0  0  0  0  0  0  0  0
   -0.5488   -2.4240   -2.8775 H   0  0  0  0  0  0  0  0  0  0  0  0
   -0.1527    1.0613    0.2801 C   0  0  0  0  0  0  0  0  0  0  0  0
   -1.1741    1.6916    0.0377 O   0  0  0  0  0  0  0  0  0  0  0  0
    0.7356    1.5596    1.2162 N   0  0  0  0  0  0  0  0  0  0  0  0
    1.5511    0.9991    1.4448 H   0  0  0  0  0  0  0  0  0  0  0  0
    0.5773    2.8624    1.8519 C   0  0  0  0  0  0  0  0  0  0  0  0
   -0.3649    2.9062    2.4083 H   0  0  0  0  0  0  0  0  0  0  0  0
    1.3997    3.0455    2.5503 H   0  0  0  0  0  0  0  0  0  0  0  0
    0.5790    3.6579    1.0991 H   0  0  0  0  0  0  0  0  0  0  0  0
  1  2  1  0  0  0  0
  2  3  1  0  0  0  0
  2  4  1  0  0  0  0
  2  5  1  0  0  0  0
  5  6  2  0  0  0  0
  5  7  1  0  0  0  0
  7  8  1  0  0  0  0
  7  9  1  0  0  0  0
  9 10  1  0  0  0  0
  9 11  1  0  0  0  0
  9 19  1  0  0  0  0
 11 12  1  0  0  0  0
 11 13  1  0  0  0  0
 11 14  1  0  0  0  0
 14 15  2  0  0  0  0
 14 16  1  0  0  0  0
 16 17  1  0  0  0  0
 16 18  1  0  0  0  0
 19 20  2  0  0  0  0
 19 21  1  0  0  0  0
 21 22  1  0  0  0  0
 21 23  1  0  0  0  0
 23 24  1  0  0  0  0
 23 25  1  0  0  0  0
 23 26  1  0  0  0  0
M  END
$$$$

  -OEChem-04042215573D

 26 25  0     1  0  0  0  0  0999 V2000
   -2.9295   -3.8724    0.7526 H   0  0  0  0  0  0  0  0  0  0  0  0
   -2.9439   -2.8464    0.3740 C   0  0  0  0  0  0  0  0  0  0  0  0
   -3.4702   -2.2140    1.0932 H   0  0  0  0  0  0  0  0  0  0  0  0
   -3.4816   -2.8285   -0.5770 H   0  0  0  0  0  0  0  0  0  0  0  0
   -1.5273   -2.3405    0.1786 C   0  0  0  0  0  0  0  0  0  0  0  0
   -0.5759   -3.0805    0.3699 O   0  0  0  0  0  0  0  0  0  0  0  0
   -1.3078   -1.0541   -0.2641 N   0  0  0  0  0  0  0  0  0  0  0  0
   -2.1219   -0.4408   -0.3302 H   0  0  0  0  0  0  0  0  0  0  0  0
    0.0034   -0.3864   -0.2575 C   0  0  1  0  0  0  0  0  0  0  0  0
    0.6693   -0.9023    0.4427 H   0  0  0  0  0  0  0  0  0  0  0  0
    0.6851   -0.3869   -1.6427 C   0  0  0  0  0  0  0  0  0  0  0  0
    1.3627    0.4678   -1.7281 H   0  0  0  0  0  0  0  0  0  0  0  0
    1.2928   -1.2916   -1.7282 H   0  0  0  0  0  0  0  0  0  0  0  0
   -0.2753   -0.3725   -2.8236 C   0  0  0  0  0  0  0  0  0  0  0  0
   -0.4628    0.6297   -3.4848 O   0  0  0  0  0  0  0  0  0  0  0  0
   -0.8565   -1.5180   -3.2897 N   0  0  0  0  0  0  0  0  0  0  0  0
   -1.5633   -1.4021   -4.0095 H   0  0  0  0  0  0  0  0  0  0  0  0
   -0.8539   -2.3398   -2.6937 H   0  0  0  0  0  0  0  0  0  0  0  0
   -0.1604    1.0479    0.2878 C   0  0  0  0  0  0  0  0  0  0  0  0
   -1.1795    1.6790    0.0368 O   0  0  0  0  0  0  0  0  0  0  0  0
    0.7324    1.5523    1.2160 N   0  0  0  0  0  0  0  0  0  0  0  0
    1.5483    0.9922    1.4451 H   0  0  0  0  0  0  0  0  0  0  0  0
    0.5795    2.8603    1.8424 C   0  0  0  0  0  0  0  0  0  0  0  0
   -0.3667    2.9152    2.3910 H   0  0  0  0  0  0  0  0  0  0  0  0
    1.3972    3.0403    2.5469 H   0  0  0  0  0  0  0  0  0  0  0  0
    0.5942    3.6517    1.0855 H   0  0  0  0  0  0  0  0  0  0  0  0
  1  2  1  0  0  0  0
  2  3  1  0  0  0  0
  2  4  1  0  0  0  0
  2  5  1  0  0  0  0
  5  6  2  0  0  0  0
  5  7  1  0  0  0  0
  7  8  1  0  0  0  0
  7  9  1  0  0  0  0
  9 10  1  0  0  0  0
  9 11  1  0  0  0  0
  9 19  1  0  0  0  0
 11 12  1  0  0  0  0
 11 13  1  0  0  0  0
 11 14  1  0  0  0  0
 14 15  2  0  0  0  0
 14 16  1  0  0  0  0
 16 17  1  0  0  0  0
 16 18  1  0  0  0  0
 19 20  2  0  0  0  0
 19 21  1  0  0  0  0
 21 22  1  0  0  0  0
 21 23  1  0  0  0  0
 23 24  1  0  0  0  0
 23 25  1  0  0  0  0
 23 26  1  0  0  0  0
M  END
$$$$

  -OEChem-04042215573D

 26 25  0     1  0  0  0  0  0999 V2000
   -2.9329   -3.8705    0.8210 H   0  0  0  0  0  0  0  0  0  0  0  0
   -2.9520   -2.8472    0.4354 C   0  0  0  0  0  0  0  0  0  0  0  0
   -3.4615   -2.2082    1.1610 H   0  0  0  0  0  0  0  0  0  0  0  0
   -3.5092   -2.8343   -0.5045 H   0  0  0  0  0  0  0  0  0  0  0  0
   -1.5380   -2.3474    0.2078 C   0  0  0  0  0  0  0  0  0  0  0  0
   -0.5860   -3.0910    0.3790 O   0  0  0  0  0  0  0  0  0  0  0  0
   -1.3230   -1.0606   -0.2372 N   0  0  0  0  0  0  0  0  0  0  0  0
   -2.1354   -0.4427   -0.2770 H   0  0  0  0  0  0  0  0  0  0  0  0
   -0.0088   -0.3979   -0.2472 C   0  0  1  0  0  0  0  0  0  0  0  0
    0.6678   -0.9176    0.4398 H   0  0  0  0  0  0  0  0  0  0  0  0
    0.6588   -0.3689   -1.6402 C   0  0  0  0  0  0  0  0  0  0  0  0
    1.3433    0.4821   -1.7092 H   0  0  0  0  0  0  0  0  0  0  0  0
    1.2585   -1.2762   -1.7492 H   0  0  0  0  0  0  0  0  0  0  0  0
   -0.3007   -0.3264   -2.8226 C   0  0  0  0  0  0  0  0  0  0  0  0
   -0.2851    0.5951   -3.6152 O   0  0  0  0  0  0  0  0  0  0  0  0
   -1.0268   -1.4187   -3.2055 N   0  0  0  0  0  0  0  0  0  0  0  0
   -1.6783   -1.2853   -3.9729 H   0  0  0  0  0  0  0  0  0  0  0  0
   -1.1457   -2.1803   -2.5457 H   0  0  0  0  0  0  0  0  0  0  0  0
   -0.1709    1.0341    0.3038 C   0  0  0  0  0  0  0  0  0  0  0  0
   -1.1874    1.6681    0.0481 O   0  0  0  0  0  0  0  0  0  0  0  0
    0.7287    1.5410    1.2236 N   0  0  0  0  0  0  0  0  0  0  0  0
    1.5489    0.9838    1.4445 H   0  0  0  0  0  0  0  0  0  0  0  0
    0.5865    2.8566    1.8361 C   0  0  0  0  0  0  0  0  0  0  0  0
   -0.3576    2.9236    2.3870 H   0  0  0  0  0  0  0  0  0  0  0  0
    1.4076    3.0388    2.5359 H   0  0  0  0  0  0  0  0  0  0  0  0
    0.6045    3.6391    1.0701 H   0  0  0  0  0  0  0  0  0  0  0  0
  1  2  1  0  0  0  0
  2  3  1  0  0  0  0
  2  4  1  0  0  0  0
  2  5  1  0  0  0  0
  5  6  2  0  0  0  0
  5  7  1  0  0  0  0
  7  8  1  0  0  0  0
  7  9  1  0  0  0  0
  9 10  1  0  0  0  0
  9 11  1  0  0  0  0
  9 19  1  0  0  0  0
 11 12  1  0  0  0  0
 11 13  1  0  0  0  0
 11 14  1  0  0  0  0
 14 15  2  0  0  0  0
 14 16  1  0  0  0  0
 16 17  1  0  0  0  0
 16 18  1  0  0  0  0
 19 20  2  0  0  0  0
 19 21  1  0  0  0  0
 21 22  1  0  0  0  0
 21 23  1  0  0  0  0
 23 24  1  0  0  0  0
 23 25  1  0  0  0  0
 23 26  1  0  0  0  0
M  END
$$$$

  -OEChem-04042215573D

 26 25  0     1  0  0  0  0  0999 V2000
   -2.9239   -3.8691    0.8834 H   0  0  0  0  0  0  0  0  0  0  0  0
   -2.9502   -2.8500    0.4874 C   0  0  0  0  0  0  0  0  0  0  0  0
   -3.4478   -2.2041    1.2150 H   0  0  0  0  0  0  0  0  0  0  0  0
   -3.5235   -2.8473   -0.4427 H   0  0  0  0  0  0  0  0  0  0  0  0
   -1.5402   -2.3526    0.2304 C   0  0  0  0  0  0  0  0  0  0  0  0
   -0.5862   -3.0952    0.3924 O   0  0  0  0  0  0  0  0  0  0  0  0
   -1.3329   -1.0641   -0.2154 N   0  0  0  0  0  0  0  0  0  0  0  0
   -2.1435   -0.4426   -0.2259 H   0  0  0  0  0  0  0  0  0  0  0  0
   -0.0164   -0.4053   -0.2454 C   0  0  1  0  0  0  0  0  0  0  0  0
    0.6721   -0.9291    0.4265 H   0  0  0  0  0  0  0  0  0  0  0  0
    0.6380   -0.3443   -1.6467 C   0  0  0  0  0  0  0  0  0  0  0  0
    1.3277    0.5040   -1.6964 H   0  0  0  0  0  0  0  0  0  0  0  0
    1.2326   -1.2522   -1.7772 H   0  0  0  0  0  0  0  0  0  0  0  0
   -0.3086   -0.2724   -2.8403 C   0  0  0  0  0  0  0  0  0  0  0  0
   -0.1047    0.5120   -3.7467 O   0  0  0  0  0  0  0  0  0  0  0  0
   -1.2018   -1.2629   -3.1343 N   0  0  0  0  0  0  0  0  0  0  0  0
   -1.8057   -1.1066   -3.9353 H   0  0  0  0  0  0  0  0  0  0  0  0
   -1.4645   -1.9105   -2.3997 H   0  0  0  0  0  0  0  0  0  0  0  0
   -0.1776    1.0230    0.3151 C   0  0  0  0  0  0  0  0  0  0  0  0
   -1.1917    1.6601    0.0568 O   0  0  0  0  0  0  0  0  0  0  0  0
    0.7308    1.5316    1.2253 N   0  0  0  0  0  0  0  0  0  0  0  0
    1.5496    0.9716    1.4448 H   0  0  0  0  0  0  0  0  0  0  0  0
    0.5929    2.8466    1.8406 C   0  0  0  0  0  0  0  0  0  0  0  0
   -0.3488    2.9143    2.3955 H   0  0  0  0  0  0  0  0  0  0  0  0
    1.4170    3.0269    2.5375 H   0  0  0  0  0  0  0  0  0  0  0  0
    0.6087    3.6303    1.0758 H   0  0  0  0  0  0  0  0  0  0  0  0
  1  2  1  0  0  0  0
  2  3  1  0  0  0  0
  2  4  1  0  0  0  0
  2  5  1  0  0  0  0
  5  6  2  0  0  0  0
  5  7  1  0  0  0  0
  7  8  1  0  0  0  0
  7  9  1  0  0  0  0
  9 10  1  0  0  0  0
  9 11  1  0  0  0  0
  9 19  1  0  0  0  0
 11 12  1  0  0  0  0
 11 13  1  0  0  0  0
 11 14  1  0  0  0  0
 14 15  2  0  0  0  0
 14 16  1  0  0  0  0
 16 17  1  0  0  0  0
 16 18  1  0  0  0  0
 19 20  2  0  0  0  0
 19 21  1  0  0  0  0
 21 22  1  0  0  0  0
 21 23  1  0  0  0  0
 23 24  1  0  0  0  0
 23 25  1  0  0  0  0
 23 26  1  0  0  0  0
M  END
$$$$

  -OEChem-04042215573D

 26 25  0     1  0  0  0  0  0999 V2000
   -2.8996   -3.8880    0.9241 H   0  0  0  0  0  0  0  0  0  0  0  0
   -2.9363   -2.8767    0.5093 C   0  0  0  0  0  0  0  0  0  0  0  0
   -3.4459   -2.2233    1.2218 H   0  0  0  0  0  0  0  0  0  0  0  0
   -3.5042   -2.8998   -0.4239 H   0  0  0  0  0  0  0  0  0  0  0  0
   -1.5311   -2.3670    0.2503 C   0  0  0  0  0  0  0  0  0  0  0  0
   -0.5707   -3.0981    0.4253 O   0  0  0  0  0  0  0  0  0  0  0  0
   -1.3372   -1.0751   -0.1959 N   0  0  0  0  0  0  0  0  0  0  0  0
   -2.1464   -0.4522   -0.1683 H   0  0  0  0  0  0  0  0  0  0  0  0
   -0.0210   -0.4159   -0.2422 C   0  0  1  0  0  0  0  0  0  0  0  0
    0.6771   -0.9403    0.4198 H   0  0  0  0  0  0  0  0  0  0  0  0
    0.6282   -0.3299   -1.6475 C   0  0  0  0  0  0  0  0  0  0  0  0
    1.3243    0.5140   -1.6777 H   0  0  0  0  0  0  0  0  0  0  0  0
    1.2186   -1.2396   -1.7868 H   0  0  0  0  0  0  0  0  0  0  0  0
   -0.2888   -0.2371   -2.8659 C   0  0  0  0  0  0  0  0  0  0  0  0
    0.0829    0.3549   -3.8608 O   0  0  0  0  0  0  0  0  0  0  0  0
   -1.3942   -1.0143   -3.0597 N   0  0  0  0  0  0  0  0  0  0  0  0
   -1.9505   -0.8036   -3.8827 H   0  0  0  0  0  0  0  0  0  0  0  0
   -1.8124   -1.4564   -2.2497 H   0  0  0  0  0  0  0  0  0  0  0  0
   -0.1828    1.0088    0.3266 C   0  0  0  0  0  0  0  0  0  0  0  0
   -1.1962    1.6466    0.0663 O   0  0  0  0  0  0  0  0  0  0  0  0
    0.7318    1.5210    1.2280 N   0  0  0  0  0  0  0  0  0  0  0  0
    1.5532    0.9625    1.4426 H   0  0  0  0  0  0  0  0  0  0  0  0
    0.6019    2.8415    1.8330 C   0  0  0  0  0  0  0  0  0  0  0  0
   -0.3364    2.9175    2.3926 H   0  0  0  0  0  0  0  0  0  0  0  0
    1.4307    3.0245    2.5237 H   0  0  0  0  0  0  0  0  0  0  0  0
    0.6163    3.6186    1.0615 H   0  0  0  0  0  0  0  0  0  0  0  0
  1  2  1  0  0  0  0
  2  3  1  0  0  0  0
  2  4  1  0  0  0  0
  2  5  1  0  0  0  0
  5  6  2  0  0  0  0
  5  7  1  0  0  0  0
  7  8  1  0  0  0  0
  7  9  1  0  0  0  0
  9 10  1  0  0  0  0
  9 11  1  0  0  0  0
  9 19  1  0  0  0  0
 11 12  1  0  0  0  0
 11 13  1  0  0  0  0
 11 14  1  0  0  0  0
 14 15  2  0  0  0  0
 14 16  1  0  0  0  0
 16 17  1  0  0  0  0
 16 18  1  0  0  0  0
 19 20  2  0  0  0  0
 19 21  1  0  0  0  0
 21 22  1  0  0  0  0
 21 23  1  0  0  0  0
 23 24  1  0  0  0  0
 23 25  1  0  0  0  0
 23 26  1  0  0  0  0
M  END
$$$$

  -OEChem-04042215573D

 26 25  0     1  0  0  0  0  0999 V2000
   -2.9041   -3.8926    0.8594 H   0  0  0  0  0  0  0  0  0  0  0  0
   -2.9424   -2.8546    0.5170 C   0  0  0  0  0  0  0  0  0  0  0  0
   -3.4182   -2.2473    1.2909 H   0  0  0  0  0  0  0  0  0  0  0  0
   -3.5435   -2.8067   -0.3941 H   0  0  0  0  0  0  0  0  0  0  0  0
   -1.5409   -2.3423    0.2436 C   0  0  0  0  0  0  0  0  0  0  0  0
   -0.5787   -3.0785    0.3855 O   0  0  0  0  0  0  0  0  0  0  0  0
   -1.3522   -1.0437   -0.1834 N   0  0  0  0  0  0  0  0  0  0  0  0
   -2.1622   -0.4220   -0.1474 H   0  0  0  0  0  0  0  0  0  0  0  0
   -0.0378   -0.3834   -0.2482 C   0  0  1  0  0  0  0  0  0  0  0  0
    0.6708   -0.9191    0.3929 H   0  0  0  0  0  0  0  0  0  0  0  0
    0.5902   -0.2798   -1.6629 C   0  0  0  0  0  0  0  0  0  0  0  0
    1.2861    0.5643   -1.6888 H   0  0  0  0  0  0  0  0  0  0  0  0
    1.1802   -1.1876   -1.8148 H   0  0  0  0  0  0  0  0  0  0  0  0
   -0.3213   -0.1723   -2.8865 C   0  0  0  0  0  0  0  0  0  0  0  0
    0.1467    0.1822   -3.9513 O   0  0  0  0  0  0  0  0  0  0  0  0
   -1.5899   -0.6660   -2.9794 N   0  0  0  0  0  0  0  0  0  0  0  0
   -1.9376   -0.7959   -3.9246 H   0  0  0  0  0  0  0  0  0  0  0  0
   -1.9067   -1.2712   -2.2311 H   0  0  0  0  0  0  0  0  0  0  0  0
   -0.1809    1.0322    0.3475 C   0  0  0  0  0  0  0  0  0  0  0  0
   -1.1957    1.6809    0.1234 O   0  0  0  0  0  0  0  0  0  0  0  0
    0.7586    1.5242    1.2347 N   0  0  0  0  0  0  0  0  0  0  0  0
    1.5752    0.9518    1.4299 H   0  0  0  0  0  0  0  0  0  0  0  0
    0.6384    2.8231    1.8863 C   0  0  0  0  0  0  0  0  0  0  0  0
   -0.2652    2.8597    2.5039 H   0  0  0  0  0  0  0  0  0  0  0  0
    1.5044    3.0053    2.5300 H   0  0  0  0  0  0  0  0  0  0  0  0
    0.5879    3.6235    1.1405 H   0  0  0  0  0  0  0  0  0  0  0  0
  1  2  1  0  0  0  0
  2  3  1  0  0  0  0
  2  4  1  0  0  0  0
  2  5  1  0  0  0  0
  5  6  2  0  0  0  0
  5  7  1  0  0  0  0
  7  8  1  0  0  0  0
  7  9  1  0  0  0  0
  9 10  1  0  0  0  0
  9 11  1  0  0  0  0
  9 19  1  0  0  0  0
 11 12  1  0  0  0  0
 11 13  1  0  0  0  0
 11 14  1  0  0  0  0
 14 15  2  0  0  0  0
 14 16  1  0  0  0  0
 16 17  1  0  0  0  0
 16 18  1  0  0  0  0
 19 20  2  0  0  0  0
 19 21  1  0  0  0  0
 21 22  1  0  0  0  0
 21 23  1  0  0  0  0
 23 24  1  0  0  0  0
 23 25  1  0  0  0  0
 23 26  1  0  0  0  0
M  END
$$$$

  -OEChem-04042215573D

 26 25  0     1  0  0  0  0  0999 V2000
   -2.8207   -4.0717    0.6848 H   0  0  0  0  0  0  0  0  0  0  0  0
   -2.8674   -3.0484    0.3014 C   0  0  0  0  0  0  0  0  0  0  0  0
   -3.5346   -2.4632    0.9390 H   0  0  0  0  0  0  0  0  0  0  0  0
   -3.2720   -3.0711   -0.7135 H   0  0  0  0  0  0  0  0  0  0  0  0
   -1.4825   -2.4288    0.2923 C   0  0  0  0  0  0  0  0  0  0  0  0
   -0.5207   -3.0673    0.6893 O   0  0  0  0  0  0  0  0  0  0  0  0
   -1.3108   -1.1378   -0.1630 N   0  0  0  0  0  0  0  0  0  0  0  0
   -2.1450   -0.6277   -0.4483 H   0  0  0  0  0  0  0  0  0  0  0  0
   -0.0215   -0.4284   -0.2000 C   0  0  1  0  0  0  0  0  0  0  0  0
    0.6985   -0.9296    0.4563 H   0  0  0  0  0  0  0  0  0  0  0  0
    0.5576   -0.4240   -1.6322 C   0  0  0  0  0  0  0  0  0  0  0  0
    1.3976    0.2747   -1.6792 H   0  0  0  0  0  0  0  0  0  0  0  0
    0.9489   -1.4243   -1.8374 H   0  0  0  0  0  0  0  0  0  0  0  0
   -0.4073   -0.0844   -2.7694 C   0  0  0  0  0  0  0  0  0  0  0  0
   -0.0084   -0.0689   -3.9175 O   0  0  0  0  0  0  0  0  0  0  0  0
   -1.6107    0.5405   -2.6009 N   0  0  0  0  0  0  0  0  0  0  0  0
   -1.9467    0.9997   -3.4420 H   0  0  0  0  0  0  0  0  0  0  0  0
   -1.7339    1.0262   -1.7105 H   0  0  0  0  0  0  0  0  0  0  0  0
   -0.1792    1.0087    0.3375 C   0  0  0  0  0  0  0  0  0  0  0  0
   -1.1483    1.6787   -0.0034 O   0  0  0  0  0  0  0  0  0  0  0  0
    0.7369    1.5382    1.2266 N   0  0  0  0  0  0  0  0  0  0  0  0
    1.5091    0.9470    1.5224 H   0  0  0  0  0  0  0  0  0  0  0  0
    0.6246    2.8802    1.7857 C   0  0  0  0  0  0  0  0  0  0  0  0
   -0.3188    2.9919    2.3306 H   0  0  0  0  0  0  0  0  0  0  0  0
    1.4486    3.0707    2.4801 H   0  0  0  0  0  0  0  0  0  0  0  0
    0.6629    3.6312    0.9897 H   0  0  0  0  0  0  0  0  0  0  0  0
  1  2  1  0  0  0  0
  2  3  1  0  0  0  0
  2  4  1  0  0  0  0
  2  5  1  0  0  0  0
  5  6  2  0  0  0  0
  5  7  1  0  0  0  0
  7  8  1  0  0  0  0
  7  9  1  0  0  0  0
  9 10  1  0  0  0  0
  9 11  1  0  0  0  0
  9 19  1  0  0  0  0
 11 12  1  0  0  0  0
 11 13  1  0  0  0  0
 11 14  1  0  0  0  0
 14 15  2  0  0  0  0
 14 16  1  0  0  0  0
 16 17  1  0  0  0  0
 16 18  1  0  0  0  0
 19 20  2  0  0  0  0
 19 21  1  0  0  0  0
 21 22  1  0  0  0  0
 21 23  1  0  0  0  0
 23 24  1  0  0  0  0
 23 25  1  0  0  0  0
 23 26  1  0  0  0  0
M  END
$$$$

  -OEChem-04042215573D

 26 25  0     1  0  0  0  0  0999 V2000
   -2.8262   -4.0503    0.6211 H   0  0  0  0  0  0  0  0  0  0  0  0
   -2.8727   -3.0245    0.2445 C   0  0  0  0  0  0  0  0  0  0  0  0
   -3.5592   -2.4499    0.8710 H   0  0  0  0  0  0  0  0  0  0  0  0
   -3.2530   -3.0426   -0.7799 H   0  0  0  0  0  0  0  0  0  0  0  0
   -1.4928   -2.3945    0.2727 C   0  0  0  0  0  0  0  0  0  0  0  0
   -0.5359   -3.0302    0.6859 O   0  0  0  0  0  0  0  0  0  0  0  0
   -1.3194   -1.0978   -0.1662 N   0  0  0  0  0  0  0  0  0  0  0  0
   -2.1484   -0.5922   -0.4749 H   0  0  0  0  0  0  0  0  0  0  0  0
   -0.0304   -0.3885   -0.1920 C   0  0  1  0  0  0  0  0  0  0  0  0
    0.6839   -0.8998    0.4623 H   0  0  0  0  0  0  0  0  0  0  0  0
    0.5526   -0.3900   -1.6220 C   0  0  0  0  0  0  0  0  0  0  0  0
    1.3906    0.3104   -1.6736 H   0  0  0  0  0  0  0  0  0  0  0  0
    0.9457   -1.3905   -1.8237 H   0  0  0  0  0  0  0  0  0  0  0  0
   -0.4204   -0.0545   -2.7527 C   0  0  0  0  0  0  0  0  0  0  0  0
   -0.1249   -0.2967   -3.9067 O   0  0  0  0  0  0  0  0  0  0  0  0
   -1.5486    0.7018   -2.6014 N   0  0  0  0  0  0  0  0  0  0  0  0
   -1.9096    1.0969   -3.4643 H   0  0  0  0  0  0  0  0  0  0  0  0
   -1.6242    1.2477   -1.7404 H   0  0  0  0  0  0  0  0  0  0  0  0
   -0.1675    1.0459    0.3599 C   0  0  0  0  0  0  0  0  0  0  0  0
   -1.1170    1.7434    0.0200 O   0  0  0  0  0  0  0  0  0  0  0  0
    0.7606    1.5500    1.2514 N   0  0  0  0  0  0  0  0  0  0  0  0
    1.5124    0.9354    1.5522 H   0  0  0  0  0  0  0  0  0  0  0  0
    0.6734    2.8864    1.8282 C   0  0  0  0  0  0  0  0  0  0  0  0
   -0.2653    3.0066    2.3794 H   0  0  0  0  0  0  0  0  0  0  0  0
    1.5038    3.0543    2.5209 H   0  0  0  0  0  0  0  0  0  0  0  0
    0.7205    3.6472    1.0419 H   0  0  0  0  0  0  0  0  0  0  0  0
  1  2  1  0  0  0  0
  2  3  1  0  0  0  0
  2  4  1  0  0  0  0
  2  5  1  0  0  0  0
  5  6  2  0  0  0  0
  5  7  1  0  0  0  0
  7  8  1  0  0  0  0
  7  9  1  0  0  0  0
  9 10  1  0  0  0  0
  9 11  1  0  0  0  0
  9 19  1  0  0  0  0
 11 12  1  0  0  0  0
 11 13  1  0  0  0  0
 11 14  1  0  0  0  0
 14 15  2  0  0  0  0
 14 16  1  0  0  0  0
 16 17  1  0  0  0  0
 16 18  1  0  0  0  0
 19 20  2  0  0  0  0
 19 21  1  0  0  0  0
 21 22  1  0  0  0  0
 21 23  1  0  0  0  0
 23 24  1  0  0  0  0
 23 25  1  0  0  0  0
 23 26  1  0  0  0  0
M  END
$$$$

  -OEChem-04042215573D

 26 25  0     1  0  0  0  0  0999 V2000
   -2.8392   -4.0217    0.5655 H   0  0  0  0  0  0  0  0  0  0  0  0
   -2.8795   -2.9923    0.1984 C   0  0  0  0  0  0  0  0  0  0  0  0
   -3.5738   -2.4230    0.8211 H   0  0  0  0  0  0  0  0  0  0  0  0
   -3.2459   -3.0005   -0.8312 H   0  0  0  0  0  0  0  0  0  0  0  0
   -1.5000   -2.3636    0.2513 C   0  0  0  0  0  0  0  0  0  0  0  0
   -0.5517   -3.0011    0.6813 O   0  0  0  0  0  0  0  0  0  0  0  0
   -1.3191   -1.0644   -0.1778 N   0  0  0  0  0  0  0  0  0  0  0  0
   -2.1421   -0.5574   -0.5003 H   0  0  0  0  0  0  0  0  0  0  0  0
   -0.0285   -0.3589   -0.1916 C   0  0  1  0  0  0  0  0  0  0  0  0
    0.6777   -0.8780    0.4654 H   0  0  0  0  0  0  0  0  0  0  0  0
    0.5636   -0.3702   -1.6175 C   0  0  0  0  0  0  0  0  0  0  0  0
    1.4023    0.3289   -1.6706 H   0  0  0  0  0  0  0  0  0  0  0  0
    0.9570   -1.3722   -1.8127 H   0  0  0  0  0  0  0  0  0  0  0  0
   -0.4123   -0.0375   -2.7461 C   0  0  0  0  0  0  0  0  0  0  0  0
   -0.2613   -0.5132   -3.8548 O   0  0  0  0  0  0  0  0  0  0  0  0
   -1.4344    0.8623   -2.6364 N   0  0  0  0  0  0  0  0  0  0  0  0
   -1.8352    1.1870   -3.5107 H   0  0  0  0  0  0  0  0  0  0  0  0
   -1.4590    1.4644   -1.8104 H   0  0  0  0  0  0  0  0  0  0  0  0
   -0.1513    1.0749    0.3675 C   0  0  0  0  0  0  0  0  0  0  0  0
   -1.0827    1.7941    0.0234 O   0  0  0  0  0  0  0  0  0  0  0  0
    0.7815    1.5616    1.2640 N   0  0  0  0  0  0  0  0  0  0  0  0
    1.5158    0.9301    1.5731 H   0  0  0  0  0  0  0  0  0  0  0  0
    0.7037    2.8911    1.8584 C   0  0  0  0  0  0  0  0  0  0  0  0
   -0.2374    3.0130    2.4052 H   0  0  0  0  0  0  0  0  0  0  0  0
    1.5312    3.0414    2.5585 H   0  0  0  0  0  0  0  0  0  0  0  0
    0.7633    3.6617    1.0827 H   0  0  0  0  0  0  0  0  0  0  0  0
  1  2  1  0  0  0  0
  2  3  1  0  0  0  0
  2  4  1  0  0  0  0
  2  5  1  0  0  0  0
  5  6  2  0  0  0  0
  5  7  1  0  0  0  0
  7  8  1  0  0  0  0
  7  9  1  0  0  0  0
  9 10  1  0  0  0  0
  9 11  1  0  0  0  0
  9 19  1  0  0  0  0
 11 12  1  0  0  0  0
 11 13  1  0  0  0  0
 11 14  1  0  0  0  0
 14 15  2  0  0  0  0
 14 16  1  0  0  0  0
 16 17  1  0  0  0  0
 16 18  1  0  0  0  0
 19 20  2  0  0  0  0
 19 21  1  0  0  0  0
 21 22  1  0  0  0  0
 21 23  1  0  0  0  0
 23 24  1  0  0  0  0
 23 25  1  0  0  0  0
 23 26  1  0  0  0  0
M  END
$$$$

  -OEChem-04042215573D

 26 25  0     1  0  0  0  0  0999 V2000
   -2.8711   -3.9720    0.5510 H   0  0  0  0  0  0  0  0  0  0  0  0
   -2.8964   -2.9428    0.1819 C   0  0  0  0  0  0  0  0  0  0  0  0
   -3.5708   -2.3588    0.8127 H   0  0  0  0  0  0  0  0  0  0  0  0
   -3.2770   -2.9458   -0.8425 H   0  0  0  0  0  0  0  0  0  0  0  0
   -1.5039   -2.3417    0.2132 C   0  0  0  0  0  0  0  0  0  0  0  0
   -0.5617   -2.9979    0.6285 O   0  0  0  0  0  0  0  0  0  0  0  0
   -1.3052   -1.0440   -0.2132 N   0  0  0  0  0  0  0  0  0  0  0  0
   -2.1291   -0.5063   -0.4775 H   0  0  0  0  0  0  0  0  0  0  0  0
   -0.0057   -0.3546   -0.2081 C   0  0  1  0  0  0  0  0  0  0  0  0
    0.6865   -0.8795    0.4590 H   0  0  0  0  0  0  0  0  0  0  0  0
    0.6052   -0.3694   -1.6254 C   0  0  0  0  0  0  0  0  0  0  0  0
    1.4521    0.3203   -1.6702 H   0  0  0  0  0  0  0  0  0  0  0  0
    0.9888   -1.3753   -1.8217 H   0  0  0  0  0  0  0  0  0  0  0  0
   -0.3658   -0.0186   -2.7505 C   0  0  0  0  0  0  0  0  0  0  0  0
   -0.4027   -0.6734   -3.7746 O   0  0  0  0  0  0  0  0  0  0  0  0
   -1.1209    1.1191   -2.7584 N   0  0  0  0  0  0  0  0  0  0  0  0
   -1.7882    1.2207   -3.5162 H   0  0  0  0  0  0  0  0  0  0  0  0
   -1.2459    1.6352   -1.8850 H   0  0  0  0  0  0  0  0  0  0  0  0
   -0.1345    1.0771    0.3521 C   0  0  0  0  0  0  0  0  0  0  0  0
   -1.0755    1.7858    0.0114 O   0  0  0  0  0  0  0  0  0  0  0  0
    0.7821    1.5613    1.2662 N   0  0  0  0  0  0  0  0  0  0  0  0
    1.5200    0.9341    1.5756 H   0  0  0  0  0  0  0  0  0  0  0  0
    0.6893    2.8866    1.8677 C   0  0  0  0  0  0  0  0  0  0  0  0
   -0.2572    2.9979    2.4075 H   0  0  0  0  0  0  0  0  0  0  0  0
    1.5100    3.0391    2.5754 H   0  0  0  0  0  0  0  0  0  0  0  0
    0.7493    3.6625    1.0972 H   0  0  0  0  0  0  0  0  0  0  0  0
  1  2  1  0  0  0  0
  2  3  1  0  0  0  0
  2  4  1  0  0  0  0
  2  5  1  0  0  0  0
  5  6  2  0  0  0  0
  5  7  1  0  0  0  0
  7  8  1  0  0  0  0
  7  9  1  0  0  0  0
  9 10  1  0  0  0  0
  9 11  1  0  0  0  0
  9 19  1  0  0  0  0
 11 12  1  0  0  0  0
 11 13  1  0  0  0  0
 11 14  1  0  0  0  0
 14 15  2  0  0  0  0
 14 16  1  0  0  0  0
 16 17  1  0  0  0  0
 16 18  1  0  0  0  0
 19 20  2  0  0  0  0
 19 21  1  0  0  0  0
 21 22  1  0  0  0  0
 21 23  1  0  0  0  0
 23 24  1  0  0  0  0
 23 25  1  0  0  0  0
 23 26  1  0  0  0  0
M  END
$$$$

  -OEChem-04042215573D

 26 25  0     1  0  0  0  0  0999 V2000
   -2.8827   -3.9660    0.4765 H   0  0  0  0  0  0  0  0  0  0  0  0
   -2.8996   -2.9335    0.1163 C   0  0  0  0  0  0  0  0  0  0  0  0
   -3.6041   -2.3596    0.7230 H   0  0  0  0  0  0  0  0  0  0  0  0
   -3.2358   -2.9298   -0.9236 H   0  0  0  0  0  0  0  0  0  0  0  0
   -1.5140   -2.3237    0.2129 C   0  0  0  0  0  0  0  0  0  0  0  0
   -0.5907   -2.9702    0.6829 O   0  0  0  0  0  0  0  0  0  0  0  0
   -1.3002   -1.0302   -0.2188 N   0  0  0  0  0  0  0  0  0  0  0  0
   -2.1080   -0.5088   -0.5550 H   0  0  0  0  0  0  0  0  0  0  0  0
    0.0029   -0.3488   -0.1987 C   0  0  1  0  0  0  0  0  0  0  0  0
    0.6853   -0.8769    0.4760 H   0  0  0  0  0  0  0  0  0  0  0  0
    0.6236   -0.3694   -1.6110 C   0  0  0  0  0  0  0  0  0  0  0  0
    1.4752    0.3145   -1.6538 H   0  0  0  0  0  0  0  0  0  0  0  0
    1.0014   -1.3775   -1.8068 H   0  0  0  0  0  0  0  0  0  0  0  0
   -0.3488   -0.0116   -2.7318 C   0  0  0  0  0  0  0  0  0  0  0  0
   -0.5956   -0.7926   -3.6310 O   0  0  0  0  0  0  0  0  0  0  0  0
   -0.9359    1.2161   -2.8380 N   0  0  0  0  0  0  0  0  0  0  0  0
   -1.6674    1.2911   -3.5375 H   0  0  0  0  0  0  0  0  0  0  0  0
   -0.9945    1.7831   -1.9896 H   0  0  0  0  0  0  0  0  0  0  0  0
   -0.1184    1.0884    0.3492 C   0  0  0  0  0  0  0  0  0  0  0  0
   -1.0177    1.8221   -0.0462 O   0  0  0  0  0  0  0  0  0  0  0  0
    0.7910    1.5694    1.2724 N   0  0  0  0  0  0  0  0  0  0  0  0
    1.4964    0.9259    1.6215 H   0  0  0  0  0  0  0  0  0  0  0  0
    0.7168    2.9076    1.8475 C   0  0  0  0  0  0  0  0  0  0  0  0
   -0.2243    3.0400    2.3916 H   0  0  0  0  0  0  0  0  0  0  0  0
    1.5447    3.0654    2.5454 H   0  0  0  0  0  0  0  0  0  0  0  0
    0.7795    3.6672    1.0612 H   0  0  0  0  0  0  0  0  0  0  0  0
  1  2  1  0  0  0  0
  2  3  1  0  0  0  0
  2  4  1  0  0  0  0
  2  5  1  0  0  0  0
  5  6  2  0  0  0  0
  5  7  1  0  0  0  0
  7  8  1  0  0  0  0
  7  9  1  0  0  0  0
  9 10  1  0  0  0  0
  9 11  1  0  0  0  0
  9 19  1  0  0  0  0
 11 12  1  0  0  0  0
 11 13  1  0  0  0  0
 11 14  1  0  0  0  0
 14 15  2  0  0  0  0
 14 16  1  0  0  0  0
 16 17  1  0  0  0  0
 16 18  1  0  0  0  0
 19 20  2  0  0  0  0
 19 21  1  0  0  0  0
 21 22  1  0  0  0  0
 21 23  1  0  0  0  0
 23 24  1  0  0  0  0
 23 25  1  0  0  0  0
 23 26  1  0  0  0  0
M  END
$$$$

  -OEChem-04042215573D

 26 25  0     1  0  0  0  0  0999 V2000
   -2.8888   -3.9650    0.4083 H   0  0  0  0  0  0  0  0  0  0  0  0
   -2.8961   -2.9318    0.0500 C   0  0  0  0  0  0  0  0  0  0  0  0
   -3.6406   -2.3664    0.6155 H   0  0  0  0  0  0  0  0  0  0  0  0
   -3.1718   -2.9285   -1.0077 H   0  0  0  0  0  0  0  0  0  0  0  0
   -1.5255   -2.3068    0.2279 C   0  0  0  0  0  0  0  0  0  0  0  0
   -0.6302   -2.9336    0.7733 O   0  0  0  0  0  0  0  0  0  0  0  0
   -1.2949   -1.0216   -0.2183 N   0  0  0  0  0  0  0  0  0  0  0  0
   -2.0715   -0.5376   -0.6653 H   0  0  0  0  0  0  0  0  0  0  0  0
    0.0129   -0.3497   -0.1879 C   0  0  1  0  0  0  0  0  0  0  0  0
    0.6868   -0.8764    0.4960 H   0  0  0  0  0  0  0  0  0  0  0  0
    0.6403   -0.3814   -1.5968 C   0  0  0  0  0  0  0  0  0  0  0  0
    1.4983    0.2947   -1.6410 H   0  0  0  0  0  0  0  0  0  0  0  0
    1.0099   -1.3927   -1.7907 H   0  0  0  0  0  0  0  0  0  0  0  0
   -0.3343   -0.0188   -2.7138 C   0  0  0  0  0  0  0  0  0  0  0  0
   -0.8009   -0.8643   -3.4538 O   0  0  0  0  0  0  0  0  0  0  0  0
   -0.7658    1.2584   -2.9241 N   0  0  0  0  0  0  0  0  0  0  0  0
   -1.5482    1.3393   -3.5656 H   0  0  0  0  0  0  0  0  0  0  0  0
   -0.7313    1.8837   -2.1169 H   0  0  0  0  0  0  0  0  0  0  0  0
   -0.0989    1.0968    0.3371 C   0  0  0  0  0  0  0  0  0  0  0  0
   -0.9488    1.8538   -0.1185 O   0  0  0  0  0  0  0  0  0  0  0  0
    0.8046    1.5779    1.2661 N   0  0  0  0  0  0  0  0  0  0  0  0
    1.4663    0.9180    1.6665 H   0  0  0  0  0  0  0  0  0  0  0  0
    0.7472    2.9292    1.8118 C   0  0  0  0  0  0  0  0  0  0  0  0
   -0.1981    3.0883    2.3412 H   0  0  0  0  0  0  0  0  0  0  0  0
    1.5694    3.0877    2.5163 H   0  0  0  0  0  0  0  0  0  0  0  0
    0.8325    3.6715    1.0111 H   0  0  0  0  0  0  0  0  0  0  0  0
  1  2  1  0  0  0  0
  2  3  1  0  0  0  0
  2  4  1  0  0  0  0
  2  5  1  0  0  0  0
  5  6  2  0  0  0  0
  5  7  1  0  0  0  0
  7  8  1  0  0  0  0
  7  9  1  0  0  0  0
  9 10  1  0  0  0  0
  9 11  1  0  0  0  0
  9 19  1  0  0  0  0
 11 12  1  0  0  0  0
 11 13  1  0  0  0  0
 11 14  1  0  0  0  0
 14 15  2  0  0  0  0
 14 16  1  0  0  0  0
 16 17  1  0  0  0  0
 16 18  1  0  0  0  0
 19 20  2  0  0  0  0
 19 21  1  0  0  0  0
 21 22  1  0  0  0  0
 21 23  1  0  0  0  0
 23 24  1  0  0  0  0
 23 25  1  0  0  0  0
 23 26  1  0  0  0  0
M  END
$$$$

  -OEChem-04042215573D

 26 25  0     1  0  0  0  0  0999 V2000
   -2.8835   -3.9787    0.3616 H   0  0  0  0  0  0  0  0  0  0  0  0
   -2.8831   -2.9514   -0.0130 C   0  0  0  0  0  0  0  0  0  0  0  0
   -3.6816   -2.3940    0.4826 H   0  0  0  0  0  0  0  0  0  0  0  0
   -3.0739   -2.9694   -1.0892 H   0  0  0  0  0  0  0  0  0  0  0  0
   -1.5443   -2.2933    0.2613 C   0  0  0  0  0  0  0  0  0  0  0  0
   -0.6834   -2.8880    0.8923 O   0  0  0  0  0  0  0  0  0  0  0  0
   -1.3019   -1.0182   -0.2059 N   0  0  0  0  0  0  0  0  0  0  0  0
   -2.0272   -0.5984   -0.7854 H   0  0  0  0  0  0  0  0  0  0  0  0
    0.0113   -0.3576   -0.1699 C   0  0  1  0  0  0  0  0  0  0  0  0
    0.6785   -0.8819    0.5224 H   0  0  0  0  0  0  0  0  0  0  0  0
    0.6412   -0.4016   -1.5780 C   0  0  0  0  0  0  0  0  0  0  0  0
    1.5075    0.2636   -1.6242 H   0  0  0  0  0  0  0  0  0  0  0  0
    0.9984   -1.4173   -1.7700 H   0  0  0  0  0  0  0  0  0  0  0  0
   -0.3319   -0.0335   -2.6950 C   0  0  0  0  0  0  0  0  0  0  0  0
   -1.0121   -0.8732   -3.2558 O   0  0  0  0  0  0  0  0  0  0  0  0
   -0.5987    1.2621   -3.0273 N   0  0  0  0  0  0  0  0  0  0  0  0
   -1.4216    1.3757   -3.6108 H   0  0  0  0  0  0  0  0  0  0  0  0
   -0.4435    1.9447   -2.2852 H   0  0  0  0  0  0  0  0  0  0  0  0
   -0.0884    1.0995    0.3276 C   0  0  0  0  0  0  0  0  0  0  0  0
   -0.8821    1.8768   -0.1904 O   0  0  0  0  0  0  0  0  0  0  0  0
    0.8118    1.5820    1.2595 N   0  0  0  0  0  0  0  0  0  0  0  0
    1.4302    0.9108    1.7075 H   0  0  0  0  0  0  0  0  0  0  0  0
    0.7876    2.9520    1.7594 C   0  0  0  0  0  0  0  0  0  0  0  0
   -0.1595    3.1567    2.2698 H   0  0  0  0  0  0  0  0  0  0  0  0
    1.6051    3.1101    2.4695 H   0  0  0  0  0  0  0  0  0  0  0  0
    0.9053    3.6640    0.9356 H   0  0  0  0  0  0  0  0  0  0  0  0
  1  2  1  0  0  0  0
  2  3  1  0  0  0  0
  2  4  1  0  0  0  0
  2  5  1  0  0  0  0
  5  6  2  0  0  0  0
  5  7  1  0  0  0  0
  7  8  1  0  0  0  0
  7  9  1  0  0  0  0
  9 10  1  0  0  0  0
  9 11  1  0  0  0  0
  9 19  1  0  0  0  0
 11 12  1  0  0  0  0
 11 13  1  0  0  0  0
 11 14  1  0  0  0  0
 14 15  2  0  0  0  0
 14 16  1  0  0  0  0
 16 17  1  0  0  0  0
 16 18  1  0  0  0  0
 19 20  2  0  0  0  0
 19 21  1  0  0  0  0
 21 22  1  0  0  0  0
 21 23  1  0  0  0  0
 23 24  1  0  0  0  0
 23 25  1  0  0  0  0
 23 26  1  0  0  0  0
M  END
$$$$

  -OEChem-04042215573D

 26 25  0     1  0  0  0  0  0999 V2000
   -2.8800   -3.9904    0.3842 H   0  0  0  0  0  0  0  0  0  0  0  0
   -2.8715   -2.9783   -0.0294 C   0  0  0  0  0  0  0  0  0  0  0  0
   -3.7059   -2.4148    0.3947 H   0  0  0  0  0  0  0  0  0  0  0  0
   -2.9960   -3.0393   -1.1137 H   0  0  0  0  0  0  0  0  0  0  0  0
   -1.5619   -2.2882    0.3001 C   0  0  0  0  0  0  0  0  0  0  0  0
   -0.7259   -2.8520    0.9906 O   0  0  0  0  0  0  0  0  0  0  0  0
   -1.3156   -1.0234   -0.1910 N   0  0  0  0  0  0  0  0  0  0  0  0
   -1.9916   -0.6689   -0.8680 H   0  0  0  0  0  0  0  0  0  0  0  0
    0.0022   -0.3732   -0.1596 C   0  0  1  0  0  0  0  0  0  0  0  0
    0.6680   -0.8925    0.5376 H   0  0  0  0  0  0  0  0  0  0  0  0
    0.6318   -0.4234   -1.5693 C   0  0  0  0  0  0  0  0  0  0  0  0
    1.5062    0.2317   -1.6129 H   0  0  0  0  0  0  0  0  0  0  0  0
    0.9781   -1.4429   -1.7611 H   0  0  0  0  0  0  0  0  0  0  0  0
   -0.3350   -0.0496   -2.6920 C   0  0  0  0  0  0  0  0  0  0  0  0
   -1.2077   -0.8081   -3.0773 O   0  0  0  0  0  0  0  0  0  0  0  0
   -0.4145    1.2237   -3.1739 N   0  0  0  0  0  0  0  0  0  0  0  0
   -1.2614    1.4047   -3.7040 H   0  0  0  0  0  0  0  0  0  0  0  0
   -0.0898    1.9510   -2.5405 H   0  0  0  0  0  0  0  0  0  0  0  0
   -0.0885    1.0934    0.3113 C   0  0  0  0  0  0  0  0  0  0  0  0
   -0.8426    1.8797   -0.2497 O   0  0  0  0  0  0  0  0  0  0  0  0
    0.8131    1.5791    1.2403 N   0  0  0  0  0  0  0  0  0  0  0  0
    1.3916    0.9008    1.7288 H   0  0  0  0  0  0  0  0  0  0  0  0
    0.8097    2.9598    1.7099 C   0  0  0  0  0  0  0  0  0  0  0  0
   -0.1447    3.1986    2.1908 H   0  0  0  0  0  0  0  0  0  0  0  0
    1.6122    3.1135    2.4379 H   0  0  0  0  0  0  0  0  0  0  0  0
    0.9663    3.6502    0.8746 H   0  0  0  0  0  0  0  0  0  0  0  0
  1  2  1  0  0  0  0
  2  3  1  0  0  0  0
  2  4  1  0  0  0  0
  2  5  1  0  0  0  0
  5  6  2  0  0  0  0
  5  7  1  0  0  0  0
  7  8  1  0  0  0  0
  7  9  1  0  0  0  0
  9 10  1  0  0  0  0
  9 11  1  0  0  0  0
  9 19  1  0  0  0  0
 11 12  1  0  0  0  0
 11 13  1  0  0  0  0
 11 14  1  0  0  0  0
 14 15  2  0  0  0  0
 14 16  1  0  0  0  0
 16 17  1  0  0  0  0
 16 18  1  0  0  0  0
 19 20  2  0  0  0  0
 19 21  1  0  0  0  0
 21 22  1  0  0  0  0
 21 23  1  0  0  0  0
 23 24  1  0  0  0  0
 23 25  1  0  0  0  0
 23 26  1  0  0  0  0
M  END
$$$$

  -OEChem-04042215573D

 26 25  0     1  0  0  0  0  0999 V2000
   -2.8810   -4.0090    0.4268 H   0  0  0  0  0  0  0  0  0  0  0  0
   -2.8779   -2.9965    0.0141 C   0  0  0  0  0  0  0  0  0  0  0  0
   -3.7114   -2.4361    0.4442 H   0  0  0  0  0  0  0  0  0  0  0  0
   -3.0100   -3.0567   -1.0693 H   0  0  0  0  0  0  0  0  0  0  0  0
   -1.5679   -2.3025    0.3352 C   0  0  0  0  0  0  0  0  0  0  0  0
   -0.7276   -2.8617    1.0246 O   0  0  0  0  0  0  0  0  0  0  0  0
   -1.3244   -1.0417   -0.1662 N   0  0  0  0  0  0  0  0  0  0  0  0
   -1.9927   -0.7037   -0.8614 H   0  0  0  0  0  0  0  0  0  0  0  0
   -0.0065   -0.3934   -0.1564 C   0  0  1  0  0  0  0  0  0  0  0  0
    0.6687   -0.9088    0.5342 H   0  0  0  0  0  0  0  0  0  0  0  0
    0.6117   -0.4315   -1.5738 C   0  0  0  0  0  0  0  0  0  0  0  0
    1.4882    0.2208   -1.6118 H   0  0  0  0  0  0  0  0  0  0  0  0
    0.9567   -1.4499   -1.7726 H   0  0  0  0  0  0  0  0  0  0  0  0
   -0.3489   -0.0517   -2.7038 C   0  0  0  0  0  0  0  0  0  0  0  0
   -1.3784   -0.6625   -2.9380 O   0  0  0  0  0  0  0  0  0  0  0  0
   -0.1964    1.1098   -3.4032 N   0  0  0  0  0  0  0  0  0  0  0  0
   -1.0305    1.3982   -3.9063 H   0  0  0  0  0  0  0  0  0  0  0  0
    0.3769    1.8274   -2.9714 H   0  0  0  0  0  0  0  0  0  0  0  0
   -0.1013    1.0748    0.3082 C   0  0  0  0  0  0  0  0  0  0  0  0
   -0.8677    1.8527   -0.2467 O   0  0  0  0  0  0  0  0  0  0  0  0
    0.8077    1.5708    1.2249 N   0  0  0  0  0  0  0  0  0  0  0  0
    1.3904    0.8976    1.7153 H   0  0  0  0  0  0  0  0  0  0  0  0
    0.7926    2.9520    1.6928 C   0  0  0  0  0  0  0  0  0  0  0  0
   -0.1583    3.1787    2.1865 H   0  0  0  0  0  0  0  0  0  0  0  0
    1.6031    3.1176    2.4089 H   0  0  0  0  0  0  0  0  0  0  0  0
    0.9280    3.6431    0.8541 H   0  0  0  0  0  0  0  0  0  0  0  0
  1  2  1  0  0  0  0
  2  3  1  0  0  0  0
  2  4  1  0  0  0  0
  2  5  1  0  0  0  0
  5  6  2  0  0  0  0
  5  7  1  0  0  0  0
  7  8  1  0  0  0  0
  7  9  1  0  0  0  0
  9 10  1  0  0  0  0
  9 11  1  0  0  0  0
  9 19  1  0  0  0  0
 11 12  1  0  0  0  0
 11 13  1  0  0  0  0
 11 14  1  0  0  0  0
 14 15  2  0  0  0  0
 14 16  1  0  0  0  0
 16 17  1  0  0  0  0
 16 18  1  0  0  0  0
 19 20  2  0  0  0  0
 19 21  1  0  0  0  0
 21 22  1  0  0  0  0
 21 23  1  0  0  0  0
 23 24  1  0  0  0  0
 23 25  1  0  0  0  0
 23 26  1  0  0  0  0
M  END
$$$$

  -OEChem-04042215573D

 26 25  0     1  0  0  0  0  0999 V2000
   -2.8697   -4.0321    0.4354 H   0  0  0  0  0  0  0  0  0  0  0  0
   -2.8918   -3.0006    0.0732 C   0  0  0  0  0  0  0  0  0  0  0  0
   -3.6957   -2.4633    0.5820 H   0  0  0  0  0  0  0  0  0  0  0  0
   -3.0925   -3.0080   -1.0012 H   0  0  0  0  0  0  0  0  0  0  0  0
   -1.5633   -2.3208    0.3451 C   0  0  0  0  0  0  0  0  0  0  0  0
   -0.6980   -2.8964    0.9884 O   0  0  0  0  0  0  0  0  0  0  0  0
   -1.3314   -1.0548   -0.1476 N   0  0  0  0  0  0  0  0  0  0  0  0
   -2.0229   -0.6955   -0.8099 H   0  0  0  0  0  0  0  0  0  0  0  0
   -0.0197   -0.3960   -0.1577 C   0  0  1  0  0  0  0  0  0  0  0  0
    0.6673   -0.9101    0.5222 H   0  0  0  0  0  0  0  0  0  0  0  0
    0.5888   -0.4164   -1.5810 C   0  0  0  0  0  0  0  0  0  0  0  0
    1.4578    0.2461   -1.6098 H   0  0  0  0  0  0  0  0  0  0  0  0
    0.9467   -1.4291   -1.7850 H   0  0  0  0  0  0  0  0  0  0  0  0
   -0.3617   -0.0414   -2.7243 C   0  0  0  0  0  0  0  0  0  0  0  0
   -1.5002   -0.4645   -2.8365 O   0  0  0  0  0  0  0  0  0  0  0  0
   -0.0044    0.8879   -3.6583 N   0  0  0  0  0  0  0  0  0  0  0  0
   -0.7794    1.2537   -4.2040 H   0  0  0  0  0  0  0  0  0  0  0  0
    0.7755    1.4981   -3.4402 H   0  0  0  0  0  0  0  0  0  0  0  0
   -0.1232    1.0667    0.3221 C   0  0  0  0  0  0  0  0  0  0  0  0
   -0.9225    1.8361   -0.1956 O   0  0  0  0  0  0  0  0  0  0  0  0
    0.7970    1.5654    1.2265 N   0  0  0  0  0  0  0  0  0  0  0  0
    1.4011    0.8958    1.6949 H   0  0  0  0  0  0  0  0  0  0  0  0
    0.7682    2.9397    1.7138 C   0  0  0  0  0  0  0  0  0  0  0  0
   -0.1588    3.1308    2.2647 H   0  0  0  0  0  0  0  0  0  0  0  0
    1.6141    3.1215    2.3837 H   0  0  0  0  0  0  0  0  0  0  0  0
    0.8337    3.6454    0.8789 H   0  0  0  0  0  0  0  0  0  0  0  0
  1  2  1  0  0  0  0
  2  3  1  0  0  0  0
  2  4  1  0  0  0  0
  2  5  1  0  0  0  0
  5  6  2  0  0  0  0
  5  7  1  0  0  0  0
  7  8  1  0  0  0  0
  7  9  1  0  0  0  0
  9 10  1  0  0  0  0
  9 11  1  0  0  0  0
  9 19  1  0  0  0  0
 11 12  1  0  0  0  0
 11 13  1  0  0  0  0
 11 14  1  0  0  0  0
 14 15  2  0  0  0  0
 14 16  1  0  0  0  0
 16 17  1  0  0  0  0
 16 18  1  0  0  0  0
 19 20  2  0  0  0  0
 19 21  1  0  0  0  0
 21 22  1  0  0  0  0
 21 23  1  0  0  0  0
 23 24  1  0  0  0  0
 23 25  1  0  0  0  0
 23 26  1  0  0  0  0
M  END
$$$$

  -OEChem-04042215573D

 26 25  0     1  0  0  0  0  0999 V2000
   -2.8721   -4.0257    0.4645 H   0  0  0  0  0  0  0  0  0  0  0  0
   -2.8963   -2.9917    0.1097 C   0  0  0  0  0  0  0  0  0  0  0  0
   -3.6748   -2.4491    0.6517 H   0  0  0  0  0  0  0  0  0  0  0  0
   -3.1373   -2.9898   -0.9565 H   0  0  0  0  0  0  0  0  0  0  0  0
   -1.5517   -2.3272    0.3363 C   0  0  0  0  0  0  0  0  0  0  0  0
   -0.6624   -2.9218    0.9277 O   0  0  0  0  0  0  0  0  0  0  0  0
   -1.3318   -1.0535   -0.1405 N   0  0  0  0  0  0  0  0  0  0  0  0
   -2.0508   -0.6630   -0.7550 H   0  0  0  0  0  0  0  0  0  0  0  0
   -0.0282   -0.3814   -0.1635 C   0  0  1  0  0  0  0  0  0  0  0  0
    0.6685   -0.8958    0.5062 H   0  0  0  0  0  0  0  0  0  0  0  0
    0.5692   -0.3952   -1.5913 C   0  0  0  0  0  0  0  0  0  0  0  0
    1.4284    0.2800   -1.6206 H   0  0  0  0  0  0  0  0  0  0  0  0
    0.9401   -1.4036   -1.7926 H   0  0  0  0  0  0  0  0  0  0  0  0
   -0.3777   -0.0339   -2.7434 C   0  0  0  0  0  0  0  0  0  0  0  0
   -1.5798   -0.2392   -2.7530 O   0  0  0  0  0  0  0  0  0  0  0  0
    0.0967    0.5829   -3.8653 N   0  0  0  0  0  0  0  0  0  0  0  0
   -0.6181    0.9745   -4.4722 H   0  0  0  0  0  0  0  0  0  0  0  0
    1.0122    1.0168   -3.8254 H   0  0  0  0  0  0  0  0  0  0  0  0
   -0.1343    1.0743    0.3371 C   0  0  0  0  0  0  0  0  0  0  0  0
   -0.9682    1.8381   -0.1304 O   0  0  0  0  0  0  0  0  0  0  0  0
    0.7985    1.5682    1.2317 N   0  0  0  0  0  0  0  0  0  0  0  0
    1.4303    0.9005    1.6647 H   0  0  0  0  0  0  0  0  0  0  0  0
    0.7518    2.9278    1.7575 C   0  0  0  0  0  0  0  0  0  0  0  0
   -0.1749    3.0897    2.3181 H   0  0  0  0  0  0  0  0  0  0  0  0
    1.5983    3.1035    2.4282 H   0  0  0  0  0  0  0  0  0  0  0  0
    0.8020    3.6573    0.9422 H   0  0  0  0  0  0  0  0  0  0  0  0
  1  2  1  0  0  0  0
  2  3  1  0  0  0  0
  2  4  1  0  0  0  0
  2  5  1  0  0  0  0
  5  6  2  0  0  0  0
  5  7  1  0  0  0  0
  7  8  1  0  0  0  0
  7  9  1  0  0  0  0
  9 10  1  0  0  0  0
  9 11  1  0  0  0  0
  9 19  1  0  0  0  0
 11 12  1  0  0  0  0
 11 13  1  0  0  0  0
 11 14  1  0  0  0  0
 14 15  2  0  0  0  0
 14 16  1  0  0  0  0
 16 17  1  0  0  0  0
 16 18  1  0  0  0  0
 19 20  2  0  0  0  0
 19 21  1  0  0  0  0
 21 22  1  0  0  0  0
 21 23  1  0  0  0  0
 23 24  1  0  0  0  0
 23 25  1  0  0  0  0
 23 26  1  0  0  0  0
M  END
$$$$

  -OEChem-04042215573D

 26 25  0     1  0  0  0  0  0999 V2000
   -2.8753   -4.0162    0.4828 H   0  0  0  0  0  0  0  0  0  0  0  0
   -2.9002   -2.9821    0.1284 C   0  0  0  0  0  0  0  0  0  0  0  0
   -3.6575   -2.4325    0.6925 H   0  0  0  0  0  0  0  0  0  0  0  0
   -3.1718   -2.9776   -0.9304 H   0  0  0  0  0  0  0  0  0  0  0  0
   -1.5438   -2.3298    0.3162 C   0  0  0  0  0  0  0  0  0  0  0  0
   -0.6364   -2.9409    0.8614 O   0  0  0  0  0  0  0  0  0  0  0  0
   -1.3326   -1.0495   -0.1462 N   0  0  0  0  0  0  0  0  0  0  0  0
   -2.0761   -0.6273   -0.7083 H   0  0  0  0  0  0  0  0  0  0  0  0
   -0.0362   -0.3645   -0.1712 C   0  0  1  0  0  0  0  0  0  0  0  0
    0.6622   -0.8783    0.4968 H   0  0  0  0  0  0  0  0  0  0  0  0
    0.5620   -0.3845   -1.5983 C   0  0  0  0  0  0  0  0  0  0  0  0
    1.4129    0.3009   -1.6339 H   0  0  0  0  0  0  0  0  0  0  0  0
    0.9435   -1.3914   -1.7868 H   0  0  0  0  0  0  0  0  0  0  0  0
   -0.3816   -0.0446   -2.7592 C   0  0  0  0  0  0  0  0  0  0  0  0
   -1.5984   -0.0147   -2.6950 O   0  0  0  0  0  0  0  0  0  0  0  0
    0.1222    0.2632   -3.9905 N   0  0  0  0  0  0  0  0  0  0  0  0
   -0.5447    0.6654   -4.6432 H   0  0  0  0  0  0  0  0  0  0  0  0
    1.1078    0.4866   -4.0729 H   0  0  0  0  0  0  0  0  0  0  0  0
   -0.1435    1.0863    0.3451 C   0  0  0  0  0  0  0  0  0  0  0  0
   -1.0098    1.8427   -0.0712 O   0  0  0  0  0  0  0  0  0  0  0  0
    0.7972    1.5734    1.2356 N   0  0  0  0  0  0  0  0  0  0  0  0
    1.4549    0.9089    1.6332 H   0  0  0  0  0  0  0  0  0  0  0  0
    0.7440    2.9219    1.7884 C   0  0  0  0  0  0  0  0  0  0  0  0
   -0.1756    3.0627    2.3660 H   0  0  0  0  0  0  0  0  0  0  0  0
    1.5988    3.0942    2.4494 H   0  0  0  0  0  0  0  0  0  0  0  0
    0.7732    3.6669    0.9861 H   0  0  0  0  0  0  0  0  0  0  0  0
  1  2  1  0  0  0  0
  2  3  1  0  0  0  0
  2  4  1  0  0  0  0
  2  5  1  0  0  0  0
  5  6  2  0  0  0  0
  5  7  1  0  0  0  0
  7  8  1  0  0  0  0
  7  9  1  0  0  0  0
  9 10  1  0  0  0  0
  9 11  1  0  0  0  0
  9 19  1  0  0  0  0
 11 12  1  0  0  0  0
 11 13  1  0  0  0  0
 11 14  1  0  0  0  0
 14 15  2  0  0  0  0
 14 16  1  0  0  0  0
 16 17  1  0  0  0  0
 16 18  1  0  0  0  0
 19 20  2  0  0  0  0
 19 21  1  0  0  0  0
 21 22  1  0  0  0  0
 21 23  1  0  0  0  0
 23 24  1  0  0  0  0
 23 25  1  0  0  0  0
 23 26  1  0  0  0  0
M  END
$$$$

  -OEChem-04042215573D

 26 25  0     1  0  0  0  0  0999 V2000
   -2.8830   -3.9952    0.5065 H   0  0  0  0  0  0  0  0  0  0  0  0
   -2.9075   -2.9614    0.1512 C   0  0  0  0  0  0  0  0  0  0  0  0
   -3.6367   -2.4015    0.7419 H   0  0  0  0  0  0  0  0  0  0  0  0
   -3.2177   -2.9552   -0.8967 H   0  0  0  0  0  0  0  0  0  0  0  0
   -1.5364   -2.3270    0.2871 C   0  0  0  0  0  0  0  0  0  0  0  0
   -0.6110   -2.9579    0.7764 O   0  0  0  0  0  0  0  0  0  0  0  0
   -1.3311   -1.0414   -0.1628 N   0  0  0  0  0  0  0  0  0  0  0  0
   -2.1024   -0.5820   -0.6529 H   0  0  0  0  0  0  0  0  0  0  0  0
   -0.0405   -0.3448   -0.1881 C   0  0  1  0  0  0  0  0  0  0  0  0
    0.6556   -0.8568    0.4841 H   0  0  0  0  0  0  0  0  0  0  0  0
    0.5657   -0.3824   -1.6099 C   0  0  0  0  0  0  0  0  0  0  0  0
    1.4098    0.3105   -1.6564 H   0  0  0  0  0  0  0  0  0  0  0  0
    0.9558   -1.3898   -1.7778 H   0  0  0  0  0  0  0  0  0  0  0  0
   -0.3776   -0.0704   -2.7766 C   0  0  0  0  0  0  0  0  0  0  0  0
   -1.5600    0.2018   -2.6749 O   0  0  0  0  0  0  0  0  0  0  0  0
    0.0919   -0.0650   -4.0588 N   0  0  0  0  0  0  0  0  0  0  0  0
   -0.5343    0.3368   -4.7511 H   0  0  0  0  0  0  0  0  0  0  0  0
    1.0937   -0.0614   -4.2154 H   0  0  0  0  0  0  0  0  0  0  0  0
   -0.1480    1.1022    0.3405 C   0  0  0  0  0  0  0  0  0  0  0  0
   -1.0608    1.8398   -0.0025 O   0  0  0  0  0  0  0  0  0  0  0  0
    0.7993    1.5831    1.2273 N   0  0  0  0  0  0  0  0  0  0  0  0
    1.4922    0.9278    1.5766 H   0  0  0  0  0  0  0  0  0  0  0  0
    0.7290    2.9126    1.8224 C   0  0  0  0  0  0  0  0  0  0  0  0
   -0.1855    3.0192    2.4154 H   0  0  0  0  0  0  0  0  0  0  0  0
    1.5888    3.0799    2.4782 H   0  0  0  0  0  0  0  0  0  0  0  0
    0.7352    3.6820    1.0431 H   0  0  0  0  0  0  0  0  0  0  0  0
  1  2  1  0  0  0  0
  2  3  1  0  0  0  0
  2  4  1  0  0  0  0
  2  5  1  0  0  0  0
  5  6  2  0  0  0  0
  5  7  1  0  0  0  0
  7  8  1  0  0  0  0
  7  9  1  0  0  0  0
  9 10  1  0  0  0  0
  9 11  1  0  0  0  0
  9 19  1  0  0  0  0
 11 12  1  0  0  0  0
 11 13  1  0  0  0  0
 11 14  1  0  0  0  0
 14 15  2  0  0  0  0
 14 16  1  0  0  0  0
 16 17  1  0  0  0  0
 16 18  1  0  0  0  0
 19 20  2  0  0  0  0
 19 21  1  0  0  0  0
 21 22  1  0  0  0  0
 21 23  1  0  0  0  0
 23 24  1  0  0  0  0
 23 25  1  0  0  0  0
 23 26  1  0  0  0  0
M  END
$$$$

  -OEChem-04042215573D

 26 25  0     1  0  0  0  0  0999 V2000
   -2.8914   -3.9640    0.5436 H   0  0  0  0  0  0  0  0  0  0  0  0
   -2.9156   -2.9322    0.1823 C   0  0  0  0  0  0  0  0  0  0  0  0
   -3.6069   -2.3564    0.8024 H   0  0  0  0  0  0  0  0  0  0  0  0
   -3.2744   -2.9275   -0.8500 H   0  0  0  0  0  0  0  0  0  0  0  0
   -1.5295   -2.3200    0.2501 C   0  0  0  0  0  0  0  0  0  0  0  0
   -0.5872   -2.9728    0.6738 O   0  0  0  0  0  0  0  0  0  0  0  0
   -1.3293   -1.0296   -0.1881 N   0  0  0  0  0  0  0  0  0  0  0  0
   -2.1280   -0.5288   -0.5832 H   0  0  0  0  0  0  0  0  0  0  0  0
   -0.0425   -0.3257   -0.2120 C   0  0  1  0  0  0  0  0  0  0  0  0
    0.6485   -0.8361    0.4666 H   0  0  0  0  0  0  0  0  0  0  0  0
    0.5766   -0.3825   -1.6259 C   0  0  0  0  0  0  0  0  0  0  0  0
    1.4157    0.3157   -1.6809 H   0  0  0  0  0  0  0  0  0  0  0  0
    0.9738   -1.3904   -1.7726 H   0  0  0  0  0  0  0  0  0  0  0  0
   -0.3675   -0.0943   -2.7952 C   0  0  0  0  0  0  0  0  0  0  0  0
   -1.4669    0.4161   -2.6967 O   0  0  0  0  0  0  0  0  0  0  0  0
    0.0105   -0.3809   -4.0758 N   0  0  0  0  0  0  0  0  0  0  0  0
   -0.5794    0.0057   -4.8073 H   0  0  0  0  0  0  0  0  0  0  0  0
    0.9800   -0.6080   -4.2668 H   0  0  0  0  0  0  0  0  0  0  0  0
   -0.1527    1.1171    0.3297 C   0  0  0  0  0  0  0  0  0  0  0  0
   -1.1161    1.8241    0.0706 O   0  0  0  0  0  0  0  0  0  0  0  0
    0.7989    1.5923    1.2155 N   0  0  0  0  0  0  0  0  0  0  0  0
    1.5311    0.9530    1.5095 H   0  0  0  0  0  0  0  0  0  0  0  0
    0.7075    2.8980    1.8587 C   0  0  0  0  0  0  0  0  0  0  0  0
   -0.2023    2.9642    2.4648 H   0  0  0  0  0  0  0  0  0  0  0  0
    1.5707    3.0598    2.5113 H   0  0  0  0  0  0  0  0  0  0  0  0
    0.6887    3.6945    1.1073 H   0  0  0  0  0  0  0  0  0  0  0  0
  1  2  1  0  0  0  0
  2  3  1  0  0  0  0
  2  4  1  0  0  0  0
  2  5  1  0  0  0  0
  5  6  2  0  0  0  0
  5  7  1  0  0  0  0
  7  8  1  0  0  0  0
  7  9  1  0  0  0  0
  9 10  1  0  0  0  0
  9 11  1  0  0  0  0
  9 19  1  0  0  0  0
 11 12  1  0  0  0  0
 11 13  1  0  0  0  0
 11 14  1  0  0  0  0
 14 15  2  0  0  0  0
 14 16  1  0  0  0  0
 16 17  1  0  0  0  0
 16 18  1  0  0  0  0
 19 20  2  0  0  0  0
 19 21  1  0  0  0  0
 21 22  1  0  0  0  0
 21 23  1  0  0  0  0
 23 24  1  0  0  0  0
 23 25  1  0  0  0  0
 23 26  1  0  0  0  0
M  END
$$$$

  -OEChem-04042215573D

 26 25  0     1  0  0  0  0  0999 V2000
   -2.9055   -3.9271    0.5872 H   0  0  0  0  0  0  0  0  0  0  0  0
   -2.9276   -2.8966    0.2223 C   0  0  0  0  0  0  0  0  0  0  0  0
   -3.5738   -2.3049    0.8754 H   0  0  0  0  0  0  0  0  0  0  0  0
   -3.3404   -2.8888   -0.7894 H   0  0  0  0  0  0  0  0  0  0  0  0
   -1.5276   -2.3123    0.2134 C   0  0  0  0  0  0  0  0  0  0  0  0
   -0.5746   -2.9888    0.5704 O   0  0  0  0  0  0  0  0  0  0  0  0
   -1.3271   -1.0195   -0.2187 N   0  0  0  0  0  0  0  0  0  0  0  0
   -2.1442   -0.4785   -0.5073 H   0  0  0  0  0  0  0  0  0  0  0  0
   -0.0384   -0.3175   -0.2373 C   0  0  1  0  0  0  0  0  0  0  0  0
    0.6444   -0.8283    0.4495 H   0  0  0  0  0  0  0  0  0  0  0  0
    0.5979   -0.3853   -1.6415 C   0  0  0  0  0  0  0  0  0  0  0  0
    1.4373    0.3125   -1.6971 H   0  0  0  0  0  0  0  0  0  0  0  0
    0.9959   -1.3945   -1.7769 H   0  0  0  0  0  0  0  0  0  0  0  0
   -0.3434   -0.1032   -2.8112 C   0  0  0  0  0  0  0  0  0  0  0  0
   -1.3102    0.6299   -2.7545 O   0  0  0  0  0  0  0  0  0  0  0  0
   -0.1177   -0.6561   -4.0395 N   0  0  0  0  0  0  0  0  0  0  0  0
   -0.6746   -0.2842   -4.8036 H   0  0  0  0  0  0  0  0  0  0  0  0
    0.7677   -1.1144   -4.2240 H   0  0  0  0  0  0  0  0  0  0  0  0
   -0.1556    1.1222    0.3130 C   0  0  0  0  0  0  0  0  0  0  0  0
   -1.1615    1.7923    0.1249 O   0  0  0  0  0  0  0  0  0  0  0  0
    0.7922    1.5958    1.2040 N   0  0  0  0  0  0  0  0  0  0  0  0
    1.5650    0.9824    1.4440 H   0  0  0  0  0  0  0  0  0  0  0  0
    0.6761    2.8792    1.8871 C   0  0  0  0  0  0  0  0  0  0  0  0
   -0.2152    2.8960    2.5232 H   0  0  0  0  0  0  0  0  0  0  0  0
    1.5540    3.0536    2.5162 H   0  0  0  0  0  0  0  0  0  0  0  0
    0.6049    3.6952    1.1601 H   0  0  0  0  0  0  0  0  0  0  0  0
  1  2  1  0  0  0  0
  2  3  1  0  0  0  0
  2  4  1  0  0  0  0
  2  5  1  0  0  0  0
  5  6  2  0  0  0  0
  5  7  1  0  0  0  0
  7  8  1  0  0  0  0
  7  9  1  0  0  0  0
  9 10  1  0  0  0  0
  9 11  1  0  0  0  0
  9 19  1  0  0  0  0
 11 12  1  0  0  0  0
 11 13  1  0  0  0  0
 11 14  1  0  0  0  0
 14 15  2  0  0  0  0
 14 16  1  0  0  0  0
 16 17  1  0  0  0  0
 16 18  1  0  0  0  0
 19 20  2  0  0  0  0
 19 21  1  0  0  0  0
 21 22  1  0  0  0  0
 21 23  1  0  0  0  0
 23 24  1  0  0  0  0
 23 25  1  0  0  0  0
 23 26  1  0  0  0  0
M  END
$$$$

  -OEChem-04042215573D

 26 25  0     1  0  0  0  0  0999 V2000
   -2.8930   -3.8764    0.5674 H   0  0  0  0  0  0  0  0  0  0  0  0
   -2.9128   -2.8428    0.2106 C   0  0  0  0  0  0  0  0  0  0  0  0
   -3.5024   -2.2409    0.9067 H   0  0  0  0  0  0  0  0  0  0  0  0
   -3.3872   -2.8175   -0.7734 H   0  0  0  0  0  0  0  0  0  0  0  0
   -1.5021   -2.2928    0.1186 C   0  0  0  0  0  0  0  0  0  0  0  0
   -0.5449   -3.0028    0.3876 O   0  0  0  0  0  0  0  0  0  0  0  0
   -1.2960   -0.9945   -0.2940 N   0  0  0  0  0  0  0  0  0  0  0  0
   -2.1187   -0.4107   -0.4542 H   0  0  0  0  0  0  0  0  0  0  0  0
   -0.0030   -0.2993   -0.2757 C   0  0  1  0  0  0  0  0  0  0  0  0
    0.6605   -0.8176    0.4245 H   0  0  0  0  0  0  0  0  0  0  0  0
    0.6713   -0.3553   -1.6608 C   0  0  0  0  0  0  0  0  0  0  0  0
    1.5108    0.3440   -1.6907 H   0  0  0  0  0  0  0  0  0  0  0  0
    1.0767   -1.3613   -1.7968 H   0  0  0  0  0  0  0  0  0  0  0  0
   -0.2459   -0.0540   -2.8420 C   0  0  0  0  0  0  0  0  0  0  0  0
   -1.0356    0.8678   -2.8644 O   0  0  0  0  0  0  0  0  0  0  0  0
   -0.2589   -0.8541   -3.9491 N   0  0  0  0  0  0  0  0  0  0  0  0
   -1.0233   -0.6928   -4.5987 H   0  0  0  0  0  0  0  0  0  0  0  0
    0.1846   -1.7649   -3.8991 H   0  0  0  0  0  0  0  0  0  0  0  0
   -0.1458    1.1303    0.2939 C   0  0  0  0  0  0  0  0  0  0  0  0
   -1.1844    1.7602    0.1436 O   0  0  0  0  0  0  0  0  0  0  0  0
    0.7748    1.5973    1.2161 N   0  0  0  0  0  0  0  0  0  0  0  0
    1.5825    1.0159    1.4170 H   0  0  0  0  0  0  0  0  0  0  0  0
    0.6194    2.8573    1.9342 C   0  0  0  0  0  0  0  0  0  0  0  0
   -0.2851    2.8381    2.5513 H   0  0  0  0  0  0  0  0  0  0  0  0
    1.4801    3.0300    2.5873 H   0  0  0  0  0  0  0  0  0  0  0  0
    0.5478    3.6926    1.2296 H   0  0  0  0  0  0  0  0  0  0  0  0
  1  2  1  0  0  0  0
  2  3  1  0  0  0  0
  2  4  1  0  0  0  0
  2  5  1  0  0  0  0
  5  6  2  0  0  0  0
  5  7  1  0  0  0  0
  7  8  1  0  0  0  0
  7  9  1  0  0  0  0
  9 10  1  0  0  0  0
  9 11  1  0  0  0  0
  9 19  1  0  0  0  0
 11 12  1  0  0  0  0
 11 13  1  0  0  0  0
 11 14  1  0  0  0  0
 14 15  2  0  0  0  0
 14 16  1  0  0  0  0
 16 17  1  0  0  0  0
 16 18  1  0  0  0  0
 19 20  2  0  0  0  0
 19 21  1  0  0  0  0
 21 22  1  0  0  0  0
 21 23  1  0  0  0  0
 23 24  1  0  0  0  0
 23 25  1  0  0  0  0
 23 26  1  0  0  0  0
M  END
$$$$

  -OEChem-04042215573D

 26 25  0     1  0  0  0  0  0999 V2000
   -2.9020   -3.8619    0.5870 H   0  0  0  0  0  0  0  0  0  0  0  0
   -2.9158   -2.8287    0.2289 C   0  0  0  0  0  0  0  0  0  0  0  0
   -3.4824   -2.2179    0.9362 H   0  0  0  0  0  0  0  0  0  0  0  0
   -3.4117   -2.7989   -0.7443 H   0  0  0  0  0  0  0  0  0  0  0  0
   -1.5001   -2.2979    0.1052 C   0  0  0  0  0  0  0  0  0  0  0  0
   -0.5467   -3.0213    0.3498 O   0  0  0  0  0  0  0  0  0  0  0  0
   -1.2857   -1.0033   -0.3150 N   0  0  0  0  0  0  0  0  0  0  0  0
   -2.1054   -0.4040   -0.4263 H   0  0  0  0  0  0  0  0  0  0  0  0
    0.0133   -0.3176   -0.2855 C   0  0  1  0  0  0  0  0  0  0  0  0
    0.6674   -0.8351    0.4243 H   0  0  0  0  0  0  0  0  0  0  0  0
    0.7022   -0.3768   -1.6617 C   0  0  0  0  0  0  0  0  0  0  0  0
    1.5440    0.3203   -1.6833 H   0  0  0  0  0  0  0  0  0  0  0  0
    1.1065   -1.3831   -1.7998 H   0  0  0  0  0  0  0  0  0  0  0  0
   -0.2107   -0.0652   -2.8407 C   0  0  0  0  0  0  0  0  0  0  0  0
   -0.7891    0.9947   -2.9657 O   0  0  0  0  0  0  0  0  0  0  0  0
   -0.4834   -1.0011   -3.7976 N   0  0  0  0  0  0  0  0  0  0  0  0
   -1.2519   -0.7772   -4.4229 H   0  0  0  0  0  0  0  0  0  0  0  0
   -0.2421   -1.9690   -3.6129 H   0  0  0  0  0  0  0  0  0  0  0  0
   -0.1401    1.1147    0.2746 C   0  0  0  0  0  0  0  0  0  0  0  0
   -1.1892    1.7269    0.1190 O   0  0  0  0  0  0  0  0  0  0  0  0
    0.7638    1.5907    1.2087 N   0  0  0  0  0  0  0  0  0  0  0  0
    1.5888    1.0306    1.4007 H   0  0  0  0  0  0  0  0  0  0  0  0
    0.5906    2.8534    1.9180 C   0  0  0  0  0  0  0  0  0  0  0  0
   -0.3301    2.8375    2.5108 H   0  0  0  0  0  0  0  0  0  0  0  0
    1.4334    3.0272    2.5937 H   0  0  0  0  0  0  0  0  0  0  0  0
    0.5382    3.6865    1.2093 H   0  0  0  0  0  0  0  0  0  0  0  0
  1  2  1  0  0  0  0
  2  3  1  0  0  0  0
  2  4  1  0  0  0  0
  2  5  1  0  0  0  0
  5  6  2  0  0  0  0
  5  7  1  0  0  0  0
  7  8  1  0  0  0  0
  7  9  1  0  0  0  0
  9 10  1  0  0  0  0
  9 11  1  0  0  0  0
  9 19  1  0  0  0  0
 11 12  1  0  0  0  0
 11 13  1  0  0  0  0
 11 14  1  0  0  0  0
 14 15  2  0  0  0  0
 14 16  1  0  0  0  0
 16 17  1  0  0  0  0
 16 18  1  0  0  0  0
 19 20  2  0  0  0  0
 19 21  1  0  0  0  0
 21 22  1  0  0  0  0
 21 23  1  0  0  0  0
 23 24  1  0  0  0  0
 23 25  1  0  0  0  0
 23 26  1  0  0  0  0
M  END
$$$$

  -OEChem-04042215573D

 26 25  0     1  0  0  0  0  0999 V2000
   -2.9092   -3.8626    0.6319 H   0  0  0  0  0  0  0  0  0  0  0  0
   -2.9213   -2.8314    0.2680 C   0  0  0  0  0  0  0  0  0  0  0  0
   -3.4665   -2.2116    0.9842 H   0  0  0  0  0  0  0  0  0  0  0  0
   -3.4379   -2.8027   -0.6945 H   0  0  0  0  0  0  0  0  0  0  0  0
   -1.5036   -2.3147    0.1115 C   0  0  0  0  0  0  0  0  0  0  0  0
   -0.5525   -3.0460    0.3395 O   0  0  0  0  0  0  0  0  0  0  0  0
   -1.2848   -1.0240   -0.3191 N   0  0  0  0  0  0  0  0  0  0  0  0
   -2.1013   -0.4158   -0.4007 H   0  0  0  0  0  0  0  0  0  0  0  0
    0.0189   -0.3458   -0.2835 C   0  0  1  0  0  0  0  0  0  0  0  0
    0.6692   -0.8617    0.4309 H   0  0  0  0  0  0  0  0  0  0  0  0
    0.7148   -0.3947   -1.6558 C   0  0  0  0  0  0  0  0  0  0  0  0
    1.5602    0.2985   -1.6677 H   0  0  0  0  0  0  0  0  0  0  0  0
    1.1145   -1.4009   -1.8072 H   0  0  0  0  0  0  0  0  0  0  0  0
   -0.1978   -0.0654   -2.8283 C   0  0  0  0  0  0  0  0  0  0  0  0
   -0.5532    1.0689   -3.0768 O   0  0  0  0  0  0  0  0  0  0  0  0
   -0.6993   -1.0416   -3.6416 N   0  0  0  0  0  0  0  0  0  0  0  0
   -1.4455   -0.7526   -4.2673 H   0  0  0  0  0  0  0  0  0  0  0  0
   -0.6340   -2.0065   -3.3352 H   0  0  0  0  0  0  0  0  0  0  0  0
   -0.1433    1.0890    0.2647 C   0  0  0  0  0  0  0  0  0  0  0  0
   -1.1893    1.6985    0.0790 O   0  0  0  0  0  0  0  0  0  0  0  0
    0.7468    1.5751    1.2059 N   0  0  0  0  0  0  0  0  0  0  0  0
    1.5749    1.0227    1.4069 H   0  0  0  0  0  0  0  0  0  0  0  0
    0.5722    2.8535    1.8856 C   0  0  0  0  0  0  0  0  0  0  0  0
   -0.3584    2.8567    2.4629 H   0  0  0  0  0  0  0  0  0  0  0  0
    1.4048    3.0339    2.5722 H   0  0  0  0  0  0  0  0  0  0  0  0
    0.5393    3.6722    1.1590 H   0  0  0  0  0  0  0  0  0  0  0  0
  1  2  1  0  0  0  0
  2  3  1  0  0  0  0
  2  4  1  0  0  0  0
  2  5  1  0  0  0  0
  5  6  2  0  0  0  0
  5  7  1  0  0  0  0
  7  8  1  0  0  0  0
  7  9  1  0  0  0  0
  9 10  1  0  0  0  0
  9 11  1  0  0  0  0
  9 19  1  0  0  0  0
 11 12  1  0  0  0  0
 11 13  1  0  0  0  0
 11 14  1  0  0  0  0
 14 15  2  0  0  0  0
 14 16  1  0  0  0  0
 16 17  1  0  0  0  0
 16 18  1  0  0  0  0
 19 20  2  0  0  0  0
 19 21  1  0  0  0  0
 21 22  1  0  0  0  0
 21 23  1  0  0  0  0
 23 24  1  0  0  0  0
 23 25  1  0  0  0  0
 23 26  1  0  0  0  0
M  END
$$$$

  -OEChem-04042215573D

 26 25  0     1  0  0  0  0  0999 V2000
   -2.9169   -3.8686    0.6887 H   0  0  0  0  0  0  0  0  0  0  0  0
   -2.9273   -2.8404    0.3162 C   0  0  0  0  0  0  0  0  0  0  0  0
   -3.4580   -2.2113    1.0352 H   0  0  0  0  0  0  0  0  0  0  0  0
   -3.4581   -2.8162   -0.6385 H   0  0  0  0  0  0  0  0  0  0  0  0
   -1.5087   -2.3345    0.1338 C   0  0  0  0  0  0  0  0  0  0  0  0
   -0.5590   -3.0710    0.3479 O   0  0  0  0  0  0  0  0  0  0  0  0
   -1.2884   -1.0465   -0.3049 N   0  0  0  0  0  0  0  0  0  0  0  0
   -2.1024   -0.4320   -0.3623 H   0  0  0  0  0  0  0  0  0  0  0  0
    0.0192   -0.3739   -0.2745 C   0  0  1  0  0  0  0  0  0  0  0  0
    0.6746   -0.8897    0.4353 H   0  0  0  0  0  0  0  0  0  0  0  0
    0.7085   -0.4018   -1.6506 C   0  0  0  0  0  0  0  0  0  0  0  0
    1.5568    0.2886   -1.6548 H   0  0  0  0  0  0  0  0  0  0  0  0
    1.1040   -1.4060   -1.8248 H   0  0  0  0  0  0  0  0  0  0  0  0
   -0.2117   -0.0499   -2.8099 C   0  0  0  0  0  0  0  0  0  0  0  0
   -0.3495    1.0943   -3.1942 O   0  0  0  0  0  0  0  0  0  0  0  0
   -0.9002   -1.0074   -3.4995 N   0  0  0  0  0  0  0  0  0  0  0  0
   -1.6103   -0.6665   -4.1407 H   0  0  0  0  0  0  0  0  0  0  0  0
   -0.9776   -1.9335   -3.0924 H   0  0  0  0  0  0  0  0  0  0  0  0
   -0.1495    1.0618    0.2677 C   0  0  0  0  0  0  0  0  0  0  0  0
   -1.1909    1.6708    0.0545 O   0  0  0  0  0  0  0  0  0  0  0  0
    0.7338    1.5595    1.2087 N   0  0  0  0  0  0  0  0  0  0  0  0
    1.5673    1.0162    1.4127 H   0  0  0  0  0  0  0  0  0  0  0  0
    0.5631    2.8542    1.8574 C   0  0  0  0  0  0  0  0  0  0  0  0
   -0.3772    2.8813    2.4183 H   0  0  0  0  0  0  0  0  0  0  0  0
    1.3859    3.0390    2.5546 H   0  0  0  0  0  0  0  0  0  0  0  0
    0.5532    3.6575    1.1130 H   0  0  0  0  0  0  0  0  0  0  0  0
  1  2  1  0  0  0  0
  2  3  1  0  0  0  0
  2  4  1  0  0  0  0
  2  5  1  0  0  0  0
  5  6  2  0  0  0  0
  5  7  1  0  0  0  0
  7  8  1  0  0  0  0
  7  9  1  0  0  0  0
  9 10  1  0  0  0  0
  9 11  1  0  0  0  0
  9 19  1  0  0  0  0
 11 12  1  0  0  0  0
 11 13  1  0  0  0  0
 11 14  1  0  0  0  0
 14 15  2  0  0  0  0
 14 16  1  0  0  0  0
 16 17  1  0  0  0  0
 16 18  1  0  0  0  0
 19 20  2  0  0  0  0
 19 21  1  0  0  0  0
 21 22  1  0  0  0  0
 21 23  1  0  0  0  0
 23 24  1  0  0  0  0
 23 25  1  0  0  0  0
 23 26  1  0  0  0  0
M  END
$$$$

  -OEChem-04042215573D

 26 25  0     1  0  0  0  0  0999 V2000
   -2.9146   -3.8801    0.7469 H   0  0  0  0  0  0  0  0  0  0  0  0
   -2.9298   -2.8571    0.3604 C   0  0  0  0  0  0  0  0  0  0  0  0
   -3.4576   -2.2202    1.0747 H   0  0  0  0  0  0  0  0  0  0  0  0
   -3.4664   -2.8476   -0.5914 H   0  0  0  0  0  0  0  0  0  0  0  0
   -1.5133   -2.3509    0.1625 C   0  0  0  0  0  0  0  0  0  0  0  0
   -0.5619   -3.0850    0.3750 O   0  0  0  0  0  0  0  0  0  0  0  0
   -1.2969   -1.0635   -0.2814 N   0  0  0  0  0  0  0  0  0  0  0  0
   -2.1106   -0.4479   -0.3265 H   0  0  0  0  0  0  0  0  0  0  0  0
    0.0135   -0.3942   -0.2628 C   0  0  1  0  0  0  0  0  0  0  0  0
    0.6793   -0.9123    0.4358 H   0  0  0  0  0  0  0  0  0  0  0  0
    0.6892   -0.3919   -1.6468 C   0  0  0  0  0  0  0  0  0  0  0  0
    1.5408    0.2947   -1.6411 H   0  0  0  0  0  0  0  0  0  0  0  0
    1.0784   -1.3934   -1.8482 H   0  0  0  0  0  0  0  0  0  0  0  0
   -0.2376   -0.0141   -2.7936 C   0  0  0  0  0  0  0  0  0  0  0  0
   -0.1773    1.0775   -3.3244 O   0  0  0  0  0  0  0  0  0  0  0  0
   -1.0878   -0.9166   -3.3669 N   0  0  0  0  0  0  0  0  0  0  0  0
   -1.7548   -0.5378   -4.0325 H   0  0  0  0  0  0  0  0  0  0  0  0
   -1.2937   -1.7713   -2.8613 H   0  0  0  0  0  0  0  0  0  0  0  0
   -0.1558    1.0406    0.2794 C   0  0  0  0  0  0  0  0  0  0  0  0
   -1.1867    1.6572    0.0388 O   0  0  0  0  0  0  0  0  0  0  0  0
    0.7286    1.5459    1.2149 N   0  0  0  0  0  0  0  0  0  0  0  0
    1.5585    1.0004    1.4282 H   0  0  0  0  0  0  0  0  0  0  0  0
    0.5676    2.8540    1.8384 C   0  0  0  0  0  0  0  0  0  0  0  0
   -0.3815    2.9056    2.3821 H   0  0  0  0  0  0  0  0  0  0  0  0
    1.3809    3.0379    2.5468 H   0  0  0  0  0  0  0  0  0  0  0  0
    0.5833    3.6442    1.0803 H   0  0  0  0  0  0  0  0  0  0  0  0
  1  2  1  0  0  0  0
  2  3  1  0  0  0  0
  2  4  1  0  0  0  0
  2  5  1  0  0  0  0
  5  6  2  0  0  0  0
  5  7  1  0  0  0  0
  7  8  1  0  0  0  0
  7  9  1  0  0  0  0
  9 10  1  0  0  0  0
  9 11  1  0  0  0  0
  9 19  1  0  0  0  0
 11 12  1  0  0  0  0
 11 13  1  0  0  0  0
 11 14  1  0  0  0  0
 14 15  2  0  0  0  0
 14 16  1  0  0  0  0
 16 17  1  0  0  0  0
 16 18  1  0  0  0  0
 19 20  2  0  0  0  0
 19 21  1  0  0  0  0
 21 22  1  0  0  0  0
 21 23  1  0  0  0  0
 23 24  1  0  0  0  0
 23 25  1  0  0  0  0
 23 26  1  0  0  0  0
M  END
$$$$

  -OEChem-04042215573D

 26 25  0     1  0  0  0  0  0999 V2000
   -2.9055   -3.8900    0.7908 H   0  0  0  0  0  0  0  0  0  0  0  0
   -2.9280   -2.8696    0.3977 C   0  0  0  0  0  0  0  0  0  0  0  0
   -3.4511   -2.2293    1.1124 H   0  0  0  0  0  0  0  0  0  0  0  0
   -3.4737   -2.8684   -0.5490 H   0  0  0  0  0  0  0  0  0  0  0  0
   -1.5150   -2.3611    0.1830 C   0  0  0  0  0  0  0  0  0  0  0  0
   -0.5604   -3.0939    0.3838 O   0  0  0  0  0  0  0  0  0  0  0  0
   -1.3066   -1.0717   -0.2604 N   0  0  0  0  0  0  0  0  0  0  0  0
   -2.1199   -0.4542   -0.2796 H   0  0  0  0  0  0  0  0  0  0  0  0
    0.0056   -0.4044   -0.2555 C   0  0  1  0  0  0  0  0  0  0  0  0
    0.6816   -0.9267    0.4299 H   0  0  0  0  0  0  0  0  0  0  0  0
    0.6688   -0.3736   -1.6466 C   0  0  0  0  0  0  0  0  0  0  0  0
    1.5241    0.3083   -1.6310 H   0  0  0  0  0  0  0  0  0  0  0  0
    1.0515   -1.3733   -1.8686 H   0  0  0  0  0  0  0  0  0  0  0  0
   -0.2554    0.0261   -2.7902 C   0  0  0  0  0  0  0  0  0  0  0  0
   -0.0206    1.0047   -3.4720 O   0  0  0  0  0  0  0  0  0  0  0  0
   -1.2580   -0.7836   -3.2425 N   0  0  0  0  0  0  0  0  0  0  0  0
   -1.8807   -0.3736   -3.9321 H   0  0  0  0  0  0  0  0  0  0  0  0
   -1.5827   -1.5248   -2.6317 H   0  0  0  0  0  0  0  0  0  0  0  0
   -0.1619    1.0271    0.2946 C   0  0  0  0  0  0  0  0  0  0  0  0
   -1.1851    1.6508    0.0393 O   0  0  0  0  0  0  0  0  0  0  0  0
    0.7276    1.5357    1.2231 N   0  0  0  0  0  0  0  0  0  0  0  0
    1.5560    0.9883    1.4384 H   0  0  0  0  0  0  0  0  0  0  0  0
    0.5753    2.8508    1.8346 C   0  0  0  0  0  0  0  0  0  0  0  0
   -0.3733    2.9143    2.3781 H   0  0  0  0  0  0  0  0  0  0  0  0
    1.3899    3.0369    2.5411 H   0  0  0  0  0  0  0  0  0  0  0  0
    0.5953    3.6337    1.0689 H   0  0  0  0  0  0  0  0  0  0  0  0
  1  2  1  0  0  0  0
  2  3  1  0  0  0  0
  2  4  1  0  0  0  0
  2  5  1  0  0  0  0
  5  6  2  0  0  0  0
  5  7  1  0  0  0  0
  7  8  1  0  0  0  0
  7  9  1  0  0  0  0
  9 10  1  0  0  0  0
  9 11  1  0  0  0  0
  9 19  1  0  0  0  0
 11 12  1  0  0  0  0
 11 13  1  0  0  0  0
 11 14  1  0  0  0  0
 14 15  2  0  0  0  0
 14 16  1  0  0  0  0
 16 17  1  0  0  0  0
 16 18  1  0  0  0  0
 19 20  2  0  0  0  0
 19 21  1  0  0  0  0
 21 22  1  0  0  0  0
 21 23  1  0  0  0  0
 23 24  1  0  0  0  0
 23 25  1  0  0  0  0
 23 26  1  0  0  0  0
M  END
$$$$

  -OEChem-04042215573D

 26 25  0     1  0  0  0  0  0999 V2000
   -2.8897   -3.8983    0.8369 H   0  0  0  0  0  0  0  0  0  0  0  0
   -2.9225   -2.8826    0.4326 C   0  0  0  0  0  0  0  0  0  0  0  0
   -3.4396   -2.2374    1.1472 H   0  0  0  0  0  0  0  0  0  0  0  0
   -3.4810   -2.8951   -0.5064 H   0  0  0  0  0  0  0  0  0  0  0  0
   -1.5147   -2.3694    0.1938 C   0  0  0  0  0  0  0  0  0  0  0  0
   -0.5552   -3.0985    0.3835 O   0  0  0  0  0  0  0  0  0  0  0  0
   -1.3180   -1.0756   -0.2450 N   0  0  0  0  0  0  0  0  0  0  0  0
   -2.1299   -0.4563   -0.2207 H   0  0  0  0  0  0  0  0  0  0  0  0
   -0.0050   -0.4083   -0.2546 C   0  0  1  0  0  0  0  0  0  0  0  0
    0.6802   -0.9350    0.4187 H   0  0  0  0  0  0  0  0  0  0  0  0
    0.6521   -0.3499   -1.6506 C   0  0  0  0  0  0  0  0  0  0  0  0
    1.5105    0.3280   -1.6207 H   0  0  0  0  0  0  0  0  0  0  0  0
    1.0320   -1.3472   -1.8880 H   0  0  0  0  0  0  0  0  0  0  0  0
   -0.2567    0.0675   -2.8029 C   0  0  0  0  0  0  0  0  0  0  0  0
    0.1228    0.8787   -3.6253 O   0  0  0  0  0  0  0  0  0  0  0  0
   -1.4046   -0.5946   -3.1315 N   0  0  0  0  0  0  0  0  0  0  0  0
   -1.9743   -0.1593   -3.8506 H   0  0  0  0  0  0  0  0  0  0  0  0
   -1.8314   -1.1778   -2.4211 H   0  0  0  0  0  0  0  0  0  0  0  0
   -0.1709    1.0179    0.3087 C   0  0  0  0  0  0  0  0  0  0  0  0
   -1.1893    1.6479    0.0489 O   0  0  0  0  0  0  0  0  0  0  0  0
    0.7267    1.5254    1.2296 N   0  0  0  0  0  0  0  0  0  0  0  0
    1.5521    0.9733    1.4446 H   0  0  0  0  0  0  0  0  0  0  0  0
    0.5843    2.8426    1.8389 C   0  0  0  0  0  0  0  0  0  0  0  0
   -0.3617    2.9122    2.3863 H   0  0  0  0  0  0  0  0  0  0  0  0
    1.4031    3.0251    2.5416 H   0  0  0  0  0  0  0  0  0  0  0  0
    0.6062    3.6240    1.0717 H   0  0  0  0  0  0  0  0  0  0  0  0
  1  2  1  0  0  0  0
  2  3  1  0  0  0  0
  2  4  1  0  0  0  0
  2  5  1  0  0  0  0
  5  6  2  0  0  0  0
  5  7  1  0  0  0  0
  7  8  1  0  0  0  0
  7  9  1  0  0  0  0
  9 10  1  0  0  0  0
  9 11  1  0  0  0  0
  9 19  1  0  0  0  0
 11 12  1  0  0  0  0
 11 13  1  0  0  0  0
 11 14  1  0  0  0  0
 14 15  2  0  0  0  0
 14 16  1  0  0  0  0
 16 17  1  0  0  0  0
 16 18  1  0  0  0  0
 19 20  2  0  0  0  0
 19 21  1  0  0  0  0
 21 22  1  0  0  0  0
 21 23  1  0  0  0  0
 23 24  1  0  0  0  0
 23 25  1  0  0  0  0
 23 26  1  0  0  0  0
M  END
$$$$

  -OEChem-04042215573D

 26 25  0     1  0  0  0  0  0999 V2000
   -2.8621   -3.9206    0.8587 H   0  0  0  0  0  0  0  0  0  0  0  0
   -2.9080   -2.9039    0.4579 C   0  0  0  0  0  0  0  0  0  0  0  0
   -3.4193   -2.2639    1.1813 H   0  0  0  0  0  0  0  0  0  0  0  0
   -3.4789   -2.9187   -0.4737 H   0  0  0  0  0  0  0  0  0  0  0  0
   -1.5076   -2.3808    0.1991 C   0  0  0  0  0  0  0  0  0  0  0  0
   -0.5409   -3.1027    0.3808 O   0  0  0  0  0  0  0  0  0  0  0  0
   -1.3272   -1.0830   -0.2369 N   0  0  0  0  0  0  0  0  0  0  0  0
   -2.1375   -0.4665   -0.1611 H   0  0  0  0  0  0  0  0  0  0  0  0
   -0.0155   -0.4129   -0.2589 C   0  0  1  0  0  0  0  0  0  0  0  0
    0.6758   -0.9395    0.4084 H   0  0  0  0  0  0  0  0  0  0  0  0
    0.6421   -0.3426   -1.6564 C   0  0  0  0  0  0  0  0  0  0  0  0
    1.5018    0.3329   -1.6148 H   0  0  0  0  0  0  0  0  0  0  0  0
    1.0219   -1.3403   -1.8925 H   0  0  0  0  0  0  0  0  0  0  0  0
   -0.2369    0.0764   -2.8337 C   0  0  0  0  0  0  0  0  0  0  0  0
    0.2544    0.6638   -3.7782 O   0  0  0  0  0  0  0  0  0  0  0  0
   -1.5318   -0.3137   -3.0163 N   0  0  0  0  0  0  0  0  0  0  0  0
   -2.0291    0.1587   -3.7652 H   0  0  0  0  0  0  0  0  0  0  0  0
   -2.0342   -0.6556   -2.2063 H   0  0  0  0  0  0  0  0  0  0  0  0
   -0.1806    1.0089    0.3136 C   0  0  0  0  0  0  0  0  0  0  0  0
   -1.1973    1.6412    0.0518 O   0  0  0  0  0  0  0  0  0  0  0  0
    0.7241    1.5163    1.2274 N   0  0  0  0  0  0  0  0  0  0  0  0
    1.5477    0.9605    1.4411 H   0  0  0  0  0  0  0  0  0  0  0  0
    0.5859    2.8317    1.8416 C   0  0  0  0  0  0  0  0  0  0  0  0
   -0.3563    2.9003    2.3958 H   0  0  0  0  0  0  0  0  0  0  0  0
    1.4097    3.0114    2.5391 H   0  0  0  0  0  0  0  0  0  0  0  0
    0.6029    3.6155    1.0768 H   0  0  0  0  0  0  0  0  0  0  0  0
  1  2  1  0  0  0  0
  2  3  1  0  0  0  0
  2  4  1  0  0  0  0
  2  5  1  0  0  0  0
  5  6  2  0  0  0  0
  5  7  1  0  0  0  0
  7  8  1  0  0  0  0
  7  9  1  0  0  0  0
  9 10  1  0  0  0  0
  9 11  1  0  0  0  0
  9 19  1  0  0  0  0
 11 12  1  0  0  0  0
 11 13  1  0  0  0  0
 11 14  1  0  0  0  0
 14 15  2  0  0  0  0
 14 16  1  0  0  0  0
 16 17  1  0  0  0  0
 16 18  1  0  0  0  0
 19 20  2  0  0  0  0
 19 21  1  0  0  0  0
 21 22  1  0  0  0  0
 21 23  1  0  0  0  0
 23 24  1  0  0  0  0
 23 25  1  0  0  0  0
 23 26  1  0  0  0  0
M  END
$$$$

  -OEChem-04042215573D

 26 25  0     1  0  0  0  0  0999 V2000
   -2.8188   -4.0809    0.7443 H   0  0  0  0  0  0  0  0  0  0  0  0
   -2.8677   -3.0532    0.3735 C   0  0  0  0  0  0  0  0  0  0  0  0
   -3.4982   -2.4658    1.0454 H   0  0  0  0  0  0  0  0  0  0  0  0
   -3.3163   -3.0599   -0.6230 H   0  0  0  0  0  0  0  0  0  0  0  0
   -1.4758   -2.4531    0.3107 C   0  0  0  0  0  0  0  0  0  0  0  0
   -0.5112   -3.0974    0.6909 O   0  0  0  0  0  0  0  0  0  0  0  0
   -1.3002   -1.1726   -0.1720 N   0  0  0  0  0  0  0  0  0  0  0  0
   -2.1387   -0.6455   -0.4087 H   0  0  0  0  0  0  0  0  0  0  0  0
   -0.0062   -0.4712   -0.2179 C   0  0  1  0  0  0  0  0  0  0  0  0
    0.7109   -0.9596    0.4509 H   0  0  0  0  0  0  0  0  0  0  0  0
    0.5831   -0.4720   -1.6466 C   0  0  0  0  0  0  0  0  0  0  0  0
    1.4303    0.2188   -1.6842 H   0  0  0  0  0  0  0  0  0  0  0  0
    0.9691   -1.4755   -1.8456 H   0  0  0  0  0  0  0  0  0  0  0  0
   -0.3595   -0.1297   -2.8026 C   0  0  0  0  0  0  0  0  0  0  0  0
    0.1048    0.1439   -3.8922 O   0  0  0  0  0  0  0  0  0  0  0  0
   -1.6219    0.3674   -2.6456 N   0  0  0  0  0  0  0  0  0  0  0  0
   -1.9375    0.8808   -3.4631 H   0  0  0  0  0  0  0  0  0  0  0  0
   -1.7970    0.7949   -1.7355 H   0  0  0  0  0  0  0  0  0  0  0  0
   -0.1843    0.9727    0.2926 C   0  0  0  0  0  0  0  0  0  0  0  0
   -1.1727    1.6114   -0.0546 O   0  0  0  0  0  0  0  0  0  0  0  0
    0.7150    1.5306    1.1812 N   0  0  0  0  0  0  0  0  0  0  0  0
    1.4991    0.9600    1.4858 H   0  0  0  0  0  0  0  0  0  0  0  0
    0.5628    2.8701    1.7366 C   0  0  0  0  0  0  0  0  0  0  0  0
   -0.3688    2.9450    2.3074 H   0  0  0  0  0  0  0  0  0  0  0  0
    1.3974    3.0993    2.4062 H   0  0  0  0  0  0  0  0  0  0  0  0
    0.5475    3.6176    0.9365 H   0  0  0  0  0  0  0  0  0  0  0  0
  1  2  1  0  0  0  0
  2  3  1  0  0  0  0
  2  4  1  0  0  0  0
  2  5  1  0  0  0  0
  5  6  2  0  0  0  0
  5  7  1  0  0  0  0
  7  8  1  0  0  0  0
  7  9  1  0  0  0  0
  9 10  1  0  0  0  0
  9 11  1  0  0  0  0
  9 19  1  0  0  0  0
 11 12  1  0  0  0  0
 11 13  1  0  0  0  0
 11 14  1  0  0  0  0
 14 15  2  0  0  0  0
 14 16  1  0  0  0  0
 16 17  1  0  0  0  0
 16 18  1  0  0  0  0
 19 20  2  0  0  0  0
 19 21  1  0  0  0  0
 21 22  1  0  0  0  0
 21 23  1  0  0  0  0
 23 24  1  0  0  0  0
 23 25  1  0  0  0  0
 23 26  1  0  0  0  0
M  END
$$$$

  -OEChem-04042215573D

 26 25  0     1  0  0  0  0  0999 V2000
   -2.8261   -4.0217    0.5963 H   0  0  0  0  0  0  0  0  0  0  0  0
   -2.8757   -2.9914    0.2327 C   0  0  0  0  0  0  0  0  0  0  0  0
   -3.5381   -2.4190    0.8867 H   0  0  0  0  0  0  0  0  0  0  0  0
   -3.2880   -2.9950   -0.7794 H   0  0  0  0  0  0  0  0  0  0  0  0
   -1.4908   -2.3716    0.2249 C   0  0  0  0  0  0  0  0  0  0  0  0
   -0.5247   -3.0235    0.5886 O   0  0  0  0  0  0  0  0  0  0  0  0
   -1.3251   -1.0660   -0.1904 N   0  0  0  0  0  0  0  0  0  0  0  0
   -2.1649   -0.5441   -0.4348 H   0  0  0  0  0  0  0  0  0  0  0  0
   -0.0411   -0.3476   -0.2060 C   0  0  1  0  0  0  0  0  0  0  0  0
    0.6621   -0.8689    0.4528 H   0  0  0  0  0  0  0  0  0  0  0  0
    0.5586   -0.3802   -1.6270 C   0  0  0  0  0  0  0  0  0  0  0  0
    1.5281    0.1250   -1.6094 H   0  0  0  0  0  0  0  0  0  0  0  0
    0.7365   -1.4246   -1.8989 H   0  0  0  0  0  0  0  0  0  0  0  0
   -0.2689    0.2488   -2.7490 C   0  0  0  0  0  0  0  0  0  0  0  0
    0.1572    0.2488   -3.8874 O   0  0  0  0  0  0  0  0  0  0  0  0
   -1.4517    0.9118   -2.5855 N   0  0  0  0  0  0  0  0  0  0  0  0
   -1.7350    1.4572   -3.3938 H   0  0  0  0  0  0  0  0  0  0  0  0
   -1.6342    1.2932   -1.6557 H   0  0  0  0  0  0  0  0  0  0  0  0
   -0.1637    1.0797    0.3683 C   0  0  0  0  0  0  0  0  0  0  0  0
   -1.1454    1.7632    0.0998 O   0  0  0  0  0  0  0  0  0  0  0  0
    0.7750    1.5641    1.2597 N   0  0  0  0  0  0  0  0  0  0  0  0
    1.5483    0.9549    1.5133 H   0  0  0  0  0  0  0  0  0  0  0  0
    0.6804    2.8759    1.8895 C   0  0  0  0  0  0  0  0  0  0  0  0
   -0.2317    2.9481    2.4910 H   0  0  0  0  0  0  0  0  0  0  0  0
    1.5404    3.0433    2.5450 H   0  0  0  0  0  0  0  0  0  0  0  0
    0.6666    3.6655    1.1309 H   0  0  0  0  0  0  0  0  0  0  0  0
  1  2  1  0  0  0  0
  2  3  1  0  0  0  0
  2  4  1  0  0  0  0
  2  5  1  0  0  0  0
  5  6  2  0  0  0  0
  5  7  1  0  0  0  0
  7  8  1  0  0  0  0
  7  9  1  0  0  0  0
  9 10  1  0  0  0  0
  9 11  1  0  0  0  0
  9 19  1  0  0  0  0
 11 12  1  0  0  0  0
 11 13  1  0  0  0  0
 11 14  1  0  0  0  0
 14 15  2  0  0  0  0
 14 16  1  0  0  0  0
 16 17  1  0  0  0  0
 16 18  1  0  0  0  0
 19 20  2  0  0  0  0
 19 21  1  0  0  0  0
 21 22  1  0  0  0  0
 21 23  1  0  0  0  0
 23 24  1  0  0  0  0
 23 25  1  0  0  0  0
 23 26  1  0  0  0  0
M  END
$$$$

  -OEChem-04042215573D

 26 25  0     1  0  0  0  0  0999 V2000
   -2.8288   -4.0054    0.5429 H   0  0  0  0  0  0  0  0  0  0  0  0
   -2.8779   -2.9713    0.1900 C   0  0  0  0  0  0  0  0  0  0  0  0
   -3.5544   -2.4097    0.8388 H   0  0  0  0  0  0  0  0  0  0  0  0
   -3.2727   -2.9659   -0.8291 H   0  0  0  0  0  0  0  0  0  0  0  0
   -1.4966   -2.3437    0.2133 C   0  0  0  0  0  0  0  0  0  0  0  0
   -0.5337   -2.9943    0.5878 O   0  0  0  0  0  0  0  0  0  0  0  0
   -1.3301   -1.0332   -0.1866 N   0  0  0  0  0  0  0  0  0  0  0  0
   -2.1663   -0.5165   -0.4543 H   0  0  0  0  0  0  0  0  0  0  0  0
   -0.0479   -0.3130   -0.1960 C   0  0  1  0  0  0  0  0  0  0  0  0
    0.6494   -0.8412    0.4633 H   0  0  0  0  0  0  0  0  0  0  0  0
    0.5602   -0.3571   -1.6132 C   0  0  0  0  0  0  0  0  0  0  0  0
    1.5270    0.1527   -1.5961 H   0  0  0  0  0  0  0  0  0  0  0  0
    0.7447   -1.4036   -1.8738 H   0  0  0  0  0  0  0  0  0  0  0  0
   -0.2653    0.2599   -2.7435 C   0  0  0  0  0  0  0  0  0  0  0  0
    0.0192    0.0211   -3.9010 O   0  0  0  0  0  0  0  0  0  0  0  0
   -1.3416    1.0846   -2.5809 N   0  0  0  0  0  0  0  0  0  0  0  0
   -1.6507    1.5651   -3.4201 H   0  0  0  0  0  0  0  0  0  0  0  0
   -1.4664    1.5343   -1.6720 H   0  0  0  0  0  0  0  0  0  0  0  0
   -0.1518    1.1108    0.3917 C   0  0  0  0  0  0  0  0  0  0  0  0
   -1.1203    1.8163    0.1340 O   0  0  0  0  0  0  0  0  0  0  0  0
    0.8000    1.5736    1.2811 N   0  0  0  0  0  0  0  0  0  0  0  0
    1.5587    0.9459    1.5337 H   0  0  0  0  0  0  0  0  0  0  0  0
    0.7254    2.8783    1.9288 C   0  0  0  0  0  0  0  0  0  0  0  0
   -0.1803    2.9526    2.5399 H   0  0  0  0  0  0  0  0  0  0  0  0
    1.5933    3.0280    2.5782 H   0  0  0  0  0  0  0  0  0  0  0  0
    0.7128    3.6779    1.1806 H   0  0  0  0  0  0  0  0  0  0  0  0
  1  2  1  0  0  0  0
  2  3  1  0  0  0  0
  2  4  1  0  0  0  0
  2  5  1  0  0  0  0
  5  6  2  0  0  0  0
  5  7  1  0  0  0  0
  7  8  1  0  0  0  0
  7  9  1  0  0  0  0
  9 10  1  0  0  0  0
  9 11  1  0  0  0  0
  9 19  1  0  0  0  0
 11 12  1  0  0  0  0
 11 13  1  0  0  0  0
 11 14  1  0  0  0  0
 14 15  2  0  0  0  0
 14 16  1  0  0  0  0
 16 17  1  0  0  0  0
 16 18  1  0  0  0  0
 19 20  2  0  0  0  0
 19 21  1  0  0  0  0
 21 22  1  0  0  0  0
 21 23  1  0  0  0  0
 23 24  1  0  0  0  0
 23 25  1  0  0  0  0
 23 26  1  0  0  0  0
M  END
$$$$

  -OEChem-04042215573D

 26 25  0     1  0  0  0  0  0999 V2000
   -2.8486   -3.9646    0.5488 H   0  0  0  0  0  0  0  0  0  0  0  0
   -2.8915   -2.9278    0.2036 C   0  0  0  0  0  0  0  0  0  0  0  0
   -3.5347   -2.3583    0.8788 H   0  0  0  0  0  0  0  0  0  0  0  0
   -3.3210   -2.9090   -0.8010 H   0  0  0  0  0  0  0  0  0  0  0  0
   -1.4989   -2.3263    0.1816 C   0  0  0  0  0  0  0  0  0  0  0  0
   -0.5367   -2.9962    0.5219 O   0  0  0  0  0  0  0  0  0  0  0  0
   -1.3218   -1.0157   -0.2141 N   0  0  0  0  0  0  0  0  0  0  0  0
   -2.1600   -0.4682   -0.4023 H   0  0  0  0  0  0  0  0  0  0  0  0
   -0.0323   -0.3090   -0.2149 C   0  0  1  0  0  0  0  0  0  0  0  0
    0.6559   -0.8421    0.4499 H   0  0  0  0  0  0  0  0  0  0  0  0
    0.5855   -0.3633   -1.6275 C   0  0  0  0  0  0  0  0  0  0  0  0
    1.5570    0.1371   -1.6068 H   0  0  0  0  0  0  0  0  0  0  0  0
    0.7616   -1.4123   -1.8845 H   0  0  0  0  0  0  0  0  0  0  0  0
   -0.2314    0.2620   -2.7580 C   0  0  0  0  0  0  0  0  0  0  0  0
   -0.1412   -0.1745   -3.8893 O   0  0  0  0  0  0  0  0  0  0  0  0
   -0.9667    1.4071   -2.6491 N   0  0  0  0  0  0  0  0  0  0  0  0
   -1.5151    1.6784   -3.4588 H   0  0  0  0  0  0  0  0  0  0  0  0
   -1.1931    1.7745   -1.7231 H   0  0  0  0  0  0  0  0  0  0  0  0
   -0.1421    1.1109    0.3797 C   0  0  0  0  0  0  0  0  0  0  0  0
   -1.1292    1.7989    0.1444 O   0  0  0  0  0  0  0  0  0  0  0  0
    0.8000    1.5717    1.2802 N   0  0  0  0  0  0  0  0  0  0  0  0
    1.5719    0.9543    1.5174 H   0  0  0  0  0  0  0  0  0  0  0  0
    0.6975    2.8583    1.9593 C   0  0  0  0  0  0  0  0  0  0  0  0
   -0.2016    2.8921    2.5839 H   0  0  0  0  0  0  0  0  0  0  0  0
    1.5700    3.0179    2.6003 H   0  0  0  0  0  0  0  0  0  0  0  0
    0.6513    3.6747    1.2308 H   0  0  0  0  0  0  0  0  0  0  0  0
  1  2  1  0  0  0  0
  2  3  1  0  0  0  0
  2  4  1  0  0  0  0
  2  5  1  0  0  0  0
  5  6  2  0  0  0  0
  5  7  1  0  0  0  0
  7  8  1  0  0  0  0
  7  9  1  0  0  0  0
  9 10  1  0  0  0  0
  9 11  1  0  0  0  0
  9 19  1  0  0  0  0
 11 12  1  0  0  0  0
 11 13  1  0  0  0  0
 11 14  1  0  0  0  0
 14 15  2  0  0  0  0
 14 16  1  0  0  0  0
 16 17  1  0  0  0  0
 16 18  1  0  0  0  0
 19 20  2  0  0  0  0
 19 21  1  0  0  0  0
 21 22  1  0  0  0  0
 21 23  1  0  0  0  0
 23 24  1  0  0  0  0
 23 25  1  0  0  0  0
 23 26  1  0  0  0  0
M  END
$$$$

  -OEChem-04042215573D

 26 25  0     1  0  0  0  0  0999 V2000
   -2.8589   -3.9618    0.4942 H   0  0  0  0  0  0  0  0  0  0  0  0
   -2.8924   -2.9256    0.1461 C   0  0  0  0  0  0  0  0  0  0  0  0
   -3.5686   -2.3590    0.7908 H   0  0  0  0  0  0  0  0  0  0  0  0
   -3.2766   -2.9111   -0.8770 H   0  0  0  0  0  0  0  0  0  0  0  0
   -1.5039   -2.3155    0.1855 C   0  0  0  0  0  0  0  0  0  0  0  0
   -0.5545   -2.9763    0.5762 O   0  0  0  0  0  0  0  0  0  0  0  0
   -1.3164   -1.0071   -0.2125 N   0  0  0  0  0  0  0  0  0  0  0  0
   -2.1459   -0.4711   -0.4617 H   0  0  0  0  0  0  0  0  0  0  0  0
   -0.0255   -0.3041   -0.2015 C   0  0  1  0  0  0  0  0  0  0  0  0
    0.6577   -0.8393    0.4666 H   0  0  0  0  0  0  0  0  0  0  0  0
    0.5933   -0.3612   -1.6130 C   0  0  0  0  0  0  0  0  0  0  0  0
    1.5654    0.1380   -1.5962 H   0  0  0  0  0  0  0  0  0  0  0  0
    0.7679   -1.4100   -1.8731 H   0  0  0  0  0  0  0  0  0  0  0  0
   -0.2354    0.2719   -2.7300 C   0  0  0  0  0  0  0  0  0  0  0  0
   -0.3798   -0.3022   -3.7922 O   0  0  0  0  0  0  0  0  0  0  0  0
   -0.7307    1.5433   -2.6960 N   0  0  0  0  0  0  0  0  0  0  0  0
   -1.3533    1.7843   -3.4607 H   0  0  0  0  0  0  0  0  0  0  0  0
   -0.8810    1.9697   -1.7800 H   0  0  0  0  0  0  0  0  0  0  0  0
   -0.1300    1.1189    0.3853 C   0  0  0  0  0  0  0  0  0  0  0  0
   -1.0814    1.8357    0.0969 O   0  0  0  0  0  0  0  0  0  0  0  0
    0.8077    1.5752    1.2928 N   0  0  0  0  0  0  0  0  0  0  0  0
    1.5486    0.9368    1.5703 H   0  0  0  0  0  0  0  0  0  0  0  0
    0.7245    2.8768    1.9455 C   0  0  0  0  0  0  0  0  0  0  0  0
   -0.2036    2.9590    2.5210 H   0  0  0  0  0  0  0  0  0  0  0  0
    1.5678    3.0113    2.6299 H   0  0  0  0  0  0  0  0  0  0  0  0
    0.7520    3.6809    1.2026 H   0  0  0  0  0  0  0  0  0  0  0  0
  1  2  1  0  0  0  0
  2  3  1  0  0  0  0
  2  4  1  0  0  0  0
  2  5  1  0  0  0  0
  5  6  2  0  0  0  0
  5  7  1  0  0  0  0
  7  8  1  0  0  0  0
  7  9  1  0  0  0  0
  9 10  1  0  0  0  0
  9 11  1  0  0  0  0
  9 19  1  0  0  0  0
 11 12  1  0  0  0  0
 11 13  1  0  0  0  0
 11 14  1  0  0  0  0
 14 15  2  0  0  0  0
 14 16  1  0  0  0  0
 16 17  1  0  0  0  0
 16 18  1  0  0  0  0
 19 20  2  0  0  0  0
 19 21  1  0  0  0  0
 21 22  1  0  0  0  0
 21 23  1  0  0  0  0
 23 24  1  0  0  0  0
 23 25  1  0  0  0  0
 23 26  1  0  0  0  0
M  END
$$$$

  -OEChem-04042215573D

 26 25  0     1  0  0  0  0  0999 V2000
   -2.8729   -3.9557    0.4409 H   0  0  0  0  0  0  0  0  0  0  0  0
   -2.8940   -2.9187    0.0948 C   0  0  0  0  0  0  0  0  0  0  0  0
   -3.5974   -2.3548    0.7123 H   0  0  0  0  0  0  0  0  0  0  0  0
   -3.2357   -2.9014   -0.9432 H   0  0  0  0  0  0  0  0  0  0  0  0
   -1.5097   -2.3057    0.1930 C   0  0  0  0  0  0  0  0  0  0  0  0
   -0.5792   -2.9573    0.6414 O   0  0  0  0  0  0  0  0  0  0  0  0
   -1.3060   -1.0034   -0.2158 N   0  0  0  0  0  0  0  0  0  0  0  0
   -2.1177   -0.4862   -0.5493 H   0  0  0  0  0  0  0  0  0  0  0  0
   -0.0115   -0.3080   -0.1917 C   0  0  1  0  0  0  0  0  0  0  0  0
    0.6641   -0.8434    0.4838 H   0  0  0  0  0  0  0  0  0  0  0  0
    0.6119   -0.3691   -1.6002 C   0  0  0  0  0  0  0  0  0  0  0  0
    1.5874    0.1234   -1.5841 H   0  0  0  0  0  0  0  0  0  0  0  0
    0.7790   -1.4178   -1.8648 H   0  0  0  0  0  0  0  0  0  0  0  0
   -0.2248    0.2753   -2.7040 C   0  0  0  0  0  0  0  0  0  0  0  0
   -0.6131   -0.3778   -3.6535 O   0  0  0  0  0  0  0  0  0  0  0  0
   -0.5177    1.6071   -2.7580 N   0  0  0  0  0  0  0  0  0  0  0  0
   -1.1905    1.8555   -3.4766 H   0  0  0  0  0  0  0  0  0  0  0  0
   -0.5655    2.0966   -1.8631 H   0  0  0  0  0  0  0  0  0  0  0  0
   -0.1114    1.1224    0.3768 C   0  0  0  0  0  0  0  0  0  0  0  0
   -1.0191    1.8663    0.0250 O   0  0  0  0  0  0  0  0  0  0  0  0
    0.8170    1.5796    1.2933 N   0  0  0  0  0  0  0  0  0  0  0  0
    1.5211    0.9233    1.6209 H   0  0  0  0  0  0  0  0  0  0  0  0
    0.7453    2.8972    1.9147 C   0  0  0  0  0  0  0  0  0  0  0  0
   -0.1942    3.0109    2.4658 H   0  0  0  0  0  0  0  0  0  0  0  0
    1.5750    3.0308    2.6157 H   0  0  0  0  0  0  0  0  0  0  0  0
    0.8058    3.6837    1.1552 H   0  0  0  0  0  0  0  0  0  0  0  0
  1  2  1  0  0  0  0
  2  3  1  0  0  0  0
  2  4  1  0  0  0  0
  2  5  1  0  0  0  0
  5  6  2  0  0  0  0
  5  7  1  0  0  0  0
  7  8  1  0  0  0  0
  7  9  1  0  0  0  0
  9 10  1  0  0  0  0
  9 11  1  0  0  0  0
  9 19  1  0  0  0  0
 11 12  1  0  0  0  0
 11 13  1  0  0  0  0
 11 14  1  0  0  0  0
 14 15  2  0  0  0  0
 14 16  1  0  0  0  0
 16 17  1  0  0  0  0
 16 18  1  0  0  0  0
 19 20  2  0  0  0  0
 19 21  1  0  0  0  0
 21 22  1  0  0  0  0
 21 23  1  0  0  0  0
 23 24  1  0  0  0  0
 23 25  1  0  0  0  0
 23 26  1  0  0  0  0
M  END
$$$$

  -OEChem-04042215573D

 26 25  0     1  0  0  0  0  0999 V2000
   -2.8725   -3.9653    0.3712 H   0  0  0  0  0  0  0  0  0  0  0  0
   -2.8878   -2.9277    0.0260 C   0  0  0  0  0  0  0  0  0  0  0  0
   -3.6397   -2.3766    0.5960 H   0  0  0  0  0  0  0  0  0  0  0  0
   -3.1600   -2.9133   -1.0325 H   0  0  0  0  0  0  0  0  0  0  0  0
   -1.5240   -2.2916    0.2172 C   0  0  0  0  0  0  0  0  0  0  0  0
   -0.6228   -2.9190    0.7521 O   0  0  0  0  0  0  0  0  0  0  0  0
   -1.3057   -0.9980   -0.2104 N   0  0  0  0  0  0  0  0  0  0  0  0
   -2.0806   -0.5244   -0.6720 H   0  0  0  0  0  0  0  0  0  0  0  0
   -0.0070   -0.3115   -0.1746 C   0  0  1  0  0  0  0  0  0  0  0  0
    0.6604   -0.8448    0.5105 H   0  0  0  0  0  0  0  0  0  0  0  0
    0.6195   -0.3873   -1.5802 C   0  0  0  0  0  0  0  0  0  0  0  0
    1.6003    0.0949   -1.5695 H   0  0  0  0  0  0  0  0  0  0  0  0
    0.7747   -1.4379   -1.8439 H   0  0  0  0  0  0  0  0  0  0  0  0
   -0.2241    0.2627   -2.6742 C   0  0  0  0  0  0  0  0  0  0  0  0
   -0.8508   -0.4134   -3.4681 O   0  0  0  0  0  0  0  0  0  0  0  0
   -0.3310    1.6129   -2.8371 N   0  0  0  0  0  0  0  0  0  0  0  0
   -1.0519    1.8855   -3.4980 H   0  0  0  0  0  0  0  0  0  0  0  0
   -0.2397    2.1651   -1.9845 H   0  0  0  0  0  0  0  0  0  0  0  0
   -0.0954    1.1308    0.3666 C   0  0  0  0  0  0  0  0  0  0  0  0
   -0.9485    1.9031   -0.0526 O   0  0  0  0  0  0  0  0  0  0  0  0
    0.8270    1.5873    1.2896 N   0  0  0  0  0  0  0  0  0  0  0  0
    1.4824    0.9117    1.6739 H   0  0  0  0  0  0  0  0  0  0  0  0
    0.7845    2.9257    1.8680 C   0  0  0  0  0  0  0  0  0  0  0  0
   -0.1494    3.0752    2.4202 H   0  0  0  0  0  0  0  0  0  0  0  0
    1.6213    3.0655    2.5592 H   0  0  0  0  0  0  0  0  0  0  0  0
    0.8558    3.6863    1.0832 H   0  0  0  0  0  0  0  0  0  0  0  0
  1  2  1  0  0  0  0
  2  3  1  0  0  0  0
  2  4  1  0  0  0  0
  2  5  1  0  0  0  0
  5  6  2  0  0  0  0
  5  7  1  0  0  0  0
  7  8  1  0  0  0  0
  7  9  1  0  0  0  0
  9 10  1  0  0  0  0
  9 11  1  0  0  0  0
  9 19  1  0  0  0  0
 11 12  1  0  0  0  0
 11 13  1  0  0  0  0
 11 14  1  0  0  0  0
 14 15  2  0  0  0  0
 14 16  1  0  0  0  0
 16 17  1  0  0  0  0
 16 18  1  0  0  0  0
 19 20  2  0  0  0  0
 19 21  1  0  0  0  0
 21 22  1  0  0  0  0
 21 23  1  0  0  0  0
 23 24  1  0  0  0  0
 23 25  1  0  0  0  0
 23 26  1  0  0  0  0
M  END
$$$$

  -OEChem-04042215573D

 26 25  0     1  0  0  0  0  0999 V2000
   -2.8739   -3.9700    0.3593 H   0  0  0  0  0  0  0  0  0  0  0  0
   -2.8817   -2.9410   -0.0110 C   0  0  0  0  0  0  0  0  0  0  0  0
   -3.6713   -2.3866    0.5020 H   0  0  0  0  0  0  0  0  0  0  0  0
   -3.0935   -2.9542   -1.0832 H   0  0  0  0  0  0  0  0  0  0  0  0
   -1.5383   -2.2829    0.2417 C   0  0  0  0  0  0  0  0  0  0  0  0
   -0.6610   -2.8879    0.8394 O   0  0  0  0  0  0  0  0  0  0  0  0
   -1.3090   -0.9987   -0.2071 N   0  0  0  0  0  0  0  0  0  0  0  0
   -2.0440   -0.5708   -0.7695 H   0  0  0  0  0  0  0  0  0  0  0  0
   -0.0057   -0.3206   -0.1672 C   0  0  1  0  0  0  0  0  0  0  0  0
    0.6565   -0.8492    0.5264 H   0  0  0  0  0  0  0  0  0  0  0  0
    0.6221   -0.4087   -1.5714 C   0  0  0  0  0  0  0  0  0  0  0  0
    1.6069    0.0655   -1.5643 H   0  0  0  0  0  0  0  0  0  0  0  0
    0.7673   -1.4605   -1.8349 H   0  0  0  0  0  0  0  0  0  0  0  0
   -0.2277    0.2464   -2.6567 C   0  0  0  0  0  0  0  0  0  0  0  0
   -1.0680   -0.3888   -3.2672 O   0  0  0  0  0  0  0  0  0  0  0  0
   -0.1517    1.5753   -2.9565 N   0  0  0  0  0  0  0  0  0  0  0  0
   -0.9154    1.8992   -3.5424 H   0  0  0  0  0  0  0  0  0  0  0  0
    0.1406    2.1791   -2.1916 H   0  0  0  0  0  0  0  0  0  0  0  0
   -0.0860    1.1322    0.3466 C   0  0  0  0  0  0  0  0  0  0  0  0
   -0.8987    1.9191   -0.1217 O   0  0  0  0  0  0  0  0  0  0  0  0
    0.8330    1.5906    1.2723 N   0  0  0  0  0  0  0  0  0  0  0  0
    1.4488    0.9042    1.7004 H   0  0  0  0  0  0  0  0  0  0  0  0
    0.8075    2.9417    1.8211 C   0  0  0  0  0  0  0  0  0  0  0  0
   -0.1303    3.1189    2.3581 H   0  0  0  0  0  0  0  0  0  0  0  0
    1.6384    3.0819    2.5194 H   0  0  0  0  0  0  0  0  0  0  0  0
    0.9019    3.6837    1.0212 H   0  0  0  0  0  0  0  0  0  0  0  0
  1  2  1  0  0  0  0
  2  3  1  0  0  0  0
  2  4  1  0  0  0  0
  2  5  1  0  0  0  0
  5  6  2  0  0  0  0
  5  7  1  0  0  0  0
  7  8  1  0  0  0  0
  7  9  1  0  0  0  0
  9 10  1  0  0  0  0
  9 11  1  0  0  0  0
  9 19  1  0  0  0  0
 11 12  1  0  0  0  0
 11 13  1  0  0  0  0
 11 14  1  0  0  0  0
 14 15  2  0  0  0  0
 14 16  1  0  0  0  0
 16 17  1  0  0  0  0
 16 18  1  0  0  0  0
 19 20  2  0  0  0  0
 19 21  1  0  0  0  0
 21 22  1  0  0  0  0
 21 23  1  0  0  0  0
 23 24  1  0  0  0  0
 23 25  1  0  0  0  0
 23 26  1  0  0  0  0
M  END
$$$$

  -OEChem-04042215573D

 26 25  0     1  0  0  0  0  0999 V2000
   -2.8727   -3.9810    0.3609 H   0  0  0  0  0  0  0  0  0  0  0  0
   -2.8798   -2.9541   -0.0147 C   0  0  0  0  0  0  0  0  0  0  0  0
   -3.6871   -2.4039    0.4745 H   0  0  0  0  0  0  0  0  0  0  0  0
   -3.0629   -2.9744   -1.0921 H   0  0  0  0  0  0  0  0  0  0  0  0
   -1.5496   -2.2832    0.2705 C   0  0  0  0  0  0  0  0  0  0  0  0
   -0.6874   -2.8731    0.9046 O   0  0  0  0  0  0  0  0  0  0  0  0
   -1.3122   -1.0082   -0.1980 N   0  0  0  0  0  0  0  0  0  0  0  0
   -2.0171   -0.6140   -0.8227 H   0  0  0  0  0  0  0  0  0  0  0  0
   -0.0052   -0.3381   -0.1649 C   0  0  1  0  0  0  0  0  0  0  0  0
    0.6574   -0.8621    0.5316 H   0  0  0  0  0  0  0  0  0  0  0  0
    0.6162   -0.4295   -1.5724 C   0  0  0  0  0  0  0  0  0  0  0  0
    1.6049    0.0364   -1.5678 H   0  0  0  0  0  0  0  0  0  0  0  0
    0.7509   -1.4814   -1.8403 H   0  0  0  0  0  0  0  0  0  0  0  0
   -0.2390    0.2337   -2.6496 C   0  0  0  0  0  0  0  0  0  0  0  0
   -1.2556   -0.2920   -3.0682 O   0  0  0  0  0  0  0  0  0  0  0  0
    0.0225    1.4876   -3.1208 N   0  0  0  0  0  0  0  0  0  0  0  0
   -0.7565    1.9030   -3.6233 H   0  0  0  0  0  0  0  0  0  0  0  0
    0.5746    2.0889   -2.5178 H   0  0  0  0  0  0  0  0  0  0  0  0
   -0.0848    1.1228    0.3267 C   0  0  0  0  0  0  0  0  0  0  0  0
   -0.8873    1.9079   -0.1613 O   0  0  0  0  0  0  0  0  0  0  0  0
    0.8324    1.5911    1.2499 N   0  0  0  0  0  0  0  0  0  0  0  0
    1.4311    0.9052    1.7021 H   0  0  0  0  0  0  0  0  0  0  0  0
    0.8049    2.9493    1.7806 C   0  0  0  0  0  0  0  0  0  0  0  0
   -0.1326    3.1322    2.3164 H   0  0  0  0  0  0  0  0  0  0  0  0
    1.6367    3.1003    2.4754 H   0  0  0  0  0  0  0  0  0  0  0  0
    0.8965    3.6807    0.9707 H   0  0  0  0  0  0  0  0  0  0  0  0
  1  2  1  0  0  0  0
  2  3  1  0  0  0  0
  2  4  1  0  0  0  0
  2  5  1  0  0  0  0
  5  6  2  0  0  0  0
  5  7  1  0  0  0  0
  7  8  1  0  0  0  0
  7  9  1  0  0  0  0
  9 10  1  0  0  0  0
  9 11  1  0  0  0  0
  9 19  1  0  0  0  0
 11 12  1  0  0  0  0
 11 13  1  0  0  0  0
 11 14  1  0  0  0  0
 14 15  2  0  0  0  0
 14 16  1  0  0  0  0
 16 17  1  0  0  0  0
 16 18  1  0  0  0  0
 19 20  2  0  0  0  0
 19 21  1  0  0  0  0
 21 22  1  0  0  0  0
 21 23  1  0  0  0  0
 23 24  1  0  0  0  0
 23 25  1  0  0  0  0
 23 26  1  0  0  0  0
M  END
$$$$

  -OEChem-04042215573D

 26 25  0     1  0  0  0  0  0999 V2000
   -2.8763   -3.9964    0.3766 H   0  0  0  0  0  0  0  0  0  0  0  0
   -2.8888   -2.9640    0.0163 C   0  0  0  0  0  0  0  0  0  0  0  0
   -3.6842   -2.4191    0.5305 H   0  0  0  0  0  0  0  0  0  0  0  0
   -3.0953   -2.9673   -1.0569 H   0  0  0  0  0  0  0  0  0  0  0  0
   -1.5519   -2.2987    0.2827 C   0  0  0  0  0  0  0  0  0  0  0  0
   -0.6838   -2.8905    0.9071 O   0  0  0  0  0  0  0  0  0  0  0  0
   -1.3160   -1.0260   -0.1912 N   0  0  0  0  0  0  0  0  0  0  0  0
   -2.0182   -0.6352   -0.8231 H   0  0  0  0  0  0  0  0  0  0  0  0
   -0.0120   -0.3522   -0.1677 C   0  0  1  0  0  0  0  0  0  0  0  0
    0.6546   -0.8717    0.5280 H   0  0  0  0  0  0  0  0  0  0  0  0
    0.6098   -0.4347   -1.5772 C   0  0  0  0  0  0  0  0  0  0  0  0
    1.5974    0.0331   -1.5651 H   0  0  0  0  0  0  0  0  0  0  0  0
    0.7482   -1.4852   -1.8473 H   0  0  0  0  0  0  0  0  0  0  0  0
   -0.2394    0.2254   -2.6638 C   0  0  0  0  0  0  0  0  0  0  0  0
   -1.3747   -0.1417   -2.9147 O   0  0  0  0  0  0  0  0  0  0  0  0
    0.1798    1.3428   -3.3265 N   0  0  0  0  0  0  0  0  0  0  0  0
   -0.5660    1.8459   -3.7990 H   0  0  0  0  0  0  0  0  0  0  0  0
    0.9351    1.8743   -2.9081 H   0  0  0  0  0  0  0  0  0  0  0  0
   -0.0982    1.1107    0.3185 C   0  0  0  0  0  0  0  0  0  0  0  0
   -0.9094    1.8887   -0.1654 O   0  0  0  0  0  0  0  0  0  0  0  0
    0.8206    1.5877    1.2362 N   0  0  0  0  0  0  0  0  0  0  0  0
    1.4252    0.9072    1.6880 H   0  0  0  0  0  0  0  0  0  0  0  0
    0.7885    2.9481    1.7612 C   0  0  0  0  0  0  0  0  0  0  0  0
   -0.1402    3.1235    2.3143 H   0  0  0  0  0  0  0  0  0  0  0  0
    1.6321    3.1116    2.4388 H   0  0  0  0  0  0  0  0  0  0  0  0
    0.8563    3.6770    0.9466 H   0  0  0  0  0  0  0  0  0  0  0  0
  1  2  1  0  0  0  0
  2  3  1  0  0  0  0
  2  4  1  0  0  0  0
  2  5  1  0  0  0  0
  5  6  2  0  0  0  0
  5  7  1  0  0  0  0
  7  8  1  0  0  0  0
  7  9  1  0  0  0  0
  9 10  1  0  0  0  0
  9 11  1  0  0  0  0
  9 19  1  0  0  0  0
 11 12  1  0  0  0  0
 11 13  1  0  0  0  0
 11 14  1  0  0  0  0
 14 15  2  0  0  0  0
 14 16  1  0  0  0  0
 16 17  1  0  0  0  0
 16 18  1  0  0  0  0
 19 20  2  0  0  0  0
 19 21  1  0  0  0  0
 21 22  1  0  0  0  0
 21 23  1  0  0  0  0
 23 24  1  0  0  0  0
 23 25  1  0  0  0  0
 23 26  1  0  0  0  0
M  END
$$$$

  -OEChem-04042215573D

 26 25  0     1  0  0  0  0  0999 V2000
   -2.8770   -4.0022    0.4142 H   0  0  0  0  0  0  0  0  0  0  0  0
   -2.8937   -2.9695    0.0551 C   0  0  0  0  0  0  0  0  0  0  0  0
   -3.6696   -2.4202    0.5938 H   0  0  0  0  0  0  0  0  0  0  0  0
   -3.1332   -2.9708   -1.0112 H   0  0  0  0  0  0  0  0  0  0  0  0
   -1.5451   -2.3125    0.2814 C   0  0  0  0  0  0  0  0  0  0  0  0
   -0.6560   -2.9168    0.8628 O   0  0  0  0  0  0  0  0  0  0  0  0
   -1.3220   -1.0338   -0.1812 N   0  0  0  0  0  0  0  0  0  0  0  0
   -2.0481   -0.6204   -0.7707 H   0  0  0  0  0  0  0  0  0  0  0  0
   -0.0260   -0.3459   -0.1710 C   0  0  1  0  0  0  0  0  0  0  0  0
    0.6497   -0.8636    0.5171 H   0  0  0  0  0  0  0  0  0  0  0  0
    0.5926   -0.4147   -1.5832 C   0  0  0  0  0  0  0  0  0  0  0  0
    1.5731    0.0674   -1.5638 H   0  0  0  0  0  0  0  0  0  0  0  0
    0.7480   -1.4627   -1.8531 H   0  0  0  0  0  0  0  0  0  0  0  0
   -0.2522    0.2327   -2.6835 C   0  0  0  0  0  0  0  0  0  0  0  0
   -1.4541    0.0589   -2.7912 O   0  0  0  0  0  0  0  0  0  0  0  0
    0.2924    1.1068   -3.5801 N   0  0  0  0  0  0  0  0  0  0  0  0
   -0.3861    1.6592   -4.0971 H   0  0  0  0  0  0  0  0  0  0  0  0
    1.1995    1.5062   -3.3669 H   0  0  0  0  0  0  0  0  0  0  0  0
   -0.1177    1.1115    0.3302 C   0  0  0  0  0  0  0  0  0  0  0  0
   -0.9586    1.8820   -0.1116 O   0  0  0  0  0  0  0  0  0  0  0  0
    0.8125    1.5867    1.2376 N   0  0  0  0  0  0  0  0  0  0  0  0
    1.4418    0.9098    1.6597 H   0  0  0  0  0  0  0  0  0  0  0  0
    0.7702    2.9371    1.7870 C   0  0  0  0  0  0  0  0  0  0  0  0
   -0.1546    3.0916    2.3529 H   0  0  0  0  0  0  0  0  0  0  0  0
    1.6189    3.0991    2.4585 H   0  0  0  0  0  0  0  0  0  0  0  0
    0.8201    3.6805    0.9844 H   0  0  0  0  0  0  0  0  0  0  0  0
  1  2  1  0  0  0  0
  2  3  1  0  0  0  0
  2  4  1  0  0  0  0
  2  5  1  0  0  0  0
  5  6  2  0  0  0  0
  5  7  1  0  0  0  0
  7  8  1  0  0  0  0
  7  9  1  0  0  0  0
  9 10  1  0  0  0  0
  9 11  1  0  0  0  0
  9 19  1  0  0  0  0
 11 12  1  0  0  0  0
 11 13  1  0  0  0  0
 11 14  1  0  0  0  0
 14 15  2  0  0  0  0
 14 16  1  0  0  0  0
 16 17  1  0  0  0  0
 16 18  1  0  0  0  0
 19 20  2  0  0  0  0
 19 21  1  0  0  0  0
 21 22  1  0  0  0  0
 21 23  1  0  0  0  0
 23 24  1  0  0  0  0
 23 25  1  0  0  0  0
 23 26  1  0  0  0  0
M  END
$$$$

  -OEChem-04042215573D

 26 25  0     1  0  0  0  0  0999 V2000
   -2.8690   -3.9981    0.4324 H   0  0  0  0  0  0  0  0  0  0  0  0
   -2.8944   -2.9623    0.0834 C   0  0  0  0  0  0  0  0  0  0  0  0
   -3.6473   -2.4144    0.6553 H   0  0  0  0  0  0  0  0  0  0  0  0
   -3.1726   -2.9523   -0.9734 H   0  0  0  0  0  0  0  0  0  0  0  0
   -1.5352   -2.3139    0.2658 C   0  0  0  0  0  0  0  0  0  0  0  0
   -0.6228   -2.9343    0.7917 O   0  0  0  0  0  0  0  0  0  0  0  0
   -1.3270   -1.0270   -0.1801 N   0  0  0  0  0  0  0  0  0  0  0  0
   -2.0829   -0.5828   -0.7065 H   0  0  0  0  0  0  0  0  0  0  0  0
   -0.0390   -0.3253   -0.1802 C   0  0  1  0  0  0  0  0  0  0  0  0
    0.6425   -0.8430    0.5022 H   0  0  0  0  0  0  0  0  0  0  0  0
    0.5793   -0.3936   -1.5927 C   0  0  0  0  0  0  0  0  0  0  0  0
    1.5524    0.1035   -1.5717 H   0  0  0  0  0  0  0  0  0  0  0  0
    0.7510   -1.4418   -1.8520 H   0  0  0  0  0  0  0  0  0  0  0  0
   -0.2596    0.2325   -2.7101 C   0  0  0  0  0  0  0  0  0  0  0  0
   -1.4769    0.2783   -2.7044 O   0  0  0  0  0  0  0  0  0  0  0  0
    0.3322    0.8047   -3.7997 N   0  0  0  0  0  0  0  0  0  0  0  0
   -0.2836    1.3713   -4.3765 H   0  0  0  0  0  0  0  0  0  0  0  0
    1.3226    1.0170   -3.7602 H   0  0  0  0  0  0  0  0  0  0  0  0
   -0.1319    1.1252    0.3423 C   0  0  0  0  0  0  0  0  0  0  0  0
   -1.0159    1.8828   -0.0307 O   0  0  0  0  0  0  0  0  0  0  0  0
    0.8114    1.5942    1.2399 N   0  0  0  0  0  0  0  0  0  0  0  0
    1.4726    0.9224    1.6186 H   0  0  0  0  0  0  0  0  0  0  0  0
    0.7527    2.9264    1.8309 C   0  0  0  0  0  0  0  0  0  0  0  0
   -0.1630    3.0439    2.4201 H   0  0  0  0  0  0  0  0  0  0  0  0
    1.6118    3.0869    2.4893 H   0  0  0  0  0  0  0  0  0  0  0  0
    0.7695    3.6937    1.0497 H   0  0  0  0  0  0  0  0  0  0  0  0
  1  2  1  0  0  0  0
  2  3  1  0  0  0  0
  2  4  1  0  0  0  0
  2  5  1  0  0  0  0
  5  6  2  0  0  0  0
  5  7  1  0  0  0  0
  7  8  1  0  0  0  0
  7  9  1  0  0  0  0
  9 10  1  0  0  0  0
  9 11  1  0  0  0  0
  9 19  1  0  0  0  0
 11 12  1  0  0  0  0
 11 13  1  0  0  0  0
 11 14  1  0  0  0  0
 14 15  2  0  0  0  0
 14 16  1  0  0  0  0
 16 17  1  0  0  0  0
 16 18  1  0  0  0  0
 19 20  2  0  0  0  0
 19 21  1  0  0  0  0
 21 22  1  0  0  0  0
 21 23  1  0  0  0  0
 23 24  1  0  0  0  0
 23 25  1  0  0  0  0
 23 26  1  0  0  0  0
M  END
$$$$

  -OEChem-04042215573D

 26 25  0     1  0  0  0  0  0999 V2000
   -2.8679   -3.9806    0.4684 H   0  0  0  0  0  0  0  0  0  0  0  0
   -2.8982   -2.9447    0.1196 C   0  0  0  0  0  0  0  0  0  0  0  0
   -3.6185   -2.3888    0.7249 H   0  0  0  0  0  0  0  0  0  0  0  0
   -3.2246   -2.9325   -0.9233 H   0  0  0  0  0  0  0  0  0  0  0  0
   -1.5254   -2.3102    0.2383 C   0  0  0  0  0  0  0  0  0  0  0  0
   -0.5889   -2.9490    0.6951 O   0  0  0  0  0  0  0  0  0  0  0  0
   -1.3308   -1.0159   -0.1922 N   0  0  0  0  0  0  0  0  0  0  0  0
   -2.1195   -0.5361   -0.6305 H   0  0  0  0  0  0  0  0  0  0  0  0
   -0.0497   -0.3020   -0.2021 C   0  0  1  0  0  0  0  0  0  0  0  0
    0.6336   -0.8178    0.4799 H   0  0  0  0  0  0  0  0  0  0  0  0
    0.5756   -0.3785   -1.6105 C   0  0  0  0  0  0  0  0  0  0  0  0
    1.5429    0.1298   -1.5895 H   0  0  0  0  0  0  0  0  0  0  0  0
    0.7586   -1.4289   -1.8529 H   0  0  0  0  0  0  0  0  0  0  0  0
   -0.2549    0.2219   -2.7469 C   0  0  0  0  0  0  0  0  0  0  0  0
   -1.4368    0.4996   -2.6669 O   0  0  0  0  0  0  0  0  0  0  0  0
    0.3134    0.4916   -3.9589 N   0  0  0  0  0  0  0  0  0  0  0  0
   -0.2495    1.0561   -4.5893 H   0  0  0  0  0  0  0  0  0  0  0  0
    1.3240    0.4915   -4.0401 H   0  0  0  0  0  0  0  0  0  0  0  0
   -0.1456    1.1419    0.3407 C   0  0  0  0  0  0  0  0  0  0  0  0
   -1.0889    1.8694    0.0660 O   0  0  0  0  0  0  0  0  0  0  0  0
    0.8101    1.6049    1.2287 N   0  0  0  0  0  0  0  0  0  0  0  0
    1.5205    0.9490    1.5398 H   0  0  0  0  0  0  0  0  0  0  0  0
    0.7308    2.9098    1.8757 C   0  0  0  0  0  0  0  0  0  0  0  0
   -0.1734    2.9787    2.4898 H   0  0  0  0  0  0  0  0  0  0  0  0
    1.6008    3.0659    2.5208 H   0  0  0  0  0  0  0  0  0  0  0  0
    0.7091    3.7087    1.1268 H   0  0  0  0  0  0  0  0  0  0  0  0
  1  2  1  0  0  0  0
  2  3  1  0  0  0  0
  2  4  1  0  0  0  0
  2  5  1  0  0  0  0
  5  6  2  0  0  0  0
  5  7  1  0  0  0  0
  7  8  1  0  0  0  0
  7  9  1  0  0  0  0
  9 10  1  0  0  0  0
  9 11  1  0  0  0  0
  9 19  1  0  0  0  0
 11 12  1  0  0  0  0
 11 13  1  0  0  0  0
 11 14  1  0  0  0  0
 14 15  2  0  0  0  0
 14 16  1  0  0  0  0
 16 17  1  0  0  0  0
 16 18  1  0  0  0  0
 19 20  2  0  0  0  0
 19 21  1  0  0  0  0
 21 22  1  0  0  0  0
 21 23  1  0  0  0  0
 23 24  1  0  0  0  0
 23 25  1  0  0  0  0
 23 26  1  0  0  0  0
M  END
$$$$

  -OEChem-04042215573D

 26 25  0     1  0  0  0  0  0999 V2000
   -2.8741   -3.9488    0.5231 H   0  0  0  0  0  0  0  0  0  0  0  0
   -2.9083   -2.9142    0.1713 C   0  0  0  0  0  0  0  0  0  0  0  0
   -3.5815   -2.3440    0.8159 H   0  0  0  0  0  0  0  0  0  0  0  0
   -3.2964   -2.9010   -0.8502 H   0  0  0  0  0  0  0  0  0  0  0  0
   -1.5204   -2.3027    0.2042 C   0  0  0  0  0  0  0  0  0  0  0  0
   -0.5645   -2.9641    0.5819 O   0  0  0  0  0  0  0  0  0  0  0  0
   -1.3350   -1.0033   -0.2149 N   0  0  0  0  0  0  0  0  0  0  0  0
   -2.1521   -0.4847   -0.5414 H   0  0  0  0  0  0  0  0  0  0  0  0
   -0.0564   -0.2845   -0.2334 C   0  0  1  0  0  0  0  0  0  0  0  0
    0.6254   -0.7999    0.4507 H   0  0  0  0  0  0  0  0  0  0  0  0
    0.5797   -0.3710   -1.6358 C   0  0  0  0  0  0  0  0  0  0  0  0
    1.5445    0.1416   -1.6146 H   0  0  0  0  0  0  0  0  0  0  0  0
    0.7684   -1.4239   -1.8623 H   0  0  0  0  0  0  0  0  0  0  0  0
   -0.2396    0.2107   -2.7874 C   0  0  0  0  0  0  0  0  0  0  0  0
   -1.3351    0.7232   -2.6715 O   0  0  0  0  0  0  0  0  0  0  0  0
    0.2496    0.1963   -4.0622 N   0  0  0  0  0  0  0  0  0  0  0  0
   -0.2655    0.7513   -4.7399 H   0  0  0  0  0  0  0  0  0  0  0  0
    1.2265   -0.0263   -4.2173 H   0  0  0  0  0  0  0  0  0  0  0  0
   -0.1577    1.1531    0.3270 C   0  0  0  0  0  0  0  0  0  0  0  0
   -1.1591    1.8345    0.1586 O   0  0  0  0  0  0  0  0  0  0  0  0
    0.8062    1.6123    1.2084 N   0  0  0  0  0  0  0  0  0  0  0  0
    1.5628    0.9802    1.4515 H   0  0  0  0  0  0  0  0  0  0  0  0
    0.7004    2.8836    1.9155 C   0  0  0  0  0  0  0  0  0  0  0  0
   -0.1655    2.8778    2.5858 H   0  0  0  0  0  0  0  0  0  0  0  0
    1.6001    3.0612    2.5122 H   0  0  0  0  0  0  0  0  0  0  0  0
    0.5900    3.7099    1.2052 H   0  0  0  0  0  0  0  0  0  0  0  0
  1  2  1  0  0  0  0
  2  3  1  0  0  0  0
  2  4  1  0  0  0  0
  2  5  1  0  0  0  0
  5  6  2  0  0  0  0
  5  7  1  0  0  0  0
  7  8  1  0  0  0  0
  7  9  1  0  0  0  0
  9 10  1  0  0  0  0
  9 11  1  0  0  0  0
  9 19  1  0  0  0  0
 11 12  1  0  0  0  0
 11 13  1  0  0  0  0
 11 14  1  0  0  0  0
 14 15  2  0  0  0  0
 14 16  1  0  0  0  0
 16 17  1  0  0  0  0
 16 18  1  0  0  0  0
 19 20  2  0  0  0  0
 19 21  1  0  0  0  0
 21 22  1  0  0  0  0
 21 23  1  0  0  0  0
 23 24  1  0  0  0  0
 23 25  1  0  0  0  0
 23 26  1  0  0  0  0
M  END
$$$$

  -OEChem-04042215573D

 26 25  0     1  0  0  0  0  0999 V2000
   -2.8779   -3.9170    0.5870 H   0  0  0  0  0  0  0  0  0  0  0  0
   -2.9160   -2.8845    0.2289 C   0  0  0  0  0  0  0  0  0  0  0  0
   -3.5385   -2.2984    0.9094 H   0  0  0  0  0  0  0  0  0  0  0  0
   -3.3663   -2.8722   -0.7667 H   0  0  0  0  0  0  0  0  0  0  0  0
   -1.5186   -2.2968    0.1709 C   0  0  0  0  0  0  0  0  0  0  0  0
   -0.5511   -2.9786    0.4750 O   0  0  0  0  0  0  0  0  0  0  0  0
   -1.3392   -0.9940   -0.2405 N   0  0  0  0  0  0  0  0  0  0  0  0
   -2.1713   -0.4432   -0.4570 H   0  0  0  0  0  0  0  0  0  0  0  0
   -0.0595   -0.2763   -0.2618 C   0  0  1  0  0  0  0  0  0  0  0  0
    0.6195   -0.7920    0.4250 H   0  0  0  0  0  0  0  0  0  0  0  0
    0.5865   -0.3682   -1.6593 C   0  0  0  0  0  0  0  0  0  0  0  0
    1.5520    0.1431   -1.6371 H   0  0  0  0  0  0  0  0  0  0  0  0
    0.7748   -1.4232   -1.8767 H   0  0  0  0  0  0  0  0  0  0  0  0
   -0.2243    0.2084   -2.8177 C   0  0  0  0  0  0  0  0  0  0  0  0
   -1.1833    0.9422   -2.6958 O   0  0  0  0  0  0  0  0  0  0  0  0
    0.1244   -0.0611   -4.1103 N   0  0  0  0  0  0  0  0  0  0  0  0
   -0.3496    0.4865   -4.8229 H   0  0  0  0  0  0  0  0  0  0  0  0
    1.0169   -0.5009   -4.3061 H   0  0  0  0  0  0  0  0  0  0  0  0
   -0.1697    1.1553    0.3127 C   0  0  0  0  0  0  0  0  0  0  0  0
   -1.2090    1.7944    0.2196 O   0  0  0  0  0  0  0  0  0  0  0  0
    0.7958    1.6107    1.1945 N   0  0  0  0  0  0  0  0  0  0  0  0
    1.5935    1.0092    1.3756 H   0  0  0  0  0  0  0  0  0  0  0  0
    0.6718    2.8567    1.9425 C   0  0  0  0  0  0  0  0  0  0  0  0
   -0.1979    2.8198    2.6070 H   0  0  0  0  0  0  0  0  0  0  0  0
    1.5658    3.0239    2.5509 H   0  0  0  0  0  0  0  0  0  0  0  0
    0.5561    3.7039    1.2582 H   0  0  0  0  0  0  0  0  0  0  0  0
  1  2  1  0  0  0  0
  2  3  1  0  0  0  0
  2  4  1  0  0  0  0
  2  5  1  0  0  0  0
  5  6  2  0  0  0  0
  5  7  1  0  0  0  0
  7  8  1  0  0  0  0
  7  9  1  0  0  0  0
  9 10  1  0  0  0  0
  9 11  1  0  0  0  0
  9 19  1  0  0  0  0
 11 12  1  0  0  0  0
 11 13  1  0  0  0  0
 11 14  1  0  0  0  0
 14 15  2  0  0  0  0
 14 16  1  0  0  0  0
 16 17  1  0  0  0  0
 16 18  1  0  0  0  0
 19 20  2  0  0  0  0
 19 21  1  0  0  0  0
 21 22  1  0  0  0  0
 21 23  1  0  0  0  0
 23 24  1  0  0  0  0
 23 25  1  0  0  0  0
 23 26  1  0  0  0  0
M  END
$$$$

  -OEChem-04042215573D

 26 25  0     1  0  0  0  0  0999 V2000
   -2.8685   -3.8745    0.5667 H   0  0  0  0  0  0  0  0  0  0  0  0
   -2.9056   -2.8378    0.2204 C   0  0  0  0  0  0  0  0  0  0  0  0
   -3.4850   -2.2480    0.9350 H   0  0  0  0  0  0  0  0  0  0  0  0
   -3.4016   -2.8075   -0.7528 H   0  0  0  0  0  0  0  0  0  0  0  0
   -1.5021   -2.2743    0.1031 C   0  0  0  0  0  0  0  0  0  0  0  0
   -0.5336   -2.9805    0.3399 O   0  0  0  0  0  0  0  0  0  0  0  0
   -1.3176   -0.9671   -0.2923 N   0  0  0  0  0  0  0  0  0  0  0  0
   -2.1497   -0.3860   -0.4049 H   0  0  0  0  0  0  0  0  0  0  0  0
   -0.0323   -0.2580   -0.2853 C   0  0  1  0  0  0  0  0  0  0  0  0
    0.6319   -0.7817    0.4102 H   0  0  0  0  0  0  0  0  0  0  0  0
    0.6410   -0.3420   -1.6693 C   0  0  0  0  0  0  0  0  0  0  0  0
    1.6085    0.1644   -1.6273 H   0  0  0  0  0  0  0  0  0  0  0  0
    0.8302   -1.3961   -1.8894 H   0  0  0  0  0  0  0  0  0  0  0  0
   -0.1446    0.2515   -2.8346 C   0  0  0  0  0  0  0  0  0  0  0  0
   -0.9199    1.1795   -2.7376 O   0  0  0  0  0  0  0  0  0  0  0  0
   -0.0095   -0.2530   -4.0965 N   0  0  0  0  0  0  0  0  0  0  0  0
   -0.6847    0.0812   -4.7782 H   0  0  0  0  0  0  0  0  0  0  0  0
    0.4376   -1.1549   -4.2198 H   0  0  0  0  0  0  0  0  0  0  0  0
   -0.1621    1.1650    0.3072 C   0  0  0  0  0  0  0  0  0  0  0  0
   -1.2274    1.7659    0.2482 O   0  0  0  0  0  0  0  0  0  0  0  0
    0.7825    1.6140    1.2145 N   0  0  0  0  0  0  0  0  0  0  0  0
    1.6146    1.0488    1.3516 H   0  0  0  0  0  0  0  0  0  0  0  0
    0.6293    2.8384    1.9924 C   0  0  0  0  0  0  0  0  0  0  0  0
   -0.2550    2.7762    2.6355 H   0  0  0  0  0  0  0  0  0  0  0  0
    1.5070    2.9966    2.6263 H   0  0  0  0  0  0  0  0  0  0  0  0
    0.5219    3.7028    1.3285 H   0  0  0  0  0  0  0  0  0  0  0  0
  1  2  1  0  0  0  0
  2  3  1  0  0  0  0
  2  4  1  0  0  0  0
  2  5  1  0  0  0  0
  5  6  2  0  0  0  0
  5  7  1  0  0  0  0
  7  8  1  0  0  0  0
  7  9  1  0  0  0  0
  9 10  1  0  0  0  0
  9 11  1  0  0  0  0
  9 19  1  0  0  0  0
 11 12  1  0  0  0  0
 11 13  1  0  0  0  0
 11 14  1  0  0  0  0
 14 15  2  0  0  0  0
 14 16  1  0  0  0  0
 16 17  1  0  0  0  0
 16 18  1  0  0  0  0
 19 20  2  0  0  0  0
 19 21  1  0  0  0  0
 21 22  1  0  0  0  0
 21 23  1  0  0  0  0
 23 24  1  0  0  0  0
 23 25  1  0  0  0  0
 23 26  1  0  0  0  0
M  END
$$$$

  -OEChem-04042215573D

 26 25  0     1  0  0  0  0  0999 V2000
   -2.8821   -3.8541    0.5763 H   0  0  0  0  0  0  0  0  0  0  0  0
   -2.9110   -2.8147    0.2379 C   0  0  0  0  0  0  0  0  0  0  0  0
   -3.4610   -2.2201    0.9716 H   0  0  0  0  0  0  0  0  0  0  0  0
   -3.4331   -2.7694   -0.7209 H   0  0  0  0  0  0  0  0  0  0  0  0
   -1.5017   -2.2743    0.0862 C   0  0  0  0  0  0  0  0  0  0  0  0
   -0.5393   -2.9954    0.3016 O   0  0  0  0  0  0  0  0  0  0  0  0
   -1.3059   -0.9706   -0.3158 N   0  0  0  0  0  0  0  0  0  0  0  0
   -2.1318   -0.3740   -0.3843 H   0  0  0  0  0  0  0  0  0  0  0  0
   -0.0130   -0.2744   -0.2953 C   0  0  1  0  0  0  0  0  0  0  0  0
    0.6412   -0.7982    0.4095 H   0  0  0  0  0  0  0  0  0  0  0  0
    0.6717   -0.3637   -1.6724 C   0  0  0  0  0  0  0  0  0  0  0  0
    1.6423    0.1364   -1.6232 H   0  0  0  0  0  0  0  0  0  0  0  0
    0.8572   -1.4182   -1.8936 H   0  0  0  0  0  0  0  0  0  0  0  0
   -0.1051    0.2431   -2.8351 C   0  0  0  0  0  0  0  0  0  0  0  0
   -0.6567    1.3227   -2.7862 O   0  0  0  0  0  0  0  0  0  0  0  0
   -0.2501   -0.4290   -4.0152 N   0  0  0  0  0  0  0  0  0  0  0  0
   -0.9313   -0.0399   -4.6608 H   0  0  0  0  0  0  0  0  0  0  0  0
   -0.0245   -1.4174   -4.0460 H   0  0  0  0  0  0  0  0  0  0  0  0
   -0.1538    1.1505    0.2895 C   0  0  0  0  0  0  0  0  0  0  0  0
   -1.2268    1.7376    0.2185 O   0  0  0  0  0  0  0  0  0  0  0  0
    0.7726    1.6061    1.2119 N   0  0  0  0  0  0  0  0  0  0  0  0
    1.6141    1.0554    1.3514 H   0  0  0  0  0  0  0  0  0  0  0  0
    0.6003    2.8337    1.9804 C   0  0  0  0  0  0  0  0  0  0  0  0
   -0.2850    2.7637    2.6211 H   0  0  0  0  0  0  0  0  0  0  0  0
    1.4736    3.0087    2.6158 H   0  0  0  0  0  0  0  0  0  0  0  0
    0.4830    3.6917    1.3101 H   0  0  0  0  0  0  0  0  0  0  0  0
  1  2  1  0  0  0  0
  2  3  1  0  0  0  0
  2  4  1  0  0  0  0
  2  5  1  0  0  0  0
  5  6  2  0  0  0  0
  5  7  1  0  0  0  0
  7  8  1  0  0  0  0
  7  9  1  0  0  0  0
  9 10  1  0  0  0  0
  9 11  1  0  0  0  0
  9 19  1  0  0  0  0
 11 12  1  0  0  0  0
 11 13  1  0  0  0  0
 11 14  1  0  0  0  0
 14 15  2  0  0  0  0
 14 16  1  0  0  0  0
 16 17  1  0  0  0  0
 16 18  1  0  0  0  0
 19 20  2  0  0  0  0
 19 21  1  0  0  0  0
 21 22  1  0  0  0  0
 21 23  1  0  0  0  0
 23 24  1  0  0  0  0
 23 25  1  0  0  0  0
 23 26  1  0  0  0  0
M  END
$$$$

  -OEChem-04042215573D

 26 25  0     1  0  0  0  0  0999 V2000
   -2.8928   -3.8512    0.6021 H   0  0  0  0  0  0  0  0  0  0  0  0
   -2.9144   -2.8180    0.2443 C   0  0  0  0  0  0  0  0  0  0  0  0
   -3.4599   -2.2065    0.9674 H   0  0  0  0  0  0  0  0  0  0  0  0
   -3.4364   -2.7873   -0.7152 H   0  0  0  0  0  0  0  0  0  0  0  0
   -1.5012   -2.2907    0.0817 C   0  0  0  0  0  0  0  0  0  0  0  0
   -0.5448   -3.0196    0.2954 O   0  0  0  0  0  0  0  0  0  0  0  0
   -1.2945   -0.9912   -0.3299 N   0  0  0  0  0  0  0  0  0  0  0  0
   -2.1147   -0.3849   -0.3816 H   0  0  0  0  0  0  0  0  0  0  0  0
    0.0047   -0.3055   -0.2927 C   0  0  1  0  0  0  0  0  0  0  0  0
    0.6501   -0.8295    0.4202 H   0  0  0  0  0  0  0  0  0  0  0  0
    0.6996   -0.3875   -1.6640 C   0  0  0  0  0  0  0  0  0  0  0  0
    1.6722    0.1078   -1.6053 H   0  0  0  0  0  0  0  0  0  0  0  0
    0.8827   -1.4393   -1.8994 H   0  0  0  0  0  0  0  0  0  0  0  0
   -0.0754    0.2418   -2.8139 C   0  0  0  0  0  0  0  0  0  0  0  0
   -0.3852    1.4153   -2.8348 O   0  0  0  0  0  0  0  0  0  0  0  0
   -0.5239   -0.5057   -3.8651 N   0  0  0  0  0  0  0  0  0  0  0  0
   -1.2006   -0.0490   -4.4698 H   0  0  0  0  0  0  0  0  0  0  0  0
   -0.5171   -1.5164   -3.7798 H   0  0  0  0  0  0  0  0  0  0  0  0
   -0.1486    1.1227    0.2788 C   0  0  0  0  0  0  0  0  0  0  0  0
   -1.2197    1.7081    0.1686 O   0  0  0  0  0  0  0  0  0  0  0  0
    0.7554    1.5893    1.2171 N   0  0  0  0  0  0  0  0  0  0  0  0
    1.6052    1.0535    1.3642 H   0  0  0  0  0  0  0  0  0  0  0  0
    0.5830    2.8451    1.9387 C   0  0  0  0  0  0  0  0  0  0  0  0
   -0.3349    2.8219    2.5356 H   0  0  0  0  0  0  0  0  0  0  0  0
    1.4285    3.0131    2.6127 H   0  0  0  0  0  0  0  0  0  0  0  0
    0.5267    3.6848    1.2376 H   0  0  0  0  0  0  0  0  0  0  0  0
  1  2  1  0  0  0  0
  2  3  1  0  0  0  0
  2  4  1  0  0  0  0
  2  5  1  0  0  0  0
  5  6  2  0  0  0  0
  5  7  1  0  0  0  0
  7  8  1  0  0  0  0
  7  9  1  0  0  0  0
  9 10  1  0  0  0  0
  9 11  1  0  0  0  0
  9 19  1  0  0  0  0
 11 12  1  0  0  0  0
 11 13  1  0  0  0  0
 11 14  1  0  0  0  0
 14 15  2  0  0  0  0
 14 16  1  0  0  0  0
 16 17  1  0  0  0  0
 16 18  1  0  0  0  0
 19 20  2  0  0  0  0
 19 21  1  0  0  0  0
 21 22  1  0  0  0  0
 21 23  1  0  0  0  0
 23 24  1  0  0  0  0
 23 25  1  0  0  0  0
 23 26  1  0  0  0  0
M  END
$$$$

  -OEChem-04042215573D

 26 25  0     1  0  0  0  0  0999 V2000
   -2.9048   -3.8550    0.6332 H   0  0  0  0  0  0  0  0  0  0  0  0
   -2.9188   -2.8231    0.2713 C   0  0  0  0  0  0  0  0  0  0  0  0
   -3.4502   -2.2031    0.9977 H   0  0  0  0  0  0  0  0  0  0  0  0
   -3.4509   -2.7908   -0.6824 H   0  0  0  0  0  0  0  0  0  0  0  0
   -1.5017   -2.3119    0.0927 C   0  0  0  0  0  0  0  0  0  0  0  0
   -0.5509   -3.0468    0.3092 O   0  0  0  0  0  0  0  0  0  0  0  0
   -1.2852   -1.0184   -0.3329 N   0  0  0  0  0  0  0  0  0  0  0  0
   -2.1006   -0.4047   -0.3750 H   0  0  0  0  0  0  0  0  0  0  0  0
    0.0192   -0.3414   -0.2895 C   0  0  1  0  0  0  0  0  0  0  0  0
    0.6630   -0.8632    0.4268 H   0  0  0  0  0  0  0  0  0  0  0  0
    0.7145   -0.4100   -1.6597 C   0  0  0  0  0  0  0  0  0  0  0  0
    1.6898    0.0802   -1.5964 H   0  0  0  0  0  0  0  0  0  0  0  0
    0.8917   -1.4579   -1.9159 H   0  0  0  0  0  0  0  0  0  0  0  0
   -0.0685    0.2436   -2.7884 C   0  0  0  0  0  0  0  0  0  0  0  0
   -0.1389    1.4500   -2.9098 O   0  0  0  0  0  0  0  0  0  0  0  0
   -0.7730   -0.4944   -3.6960 N   0  0  0  0  0  0  0  0  0  0  0  0
   -1.4243    0.0290   -4.2737 H   0  0  0  0  0  0  0  0  0  0  0  0
   -0.9445   -1.4731   -3.4924 H   0  0  0  0  0  0  0  0  0  0  0  0
   -0.1446    1.0918    0.2649 C   0  0  0  0  0  0  0  0  0  0  0  0
   -1.2096    1.6786    0.1093 O   0  0  0  0  0  0  0  0  0  0  0  0
    0.7417    1.5745    1.2113 N   0  0  0  0  0  0  0  0  0  0  0  0
    1.5947    1.0483    1.3742 H   0  0  0  0  0  0  0  0  0  0  0  0
    0.5609    2.8490    1.8966 C   0  0  0  0  0  0  0  0  0  0  0  0
   -0.3690    2.8448    2.4751 H   0  0  0  0  0  0  0  0  0  0  0  0
    1.3932    3.0315    2.5831 H   0  0  0  0  0  0  0  0  0  0  0  0
    0.5223    3.6705    1.1732 H   0  0  0  0  0  0  0  0  0  0  0  0
  1  2  1  0  0  0  0
  2  3  1  0  0  0  0
  2  4  1  0  0  0  0
  2  5  1  0  0  0  0
  5  6  2  0  0  0  0
  5  7  1  0  0  0  0
  7  8  1  0  0  0  0
  7  9  1  0  0  0  0
  9 10  1  0  0  0  0
  9 11  1  0  0  0  0
  9 19  1  0  0  0  0
 11 12  1  0  0  0  0
 11 13  1  0  0  0  0
 11 14  1  0  0  0  0
 14 15  2  0  0  0  0
 14 16  1  0  0  0  0
 16 17  1  0  0  0  0
 16 18  1  0  0  0  0
 19 20  2  0  0  0  0
 19 21  1  0  0  0  0
 21 22  1  0  0  0  0
 21 23  1  0  0  0  0
 23 24  1  0  0  0  0
 23 25  1  0  0  0  0
 23 26  1  0  0  0  0
M  END
$$$$

  -OEChem-04042215573D

 26 25  0     1  0  0  0  0  0999 V2000
   -2.9055   -3.8746    0.6728 H   0  0  0  0  0  0  0  0  0  0  0  0
   -2.9202   -2.8495    0.2918 C   0  0  0  0  0  0  0  0  0  0  0  0
   -3.4598   -2.2183    1.0022 H   0  0  0  0  0  0  0  0  0  0  0  0
   -3.4449   -2.8371   -0.6665 H   0  0  0  0  0  0  0  0  0  0  0  0
   -1.5032   -2.3369    0.1144 C   0  0  0  0  0  0  0  0  0  0  0  0
   -0.5531   -3.0700    0.3373 O   0  0  0  0  0  0  0  0  0  0  0  0
   -1.2858   -1.0461   -0.3199 N   0  0  0  0  0  0  0  0  0  0  0  0
   -2.1000   -0.4309   -0.3572 H   0  0  0  0  0  0  0  0  0  0  0  0
    0.0212   -0.3722   -0.2771 C   0  0  1  0  0  0  0  0  0  0  0  0
    0.6707   -0.8936    0.4342 H   0  0  0  0  0  0  0  0  0  0  0  0
    0.7085   -0.4152   -1.6518 C   0  0  0  0  0  0  0  0  0  0  0  0
    1.6860    0.0705   -1.5852 H   0  0  0  0  0  0  0  0  0  0  0  0
    0.8795   -1.4575   -1.9345 H   0  0  0  0  0  0  0  0  0  0  0  0
   -0.0890    0.2643   -2.7545 C   0  0  0  0  0  0  0  0  0  0  0  0
    0.0545    1.4445   -3.0058 O   0  0  0  0  0  0  0  0  0  0  0  0
   -0.9981   -0.4133   -3.5155 N   0  0  0  0  0  0  0  0  0  0  0  0
   -1.6141    0.1656   -4.0790 H   0  0  0  0  0  0  0  0  0  0  0  0
   -1.3066   -1.3245   -3.1949 H   0  0  0  0  0  0  0  0  0  0  0  0
   -0.1468    1.0631    0.2685 C   0  0  0  0  0  0  0  0  0  0  0  0
   -1.1982    1.6603    0.0670 O   0  0  0  0  0  0  0  0  0  0  0  0
    0.7303    1.5586    1.2162 N   0  0  0  0  0  0  0  0  0  0  0  0
    1.5824    1.0350    1.3928 H   0  0  0  0  0  0  0  0  0  0  0  0
    0.5608    2.8585    1.8548 C   0  0  0  0  0  0  0  0  0  0  0  0
   -0.3882    2.8976    2.3998 H   0  0  0  0  0  0  0  0  0  0  0  0
    1.3737    3.0410    2.5643 H   0  0  0  0  0  0  0  0  0  0  0  0
    0.5693    3.6568    1.1051 H   0  0  0  0  0  0  0  0  0  0  0  0
  1  2  1  0  0  0  0
  2  3  1  0  0  0  0
  2  4  1  0  0  0  0
  2  5  1  0  0  0  0
  5  6  2  0  0  0  0
  5  7  1  0  0  0  0
  7  8  1  0  0  0  0
  7  9  1  0  0  0  0
  9 10  1  0  0  0  0
  9 11  1  0  0  0  0
  9 19  1  0  0  0  0
 11 12  1  0  0  0  0
 11 13  1  0  0  0  0
 11 14  1  0  0  0  0
 14 15  2  0  0  0  0
 14 16  1  0  0  0  0
 16 17  1  0  0  0  0
 16 18  1  0  0  0  0
 19 20  2  0  0  0  0
 19 21  1  0  0  0  0
 21 22  1  0  0  0  0
 21 23  1  0  0  0  0
 23 24  1  0  0  0  0
 23 25  1  0  0  0  0
 23 26  1  0  0  0  0
M  END
$$$$

  -OEChem-04042215573D

 26 25  0     1  0  0  0  0  0999 V2000
   -2.9005   -3.8864    0.7094 H   0  0  0  0  0  0  0  0  0  0  0  0
   -2.9180   -2.8643    0.3205 C   0  0  0  0  0  0  0  0  0  0  0  0
   -3.4526   -2.2276    1.0298 H   0  0  0  0  0  0  0  0  0  0  0  0
   -3.4491   -2.8595   -0.6343 H   0  0  0  0  0  0  0  0  0  0  0  0
   -1.5026   -2.3528    0.1299 C   0  0  0  0  0  0  0  0  0  0  0  0
   -0.5502   -3.0826    0.3527 O   0  0  0  0  0  0  0  0  0  0  0  0
   -1.2911   -1.0613   -0.3063 N   0  0  0  0  0  0  0  0  0  0  0  0
   -2.1057   -0.4459   -0.3278 H   0  0  0  0  0  0  0  0  0  0  0  0
    0.0169   -0.3880   -0.2712 C   0  0  1  0  0  0  0  0  0  0  0  0
    0.6754   -0.9128    0.4293 H   0  0  0  0  0  0  0  0  0  0  0  0
    0.6929   -0.4050   -1.6527 C   0  0  0  0  0  0  0  0  0  0  0  0
    1.6710    0.0795   -1.5839 H   0  0  0  0  0  0  0  0  0  0  0  0
    0.8614   -1.4413   -1.9575 H   0  0  0  0  0  0  0  0  0  0  0  0
   -0.1146    0.2933   -2.7373 C   0  0  0  0  0  0  0  0  0  0  0  0
    0.2039    1.3907   -3.1517 O   0  0  0  0  0  0  0  0  0  0  0  0
   -1.1812   -0.3016   -3.3479 N   0  0  0  0  0  0  0  0  0  0  0  0
   -1.7515    0.3107   -3.9239 H   0  0  0  0  0  0  0  0  0  0  0  0
   -1.5963   -1.1083   -2.8955 H   0  0  0  0  0  0  0  0  0  0  0  0
   -0.1515    1.0454    0.2763 C   0  0  0  0  0  0  0  0  0  0  0  0
   -1.1893    1.6543    0.0426 O   0  0  0  0  0  0  0  0  0  0  0  0
    0.7259    1.5468    1.2203 N   0  0  0  0  0  0  0  0  0  0  0  0
    1.5681    1.0137    1.4163 H   0  0  0  0  0  0  0  0  0  0  0  0
    0.5632    2.8563    1.8410 C   0  0  0  0  0  0  0  0  0  0  0  0
   -0.3906    2.9120    2.3762 H   0  0  0  0  0  0  0  0  0  0  0  0
    1.3707    3.0393    2.5564 H   0  0  0  0  0  0  0  0  0  0  0  0
    0.5875    3.6451    1.0816 H   0  0  0  0  0  0  0  0  0  0  0  0
  1  2  1  0  0  0  0
  2  3  1  0  0  0  0
  2  4  1  0  0  0  0
  2  5  1  0  0  0  0
  5  6  2  0  0  0  0
  5  7  1  0  0  0  0
  7  8  1  0  0  0  0
  7  9  1  0  0  0  0
  9 10  1  0  0  0  0
  9 11  1  0  0  0  0
  9 19  1  0  0  0  0
 11 12  1  0  0  0  0
 11 13  1  0  0  0  0
 11 14  1  0  0  0  0
 14 15  2  0  0  0  0
 14 16  1  0  0  0  0
 16 17  1  0  0  0  0
 16 18  1  0  0  0  0
 19 20  2  0  0  0  0
 19 21  1  0  0  0  0
 21 22  1  0  0  0  0
 21 23  1  0  0  0  0
 23 24  1  0  0  0  0
 23 25  1  0  0  0  0
 23 26  1  0  0  0  0
M  END
$$$$

  -OEChem-04042215573D

 26 25  0     1  0  0  0  0  0999 V2000
   -2.8877   -3.9003    0.7487 H   0  0  0  0  0  0  0  0  0  0  0  0
   -2.9153   -2.8824    0.3497 C   0  0  0  0  0  0  0  0  0  0  0  0
   -3.4481   -2.2430    1.0579 H   0  0  0  0  0  0  0  0  0  0  0  0
   -3.4546   -2.8913   -0.6005 H   0  0  0  0  0  0  0  0  0  0  0  0
   -1.5048   -2.3644    0.1406 C   0  0  0  0  0  0  0  0  0  0  0  0
   -0.5474   -3.0913    0.3499 O   0  0  0  0  0  0  0  0  0  0  0  0
   -1.3037   -1.0692   -0.2917 N   0  0  0  0  0  0  0  0  0  0  0  0
   -2.1184   -0.4539   -0.2782 H   0  0  0  0  0  0  0  0  0  0  0  0
    0.0051   -0.3953   -0.2664 C   0  0  1  0  0  0  0  0  0  0  0  0
    0.6723   -0.9242    0.4231 H   0  0  0  0  0  0  0  0  0  0  0  0
    0.6752   -0.3838   -1.6522 C   0  0  0  0  0  0  0  0  0  0  0  0
    1.6552    0.0963   -1.5752 H   0  0  0  0  0  0  0  0  0  0  0  0
    0.8392   -1.4151   -1.9755 H   0  0  0  0  0  0  0  0  0  0  0  0
   -0.1299    0.3310   -2.7300 C   0  0  0  0  0  0  0  0  0  0  0  0
    0.3262    1.2948   -3.3143 O   0  0  0  0  0  0  0  0  0  0  0  0
   -1.3230   -0.1437   -3.1937 N   0  0  0  0  0  0  0  0  0  0  0  0
   -1.8447    0.4959   -3.7857 H   0  0  0  0  0  0  0  0  0  0  0  0
   -1.8134   -0.8193   -2.6190 H   0  0  0  0  0  0  0  0  0  0  0  0
   -0.1613    1.0336    0.2911 C   0  0  0  0  0  0  0  0  0  0  0  0
   -1.1878    1.6542    0.0394 O   0  0  0  0  0  0  0  0  0  0  0  0
    0.7214    1.5347    1.2296 N   0  0  0  0  0  0  0  0  0  0  0  0
    1.5587    0.9953    1.4301 H   0  0  0  0  0  0  0  0  0  0  0  0
    0.5735    2.8521    1.8365 C   0  0  0  0  0  0  0  0  0  0  0  0
   -0.3807    2.9246    2.3687 H   0  0  0  0  0  0  0  0  0  0  0  0
    1.3817    3.0319    2.5519 H   0  0  0  0  0  0  0  0  0  0  0  0
    0.6094    3.6329    1.0694 H   0  0  0  0  0  0  0  0  0  0  0  0
  1  2  1  0  0  0  0
  2  3  1  0  0  0  0
  2  4  1  0  0  0  0
  2  5  1  0  0  0  0
  5  6  2  0  0  0  0
  5  7  1  0  0  0  0
  7  8  1  0  0  0  0
  7  9  1  0  0  0  0
  9 10  1  0  0  0  0
  9 11  1  0  0  0  0
  9 19  1  0  0  0  0
 11 12  1  0  0  0  0
 11 13  1  0  0  0  0
 11 14  1  0  0  0  0
 14 15  2  0  0  0  0
 14 16  1  0  0  0  0
 16 17  1  0  0  0  0
 16 18  1  0  0  0  0
 19 20  2  0  0  0  0
 19 21  1  0  0  0  0
 21 22  1  0  0  0  0
 21 23  1  0  0  0  0
 23 24  1  0  0  0  0
 23 25  1  0  0  0  0
 23 26  1  0  0  0  0
M  END
$$$$

  -OEChem-04042215573D

 26 25  0     1  0  0  0  0  0999 V2000
   -2.8697   -3.9164    0.7617 H   0  0  0  0  0  0  0  0  0  0  0  0
   -2.9074   -2.8944    0.3741 C   0  0  0  0  0  0  0  0  0  0  0  0
   -3.4305   -2.2638    1.0971 H   0  0  0  0  0  0  0  0  0  0  0  0
   -3.4624   -2.8954   -0.5671 H   0  0  0  0  0  0  0  0  0  0  0  0
   -1.5023   -2.3690    0.1471 C   0  0  0  0  0  0  0  0  0  0  0  0
   -0.5387   -3.0912    0.3447 O   0  0  0  0  0  0  0  0  0  0  0  0
   -1.3148   -1.0695   -0.2801 N   0  0  0  0  0  0  0  0  0  0  0  0
   -2.1297   -0.4575   -0.2247 H   0  0  0  0  0  0  0  0  0  0  0  0
   -0.0064   -0.3932   -0.2664 C   0  0  1  0  0  0  0  0  0  0  0  0
    0.6680   -0.9253    0.4134 H   0  0  0  0  0  0  0  0  0  0  0  0
    0.6590   -0.3655   -1.6561 C   0  0  0  0  0  0  0  0  0  0  0  0
    1.6391    0.1133   -1.5724 H   0  0  0  0  0  0  0  0  0  0  0  0
    0.8226   -1.3950   -1.9859 H   0  0  0  0  0  0  0  0  0  0  0  0
   -0.1326    0.3527   -2.7445 C   0  0  0  0  0  0  0  0  0  0  0  0
    0.4203    1.1296   -3.4989 O   0  0  0  0  0  0  0  0  0  0  0  0
   -1.4288    0.0553   -3.0515 N   0  0  0  0  0  0  0  0  0  0  0  0
   -1.8857    0.7112   -3.6781 H   0  0  0  0  0  0  0  0  0  0  0  0
   -1.9709   -0.4341   -2.3497 H   0  0  0  0  0  0  0  0  0  0  0  0
   -0.1684    1.0309    0.3025 C   0  0  0  0  0  0  0  0  0  0  0  0
   -1.1875    1.6607    0.0438 O   0  0  0  0  0  0  0  0  0  0  0  0
    0.7230    1.5297    1.2338 N   0  0  0  0  0  0  0  0  0  0  0  0
    1.5498    0.9776    1.4443 H   0  0  0  0  0  0  0  0  0  0  0  0
    0.5811    2.8440    1.8494 C   0  0  0  0  0  0  0  0  0  0  0  0
   -0.3684    2.9138    2.3905 H   0  0  0  0  0  0  0  0  0  0  0  0
    1.3958    3.0192    2.5587 H   0  0  0  0  0  0  0  0  0  0  0  0
    0.6110    3.6297    1.0870 H   0  0  0  0  0  0  0  0  0  0  0  0
  1  2  1  0  0  0  0
  2  3  1  0  0  0  0
  2  4  1  0  0  0  0
  2  5  1  0  0  0  0
  5  6  2  0  0  0  0
  5  7  1  0  0  0  0
  7  8  1  0  0  0  0
  7  9  1  0  0  0  0
  9 10  1  0  0  0  0
  9 11  1  0  0  0  0
  9 19  1  0  0  0  0
 11 12  1  0  0  0  0
 11 13  1  0  0  0  0
 11 14  1  0  0  0  0
 14 15  2  0  0  0  0
 14 16  1  0  0  0  0
 16 17  1  0  0  0  0
 16 18  1  0  0  0  0
 19 20  2  0  0  0  0
 19 21  1  0  0  0  0
 21 22  1  0  0  0  0
 21 23  1  0  0  0  0
 23 24  1  0  0  0  0
 23 25  1  0  0  0  0
 23 26  1  0  0  0  0
M  END
$$$$

  -OEChem-04042215573D

 26 25  0     1  0  0  0  0  0999 V2000
   -2.8326   -4.0293    0.7032 H   0  0  0  0  0  0  0  0  0  0  0  0
   -2.8797   -2.9949    0.3509 C   0  0  0  0  0  0  0  0  0  0  0  0
   -3.4585   -2.4052    1.0659 H   0  0  0  0  0  0  0  0  0  0  0  0
   -3.3830   -2.9765   -0.6189 H   0  0  0  0  0  0  0  0  0  0  0  0
   -1.4808   -2.4229    0.2193 C   0  0  0  0  0  0  0  0  0  0  0  0
   -0.5111   -3.0982    0.5253 O   0  0  0  0  0  0  0  0  0  0  0  0
   -1.3060   -1.1328   -0.2385 N   0  0  0  0  0  0  0  0  0  0  0  0
   -2.1471   -0.5687   -0.3443 H   0  0  0  0  0  0  0  0  0  0  0  0
   -0.0107   -0.4317   -0.2533 C   0  0  1  0  0  0  0  0  0  0  0  0
    0.6850   -0.9356    0.4265 H   0  0  0  0  0  0  0  0  0  0  0  0
    0.6123   -0.4514   -1.6646 C   0  0  0  0  0  0  0  0  0  0  0  0
    1.5904    0.0360   -1.6196 H   0  0  0  0  0  0  0  0  0  0  0  0
    0.7787   -1.4942   -1.9483 H   0  0  0  0  0  0  0  0  0  0  0  0
   -0.1842    0.2042   -2.7944 C   0  0  0  0  0  0  0  0  0  0  0  0
    0.4010    0.7039   -3.7356 O   0  0  0  0  0  0  0  0  0  0  0  0
   -1.4972    0.5677   -2.7180 N   0  0  0  0  0  0  0  0  0  0  0  0
   -1.7546    1.2388   -3.4356 H   0  0  0  0  0  0  0  0  0  0  0  0
   -1.8263    0.7545   -1.7728 H   0  0  0  0  0  0  0  0  0  0  0  0
   -0.1828    1.0049    0.2796 C   0  0  0  0  0  0  0  0  0  0  0  0
   -1.1989    1.6274   -0.0127 O   0  0  0  0  0  0  0  0  0  0  0  0
    0.7108    1.5410    1.1870 N   0  0  0  0  0  0  0  0  0  0  0  0
    1.5204    0.9833    1.4452 H   0  0  0  0  0  0  0  0  0  0  0  0
    0.5474    2.8608    1.7848 C   0  0  0  0  0  0  0  0  0  0  0  0
   -0.3851    2.9103    2.3569 H   0  0  0  0  0  0  0  0  0  0  0  0
    1.3795    3.0749    2.4625 H   0  0  0  0  0  0  0  0  0  0  0  0
    0.5264    3.6334    1.0088 H   0  0  0  0  0  0  0  0  0  0  0  0
  1  2  1  0  0  0  0
  2  3  1  0  0  0  0
  2  4  1  0  0  0  0
  2  5  1  0  0  0  0
  5  6  2  0  0  0  0
  5  7  1  0  0  0  0
  7  8  1  0  0  0  0
  7  9  1  0  0  0  0
  9 10  1  0  0  0  0
  9 11  1  0  0  0  0
  9 19  1  0  0  0  0
 11 12  1  0  0  0  0
 11 13  1  0  0  0  0
 11 14  1  0  0  0  0
 14 15  2  0  0  0  0
 14 16  1  0  0  0  0
 16 17  1  0  0  0  0
 16 18  1  0  0  0  0
 19 20  2  0  0  0  0
 19 21  1  0  0  0  0
 21 22  1  0  0  0  0
 21 23  1  0  0  0  0
 23 24  1  0  0  0  0
 23 25  1  0  0  0  0
 23 26  1  0  0  0  0
M  END
$$$$

  -OEChem-04042215573D

 26 25  0     1  0  0  0  0  0999 V2000
   -2.8226   -4.0377    0.6523 H   0  0  0  0  0  0  0  0  0  0  0  0
   -2.8743   -3.0104    0.2804 C   0  0  0  0  0  0  0  0  0  0  0  0
   -3.5162   -2.4273    0.9453 H   0  0  0  0  0  0  0  0  0  0  0  0
   -3.3119   -3.0205   -0.7209 H   0  0  0  0  0  0  0  0  0  0  0  0
   -1.4854   -2.4016    0.2324 C   0  0  0  0  0  0  0  0  0  0  0  0
   -0.5161   -3.0573    0.5800 O   0  0  0  0  0  0  0  0  0  0  0  0
   -1.3185   -1.1025   -0.2030 N   0  0  0  0  0  0  0  0  0  0  0  0
   -2.1620   -0.5699   -0.4071 H   0  0  0  0  0  0  0  0  0  0  0  0
   -0.0313   -0.3879   -0.2225 C   0  0  1  0  0  0  0  0  0  0  0  0
    0.6725   -0.8996    0.4428 H   0  0  0  0  0  0  0  0  0  0  0  0
    0.5708   -0.4132   -1.6426 C   0  0  0  0  0  0  0  0  0  0  0  0
    1.5426    0.0875   -1.6182 H   0  0  0  0  0  0  0  0  0  0  0  0
    0.7453   -1.4561   -1.9211 H   0  0  0  0  0  0  0  0  0  0  0  0
   -0.2504    0.2256   -2.7640 C   0  0  0  0  0  0  0  0  0  0  0  0
    0.2758    0.4768   -3.8305 O   0  0  0  0  0  0  0  0  0  0  0  0
   -1.5035    0.7500   -2.6241 N   0  0  0  0  0  0  0  0  0  0  0  0
   -1.7690    1.3559   -3.3947 H   0  0  0  0  0  0  0  0  0  0  0  0
   -1.7427    1.0568   -1.6805 H   0  0  0  0  0  0  0  0  0  0  0  0
   -0.1764    1.0439    0.3326 C   0  0  0  0  0  0  0  0  0  0  0  0
   -1.1736    1.7005    0.0522 O   0  0  0  0  0  0  0  0  0  0  0  0
    0.7448    1.5533    1.2281 N   0  0  0  0  0  0  0  0  0  0  0  0
    1.5349    0.9668    1.4836 H   0  0  0  0  0  0  0  0  0  0  0  0
    0.6245    2.8728    1.8370 C   0  0  0  0  0  0  0  0  0  0  0  0
   -0.3031    2.9459    2.4147 H   0  0  0  0  0  0  0  0  0  0  0  0
    1.4665    3.0563    2.5116 H   0  0  0  0  0  0  0  0  0  0  0  0
    0.6232    3.6517    1.0670 H   0  0  0  0  0  0  0  0  0  0  0  0
  1  2  1  0  0  0  0
  2  3  1  0  0  0  0
  2  4  1  0  0  0  0
  2  5  1  0  0  0  0
  5  6  2  0  0  0  0
  5  7  1  0  0  0  0
  7  8  1  0  0  0  0
  7  9  1  0  0  0  0
  9 10  1  0  0  0  0
  9 11  1  0  0  0  0
  9 19  1  0  0  0  0
 11 12  1  0  0  0  0
 11 13  1  0  0  0  0
 11 14  1  0  0  0  0
 14 15  2  0  0  0  0
 14 16  1  0  0  0  0
 16 17  1  0  0  0  0
 16 18  1  0  0  0  0
 19 20  2  0  0  0  0
 19 21  1  0  0  0  0
 21 22  1  0  0  0  0
 21 23  1  0  0  0  0
 23 24  1  0  0  0  0
 23 25  1  0  0  0  0
 23 26  1  0  0  0  0
M  END
$$$$

  -OEChem-04042215573D

 26 25  0     1  0  0  0  0  0999 V2000
   -2.8225   -3.9839    0.5370 H   0  0  0  0  0  0  0  0  0  0  0  0
   -2.8770   -2.9448    0.2000 C   0  0  0  0  0  0  0  0  0  0  0  0
   -3.5264   -2.3881    0.8799 H   0  0  0  0  0  0  0  0  0  0  0  0
   -3.3074   -2.9224   -0.8042 H   0  0  0  0  0  0  0  0  0  0  0  0
   -1.4912   -2.3276    0.1826 C   0  0  0  0  0  0  0  0  0  0  0  0
   -0.5206   -2.9921    0.5094 O   0  0  0  0  0  0  0  0  0  0  0  0
   -1.3301   -1.0109   -0.1994 N   0  0  0  0  0  0  0  0  0  0  0  0
   -2.1744   -0.4780   -0.4013 H   0  0  0  0  0  0  0  0  0  0  0  0
   -0.0491   -0.2883   -0.2062 C   0  0  1  0  0  0  0  0  0  0  0  0
    0.6393   -0.8255    0.4550 H   0  0  0  0  0  0  0  0  0  0  0  0
    0.5734   -0.3469   -1.6177 C   0  0  0  0  0  0  0  0  0  0  0  0
    1.6265   -0.0648   -1.5368 H   0  0  0  0  0  0  0  0  0  0  0  0
    0.5394   -1.3814   -1.9717 H   0  0  0  0  0  0  0  0  0  0  0  0
   -0.0395    0.5382   -2.7037 C   0  0  0  0  0  0  0  0  0  0  0  0
    0.4251    0.5189   -3.8268 O   0  0  0  0  0  0  0  0  0  0  0  0
   -1.1703    1.2921   -2.5715 N   0  0  0  0  0  0  0  0  0  0  0  0
   -1.3568    1.9213   -3.3460 H   0  0  0  0  0  0  0  0  0  0  0  0
   -1.4409    1.5760   -1.6286 H   0  0  0  0  0  0  0  0  0  0  0  0
   -0.1501    1.1267    0.4024 C   0  0  0  0  0  0  0  0  0  0  0  0
   -1.1475    1.8097    0.1990 O   0  0  0  0  0  0  0  0  0  0  0  0
    0.8063    1.5798    1.2918 N   0  0  0  0  0  0  0  0  0  0  0  0
    1.5867    0.9642    1.5050 H   0  0  0  0  0  0  0  0  0  0  0  0
    0.7139    2.8588    1.9862 C   0  0  0  0  0  0  0  0  0  0  0  0
   -0.1832    2.8908    2.6132 H   0  0  0  0  0  0  0  0  0  0  0  0
    1.5886    3.0054    2.6272 H   0  0  0  0  0  0  0  0  0  0  0  0
    0.6713    3.6834    1.2670 H   0  0  0  0  0  0  0  0  0  0  0  0
  1  2  1  0  0  0  0
  2  3  1  0  0  0  0
  2  4  1  0  0  0  0
  2  5  1  0  0  0  0
  5  6  2  0  0  0  0
  5  7  1  0  0  0  0
  7  8  1  0  0  0  0
  7  9  1  0  0  0  0
  9 10  1  0  0  0  0
  9 11  1  0  0  0  0
  9 19  1  0  0  0  0
 11 12  1  0  0  0  0
 11 13  1  0  0  0  0
 11 14  1  0  0  0  0
 14 15  2  0  0  0  0
 14 16  1  0  0  0  0
 16 17  1  0  0  0  0
 16 18  1  0  0  0  0
 19 20  2  0  0  0  0
 19 21  1  0  0  0  0
 21 22  1  0  0  0  0
 21 23  1  0  0  0  0
 23 24  1  0  0  0  0
 23 25  1  0  0  0  0
 23 26  1  0  0  0  0
M  END
$$$$

  -OEChem-04042215573D

 26 25  0     1  0  0  0  0  0999 V2000
   -2.8205   -3.9760    0.4935 H   0  0  0  0  0  0  0  0  0  0  0  0
   -2.8768   -2.9336    0.1679 C   0  0  0  0  0  0  0  0  0  0  0  0
   -3.5369   -2.3876    0.8463 H   0  0  0  0  0  0  0  0  0  0  0  0
   -3.2953   -2.9023   -0.8411 H   0  0  0  0  0  0  0  0  0  0  0  0
   -1.4943   -2.3088    0.1739 C   0  0  0  0  0  0  0  0  0  0  0  0
   -0.5241   -2.9705    0.5084 O   0  0  0  0  0  0  0  0  0  0  0  0
   -1.3355   -0.9880   -0.1949 N   0  0  0  0  0  0  0  0  0  0  0  0
   -2.1788   -0.4583   -0.4095 H   0  0  0  0  0  0  0  0  0  0  0  0
   -0.0573   -0.2619   -0.1969 C   0  0  1  0  0  0  0  0  0  0  0  0
    0.6241   -0.8030    0.4682 H   0  0  0  0  0  0  0  0  0  0  0  0
    0.5790   -0.3352   -1.6020 C   0  0  0  0  0  0  0  0  0  0  0  0
    1.6294   -0.0470   -1.5126 H   0  0  0  0  0  0  0  0  0  0  0  0
    0.5557   -1.3756   -1.9398 H   0  0  0  0  0  0  0  0  0  0  0  0
   -0.0207    0.5308   -2.7119 C   0  0  0  0  0  0  0  0  0  0  0  0
    0.2681    0.3017   -3.8703 O   0  0  0  0  0  0  0  0  0  0  0  0
   -0.9796    1.4900   -2.5550 N   0  0  0  0  0  0  0  0  0  0  0  0
   -1.2019    2.0475   -3.3736 H   0  0  0  0  0  0  0  0  0  0  0  0
   -1.1959    1.8392   -1.6199 H   0  0  0  0  0  0  0  0  0  0  0  0
   -0.1446    1.1491    0.4229 C   0  0  0  0  0  0  0  0  0  0  0  0
   -1.1318    1.8491    0.2297 O   0  0  0  0  0  0  0  0  0  0  0  0
    0.8232    1.5833    1.3094 N   0  0  0  0  0  0  0  0  0  0  0  0
    1.5903    0.9506    1.5210 H   0  0  0  0  0  0  0  0  0  0  0  0
    0.7440    2.8507    2.0264 C   0  0  0  0  0  0  0  0  0  0  0  0
   -0.1515    2.8798    2.6561 H   0  0  0  0  0  0  0  0  0  0  0  0
    1.6215    2.9771    2.6678 H   0  0  0  0  0  0  0  0  0  0  0  0
    0.7082    3.6883    1.3219 H   0  0  0  0  0  0  0  0  0  0  0  0
  1  2  1  0  0  0  0
  2  3  1  0  0  0  0
  2  4  1  0  0  0  0
  2  5  1  0  0  0  0
  5  6  2  0  0  0  0
  5  7  1  0  0  0  0
  7  8  1  0  0  0  0
  7  9  1  0  0  0  0
  9 10  1  0  0  0  0
  9 11  1  0  0  0  0
  9 19  1  0  0  0  0
 11 12  1  0  0  0  0
 11 13  1  0  0  0  0
 11 14  1  0  0  0  0
 14 15  2  0  0  0  0
 14 16  1  0  0  0  0
 16 17  1  0  0  0  0
 16 18  1  0  0  0  0
 19 20  2  0  0  0  0
 19 21  1  0  0  0  0
 21 22  1  0  0  0  0
 21 23  1  0  0  0  0
 23 24  1  0  0  0  0
 23 25  1  0  0  0  0
 23 26  1  0  0  0  0
M  END
$$$$

  -OEChem-04042215573D

 26 25  0     1  0  0  0  0  0999 V2000
   -2.8448   -3.9606    0.4983 H   0  0  0  0  0  0  0  0  0  0  0  0
   -2.8924   -2.9180    0.1714 C   0  0  0  0  0  0  0  0  0  0  0  0
   -3.5393   -2.3635    0.8554 H   0  0  0  0  0  0  0  0  0  0  0  0
   -3.3206   -2.8837   -0.8334 H   0  0  0  0  0  0  0  0  0  0  0  0
   -1.5030   -2.3089    0.1626 C   0  0  0  0  0  0  0  0  0  0  0  0
   -0.5380   -2.9803    0.4918 O   0  0  0  0  0  0  0  0  0  0  0  0
   -1.3322   -0.9897   -0.2067 N   0  0  0  0  0  0  0  0  0  0  0  0
   -2.1725   -0.4454   -0.3953 H   0  0  0  0  0  0  0  0  0  0  0  0
   -0.0468   -0.2761   -0.2016 C   0  0  1  0  0  0  0  0  0  0  0  0
    0.6331   -0.8210    0.4624 H   0  0  0  0  0  0  0  0  0  0  0  0
    0.5819   -0.3503   -1.6109 C   0  0  0  0  0  0  0  0  0  0  0  0
    1.6353   -0.0719   -1.5261 H   0  0  0  0  0  0  0  0  0  0  0  0
    0.5486   -1.3894   -1.9530 H   0  0  0  0  0  0  0  0  0  0  0  0
   -0.0156    0.5304   -2.7103 C   0  0  0  0  0  0  0  0  0  0  0  0
    0.0252    0.1599   -3.8675 O   0  0  0  0  0  0  0  0  0  0  0  0
   -0.4895    1.8001   -2.5485 N   0  0  0  0  0  0  0  0  0  0  0  0
   -0.9506    2.1957   -3.3617 H   0  0  0  0  0  0  0  0  0  0  0  0
   -0.7919    2.0873   -1.6166 H   0  0  0  0  0  0  0  0  0  0  0  0
   -0.1449    1.1322    0.4199 C   0  0  0  0  0  0  0  0  0  0  0  0
   -1.1288    1.8304    0.2027 O   0  0  0  0  0  0  0  0  0  0  0  0
    0.8088    1.5715    1.3187 N   0  0  0  0  0  0  0  0  0  0  0  0
    1.5735    0.9409    1.5446 H   0  0  0  0  0  0  0  0  0  0  0  0
    0.7193    2.8439    2.0257 C   0  0  0  0  0  0  0  0  0  0  0  0
   -0.1871    2.8791    2.6395 H   0  0  0  0  0  0  0  0  0  0  0  0
    1.5857    2.9733    2.6817 H   0  0  0  0  0  0  0  0  0  0  0  0
    0.6971    3.6772    1.3155 H   0  0  0  0  0  0  0  0  0  0  0  0
  1  2  1  0  0  0  0
  2  3  1  0  0  0  0
  2  4  1  0  0  0  0
  2  5  1  0  0  0  0
  5  6  2  0  0  0  0
  5  7  1  0  0  0  0
  7  8  1  0  0  0  0
  7  9  1  0  0  0  0
  9 10  1  0  0  0  0
  9 11  1  0  0  0  0
  9 19  1  0  0  0  0
 11 12  1  0  0  0  0
 11 13  1  0  0  0  0
 11 14  1  0  0  0  0
 14 15  2  0  0  0  0
 14 16  1  0  0  0  0
 16 17  1  0  0  0  0
 16 18  1  0  0  0  0
 19 20  2  0  0  0  0
 19 21  1  0  0  0  0
 21 22  1  0  0  0  0
 21 23  1  0  0  0  0
 23 24  1  0  0  0  0
 23 25  1  0  0  0  0
 23 26  1  0  0  0  0
M  END
$$$$

  -OEChem-04042215573D

 26 25  0     1  0  0  0  0  0999 V2000
   -2.8539   -3.9629    0.4687 H   0  0  0  0  0  0  0  0  0  0  0  0
   -2.8900   -2.9248    0.1265 C   0  0  0  0  0  0  0  0  0  0  0  0
   -3.5662   -2.3632    0.7757 H   0  0  0  0  0  0  0  0  0  0  0  0
   -3.2764   -2.9046   -0.8956 H   0  0  0  0  0  0  0  0  0  0  0  0
   -1.5030   -2.3116    0.1670 C   0  0  0  0  0  0  0  0  0  0  0  0
   -0.5487   -2.9773    0.5374 O   0  0  0  0  0  0  0  0  0  0  0  0
   -1.3232   -0.9950   -0.2064 N   0  0  0  0  0  0  0  0  0  0  0  0
   -2.1553   -0.4620   -0.4541 H   0  0  0  0  0  0  0  0  0  0  0  0
   -0.0381   -0.2825   -0.1897 C   0  0  1  0  0  0  0  0  0  0  0  0
    0.6389   -0.8280    0.4764 H   0  0  0  0  0  0  0  0  0  0  0  0
    0.5890   -0.3529   -1.5991 C   0  0  0  0  0  0  0  0  0  0  0  0
    1.6426   -0.0739   -1.5199 H   0  0  0  0  0  0  0  0  0  0  0  0
    0.5550   -1.3891   -1.9501 H   0  0  0  0  0  0  0  0  0  0  0  0
   -0.0268    0.5425   -2.6755 C   0  0  0  0  0  0  0  0  0  0  0  0
   -0.2543    0.0961   -3.7834 O   0  0  0  0  0  0  0  0  0  0  0  0
   -0.2225    1.8882   -2.5591 N   0  0  0  0  0  0  0  0  0  0  0  0
   -0.7349    2.2977   -3.3340 H   0  0  0  0  0  0  0  0  0  0  0  0
   -0.4069    2.2441   -1.6205 H   0  0  0  0  0  0  0  0  0  0  0  0
   -0.1363    1.1296    0.4219 C   0  0  0  0  0  0  0  0  0  0  0  0
   -1.0800    1.8586    0.1411 O   0  0  0  0  0  0  0  0  0  0  0  0
    0.8094    1.5704    1.3283 N   0  0  0  0  0  0  0  0  0  0  0  0
    1.5475    0.9240    1.5951 H   0  0  0  0  0  0  0  0  0  0  0  0
    0.7387    2.8653    1.9956 C   0  0  0  0  0  0  0  0  0  0  0  0
   -0.1984    2.9591    2.5546 H   0  0  0  0  0  0  0  0  0  0  0  0
    1.5709    2.9743    2.6978 H   0  0  0  0  0  0  0  0  0  0  0  0
    0.7958    3.6778    1.2636 H   0  0  0  0  0  0  0  0  0  0  0  0
  1  2  1  0  0  0  0
  2  3  1  0  0  0  0
  2  4  1  0  0  0  0
  2  5  1  0  0  0  0
  5  6  2  0  0  0  0
  5  7  1  0  0  0  0
  7  8  1  0  0  0  0
  7  9  1  0  0  0  0
  9 10  1  0  0  0  0
  9 11  1  0  0  0  0
  9 19  1  0  0  0  0
 11 12  1  0  0  0  0
 11 13  1  0  0  0  0
 11 14  1  0  0  0  0
 14 15  2  0  0  0  0
 14 16  1  0  0  0  0
 16 17  1  0  0  0  0
 16 18  1  0  0  0  0
 19 20  2  0  0  0  0
 19 21  1  0  0  0  0
 21 22  1  0  0  0  0
 21 23  1  0  0  0  0
 23 24  1  0  0  0  0
 23 25  1  0  0  0  0
 23 26  1  0  0  0  0
M  END
$$$$

  -OEChem-04042215573D

 26 25  0     1  0  0  0  0  0999 V2000
   -2.8633   -3.9639    0.4240 H   0  0  0  0  0  0  0  0  0  0  0  0
   -2.8922   -2.9249    0.0839 C   0  0  0  0  0  0  0  0  0  0  0  0
   -3.5963   -2.3691    0.7078 H   0  0  0  0  0  0  0  0  0  0  0  0
   -3.2386   -2.9039   -0.9525 H   0  0  0  0  0  0  0  0  0  0  0  0
   -1.5114   -2.3040    0.1815 C   0  0  0  0  0  0  0  0  0  0  0  0
   -0.5747   -2.9575    0.6141 O   0  0  0  0  0  0  0  0  0  0  0  0
   -1.3172   -0.9944   -0.2090 N   0  0  0  0  0  0  0  0  0  0  0  0
   -2.1311   -0.4801   -0.5423 H   0  0  0  0  0  0  0  0  0  0  0  0
   -0.0281   -0.2892   -0.1812 C   0  0  1  0  0  0  0  0  0  0  0  0
    0.6418   -0.8320    0.4939 H   0  0  0  0  0  0  0  0  0  0  0  0
    0.6020   -0.3680   -1.5875 C   0  0  0  0  0  0  0  0  0  0  0  0
    1.6582   -0.0976   -1.5131 H   0  0  0  0  0  0  0  0  0  0  0  0
    0.5576   -1.4021   -1.9427 H   0  0  0  0  0  0  0  0  0  0  0  0
   -0.0245    0.5391   -2.6455 C   0  0  0  0  0  0  0  0  0  0  0  0
   -0.5172    0.0654   -3.6515 O   0  0  0  0  0  0  0  0  0  0  0  0
    0.0221    1.9029   -2.6125 N   0  0  0  0  0  0  0  0  0  0  0  0
   -0.5372    2.3413   -3.3379 H   0  0  0  0  0  0  0  0  0  0  0  0
    0.0011    2.3235   -1.6845 H   0  0  0  0  0  0  0  0  0  0  0  0
   -0.1200    1.1340    0.4058 C   0  0  0  0  0  0  0  0  0  0  0  0
   -1.0188    1.8907    0.0619 O   0  0  0  0  0  0  0  0  0  0  0  0
    0.8179    1.5770    1.3197 N   0  0  0  0  0  0  0  0  0  0  0  0
    1.5118    0.9088    1.6450 H   0  0  0  0  0  0  0  0  0  0  0  0
    0.7577    2.8880    1.9568 C   0  0  0  0  0  0  0  0  0  0  0  0
   -0.1754    2.9987    2.5194 H   0  0  0  0  0  0  0  0  0  0  0  0
    1.5954    3.0103    2.6503 H   0  0  0  0  0  0  0  0  0  0  0  0
    0.8132    3.6833    1.2060 H   0  0  0  0  0  0  0  0  0  0  0  0
  1  2  1  0  0  0  0
  2  3  1  0  0  0  0
  2  4  1  0  0  0  0
  2  5  1  0  0  0  0
  5  6  2  0  0  0  0
  5  7  1  0  0  0  0
  7  8  1  0  0  0  0
  7  9  1  0  0  0  0
  9 10  1  0  0  0  0
  9 11  1  0  0  0  0
  9 19  1  0  0  0  0
 11 12  1  0  0  0  0
 11 13  1  0  0  0  0
 11 14  1  0  0  0  0
 14 15  2  0  0  0  0
 14 16  1  0  0  0  0
 16 17  1  0  0  0  0
 16 18  1  0  0  0  0
 19 20  2  0  0  0  0
 19 21  1  0  0  0  0
 21 22  1  0  0  0  0
 21 23  1  0  0  0  0
 23 24  1  0  0  0  0
 23 25  1  0  0  0  0
 23 26  1  0  0  0  0
M  END
$$$$

  -OEChem-04042215573D

 26 25  0     1  0  0  0  0  0999 V2000
   -2.8732   -3.9597    0.3847 H   0  0  0  0  0  0  0  0  0  0  0  0
   -2.8914   -2.9208    0.0437 C   0  0  0  0  0  0  0  0  0  0  0  0
   -3.6266   -2.3683    0.6337 H   0  0  0  0  0  0  0  0  0  0  0  0
   -3.1891   -2.9006   -1.0077 H   0  0  0  0  0  0  0  0  0  0  0  0
   -1.5200   -2.2925    0.2047 C   0  0  0  0  0  0  0  0  0  0  0  0
   -0.6052   -2.9329    0.6997 O   0  0  0  0  0  0  0  0  0  0  0  0
   -1.3088   -0.9929   -0.2084 N   0  0  0  0  0  0  0  0  0  0  0  0
   -2.0961   -0.5044   -0.6330 H   0  0  0  0  0  0  0  0  0  0  0  0
   -0.0154   -0.2971   -0.1766 C   0  0  1  0  0  0  0  0  0  0  0  0
    0.6486   -0.8353    0.5079 H   0  0  0  0  0  0  0  0  0  0  0  0
    0.6121   -0.3932   -1.5813 C   0  0  0  0  0  0  0  0  0  0  0  0
    1.6712   -0.1318   -1.5163 H   0  0  0  0  0  0  0  0  0  0  0  0
    0.5554   -1.4268   -1.9368 H   0  0  0  0  0  0  0  0  0  0  0  0
   -0.0285    0.5216   -2.6212 C   0  0  0  0  0  0  0  0  0  0  0  0
   -0.7696    0.0702   -3.4736 O   0  0  0  0  0  0  0  0  0  0  0  0
    0.2259    1.8602   -2.7062 N   0  0  0  0  0  0  0  0  0  0  0  0
   -0.3942    2.3449   -3.3482 H   0  0  0  0  0  0  0  0  0  0  0  0
    0.4518    2.3250   -1.8310 H   0  0  0  0  0  0  0  0  0  0  0  0
   -0.1013    1.1391    0.3807 C   0  0  0  0  0  0  0  0  0  0  0  0
   -0.9738    1.9066   -0.0028 O   0  0  0  0  0  0  0  0  0  0  0  0
    0.8307    1.5884    1.2980 N   0  0  0  0  0  0  0  0  0  0  0  0
    1.4898    0.9088    1.6687 H   0  0  0  0  0  0  0  0  0  0  0  0
    0.7715    2.9091    1.9145 C   0  0  0  0  0  0  0  0  0  0  0  0
   -0.1549    3.0233    2.4872 H   0  0  0  0  0  0  0  0  0  0  0  0
    1.6179    3.0472    2.5943 H   0  0  0  0  0  0  0  0  0  0  0  0
    0.8125    3.6928    1.1507 H   0  0  0  0  0  0  0  0  0  0  0  0
  1  2  1  0  0  0  0
  2  3  1  0  0  0  0
  2  4  1  0  0  0  0
  2  5  1  0  0  0  0
  5  6  2  0  0  0  0
  5  7  1  0  0  0  0
  7  8  1  0  0  0  0
  7  9  1  0  0  0  0
  9 10  1  0  0  0  0
  9 11  1  0  0  0  0
  9 19  1  0  0  0  0
 11 12  1  0  0  0  0
 11 13  1  0  0  0  0
 11 14  1  0  0  0  0
 14 15  2  0  0  0  0
 14 16  1  0  0  0  0
 16 17  1  0  0  0  0
 16 18  1  0  0  0  0
 19 20  2  0  0  0  0
 19 21  1  0  0  0  0
 21 22  1  0  0  0  0
 21 23  1  0  0  0  0
 23 24  1  0  0  0  0
 23 25  1  0  0  0  0
 23 26  1  0  0  0  0
M  END
$$$$

  -OEChem-04042215573D

 26 25  0     1  0  0  0  0  0999 V2000
   -2.8784   -3.9569    0.3684 H   0  0  0  0  0  0  0  0  0  0  0  0
   -2.8908   -2.9187    0.0251 C   0  0  0  0  0  0  0  0  0  0  0  0
   -3.6456   -2.3681    0.5918 H   0  0  0  0  0  0  0  0  0  0  0  0
   -3.1576   -2.9018   -1.0347 H   0  0  0  0  0  0  0  0  0  0  0  0
   -1.5277   -2.2836    0.2250 C   0  0  0  0  0  0  0  0  0  0  0  0
   -0.6298   -2.9121    0.7648 O   0  0  0  0  0  0  0  0  0  0  0  0
   -1.3031   -0.9941   -0.2098 N   0  0  0  0  0  0  0  0  0  0  0  0
   -2.0658   -0.5293   -0.7022 H   0  0  0  0  0  0  0  0  0  0  0  0
   -0.0054   -0.3072   -0.1798 C   0  0  1  0  0  0  0  0  0  0  0  0
    0.6547   -0.8394    0.5128 H   0  0  0  0  0  0  0  0  0  0  0  0
    0.6182   -0.4190   -1.5842 C   0  0  0  0  0  0  0  0  0  0  0  0
    1.6799   -0.1669   -1.5267 H   0  0  0  0  0  0  0  0  0  0  0  0
    0.5486   -1.4513   -1.9402 H   0  0  0  0  0  0  0  0  0  0  0  0
   -0.0344    0.5022   -2.6087 C   0  0  0  0  0  0  0  0  0  0  0  0
   -0.9833    0.1249   -3.2707 O   0  0  0  0  0  0  0  0  0  0  0  0
    0.3957    1.7775   -2.8396 N   0  0  0  0  0  0  0  0  0  0  0  0
   -0.2613    2.3377   -3.3751 H   0  0  0  0  0  0  0  0  0  0  0  0
    0.9098    2.2291   -2.0907 H   0  0  0  0  0  0  0  0  0  0  0  0
   -0.0883    1.1399    0.3509 C   0  0  0  0  0  0  0  0  0  0  0  0
   -0.9574    1.9045   -0.0453 O   0  0  0  0  0  0  0  0  0  0  0  0
    0.8399    1.5976    1.2685 N   0  0  0  0  0  0  0  0  0  0  0  0
    1.4808    0.9155    1.6651 H   0  0  0  0  0  0  0  0  0  0  0  0
    0.7725    2.9230    1.8745 C   0  0  0  0  0  0  0  0  0  0  0  0
   -0.1523    3.0340    2.4505 H   0  0  0  0  0  0  0  0  0  0  0  0
    1.6209    3.0749    2.5489 H   0  0  0  0  0  0  0  0  0  0  0  0
    0.8031    3.7005    1.1038 H   0  0  0  0  0  0  0  0  0  0  0  0
  1  2  1  0  0  0  0
  2  3  1  0  0  0  0
  2  4  1  0  0  0  0
  2  5  1  0  0  0  0
  5  6  2  0  0  0  0
  5  7  1  0  0  0  0
  7  8  1  0  0  0  0
  7  9  1  0  0  0  0
  9 10  1  0  0  0  0
  9 11  1  0  0  0  0
  9 19  1  0  0  0  0
 11 12  1  0  0  0  0
 11 13  1  0  0  0  0
 11 14  1  0  0  0  0
 14 15  2  0  0  0  0
 14 16  1  0  0  0  0
 16 17  1  0  0  0  0
 16 18  1  0  0  0  0
 19 20  2  0  0  0  0
 19 21  1  0  0  0  0
 21 22  1  0  0  0  0
 21 23  1  0  0  0  0
 23 24  1  0  0  0  0
 23 25  1  0  0  0  0
 23 26  1  0  0  0  0
M  END
$$$$

  -OEChem-04042215573D

 26 25  0     1  0  0  0  0  0999 V2000
   -2.8868   -3.9583    0.3812 H   0  0  0  0  0  0  0  0  0  0  0  0
   -2.8961   -2.9232    0.0285 C   0  0  0  0  0  0  0  0  0  0  0  0
   -3.6523   -2.3661    0.5869 H   0  0  0  0  0  0  0  0  0  0  0  0
   -3.1580   -2.9145   -1.0325 H   0  0  0  0  0  0  0  0  0  0  0  0
   -1.5329   -2.2885    0.2298 C   0  0  0  0  0  0  0  0  0  0  0  0
   -0.6396   -2.9131    0.7820 O   0  0  0  0  0  0  0  0  0  0  0  0
   -1.3031   -1.0042   -0.2165 N   0  0  0  0  0  0  0  0  0  0  0  0
   -2.0529   -0.5510   -0.7401 H   0  0  0  0  0  0  0  0  0  0  0  0
   -0.0062   -0.3171   -0.1859 C   0  0  1  0  0  0  0  0  0  0  0  0
    0.6503   -0.8436    0.5143 H   0  0  0  0  0  0  0  0  0  0  0  0
    0.6249   -0.4360   -1.5865 C   0  0  0  0  0  0  0  0  0  0  0  0
    1.6866   -0.1849   -1.5257 H   0  0  0  0  0  0  0  0  0  0  0  0
    0.5543   -1.4687   -1.9402 H   0  0  0  0  0  0  0  0  0  0  0  0
   -0.0295    0.4822   -2.6124 C   0  0  0  0  0  0  0  0  0  0  0  0
   -1.1233    0.2216   -3.0792 O   0  0  0  0  0  0  0  0  0  0  0  0
    0.5294    1.6658   -3.0016 N   0  0  0  0  0  0  0  0  0  0  0  0
   -0.1194    2.2941   -3.4677 H   0  0  0  0  0  0  0  0  0  0  0  0
    1.2463    2.0624   -2.4046 H   0  0  0  0  0  0  0  0  0  0  0  0
   -0.0893    1.1367    0.3288 C   0  0  0  0  0  0  0  0  0  0  0  0
   -0.9549    1.9008   -0.0750 O   0  0  0  0  0  0  0  0  0  0  0  0
    0.8365    1.5994    1.2466 N   0  0  0  0  0  0  0  0  0  0  0  0
    1.4732    0.9188    1.6522 H   0  0  0  0  0  0  0  0  0  0  0  0
    0.7725    2.9315    1.8376 C   0  0  0  0  0  0  0  0  0  0  0  0
   -0.1524    3.0520    2.4114 H   0  0  0  0  0  0  0  0  0  0  0  0
    1.6211    3.0877    2.5106 H   0  0  0  0  0  0  0  0  0  0  0  0
    0.8056    3.6998    1.0580 H   0  0  0  0  0  0  0  0  0  0  0  0
  1  2  1  0  0  0  0
  2  3  1  0  0  0  0
  2  4  1  0  0  0  0
  2  5  1  0  0  0  0
  5  6  2  0  0  0  0
  5  7  1  0  0  0  0
  7  8  1  0  0  0  0
  7  9  1  0  0  0  0
  9 10  1  0  0  0  0
  9 11  1  0  0  0  0
  9 19  1  0  0  0  0
 11 12  1  0  0  0  0
 11 13  1  0  0  0  0
 11 14  1  0  0  0  0
 14 15  2  0  0  0  0
 14 16  1  0  0  0  0
 16 17  1  0  0  0  0
 16 18  1  0  0  0  0
 19 20  2  0  0  0  0
 19 21  1  0  0  0  0
 21 22  1  0  0  0  0
 21 23  1  0  0  0  0
 23 24  1  0  0  0  0
 23 25  1  0  0  0  0
 23 26  1  0  0  0  0
M  END
$$$$

  -OEChem-04042215573D

 26 25  0     1  0  0  0  0  0999 V2000
   -2.8873   -3.9654    0.3990 H   0  0  0  0  0  0  0  0  0  0  0  0
   -2.9000   -2.9302    0.0475 C   0  0  0  0  0  0  0  0  0  0  0  0
   -3.6489   -2.3730    0.6155 H   0  0  0  0  0  0  0  0  0  0  0  0
   -3.1743   -2.9200   -1.0103 H   0  0  0  0  0  0  0  0  0  0  0  0
   -1.5345   -2.2965    0.2332 C   0  0  0  0  0  0  0  0  0  0  0  0
   -0.6335   -2.9229    0.7711 O   0  0  0  0  0  0  0  0  0  0  0  0
   -1.3106   -1.0125   -0.2152 N   0  0  0  0  0  0  0  0  0  0  0  0
   -2.0661   -0.5562   -0.7292 H   0  0  0  0  0  0  0  0  0  0  0  0
   -0.0188   -0.3172   -0.1926 C   0  0  1  0  0  0  0  0  0  0  0  0
    0.6389   -0.8389    0.5102 H   0  0  0  0  0  0  0  0  0  0  0  0
    0.6193   -0.4386   -1.5900 C   0  0  0  0  0  0  0  0  0  0  0  0
    1.6780   -0.1775   -1.5191 H   0  0  0  0  0  0  0  0  0  0  0  0
    0.5613   -1.4740   -1.9374 H   0  0  0  0  0  0  0  0  0  0  0  0
   -0.0333    0.4652   -2.6313 C   0  0  0  0  0  0  0  0  0  0  0  0
   -1.2131    0.3609   -2.9145 O   0  0  0  0  0  0  0  0  0  0  0  0
    0.6355    1.4996   -3.2207 N   0  0  0  0  0  0  0  0  0  0  0  0
    0.0342    2.1833   -3.6723 H   0  0  0  0  0  0  0  0  0  0  0  0
    1.5039    1.8078   -2.7985 H   0  0  0  0  0  0  0  0  0  0  0  0
   -0.1012    1.1381    0.3190 C   0  0  0  0  0  0  0  0  0  0  0  0
   -0.9808    1.8970   -0.0625 O   0  0  0  0  0  0  0  0  0  0  0  0
    0.8319    1.6016    1.2294 N   0  0  0  0  0  0  0  0  0  0  0  0
    1.4766    0.9230    1.6249 H   0  0  0  0  0  0  0  0  0  0  0  0
    0.7648    2.9299    1.8283 C   0  0  0  0  0  0  0  0  0  0  0  0
   -0.1556    3.0405    2.4115 H   0  0  0  0  0  0  0  0  0  0  0  0
    1.6188    3.0890    2.4940 H   0  0  0  0  0  0  0  0  0  0  0  0
    0.7848    3.7028    1.0525 H   0  0  0  0  0  0  0  0  0  0  0  0
  1  2  1  0  0  0  0
  2  3  1  0  0  0  0
  2  4  1  0  0  0  0
  2  5  1  0  0  0  0
  5  6  2  0  0  0  0
  5  7  1  0  0  0  0
  7  8  1  0  0  0  0
  7  9  1  0  0  0  0
  9 10  1  0  0  0  0
  9 11  1  0  0  0  0
  9 19  1  0  0  0  0
 11 12  1  0  0  0  0
 11 13  1  0  0  0  0
 11 14  1  0  0  0  0
 14 15  2  0  0  0  0
 14 16  1  0  0  0  0
 16 17  1  0  0  0  0
 16 18  1  0  0  0  0
 19 20  2  0  0  0  0
 19 21  1  0  0  0  0
 21 22  1  0  0  0  0
 21 23  1  0  0  0  0
 23 24  1  0  0  0  0
 23 25  1  0  0  0  0
 23 26  1  0  0  0  0
M  END
$$$$

  -OEChem-04042215573D

 26 25  0     1  0  0  0  0  0999 V2000
   -2.8778   -3.9699    0.4273 H   0  0  0  0  0  0  0  0  0  0  0  0
   -2.9002   -2.9342    0.0773 C   0  0  0  0  0  0  0  0  0  0  0  0
   -3.6319   -2.3770    0.6673 H   0  0  0  0  0  0  0  0  0  0  0  0
   -3.2052   -2.9224   -0.9720 H   0  0  0  0  0  0  0  0  0  0  0  0
   -1.5294   -2.3016    0.2233 C   0  0  0  0  0  0  0  0  0  0  0  0
   -0.6068   -2.9381    0.7104 O   0  0  0  0  0  0  0  0  0  0  0  0
   -1.3230   -1.0101   -0.2116 N   0  0  0  0  0  0  0  0  0  0  0  0
   -2.1023   -0.5342   -0.6692 H   0  0  0  0  0  0  0  0  0  0  0  0
   -0.0394   -0.3000   -0.2006 C   0  0  1  0  0  0  0  0  0  0  0  0
    0.6229   -0.8198    0.4989 H   0  0  0  0  0  0  0  0  0  0  0  0
    0.6056   -0.4167   -1.5956 C   0  0  0  0  0  0  0  0  0  0  0  0
    1.6596   -0.1404   -1.5145 H   0  0  0  0  0  0  0  0  0  0  0  0
    0.5651   -1.4557   -1.9341 H   0  0  0  0  0  0  0  0  0  0  0  0
   -0.0412    0.4665   -2.6598 C   0  0  0  0  0  0  0  0  0  0  0  0
   -1.2481    0.5531   -2.7904 O   0  0  0  0  0  0  0  0  0  0  0  0
    0.7005    1.2575   -3.4899 N   0  0  0  0  0  0  0  0  0  0  0  0
    0.1720    1.9653   -3.9927 H   0  0  0  0  0  0  0  0  0  0  0  0
    1.6743    1.4233   -3.2628 H   0  0  0  0  0  0  0  0  0  0  0  0
   -0.1240    1.1496    0.3288 C   0  0  0  0  0  0  0  0  0  0  0  0
   -1.0447    1.8908    0.0170 O   0  0  0  0  0  0  0  0  0  0  0  0
    0.8227    1.6086    1.2282 N   0  0  0  0  0  0  0  0  0  0  0  0
    1.5049    0.9399    1.5738 H   0  0  0  0  0  0  0  0  0  0  0  0
    0.7455    2.9195    1.8633 C   0  0  0  0  0  0  0  0  0  0  0  0
   -0.1622    2.9973    2.4711 H   0  0  0  0  0  0  0  0  0  0  0  0
    1.6121    3.0776    2.5123 H   0  0  0  0  0  0  0  0  0  0  0  0
    0.7323    3.7122    1.1078 H   0  0  0  0  0  0  0  0  0  0  0  0
  1  2  1  0  0  0  0
  2  3  1  0  0  0  0
  2  4  1  0  0  0  0
  2  5  1  0  0  0  0
  5  6  2  0  0  0  0
  5  7  1  0  0  0  0
  7  8  1  0  0  0  0
  7  9  1  0  0  0  0
  9 10  1  0  0  0  0
  9 11  1  0  0  0  0
  9 19  1  0  0  0  0
 11 12  1  0  0  0  0
 11 13  1  0  0  0  0
 11 14  1  0  0  0  0
 14 15  2  0  0  0  0
 14 16  1  0  0  0  0
 16 17  1  0  0  0  0
 16 18  1  0  0  0  0
 19 20  2  0  0  0  0
 19 21  1  0  0  0  0
 21 22  1  0  0  0  0
 21 23  1  0  0  0  0
 23 24  1  0  0  0  0
 23 25  1  0  0  0  0
 23 26  1  0  0  0  0
M  END
$$$$

  -OEChem-04042215573D

 26 25  0     1  0  0  0  0  0999 V2000
   -2.8664   -3.9571    0.4736 H   0  0  0  0  0  0  0  0  0  0  0  0
   -2.8996   -2.9220    0.1230 C   0  0  0  0  0  0  0  0  0  0  0  0
   -3.5955   -2.3591    0.7498 H   0  0  0  0  0  0  0  0  0  0  0  0
   -3.2589   -2.9098   -0.9091 H   0  0  0  0  0  0  0  0  0  0  0  0
   -1.5183   -2.2994    0.1967 C   0  0  0  0  0  0  0  0  0  0  0  0
   -0.5707   -2.9517    0.6090 O   0  0  0  0  0  0  0  0  0  0  0  0
   -1.3310   -0.9991   -0.2200 N   0  0  0  0  0  0  0  0  0  0  0  0
   -2.1406   -0.4942   -0.5834 H   0  0  0  0  0  0  0  0  0  0  0  0
   -0.0550   -0.2754   -0.2218 C   0  0  1  0  0  0  0  0  0  0  0  0
    0.6128   -0.7942    0.4735 H   0  0  0  0  0  0  0  0  0  0  0  0
    0.5982   -0.3843   -1.6145 C   0  0  0  0  0  0  0  0  0  0  0  0
    1.6467   -0.0909   -1.5228 H   0  0  0  0  0  0  0  0  0  0  0  0
    0.5764   -1.4266   -1.9450 H   0  0  0  0  0  0  0  0  0  0  0  0
   -0.0364    0.4788   -2.7027 C   0  0  0  0  0  0  0  0  0  0  0  0
   -1.2140    0.7794   -2.7187 O   0  0  0  0  0  0  0  0  0  0  0  0
    0.7042    0.9755   -3.7370 N   0  0  0  0  0  0  0  0  0  0  0  0
    0.2443    1.6800   -4.3073 H   0  0  0  0  0  0  0  0  0  0  0  0
    1.7160    0.9415   -3.6844 H   0  0  0  0  0  0  0  0  0  0  0  0
   -0.1488    1.1644    0.3339 C   0  0  0  0  0  0  0  0  0  0  0  0
   -1.1297    1.8650    0.1305 O   0  0  0  0  0  0  0  0  0  0  0  0
    0.8109    1.6179    1.2226 N   0  0  0  0  0  0  0  0  0  0  0  0
    1.5449    0.9706    1.4941 H   0  0  0  0  0  0  0  0  0  0  0  0
    0.7133    2.8966    1.9175 C   0  0  0  0  0  0  0  0  0  0  0  0
   -0.1800    2.9222    2.5506 H   0  0  0  0  0  0  0  0  0  0  0  0
    1.5916    3.0510    2.5515 H   0  0  0  0  0  0  0  0  0  0  0  0
    0.6583    3.7202    1.1979 H   0  0  0  0  0  0  0  0  0  0  0  0
  1  2  1  0  0  0  0
  2  3  1  0  0  0  0
  2  4  1  0  0  0  0
  2  5  1  0  0  0  0
  5  6  2  0  0  0  0
  5  7  1  0  0  0  0
  7  8  1  0  0  0  0
  7  9  1  0  0  0  0
  9 10  1  0  0  0  0
  9 11  1  0  0  0  0
  9 19  1  0  0  0  0
 11 12  1  0  0  0  0
 11 13  1  0  0  0  0
 11 14  1  0  0  0  0
 14 15  2  0  0  0  0
 14 16  1  0  0  0  0
 16 17  1  0  0  0  0
 16 18  1  0  0  0  0
 19 20  2  0  0  0  0
 19 21  1  0  0  0  0
 21 22  1  0  0  0  0
 21 23  1  0  0  0  0
 23 24  1  0  0  0  0
 23 25  1  0  0  0  0
 23 26  1  0  0  0  0
M  END
$$$$

  -OEChem-04042215573D

 26 25  0     1  0  0  0  0  0999 V2000
   -2.8562   -3.9348    0.5223 H   0  0  0  0  0  0  0  0  0  0  0  0
   -2.8999   -2.8988    0.1750 C   0  0  0  0  0  0  0  0  0  0  0  0
   -3.5512   -2.3297    0.8429 H   0  0  0  0  0  0  0  0  0  0  0  0
   -3.3207   -2.8814   -0.8334 H   0  0  0  0  0  0  0  0  0  0  0  0
   -1.5104   -2.2899    0.1654 C   0  0  0  0  0  0  0  0  0  0  0  0
   -0.5437   -2.9590    0.4991 O   0  0  0  0  0  0  0  0  0  0  0  0
   -1.3374   -0.9830   -0.2370 N   0  0  0  0  0  0  0  0  0  0  0  0
   -2.1689   -0.4497   -0.4941 H   0  0  0  0  0  0  0  0  0  0  0  0
   -0.0644   -0.2537   -0.2511 C   0  0  1  0  0  0  0  0  0  0  0  0
    0.6070   -0.7731    0.4403 H   0  0  0  0  0  0  0  0  0  0  0  0
    0.5941   -0.3615   -1.6424 C   0  0  0  0  0  0  0  0  0  0  0  0
    1.6407   -0.0627   -1.5464 H   0  0  0  0  0  0  0  0  0  0  0  0
    0.5788   -1.4069   -1.9629 H   0  0  0  0  0  0  0  0  0  0  0  0
   -0.0255    0.4858   -2.7509 C   0  0  0  0  0  0  0  0  0  0  0  0
   -1.1185    1.0100   -2.6835 O   0  0  0  0  0  0  0  0  0  0  0  0
    0.6423    0.7005   -3.9226 N   0  0  0  0  0  0  0  0  0  0  0  0
    0.2370    1.3922   -4.5471 H   0  0  0  0  0  0  0  0  0  0  0  0
    1.6214    0.4482   -3.9972 H   0  0  0  0  0  0  0  0  0  0  0  0
   -0.1671    1.1768    0.3281 C   0  0  0  0  0  0  0  0  0  0  0  0
   -1.1983    1.8272    0.2278 O   0  0  0  0  0  0  0  0  0  0  0  0
    0.8022    1.6267    1.2087 N   0  0  0  0  0  0  0  0  0  0  0  0
    1.5842    1.0099    1.4066 H   0  0  0  0  0  0  0  0  0  0  0  0
    0.6790    2.8668    1.9668 C   0  0  0  0  0  0  0  0  0  0  0  0
   -0.1874    2.8229    2.6352 H   0  0  0  0  0  0  0  0  0  0  0  0
    1.5753    3.0315    2.5723 H   0  0  0  0  0  0  0  0  0  0  0  0
    0.5586    3.7191    1.2896 H   0  0  0  0  0  0  0  0  0  0  0  0
  1  2  1  0  0  0  0
  2  3  1  0  0  0  0
  2  4  1  0  0  0  0
  2  5  1  0  0  0  0
  5  6  2  0  0  0  0
  5  7  1  0  0  0  0
  7  8  1  0  0  0  0
  7  9  1  0  0  0  0
  9 10  1  0  0  0  0
  9 11  1  0  0  0  0
  9 19  1  0  0  0  0
 11 12  1  0  0  0  0
 11 13  1  0  0  0  0
 11 14  1  0  0  0  0
 14 15  2  0  0  0  0
 14 16  1  0  0  0  0
 16 17  1  0  0  0  0
 16 18  1  0  0  0  0
 19 20  2  0  0  0  0
 19 21  1  0  0  0  0
 21 22  1  0  0  0  0
 21 23  1  0  0  0  0
 23 24  1  0  0  0  0
 23 25  1  0  0  0  0
 23 26  1  0  0  0  0
M  END
$$$$

  -OEChem-04042215573D

 26 25  0     1  0  0  0  0  0999 V2000
   -2.8502   -3.9084    0.5762 H   0  0  0  0  0  0  0  0  0  0  0  0
   -2.9027   -2.8711    0.2343 C   0  0  0  0  0  0  0  0  0  0  0  0
   -3.4992   -2.2950    0.9460 H   0  0  0  0  0  0  0  0  0  0  0  0
   -3.3905   -2.8455   -0.7432 H   0  0  0  0  0  0  0  0  0  0  0  0
   -1.5084   -2.2817    0.1325 C   0  0  0  0  0  0  0  0  0  0  0  0
   -0.5304   -2.9676    0.3907 O   0  0  0  0  0  0  0  0  0  0  0  0
   -1.3450   -0.9705   -0.2604 N   0  0  0  0  0  0  0  0  0  0  0  0
   -2.1860   -0.4121   -0.4113 H   0  0  0  0  0  0  0  0  0  0  0  0
   -0.0710   -0.2425   -0.2814 C   0  0  1  0  0  0  0  0  0  0  0  0
    0.6021   -0.7641    0.4069 H   0  0  0  0  0  0  0  0  0  0  0  0
    0.5904   -0.3502   -1.6720 C   0  0  0  0  0  0  0  0  0  0  0  0
    1.6373   -0.0537   -1.5738 H   0  0  0  0  0  0  0  0  0  0  0  0
    0.5736   -1.3973   -1.9867 H   0  0  0  0  0  0  0  0  0  0  0  0
   -0.0148    0.4908   -2.7930 C   0  0  0  0  0  0  0  0  0  0  0  0
   -0.9694    1.2290   -2.6691 O   0  0  0  0  0  0  0  0  0  0  0  0
    0.5234    0.4608   -4.0476 N   0  0  0  0  0  0  0  0  0  0  0  0
    0.1679    1.1471   -4.7074 H   0  0  0  0  0  0  0  0  0  0  0  0
    1.4131    0.0006   -4.2050 H   0  0  0  0  0  0  0  0  0  0  0  0
   -0.1828    1.1805    0.3161 C   0  0  0  0  0  0  0  0  0  0  0  0
   -1.2458    1.7873    0.2885 O   0  0  0  0  0  0  0  0  0  0  0  0
    0.7902    1.6268    1.1948 N   0  0  0  0  0  0  0  0  0  0  0  0
    1.6042    1.0375    1.3386 H   0  0  0  0  0  0  0  0  0  0  0  0
    0.6487    2.8350    1.9998 C   0  0  0  0  0  0  0  0  0  0  0  0
   -0.1893    2.7346    2.6977 H   0  0  0  0  0  0  0  0  0  0  0  0
    1.5605    3.0144    2.5773 H   0  0  0  0  0  0  0  0  0  0  0  0
    0.4707    3.7045    1.3580 H   0  0  0  0  0  0  0  0  0  0  0  0
  1  2  1  0  0  0  0
  2  3  1  0  0  0  0
  2  4  1  0  0  0  0
  2  5  1  0  0  0  0
  5  6  2  0  0  0  0
  5  7  1  0  0  0  0
  7  8  1  0  0  0  0
  7  9  1  0  0  0  0
  9 10  1  0  0  0  0
  9 11  1  0  0  0  0
  9 19  1  0  0  0  0
 11 12  1  0  0  0  0
 11 13  1  0  0  0  0
 11 14  1  0  0  0  0
 14 15  2  0  0  0  0
 14 16  1  0  0  0  0
 16 17  1  0  0  0  0
 16 18  1  0  0  0  0
 19 20  2  0  0  0  0
 19 21  1  0  0  0  0
 21 22  1  0  0  0  0
 21 23  1  0  0  0  0
 23 24  1  0  0  0  0
 23 25  1  0  0  0  0
 23 26  1  0  0  0  0
M  END
$$$$

  -OEChem-04042215573D

 26 25  0     1  0  0  0  0  0999 V2000
   -2.8446   -3.8819    0.5412 H   0  0  0  0  0  0  0  0  0  0  0  0
   -2.8951   -2.8362    0.2255 C   0  0  0  0  0  0  0  0  0  0  0  0
   -3.4563   -2.2691    0.9723 H   0  0  0  0  0  0  0  0  0  0  0  0
   -3.4186   -2.7812   -0.7319 H   0  0  0  0  0  0  0  0  0  0  0  0
   -1.4976   -2.2634    0.0843 C   0  0  0  0  0  0  0  0  0  0  0  0
   -0.5203   -2.9679    0.2887 O   0  0  0  0  0  0  0  0  0  0  0  0
   -1.3313   -0.9475   -0.2914 N   0  0  0  0  0  0  0  0  0  0  0  0
   -2.1700   -0.3696   -0.3592 H   0  0  0  0  0  0  0  0  0  0  0  0
   -0.0526   -0.2261   -0.2915 C   0  0  1  0  0  0  0  0  0  0  0  0
    0.6104   -0.7561    0.4004 H   0  0  0  0  0  0  0  0  0  0  0  0
    0.6275   -0.3231   -1.6741 C   0  0  0  0  0  0  0  0  0  0  0  0
    1.6749   -0.0327   -1.5610 H   0  0  0  0  0  0  0  0  0  0  0  0
    0.6111   -1.3687   -1.9931 H   0  0  0  0  0  0  0  0  0  0  0  0
    0.0484    0.5298   -2.7990 C   0  0  0  0  0  0  0  0  0  0  0  0
   -0.7206    1.4546   -2.6448 O   0  0  0  0  0  0  0  0  0  0  0  0
    0.3937    0.2873   -4.0978 N   0  0  0  0  0  0  0  0  0  0  0  0
   -0.1536    0.7800   -4.7979 H   0  0  0  0  0  0  0  0  0  0  0  0
    0.8543   -0.5857   -4.3305 H   0  0  0  0  0  0  0  0  0  0  0  0
   -0.1806    1.1866    0.3265 C   0  0  0  0  0  0  0  0  0  0  0  0
   -1.2629    1.7610    0.3255 O   0  0  0  0  0  0  0  0  0  0  0  0
    0.7777    1.6251    1.2247 N   0  0  0  0  0  0  0  0  0  0  0  0
    1.6233    1.0722    1.3238 H   0  0  0  0  0  0  0  0  0  0  0  0
    0.6205    2.8212    2.0443 C   0  0  0  0  0  0  0  0  0  0  0  0
   -0.2236    2.7058    2.7324 H   0  0  0  0  0  0  0  0  0  0  0  0
    1.5255    2.9984    2.6334 H   0  0  0  0  0  0  0  0  0  0  0  0
    0.4428    3.6976    1.4120 H   0  0  0  0  0  0  0  0  0  0  0  0
  1  2  1  0  0  0  0
  2  3  1  0  0  0  0
  2  4  1  0  0  0  0
  2  5  1  0  0  0  0
  5  6  2  0  0  0  0
  5  7  1  0  0  0  0
  7  8  1  0  0  0  0
  7  9  1  0  0  0  0
  9 10  1  0  0  0  0
  9 11  1  0  0  0  0
  9 19  1  0  0  0  0
 11 12  1  0  0  0  0
 11 13  1  0  0  0  0
 11 14  1  0  0  0  0
 14 15  2  0  0  0  0
 14 16  1  0  0  0  0
 16 17  1  0  0  0  0
 16 18  1  0  0  0  0
 19 20  2  0  0  0  0
 19 21  1  0  0  0  0
 21 22  1  0  0  0  0
 21 23  1  0  0  0  0
 23 24  1  0  0  0  0
 23 25  1  0  0  0  0
 23 26  1  0  0  0  0
M  END
$$$$

  -OEChem-04042215573D

 26 25  0     1  0  0  0  0  0999 V2000
   -2.8590   -3.8661    0.5640 H   0  0  0  0  0  0  0  0  0  0  0  0
   -2.9032   -2.8218    0.2424 C   0  0  0  0  0  0  0  0  0  0  0  0
   -3.4427   -2.2433    0.9964 H   0  0  0  0  0  0  0  0  0  0  0  0
   -3.4449   -2.7664   -0.7050 H   0  0  0  0  0  0  0  0  0  0  0  0
   -1.5018   -2.2672    0.0700 C   0  0  0  0  0  0  0  0  0  0  0  0
   -0.5296   -2.9850    0.2497 O   0  0  0  0  0  0  0  0  0  0  0  0
   -1.3262   -0.9525   -0.3059 N   0  0  0  0  0  0  0  0  0  0  0  0
   -2.1585   -0.3620   -0.3354 H   0  0  0  0  0  0  0  0  0  0  0  0
   -0.0403   -0.2429   -0.2956 C   0  0  1  0  0  0  0  0  0  0  0  0
    0.6171   -0.7765    0.3989 H   0  0  0  0  0  0  0  0  0  0  0  0
    0.6414   -0.3404   -1.6774 C   0  0  0  0  0  0  0  0  0  0  0  0
    1.6920   -0.0619   -1.5640 H   0  0  0  0  0  0  0  0  0  0  0  0
    0.6152   -1.3849   -1.9998 H   0  0  0  0  0  0  0  0  0  0  0  0
    0.0711    0.5260   -2.7960 C   0  0  0  0  0  0  0  0  0  0  0  0
   -0.4684    1.5990   -2.6281 O   0  0  0  0  0  0  0  0  0  0  0  0
    0.1525    0.1248   -4.0988 N   0  0  0  0  0  0  0  0  0  0  0  0
   -0.3961    0.6670   -4.7604 H   0  0  0  0  0  0  0  0  0  0  0  0
    0.3888   -0.8406   -4.3014 H   0  0  0  0  0  0  0  0  0  0  0  0
   -0.1770    1.1687    0.3236 C   0  0  0  0  0  0  0  0  0  0  0  0
   -1.2658    1.7322    0.3140 O   0  0  0  0  0  0  0  0  0  0  0  0
    0.7673    1.6100    1.2348 N   0  0  0  0  0  0  0  0  0  0  0  0
    1.6291    1.0801    1.3187 H   0  0  0  0  0  0  0  0  0  0  0  0
    0.6071    2.8223    2.0297 C   0  0  0  0  0  0  0  0  0  0  0  0
   -0.2534    2.7297    2.7005 H   0  0  0  0  0  0  0  0  0  0  0  0
    1.5006    2.9986    2.6361 H   0  0  0  0  0  0  0  0  0  0  0  0
    0.4547    3.6896    1.3786 H   0  0  0  0  0  0  0  0  0  0  0  0
  1  2  1  0  0  0  0
  2  3  1  0  0  0  0
  2  4  1  0  0  0  0
  2  5  1  0  0  0  0
  5  6  2  0  0  0  0
  5  7  1  0  0  0  0
  7  8  1  0  0  0  0
  7  9  1  0  0  0  0
  9 10  1  0  0  0  0
  9 11  1  0  0  0  0
  9 19  1  0  0  0  0
 11 12  1  0  0  0  0
 11 13  1  0  0  0  0
 11 14  1  0  0  0  0
 14 15  2  0  0  0  0
 14 16  1  0  0  0  0
 16 17  1  0  0  0  0
 16 18  1  0  0  0  0
 19 20  2  0  0  0  0
 19 21  1  0  0  0  0
 21 22  1  0  0  0  0
 21 23  1  0  0  0  0
 23 24  1  0  0  0  0
 23 25  1  0  0  0  0
 23 26  1  0  0  0  0
M  END
$$$$

  -OEChem-04042215573D

 26 25  0     1  0  0  0  0  0999 V2000
   -2.8765   -3.8521    0.5819 H   0  0  0  0  0  0  0  0  0  0  0  0
   -2.9093   -2.8115    0.2471 C   0  0  0  0  0  0  0  0  0  0  0  0
   -3.4396   -2.2174    0.9956 H   0  0  0  0  0  0  0  0  0  0  0  0
   -3.4535   -2.7619   -0.6991 H   0  0  0  0  0  0  0  0  0  0  0  0
   -1.5020   -2.2754    0.0638 C   0  0  0  0  0  0  0  0  0  0  0  0
   -0.5384   -3.0051    0.2400 O   0  0  0  0  0  0  0  0  0  0  0  0
   -1.3115   -0.9651   -0.3204 N   0  0  0  0  0  0  0  0  0  0  0  0
   -2.1360   -0.3630   -0.3315 H   0  0  0  0  0  0  0  0  0  0  0  0
   -0.0175   -0.2696   -0.2942 C   0  0  1  0  0  0  0  0  0  0  0  0
    0.6311   -0.8043    0.4076 H   0  0  0  0  0  0  0  0  0  0  0  0
    0.6690   -0.3667   -1.6729 C   0  0  0  0  0  0  0  0  0  0  0  0
    1.7217   -0.0972   -1.5562 H   0  0  0  0  0  0  0  0  0  0  0  0
    0.6374   -1.4080   -2.0046 H   0  0  0  0  0  0  0  0  0  0  0  0
    0.1046    0.5197   -2.7776 C   0  0  0  0  0  0  0  0  0  0  0  0
   -0.1785    1.6897   -2.6238 O   0  0  0  0  0  0  0  0  0  0  0  0
   -0.1441    0.0219   -4.0248 N   0  0  0  0  0  0  0  0  0  0  0  0
   -0.6921    0.6220   -4.6347 H   0  0  0  0  0  0  0  0  0  0  0  0
   -0.1558   -0.9837   -4.1553 H   0  0  0  0  0  0  0  0  0  0  0  0
   -0.1656    1.1453    0.3141 C   0  0  0  0  0  0  0  0  0  0  0  0
   -1.2546    1.7077    0.2683 O   0  0  0  0  0  0  0  0  0  0  0  0
    0.7571    1.5955    1.2427 N   0  0  0  0  0  0  0  0  0  0  0  0
    1.6309    1.0856    1.3272 H   0  0  0  0  0  0  0  0  0  0  0  0
    0.5891    2.8311    1.9991 C   0  0  0  0  0  0  0  0  0  0  0  0
   -0.3033    2.7754    2.6314 H   0  0  0  0  0  0  0  0  0  0  0  0
    1.4573    3.0027    2.6426 H   0  0  0  0  0  0  0  0  0  0  0  0
    0.4873    3.6843    1.3200 H   0  0  0  0  0  0  0  0  0  0  0  0
  1  2  1  0  0  0  0
  2  3  1  0  0  0  0
  2  4  1  0  0  0  0
  2  5  1  0  0  0  0
  5  6  2  0  0  0  0
  5  7  1  0  0  0  0
  7  8  1  0  0  0  0
  7  9  1  0  0  0  0
  9 10  1  0  0  0  0
  9 11  1  0  0  0  0
  9 19  1  0  0  0  0
 11 12  1  0  0  0  0
 11 13  1  0  0  0  0
 11 14  1  0  0  0  0
 14 15  2  0  0  0  0
 14 16  1  0  0  0  0
 16 17  1  0  0  0  0
 16 18  1  0  0  0  0
 19 20  2  0  0  0  0
 19 21  1  0  0  0  0
 21 22  1  0  0  0  0
 21 23  1  0  0  0  0
 23 24  1  0  0  0  0
 23 25  1  0  0  0  0
 23 26  1  0  0  0  0
M  END
$$$$

  -OEChem-04042215573D

 26 25  0     1  0  0  0  0  0999 V2000
   -2.8911   -3.8527    0.5999 H   0  0  0  0  0  0  0  0  0  0  0  0
   -2.9138   -2.8187    0.2442 C   0  0  0  0  0  0  0  0  0  0  0  0
   -3.4500   -2.2075    0.9744 H   0  0  0  0  0  0  0  0  0  0  0  0
   -3.4460   -2.7850   -0.7095 H   0  0  0  0  0  0  0  0  0  0  0  0
   -1.5008   -2.2947    0.0679 C   0  0  0  0  0  0  0  0  0  0  0  0
   -0.5448   -3.0293    0.2616 O   0  0  0  0  0  0  0  0  0  0  0  0
   -1.2957   -0.9906   -0.3309 N   0  0  0  0  0  0  0  0  0  0  0  0
   -2.1150   -0.3817   -0.3494 H   0  0  0  0  0  0  0  0  0  0  0  0
    0.0042   -0.3051   -0.2881 C   0  0  1  0  0  0  0  0  0  0  0  0
    0.6457   -0.8374    0.4222 H   0  0  0  0  0  0  0  0  0  0  0  0
    0.6959   -0.3968   -1.6625 C   0  0  0  0  0  0  0  0  0  0  0  0
    1.7493   -0.1317   -1.5414 H   0  0  0  0  0  0  0  0  0  0  0  0
    0.6623   -1.4327   -2.0107 H   0  0  0  0  0  0  0  0  0  0  0  0
    0.1277    0.5130   -2.7436 C   0  0  0  0  0  0  0  0  0  0  0  0
    0.1042    1.7225   -2.6377 O   0  0  0  0  0  0  0  0  0  0  0  0
   -0.4540    0.0070   -3.8705 N   0  0  0  0  0  0  0  0  0  0  0  0
   -0.9943    0.6717   -4.4168 H   0  0  0  0  0  0  0  0  0  0  0  0
   -0.6908   -0.9788   -3.8916 H   0  0  0  0  0  0  0  0  0  0  0  0
   -0.1549    1.1168    0.2993 C   0  0  0  0  0  0  0  0  0  0  0  0
   -1.2353    1.6883    0.1946 O   0  0  0  0  0  0  0  0  0  0  0  0
    0.7442    1.5813    1.2431 N   0  0  0  0  0  0  0  0  0  0  0  0
    1.6204    1.0789    1.3468 H   0  0  0  0  0  0  0  0  0  0  0  0
    0.5764    2.8482    1.9455 C   0  0  0  0  0  0  0  0  0  0  0  0
   -0.3497    2.8437    2.5298 H   0  0  0  0  0  0  0  0  0  0  0  0
    1.4140    3.0158    2.6291 H   0  0  0  0  0  0  0  0  0  0  0  0
    0.5391    3.6788    1.2328 H   0  0  0  0  0  0  0  0  0  0  0  0
  1  2  1  0  0  0  0
  2  3  1  0  0  0  0
  2  4  1  0  0  0  0
  2  5  1  0  0  0  0
  5  6  2  0  0  0  0
  5  7  1  0  0  0  0
  7  8  1  0  0  0  0
  7  9  1  0  0  0  0
  9 10  1  0  0  0  0
  9 11  1  0  0  0  0
  9 19  1  0  0  0  0
 11 12  1  0  0  0  0
 11 13  1  0  0  0  0
 11 14  1  0  0  0  0
 14 15  2  0  0  0  0
 14 16  1  0  0  0  0
 16 17  1  0  0  0  0
 16 18  1  0  0  0  0
 19 20  2  0  0  0  0
 19 21  1  0  0  0  0
 21 22  1  0  0  0  0
 21 23  1  0  0  0  0
 23 24  1  0  0  0  0
 23 25  1  0  0  0  0
 23 26  1  0  0  0  0
M  END
$$$$

  -OEChem-04042215573D

 26 25  0     1  0  0  0  0  0999 V2000
   -2.9007   -3.8643    0.6184 H   0  0  0  0  0  0  0  0  0  0  0  0
   -2.9161   -2.8323    0.2565 C   0  0  0  0  0  0  0  0  0  0  0  0
   -3.4512   -2.2134    0.9810 H   0  0  0  0  0  0  0  0  0  0  0  0
   -3.4451   -2.8013   -0.6989 H   0  0  0  0  0  0  0  0  0  0  0  0
   -1.4997   -2.3181    0.0813 C   0  0  0  0  0  0  0  0  0  0  0  0
   -0.5487   -3.0533    0.2950 O   0  0  0  0  0  0  0  0  0  0  0  0
   -1.2859   -1.0206   -0.3347 N   0  0  0  0  0  0  0  0  0  0  0  0
   -2.1016   -0.4070   -0.3581 H   0  0  0  0  0  0  0  0  0  0  0  0
    0.0180   -0.3425   -0.2842 C   0  0  1  0  0  0  0  0  0  0  0  0
    0.6582   -0.8713    0.4300 H   0  0  0  0  0  0  0  0  0  0  0  0
    0.7093   -0.4205   -1.6577 C   0  0  0  0  0  0  0  0  0  0  0  0
    1.7643   -0.1605   -1.5372 H   0  0  0  0  0  0  0  0  0  0  0  0
    0.6697   -1.4487   -2.0273 H   0  0  0  0  0  0  0  0  0  0  0  0
    0.1278    0.5150   -2.7074 C   0  0  0  0  0  0  0  0  0  0  0  0
    0.3468    1.7104   -2.6905 O   0  0  0  0  0  0  0  0  0  0  0  0
   -0.7250    0.0706   -3.6765 N   0  0  0  0  0  0  0  0  0  0  0  0
   -1.2348    0.7965   -4.1720 H   0  0  0  0  0  0  0  0  0  0  0  0
   -1.1310   -0.8526   -3.5717 H   0  0  0  0  0  0  0  0  0  0  0  0
   -0.1495    1.0865    0.2813 C   0  0  0  0  0  0  0  0  0  0  0  0
   -1.2168    1.6690    0.1180 O   0  0  0  0  0  0  0  0  0  0  0  0
    0.7313    1.5680    1.2329 N   0  0  0  0  0  0  0  0  0  0  0  0
    1.6023    1.0635    1.3668 H   0  0  0  0  0  0  0  0  0  0  0  0
    0.5618    2.8585    1.8897 C   0  0  0  0  0  0  0  0  0  0  0  0
   -0.3800    2.8840    2.4479 H   0  0  0  0  0  0  0  0  0  0  0  0
    1.3830    3.0375    2.5905 H   0  0  0  0  0  0  0  0  0  0  0  0
    0.5547    3.6659    1.1498 H   0  0  0  0  0  0  0  0  0  0  0  0
  1  2  1  0  0  0  0
  2  3  1  0  0  0  0
  2  4  1  0  0  0  0
  2  5  1  0  0  0  0
  5  6  2  0  0  0  0
  5  7  1  0  0  0  0
  7  8  1  0  0  0  0
  7  9  1  0  0  0  0
  9 10  1  0  0  0  0
  9 11  1  0  0  0  0
  9 19  1  0  0  0  0
 11 12  1  0  0  0  0
 11 13  1  0  0  0  0
 11 14  1  0  0  0  0
 14 15  2  0  0  0  0
 14 16  1  0  0  0  0
 16 17  1  0  0  0  0
 16 18  1  0  0  0  0
 19 20  2  0  0  0  0
 19 21  1  0  0  0  0
 21 22  1  0  0  0  0
 21 23  1  0  0  0  0
 23 24  1  0  0  0  0
 23 25  1  0  0  0  0
 23 26  1  0  0  0  0
M  END
$$$$

  -OEChem-04042215573D

 26 25  0     1  0  0  0  0  0999 V2000
   -2.9006   -3.8828    0.6449 H   0  0  0  0  0  0  0  0  0  0  0  0
   -2.9159   -2.8552    0.2708 C   0  0  0  0  0  0  0  0  0  0  0  0
   -3.4539   -2.2290    0.9867 H   0  0  0  0  0  0  0  0  0  0  0  0
   -3.4421   -2.8364   -0.6865 H   0  0  0  0  0  0  0  0  0  0  0  0
   -1.4995   -2.3412    0.0939 C   0  0  0  0  0  0  0  0  0  0  0  0
   -0.5485   -3.0723    0.3197 O   0  0  0  0  0  0  0  0  0  0  0  0
   -1.2864   -1.0464   -0.3319 N   0  0  0  0  0  0  0  0  0  0  0  0
   -2.1025   -0.4335   -0.3550 H   0  0  0  0  0  0  0  0  0  0  0  0
    0.0184   -0.3690   -0.2800 C   0  0  1  0  0  0  0  0  0  0  0  0
    0.6621   -0.8968    0.4318 H   0  0  0  0  0  0  0  0  0  0  0  0
    0.7063   -0.4265   -1.6548 C   0  0  0  0  0  0  0  0  0  0  0  0
    1.7623   -0.1685   -1.5354 H   0  0  0  0  0  0  0  0  0  0  0  0
    0.6632   -1.4463   -2.0466 H   0  0  0  0  0  0  0  0  0  0  0  0
    0.1079    0.5304   -2.6745 C   0  0  0  0  0  0  0  0  0  0  0  0
    0.5275    1.6651   -2.7955 O   0  0  0  0  0  0  0  0  0  0  0  0
   -0.9455    0.1794   -3.4684 N   0  0  0  0  0  0  0  0  0  0  0  0
   -1.4124    0.9546   -3.9304 H   0  0  0  0  0  0  0  0  0  0  0  0
   -1.4728   -0.6492   -3.2166 H   0  0  0  0  0  0  0  0  0  0  0  0
   -0.1510    1.0634    0.2739 C   0  0  0  0  0  0  0  0  0  0  0  0
   -1.2016    1.6601    0.0625 O   0  0  0  0  0  0  0  0  0  0  0  0
    0.7216    1.5563    1.2266 N   0  0  0  0  0  0  0  0  0  0  0  0
    1.5832    1.0431    1.3877 H   0  0  0  0  0  0  0  0  0  0  0  0
    0.5597    2.8654    1.8479 C   0  0  0  0  0  0  0  0  0  0  0  0
   -0.3936    2.9206    2.3838 H   0  0  0  0  0  0  0  0  0  0  0  0
    1.3675    3.0476    2.5630 H   0  0  0  0  0  0  0  0  0  0  0  0
    0.5839    3.6544    1.0887 H   0  0  0  0  0  0  0  0  0  0  0  0
  1  2  1  0  0  0  0
  2  3  1  0  0  0  0
  2  4  1  0  0  0  0
  2  5  1  0  0  0  0
  5  6  2  0  0  0  0
  5  7  1  0  0  0  0
  7  8  1  0  0  0  0
  7  9  1  0  0  0  0
  9 10  1  0  0  0  0
  9 11  1  0  0  0  0
  9 19  1  0  0  0  0
 11 12  1  0  0  0  0
 11 13  1  0  0  0  0
 11 14  1  0  0  0  0
 14 15  2  0  0  0  0
 14 16  1  0  0  0  0
 16 17  1  0  0  0  0
 16 18  1  0  0  0  0
 19 20  2  0  0  0  0
 19 21  1  0  0  0  0
 21 22  1  0  0  0  0
 21 23  1  0  0  0  0
 23 24  1  0  0  0  0
 23 25  1  0  0  0  0
 23 26  1  0  0  0  0
M  END
$$$$

  -OEChem-04042215573D

 26 25  0     1  0  0  0  0  0999 V2000
   -2.8917   -3.8972    0.6699 H   0  0  0  0  0  0  0  0  0  0  0  0
   -2.9133   -2.8727    0.2879 C   0  0  0  0  0  0  0  0  0  0  0  0
   -3.4511   -2.2436    1.0014 H   0  0  0  0  0  0  0  0  0  0  0  0
   -3.4437   -2.8642   -0.6672 H   0  0  0  0  0  0  0  0  0  0  0  0
   -1.4997   -2.3542    0.1014 C   0  0  0  0  0  0  0  0  0  0  0  0
   -0.5454   -3.0817    0.3240 O   0  0  0  0  0  0  0  0  0  0  0  0
   -1.2939   -1.0577   -0.3241 N   0  0  0  0  0  0  0  0  0  0  0  0
   -2.1114   -0.4467   -0.3270 H   0  0  0  0  0  0  0  0  0  0  0  0
    0.0107   -0.3782   -0.2773 C   0  0  1  0  0  0  0  0  0  0  0  0
    0.6615   -0.9084    0.4266 H   0  0  0  0  0  0  0  0  0  0  0  0
    0.6916   -0.4162   -1.6562 C   0  0  0  0  0  0  0  0  0  0  0  0
    1.7486   -0.1605   -1.5390 H   0  0  0  0  0  0  0  0  0  0  0  0
    0.6445   -1.4297   -2.0636 H   0  0  0  0  0  0  0  0  0  0  0  0
    0.0818    0.5532   -2.6581 C   0  0  0  0  0  0  0  0  0  0  0  0
    0.6510    1.5844   -2.9600 O   0  0  0  0  0  0  0  0  0  0  0  0
   -1.1113    0.3070   -3.2735 N   0  0  0  0  0  0  0  0  0  0  0  0
   -1.5273    1.1090   -3.7382 H   0  0  0  0  0  0  0  0  0  0  0  0
   -1.7090   -0.4033   -2.8667 H   0  0  0  0  0  0  0  0  0  0  0  0
   -0.1560    1.0525    0.2793 C   0  0  0  0  0  0  0  0  0  0  0  0
   -1.1927    1.6629    0.0411 O   0  0  0  0  0  0  0  0  0  0  0  0
    0.7184    1.5485    1.2283 N   0  0  0  0  0  0  0  0  0  0  0  0
    1.5696    1.0237    1.4078 H   0  0  0  0  0  0  0  0  0  0  0  0
    0.5650    2.8644    1.8372 C   0  0  0  0  0  0  0  0  0  0  0  0
   -0.3926    2.9347    2.3638 H   0  0  0  0  0  0  0  0  0  0  0  0
    1.3681    3.0435    2.5584 H   0  0  0  0  0  0  0  0  0  0  0  0
    0.6048    3.6470    1.0721 H   0  0  0  0  0  0  0  0  0  0  0  0
  1  2  1  0  0  0  0
  2  3  1  0  0  0  0
  2  4  1  0  0  0  0
  2  5  1  0  0  0  0
  5  6  2  0  0  0  0
  5  7  1  0  0  0  0
  7  8  1  0  0  0  0
  7  9  1  0  0  0  0
  9 10  1  0  0  0  0
  9 11  1  0  0  0  0
  9 19  1  0  0  0  0
 11 12  1  0  0  0  0
 11 13  1  0  0  0  0
 11 14  1  0  0  0  0
 14 15  2  0  0  0  0
 14 16  1  0  0  0  0
 16 17  1  0  0  0  0
 16 18  1  0  0  0  0
 19 20  2  0  0  0  0
 19 21  1  0  0  0  0
 21 22  1  0  0  0  0
 21 23  1  0  0  0  0
 23 24  1  0  0  0  0
 23 25  1  0  0  0  0
 23 26  1  0  0  0  0
M  END
$$$$

  -OEChem-04042215573D

 26 25  0     1  0  0  0  0  0999 V2000
   -2.8759   -3.9166    0.6832 H   0  0  0  0  0  0  0  0  0  0  0  0
   -2.9083   -2.8916    0.3032 C   0  0  0  0  0  0  0  0  0  0  0  0
   -3.4499   -2.2683    1.0189 H   0  0  0  0  0  0  0  0  0  0  0  0
   -3.4414   -2.8866   -0.6506 H   0  0  0  0  0  0  0  0  0  0  0  0
   -1.5000   -2.3605    0.1127 C   0  0  0  0  0  0  0  0  0  0  0  0
   -0.5393   -3.0808    0.3310 O   0  0  0  0  0  0  0  0  0  0  0  0
   -1.3068   -1.0602   -0.3089 N   0  0  0  0  0  0  0  0  0  0  0  0
   -2.1272   -0.4543   -0.2845 H   0  0  0  0  0  0  0  0  0  0  0  0
   -0.0031   -0.3767   -0.2727 C   0  0  1  0  0  0  0  0  0  0  0  0
    0.6557   -0.9092    0.4220 H   0  0  0  0  0  0  0  0  0  0  0  0
    0.6713   -0.3981   -1.6564 C   0  0  0  0  0  0  0  0  0  0  0  0
    1.7290   -0.1449   -1.5398 H   0  0  0  0  0  0  0  0  0  0  0  0
    0.6210   -1.4084   -2.0712 H   0  0  0  0  0  0  0  0  0  0  0  0
    0.0614    0.5746   -2.6571 C   0  0  0  0  0  0  0  0  0  0  0  0
    0.7309    1.4580   -3.1569 O   0  0  0  0  0  0  0  0  0  0  0  0
   -1.2249    0.4649   -3.0988 N   0  0  0  0  0  0  0  0  0  0  0  0
   -1.5757    1.2819   -3.5900 H   0  0  0  0  0  0  0  0  0  0  0  0
   -1.8601   -0.0880   -2.5356 H   0  0  0  0  0  0  0  0  0  0  0  0
   -0.1637    1.0504    0.2929 C   0  0  0  0  0  0  0  0  0  0  0  0
   -1.1907    1.6727    0.0452 O   0  0  0  0  0  0  0  0  0  0  0  0
    0.7199    1.5442    1.2340 N   0  0  0  0  0  0  0  0  0  0  0  0
    1.5628    1.0080    1.4198 H   0  0  0  0  0  0  0  0  0  0  0  0
    0.5777    2.8604    1.8452 C   0  0  0  0  0  0  0  0  0  0  0  0
   -0.3784    2.9373    2.3737 H   0  0  0  0  0  0  0  0  0  0  0  0
    1.3836    3.0321    2.5654 H   0  0  0  0  0  0  0  0  0  0  0  0
    0.6225    3.6440    1.0814 H   0  0  0  0  0  0  0  0  0  0  0  0
  1  2  1  0  0  0  0
  2  3  1  0  0  0  0
  2  4  1  0  0  0  0
  2  5  1  0  0  0  0
  5  6  2  0  0  0  0
  5  7  1  0  0  0  0
  7  8  1  0  0  0  0
  7  9  1  0  0  0  0
  9 10  1  0  0  0  0
  9 11  1  0  0  0  0
  9 19  1  0  0  0  0
 11 12  1  0  0  0  0
 11 13  1  0  0  0  0
 11 14  1  0  0  0  0
 14 15  2  0  0  0  0
 14 16  1  0  0  0  0
 16 17  1  0  0  0  0
 16 18  1  0  0  0  0
 19 20  2  0  0  0  0
 19 21  1  0  0  0  0
 21 22  1  0  0  0  0
 21 23  1  0  0  0  0
 23 24  1  0  0  0  0
 23 25  1  0  0  0  0
 23 26  1  0  0  0  0
M  END
$$$$

  -OEChem-04042215573D

 26 25  0     1  0  0  0  0  0999 V2000
   -2.8553   -3.9495    0.6873 H   0  0  0  0  0  0  0  0  0  0  0  0
   -2.8967   -2.9220    0.3148 C   0  0  0  0  0  0  0  0  0  0  0  0
   -3.4461   -2.3092    1.0336 H   0  0  0  0  0  0  0  0  0  0  0  0
   -3.4270   -2.9153   -0.6407 H   0  0  0  0  0  0  0  0  0  0  0  0
   -1.4932   -2.3759    0.1315 C   0  0  0  0  0  0  0  0  0  0  0  0
   -0.5260   -3.0828    0.3650 O   0  0  0  0  0  0  0  0  0  0  0  0
   -1.3129   -1.0743   -0.2925 N   0  0  0  0  0  0  0  0  0  0  0  0
   -2.1415   -0.4813   -0.2733 H   0  0  0  0  0  0  0  0  0  0  0  0
   -0.0122   -0.3835   -0.2715 C   0  0  1  0  0  0  0  0  0  0  0  0
    0.6575   -0.9123    0.4155 H   0  0  0  0  0  0  0  0  0  0  0  0
    0.6481   -0.4036   -1.6641 C   0  0  0  0  0  0  0  0  0  0  0  0
    1.7064   -0.1509   -1.5513 H   0  0  0  0  0  0  0  0  0  0  0  0
    0.5962   -1.4177   -2.0695 H   0  0  0  0  0  0  0  0  0  0  0  0
    0.0499    0.5540   -2.6909 C   0  0  0  0  0  0  0  0  0  0  0  0
    0.7713    1.2351   -3.3938 O   0  0  0  0  0  0  0  0  0  0  0  0
   -1.2902    0.7190   -2.8856 N   0  0  0  0  0  0  0  0  0  0  0  0
   -1.5234    1.5385   -3.4384 H   0  0  0  0  0  0  0  0  0  0  0  0
   -1.8816    0.4900   -2.0946 H   0  0  0  0  0  0  0  0  0  0  0  0
   -0.1728    1.0419    0.2954 C   0  0  0  0  0  0  0  0  0  0  0  0
   -1.1975    1.6659    0.0406 O   0  0  0  0  0  0  0  0  0  0  0  0
    0.7175    1.5428    1.2260 N   0  0  0  0  0  0  0  0  0  0  0  0
    1.5503    0.9968    1.4291 H   0  0  0  0  0  0  0  0  0  0  0  0
    0.5715    2.8557    1.8432 C   0  0  0  0  0  0  0  0  0  0  0  0
   -0.3808    2.9242    2.3796 H   0  0  0  0  0  0  0  0  0  0  0  0
    1.3820    3.0305    2.5574 H   0  0  0  0  0  0  0  0  0  0  0  0
    0.6052    3.6422    1.0818 H   0  0  0  0  0  0  0  0  0  0  0  0
  1  2  1  0  0  0  0
  2  3  1  0  0  0  0
  2  4  1  0  0  0  0
  2  5  1  0  0  0  0
  5  6  2  0  0  0  0
  5  7  1  0  0  0  0
  7  8  1  0  0  0  0
  7  9  1  0  0  0  0
  9 10  1  0  0  0  0
  9 11  1  0  0  0  0
  9 19  1  0  0  0  0
 11 12  1  0  0  0  0
 11 13  1  0  0  0  0
 11 14  1  0  0  0  0
 14 15  2  0  0  0  0
 14 16  1  0  0  0  0
 16 17  1  0  0  0  0
 16 18  1  0  0  0  0
 19 20  2  0  0  0  0
 19 21  1  0  0  0  0
 21 22  1  0  0  0  0
 21 23  1  0  0  0  0
 23 24  1  0  0  0  0
 23 25  1  0  0  0  0
 23 26  1  0  0  0  0
M  END
$$$$

  -OEChem-04042215573D

 26 25  0     1  0  0  0  0  0999 V2000
   -2.8367   -3.9932    0.6369 H   0  0  0  0  0  0  0  0  0  0  0  0
   -2.8853   -2.9618    0.2764 C   0  0  0  0  0  0  0  0  0  0  0  0
   -3.4865   -2.3734    0.9738 H   0  0  0  0  0  0  0  0  0  0  0  0
   -3.3665   -2.9544   -0.7048 H   0  0  0  0  0  0  0  0  0  0  0  0
   -1.4889   -2.3780    0.1726 C   0  0  0  0  0  0  0  0  0  0  0  0
   -0.5176   -3.0572    0.4647 O   0  0  0  0  0  0  0  0  0  0  0  0
   -1.3183   -1.0737   -0.2462 N   0  0  0  0  0  0  0  0  0  0  0  0
   -2.1617   -0.5131   -0.3534 H   0  0  0  0  0  0  0  0  0  0  0  0
   -0.0279   -0.3647   -0.2463 C   0  0  1  0  0  0  0  0  0  0  0  0
    0.6583   -0.8890    0.4277 H   0  0  0  0  0  0  0  0  0  0  0  0
    0.5986   -0.4038   -1.6554 C   0  0  0  0  0  0  0  0  0  0  0  0
    1.6559   -0.1380   -1.5670 H   0  0  0  0  0  0  0  0  0  0  0  0
    0.5510   -1.4283   -2.0350 H   0  0  0  0  0  0  0  0  0  0  0  0
   -0.0145    0.5181   -2.7092 C   0  0  0  0  0  0  0  0  0  0  0  0
    0.6737    0.9623   -3.6075 O   0  0  0  0  0  0  0  0  0  0  0  0
   -1.3012    0.9729   -2.6942 N   0  0  0  0  0  0  0  0  0  0  0  0
   -1.4649    1.7231   -3.3588 H   0  0  0  0  0  0  0  0  0  0  0  0
   -1.7131    1.0705   -1.7672 H   0  0  0  0  0  0  0  0  0  0  0  0
   -0.1736    1.0604    0.3258 C   0  0  0  0  0  0  0  0  0  0  0  0
   -1.1920    1.6990    0.0813 O   0  0  0  0  0  0  0  0  0  0  0  0
    0.7402    1.5579    1.2352 N   0  0  0  0  0  0  0  0  0  0  0  0
    1.5521    0.9872    1.4550 H   0  0  0  0  0  0  0  0  0  0  0  0
    0.6061    2.8634    1.8707 C   0  0  0  0  0  0  0  0  0  0  0  0
   -0.3213    2.9147    2.4509 H   0  0  0  0  0  0  0  0  0  0  0  0
    1.4469    3.0426    2.5478 H   0  0  0  0  0  0  0  0  0  0  0  0
    0.5945    3.6574    1.1165 H   0  0  0  0  0  0  0  0  0  0  0  0
  1  2  1  0  0  0  0
  2  3  1  0  0  0  0
  2  4  1  0  0  0  0
  2  5  1  0  0  0  0
  5  6  2  0  0  0  0
  5  7  1  0  0  0  0
  7  8  1  0  0  0  0
  7  9  1  0  0  0  0
  9 10  1  0  0  0  0
  9 11  1  0  0  0  0
  9 19  1  0  0  0  0
 11 12  1  0  0  0  0
 11 13  1  0  0  0  0
 11 14  1  0  0  0  0
 14 15  2  0  0  0  0
 14 16  1  0  0  0  0
 16 17  1  0  0  0  0
 16 18  1  0  0  0  0
 19 20  2  0  0  0  0
 19 21  1  0  0  0  0
 21 22  1  0  0  0  0
 21 23  1  0  0  0  0
 23 24  1  0  0  0  0
 23 25  1  0  0  0  0
 23 26  1  0  0  0  0
M  END
$$$$

  -OEChem-04042215573D

 26 25  0     1  0  0  0  0  0999 V2000
   -2.8293   -3.9928    0.5917 H   0  0  0  0  0  0  0  0  0  0  0  0
   -2.8810   -2.9591    0.2381 C   0  0  0  0  0  0  0  0  0  0  0  0
   -3.5103   -2.3843    0.9218 H   0  0  0  0  0  0  0  0  0  0  0  0
   -3.3322   -2.9501   -0.7571 H   0  0  0  0  0  0  0  0  0  0  0  0
   -1.4902   -2.3556    0.1809 C   0  0  0  0  0  0  0  0  0  0  0  0
   -0.5182   -3.0265    0.4898 O   0  0  0  0  0  0  0  0  0  0  0  0
   -1.3254   -1.0441   -0.2175 N   0  0  0  0  0  0  0  0  0  0  0  0
   -2.1707   -0.4999   -0.3799 H   0  0  0  0  0  0  0  0  0  0  0  0
   -0.0409   -0.3263   -0.2229 C   0  0  1  0  0  0  0  0  0  0  0  0
    0.6491   -0.8579    0.4413 H   0  0  0  0  0  0  0  0  0  0  0  0
    0.5777   -0.3719   -1.6359 C   0  0  0  0  0  0  0  0  0  0  0  0
    1.6330   -0.0972   -1.5549 H   0  0  0  0  0  0  0  0  0  0  0  0
    0.5360   -1.4008   -2.0043 H   0  0  0  0  0  0  0  0  0  0  0  0
   -0.0406    0.5329   -2.7021 C   0  0  0  0  0  0  0  0  0  0  0  0
    0.5586    0.7455   -3.7380 O   0  0  0  0  0  0  0  0  0  0  0  0
   -1.2640    1.1325   -2.6152 N   0  0  0  0  0  0  0  0  0  0  0  0
   -1.4339    1.8229   -3.3401 H   0  0  0  0  0  0  0  0  0  0  0  0
   -1.5982    1.3356   -1.6724 H   0  0  0  0  0  0  0  0  0  0  0  0
   -0.1634    1.0933    0.3702 C   0  0  0  0  0  0  0  0  0  0  0  0
   -1.1716    1.7553    0.1481 O   0  0  0  0  0  0  0  0  0  0  0  0
    0.7736    1.5686    1.2681 N   0  0  0  0  0  0  0  0  0  0  0  0
    1.5710    0.9757    1.4824 H   0  0  0  0  0  0  0  0  0  0  0  0
    0.6644    2.8636    1.9301 C   0  0  0  0  0  0  0  0  0  0  0  0
   -0.2478    2.9103    2.5343 H   0  0  0  0  0  0  0  0  0  0  0  0
    1.5231    3.0249    2.5889 H   0  0  0  0  0  0  0  0  0  0  0  0
    0.6404    3.6716    1.1912 H   0  0  0  0  0  0  0  0  0  0  0  0
  1  2  1  0  0  0  0
  2  3  1  0  0  0  0
  2  4  1  0  0  0  0
  2  5  1  0  0  0  0
  5  6  2  0  0  0  0
  5  7  1  0  0  0  0
  7  8  1  0  0  0  0
  7  9  1  0  0  0  0
  9 10  1  0  0  0  0
  9 11  1  0  0  0  0
  9 19  1  0  0  0  0
 11 12  1  0  0  0  0
 11 13  1  0  0  0  0
 11 14  1  0  0  0  0
 14 15  2  0  0  0  0
 14 16  1  0  0  0  0
 16 17  1  0  0  0  0
 16 18  1  0  0  0  0
 19 20  2  0  0  0  0
 19 21  1  0  0  0  0
 21 22  1  0  0  0  0
 21 23  1  0  0  0  0
 23 24  1  0  0  0  0
 23 25  1  0  0  0  0
 23 26  1  0  0  0  0
M  END
$$$$

  -OEChem-04042215573D

 26 25  0     1  0  0  0  0  0999 V2000
   -2.8287   -3.9530    0.5728 H   0  0  0  0  0  0  0  0  0  0  0  0
   -2.8820   -2.9178    0.2239 C   0  0  0  0  0  0  0  0  0  0  0  0
   -3.5377   -2.3545    0.8924 H   0  0  0  0  0  0  0  0  0  0  0  0
   -3.3041   -2.9072   -0.7841 H   0  0  0  0  0  0  0  0  0  0  0  0
   -1.4971   -2.2984    0.2107 C   0  0  0  0  0  0  0  0  0  0  0  0
   -0.5273   -2.9608    0.5441 O   0  0  0  0  0  0  0  0  0  0  0  0
   -1.3361   -0.9828   -0.1758 N   0  0  0  0  0  0  0  0  0  0  0  0
   -2.1806   -0.4492   -0.3755 H   0  0  0  0  0  0  0  0  0  0  0  0
   -0.0581   -0.2552   -0.1761 C   0  0  1  0  0  0  0  0  0  0  0  0
    0.6079   -0.7853    0.5133 H   0  0  0  0  0  0  0  0  0  0  0  0
    0.6104   -0.3653   -1.5672 C   0  0  0  0  0  0  0  0  0  0  0  0
    1.6925   -0.3252   -1.4170 H   0  0  0  0  0  0  0  0  0  0  0  0
    0.3826   -1.3464   -1.9940 H   0  0  0  0  0  0  0  0  0  0  0  0
    0.2891    0.6927   -2.6249 C   0  0  0  0  0  0  0  0  0  0  0  0
    0.8112    0.6161   -3.7200 O   0  0  0  0  0  0  0  0  0  0  0  0
   -0.7185    1.6114   -2.5553 N   0  0  0  0  0  0  0  0  0  0  0  0
   -1.1113    1.8475   -1.6427 H   0  0  0  0  0  0  0  0  0  0  0  0
   -0.7556    2.2887   -3.3105 H   0  0  0  0  0  0  0  0  0  0  0  0
   -0.1601    1.1632    0.4234 C   0  0  0  0  0  0  0  0  0  0  0  0
   -1.1580    1.8442    0.2159 O   0  0  0  0  0  0  0  0  0  0  0  0
    0.7925    1.6194    1.3149 N   0  0  0  0  0  0  0  0  0  0  0  0
    1.5735    1.0055    1.5307 H   0  0  0  0  0  0  0  0  0  0  0  0
    0.7050    2.9065    1.9951 C   0  0  0  0  0  0  0  0  0  0  0  0
   -0.2073    2.9615    2.5985 H   0  0  0  0  0  0  0  0  0  0  0  0
    1.5652    3.0427    2.6577 H   0  0  0  0  0  0  0  0  0  0  0  0
    0.6967    3.7250    1.2675 H   0  0  0  0  0  0  0  0  0  0  0  0
  1  2  1  0  0  0  0
  2  3  1  0  0  0  0
  2  4  1  0  0  0  0
  2  5  1  0  0  0  0
  5  6  2  0  0  0  0
  5  7  1  0  0  0  0
  7  8  1  0  0  0  0
  7  9  1  0  0  0  0
  9 10  1  0  0  0  0
  9 11  1  0  0  0  0
  9 19  1  0  0  0  0
 11 12  1  0  0  0  0
 11 13  1  0  0  0  0
 11 14  1  0  0  0  0
 14 15  2  0  0  0  0
 14 16  1  0  0  0  0
 16 17  1  0  0  0  0
 16 18  1  0  0  0  0
 19 20  2  0  0  0  0
 19 21  1  0  0  0  0
 21 22  1  0  0  0  0
 21 23  1  0  0  0  0
 23 24  1  0  0  0  0
 23 25  1  0  0  0  0
 23 26  1  0  0  0  0
M  END
$$$$

  -OEChem-04042215573D

 26 25  0     1  0  0  0  0  0999 V2000
   -2.8772   -3.9265    0.5161 H   0  0  0  0  0  0  0  0  0  0  0  0
   -2.9169   -2.8852    0.1842 C   0  0  0  0  0  0  0  0  0  0  0  0
   -3.5424   -2.3185    0.8781 H   0  0  0  0  0  0  0  0  0  0  0  0
   -3.3652   -2.8501   -0.8118 H   0  0  0  0  0  0  0  0  0  0  0  0
   -1.5196   -2.2953    0.1445 C   0  0  0  0  0  0  0  0  0  0  0  0
   -0.5546   -2.9866    0.4294 O   0  0  0  0  0  0  0  0  0  0  0  0
   -1.3419   -0.9714   -0.2046 N   0  0  0  0  0  0  0  0  0  0  0  0
   -2.1809   -0.4107   -0.3451 H   0  0  0  0  0  0  0  0  0  0  0  0
   -0.0520   -0.2652   -0.1928 C   0  0  1  0  0  0  0  0  0  0  0  0
    0.6128   -0.8227    0.4759 H   0  0  0  0  0  0  0  0  0  0  0  0
    0.5962   -0.3532   -1.5968 C   0  0  0  0  0  0  0  0  0  0  0  0
    1.6797   -0.3348   -1.4551 H   0  0  0  0  0  0  0  0  0  0  0  0
    0.3497   -1.3238   -2.0378 H   0  0  0  0  0  0  0  0  0  0  0  0
    0.2965    0.7261   -2.6415 C   0  0  0  0  0  0  0  0  0  0  0  0
    0.5752    0.5175   -3.8061 O   0  0  0  0  0  0  0  0  0  0  0  0
   -0.2443    1.9592   -2.4172 N   0  0  0  0  0  0  0  0  0  0  0  0
   -0.5185    2.4746   -3.2478 H   0  0  0  0  0  0  0  0  0  0  0  0
   -0.7280    2.1325   -1.5348 H   0  0  0  0  0  0  0  0  0  0  0  0
   -0.1473    1.1323    0.4521 C   0  0  0  0  0  0  0  0  0  0  0  0
   -1.1433    1.8216    0.2600 O   0  0  0  0  0  0  0  0  0  0  0  0
    0.8061    1.5596    1.3568 N   0  0  0  0  0  0  0  0  0  0  0  0
    1.5903    0.9418    1.5486 H   0  0  0  0  0  0  0  0  0  0  0  0
    0.7203    2.8267    2.0734 C   0  0  0  0  0  0  0  0  0  0  0  0
   -0.1932    2.8660    2.6763 H   0  0  0  0  0  0  0  0  0  0  0  0
    1.5796    2.9425    2.7412 H   0  0  0  0  0  0  0  0  0  0  0  0
    0.7148    3.6654    1.3694 H   0  0  0  0  0  0  0  0  0  0  0  0
  1  2  1  0  0  0  0
  2  3  1  0  0  0  0
  2  4  1  0  0  0  0
  2  5  1  0  0  0  0
  5  6  2  0  0  0  0
  5  7  1  0  0  0  0
  7  8  1  0  0  0  0
  7  9  1  0  0  0  0
  9 10  1  0  0  0  0
  9 11  1  0  0  0  0
  9 19  1  0  0  0  0
 11 12  1  0  0  0  0
 11 13  1  0  0  0  0
 11 14  1  0  0  0  0
 14 15  2  0  0  0  0
 14 16  1  0  0  0  0
 16 17  1  0  0  0  0
 16 18  1  0  0  0  0
 19 20  2  0  0  0  0
 19 21  1  0  0  0  0
 21 22  1  0  0  0  0
 21 23  1  0  0  0  0
 23 24  1  0  0  0  0
 23 25  1  0  0  0  0
 23 26  1  0  0  0  0
M  END
$$$$

  -OEChem-04042215573D

 26 25  0     1  0  0  0  0  0999 V2000
   -2.8421   -3.9750    0.4445 H   0  0  0  0  0  0  0  0  0  0  0  0
   -2.8892   -2.9279    0.1321 C   0  0  0  0  0  0  0  0  0  0  0  0
   -3.5489   -2.3863    0.8144 H   0  0  0  0  0  0  0  0  0  0  0  0
   -3.3025   -2.8801   -0.8784 H   0  0  0  0  0  0  0  0  0  0  0  0
   -1.5024   -2.3132    0.1520 C   0  0  0  0  0  0  0  0  0  0  0  0
   -0.5383   -2.9865    0.4801 O   0  0  0  0  0  0  0  0  0  0  0  0
   -1.3335   -0.9878   -0.1956 N   0  0  0  0  0  0  0  0  0  0  0  0
   -2.1732   -0.4468   -0.3956 H   0  0  0  0  0  0  0  0  0  0  0  0
   -0.0508   -0.2695   -0.1818 C   0  0  1  0  0  0  0  0  0  0  0  0
    0.6247   -0.8233    0.4788 H   0  0  0  0  0  0  0  0  0  0  0  0
    0.5827   -0.3416   -1.5935 C   0  0  0  0  0  0  0  0  0  0  0  0
    1.6678   -0.3113   -1.4661 H   0  0  0  0  0  0  0  0  0  0  0  0
    0.3429   -1.3110   -2.0413 H   0  0  0  0  0  0  0  0  0  0  0  0
    0.2525    0.7509   -2.6157 C   0  0  0  0  0  0  0  0  0  0  0  0
    0.2506    0.4796   -3.8007 O   0  0  0  0  0  0  0  0  0  0  0  0
    0.0819    2.0804   -2.3559 N   0  0  0  0  0  0  0  0  0  0  0  0
   -0.2341    2.6191   -3.1565 H   0  0  0  0  0  0  0  0  0  0  0  0
   -0.2794    2.3304   -1.4350 H   0  0  0  0  0  0  0  0  0  0  0  0
   -0.1555    1.1264    0.4626 C   0  0  0  0  0  0  0  0  0  0  0  0
   -1.1156    1.8457    0.2130 O   0  0  0  0  0  0  0  0  0  0  0  0
    0.7951    1.5589    1.3677 N   0  0  0  0  0  0  0  0  0  0  0  0
    1.5497    0.9200    1.6047 H   0  0  0  0  0  0  0  0  0  0  0  0
    0.7179    2.8393    2.0616 C   0  0  0  0  0  0  0  0  0  0  0  0
   -0.1996    2.8993    2.6566 H   0  0  0  0  0  0  0  0  0  0  0  0
    1.5734    2.9566    2.7339 H   0  0  0  0  0  0  0  0  0  0  0  0
    0.7275    3.6662    1.3437 H   0  0  0  0  0  0  0  0  0  0  0  0
  1  2  1  0  0  0  0
  2  3  1  0  0  0  0
  2  4  1  0  0  0  0
  2  5  1  0  0  0  0
  5  6  2  0  0  0  0
  5  7  1  0  0  0  0
  7  8  1  0  0  0  0
  7  9  1  0  0  0  0
  9 10  1  0  0  0  0
  9 11  1  0  0  0  0
  9 19  1  0  0  0  0
 11 12  1  0  0  0  0
 11 13  1  0  0  0  0
 11 14  1  0  0  0  0
 14 15  2  0  0  0  0
 14 16  1  0  0  0  0
 16 17  1  0  0  0  0
 16 18  1  0  0  0  0
 19 20  2  0  0  0  0
 19 21  1  0  0  0  0
 21 22  1  0  0  0  0
 21 23  1  0  0  0  0
 23 24  1  0  0  0  0
 23 25  1  0  0  0  0
 23 26  1  0  0  0  0
M  END
$$$$

  -OEChem-04042215573D

 26 25  0     1  0  0  0  0  0999 V2000
   -2.8547   -3.9749    0.4268 H   0  0  0  0  0  0  0  0  0  0  0  0
   -2.8909   -2.9316    0.1010 C   0  0  0  0  0  0  0  0  0  0  0  0
   -3.5767   -2.3829    0.7510 H   0  0  0  0  0  0  0  0  0  0  0  0
   -3.2653   -2.8962   -0.9250 H   0  0  0  0  0  0  0  0  0  0  0  0
   -1.5073   -2.3132    0.1677 C   0  0  0  0  0  0  0  0  0  0  0  0
   -0.5560   -2.9778    0.5473 O   0  0  0  0  0  0  0  0  0  0  0  0
   -1.3276   -0.9936   -0.1947 N   0  0  0  0  0  0  0  0  0  0  0  0
   -2.1555   -0.4659   -0.4668 H   0  0  0  0  0  0  0  0  0  0  0  0
   -0.0435   -0.2794   -0.1741 C   0  0  1  0  0  0  0  0  0  0  0  0
    0.6293   -0.8303    0.4916 H   0  0  0  0  0  0  0  0  0  0  0  0
    0.5872   -0.3546   -1.5856 C   0  0  0  0  0  0  0  0  0  0  0  0
    1.6734   -0.3278   -1.4674 H   0  0  0  0  0  0  0  0  0  0  0  0
    0.3414   -1.3196   -2.0399 H   0  0  0  0  0  0  0  0  0  0  0  0
    0.2385    0.7546   -2.5810 C   0  0  0  0  0  0  0  0  0  0  0  0
   -0.0502    0.4716   -3.7277 O   0  0  0  0  0  0  0  0  0  0  0  0
    0.3795    2.0934   -2.3523 N   0  0  0  0  0  0  0  0  0  0  0  0
    0.0195    2.6667   -3.1094 H   0  0  0  0  0  0  0  0  0  0  0  0
    0.1947    2.4044   -1.4000 H   0  0  0  0  0  0  0  0  0  0  0  0
   -0.1461    1.1257    0.4496 C   0  0  0  0  0  0  0  0  0  0  0  0
   -1.0633    1.8737    0.1367 O   0  0  0  0  0  0  0  0  0  0  0  0
    0.7977    1.5632    1.3597 N   0  0  0  0  0  0  0  0  0  0  0  0
    1.5161    0.9047    1.6500 H   0  0  0  0  0  0  0  0  0  0  0  0
    0.7321    2.8619    2.0201 C   0  0  0  0  0  0  0  0  0  0  0  0
   -0.1978    2.9561    2.5907 H   0  0  0  0  0  0  0  0  0  0  0  0
    1.5735    2.9774    2.7101 H   0  0  0  0  0  0  0  0  0  0  0  0
    0.7773    3.6703    1.2830 H   0  0  0  0  0  0  0  0  0  0  0  0
  1  2  1  0  0  0  0
  2  3  1  0  0  0  0
  2  4  1  0  0  0  0
  2  5  1  0  0  0  0
  5  6  2  0  0  0  0
  5  7  1  0  0  0  0
  7  8  1  0  0  0  0
  7  9  1  0  0  0  0
  9 10  1  0  0  0  0
  9 11  1  0  0  0  0
  9 19  1  0  0  0  0
 11 12  1  0  0  0  0
 11 13  1  0  0  0  0
 11 14  1  0  0  0  0
 14 15  2  0  0  0  0
 14 16  1  0  0  0  0
 16 17  1  0  0  0  0
 16 18  1  0  0  0  0
 19 20  2  0  0  0  0
 19 21  1  0  0  0  0
 21 22  1  0  0  0  0
 21 23  1  0  0  0  0
 23 24  1  0  0  0  0
 23 25  1  0  0  0  0
 23 26  1  0  0  0  0
M  END
$$$$

  -OEChem-04042215573D

 26 25  0     1  0  0  0  0  0999 V2000
   -2.8693   -3.9588    0.4341 H   0  0  0  0  0  0  0  0  0  0  0  0
   -2.8951   -2.9191    0.0961 C   0  0  0  0  0  0  0  0  0  0  0  0
   -3.5901   -2.3599    0.7272 H   0  0  0  0  0  0  0  0  0  0  0  0
   -3.2512   -2.8938   -0.9369 H   0  0  0  0  0  0  0  0  0  0  0  0
   -1.5105   -2.3052    0.1814 C   0  0  0  0  0  0  0  0  0  0  0  0
   -0.5706   -2.9646    0.5978 O   0  0  0  0  0  0  0  0  0  0  0  0
   -1.3163   -0.9950   -0.2057 N   0  0  0  0  0  0  0  0  0  0  0  0
   -2.1321   -0.4745   -0.5254 H   0  0  0  0  0  0  0  0  0  0  0  0
   -0.0276   -0.2896   -0.1853 C   0  0  1  0  0  0  0  0  0  0  0  0
    0.6421   -0.8342    0.4886 H   0  0  0  0  0  0  0  0  0  0  0  0
    0.6004   -0.3744   -1.5952 C   0  0  0  0  0  0  0  0  0  0  0  0
    1.6877   -0.3558   -1.4879 H   0  0  0  0  0  0  0  0  0  0  0  0
    0.3428   -1.3332   -2.0556 H   0  0  0  0  0  0  0  0  0  0  0  0
    0.2344    0.7515   -2.5605 C   0  0  0  0  0  0  0  0  0  0  0  0
   -0.3291    0.5049   -3.6094 O   0  0  0  0  0  0  0  0  0  0  0  0
    0.6487    2.0451   -2.4139 N   0  0  0  0  0  0  0  0  0  0  0  0
    0.2243    2.6805   -3.0834 H   0  0  0  0  0  0  0  0  0  0  0  0
    0.7706    2.3750   -1.4612 H   0  0  0  0  0  0  0  0  0  0  0  0
   -0.1305    1.1291    0.4089 C   0  0  0  0  0  0  0  0  0  0  0  0
   -1.0381    1.8772    0.0727 O   0  0  0  0  0  0  0  0  0  0  0  0
    0.8069    1.5765    1.3213 N   0  0  0  0  0  0  0  0  0  0  0  0
    1.4930    0.9052    1.6572 H   0  0  0  0  0  0  0  0  0  0  0  0
    0.7203    2.8739    1.9831 C   0  0  0  0  0  0  0  0  0  0  0  0
   -0.2095    2.9509    2.5569 H   0  0  0  0  0  0  0  0  0  0  0  0
    1.5617    3.0047    2.6704 H   0  0  0  0  0  0  0  0  0  0  0  0
    0.7483    3.6841    1.2470 H   0  0  0  0  0  0  0  0  0  0  0  0
  1  2  1  0  0  0  0
  2  3  1  0  0  0  0
  2  4  1  0  0  0  0
  2  5  1  0  0  0  0
  5  6  2  0  0  0  0
  5  7  1  0  0  0  0
  7  8  1  0  0  0  0
  7  9  1  0  0  0  0
  9 10  1  0  0  0  0
  9 11  1  0  0  0  0
  9 19  1  0  0  0  0
 11 12  1  0  0  0  0
 11 13  1  0  0  0  0
 11 14  1  0  0  0  0
 14 15  2  0  0  0  0
 14 16  1  0  0  0  0
 16 17  1  0  0  0  0
 16 18  1  0  0  0  0
 19 20  2  0  0  0  0
 19 21  1  0  0  0  0
 21 22  1  0  0  0  0
 21 23  1  0  0  0  0
 23 24  1  0  0  0  0
 23 25  1  0  0  0  0
 23 26  1  0  0  0  0
M  END
$$$$

  -OEChem-04042215573D

 26 25  0     1  0  0  0  0  0999 V2000
   -2.8822   -3.9419    0.4360 H   0  0  0  0  0  0  0  0  0  0  0  0
   -2.8998   -2.9043    0.0909 C   0  0  0  0  0  0  0  0  0  0  0  0
   -3.6015   -2.3386    0.7087 H   0  0  0  0  0  0  0  0  0  0  0  0
   -3.2412   -2.8840   -0.9470 H   0  0  0  0  0  0  0  0  0  0  0  0
   -1.5136   -2.2959    0.1907 C   0  0  0  0  0  0  0  0  0  0  0  0
   -0.5848   -2.9536    0.6341 O   0  0  0  0  0  0  0  0  0  0  0  0
   -1.3043   -0.9948   -0.2178 N   0  0  0  0  0  0  0  0  0  0  0  0
   -2.1082   -0.4789   -0.5739 H   0  0  0  0  0  0  0  0  0  0  0  0
   -0.0115   -0.2981   -0.1970 C   0  0  1  0  0  0  0  0  0  0  0  0
    0.6515   -0.8373    0.4877 H   0  0  0  0  0  0  0  0  0  0  0  0
    0.6191   -0.3979   -1.6030 C   0  0  0  0  0  0  0  0  0  0  0  0
    1.7069   -0.3894   -1.4997 H   0  0  0  0  0  0  0  0  0  0  0  0
    0.3512   -1.3526   -2.0659 H   0  0  0  0  0  0  0  0  0  0  0  0
    0.2438    0.7369   -2.5505 C   0  0  0  0  0  0  0  0  0  0  0  0
   -0.5539    0.5586   -3.4508 O   0  0  0  0  0  0  0  0  0  0  0  0
    0.8407    1.9656   -2.5157 N   0  0  0  0  0  0  0  0  0  0  0  0
    0.3718    2.6643   -3.0856 H   0  0  0  0  0  0  0  0  0  0  0  0
    1.2542    2.2575   -1.6370 H   0  0  0  0  0  0  0  0  0  0  0  0
   -0.1115    1.1331    0.3704 C   0  0  0  0  0  0  0  0  0  0  0  0
   -1.0239    1.8736    0.0309 O   0  0  0  0  0  0  0  0  0  0  0  0
    0.8212    1.5887    1.2843 N   0  0  0  0  0  0  0  0  0  0  0  0
    1.4910    0.9142    1.6454 H   0  0  0  0  0  0  0  0  0  0  0  0
    0.7166    2.8856    1.9442 C   0  0  0  0  0  0  0  0  0  0  0  0
   -0.2162    2.9513    2.5145 H   0  0  0  0  0  0  0  0  0  0  0  0
    1.5543    3.0280    2.6339 H   0  0  0  0  0  0  0  0  0  0  0  0
    0.7357    3.6952    1.2070 H   0  0  0  0  0  0  0  0  0  0  0  0
  1  2  1  0  0  0  0
  2  3  1  0  0  0  0
  2  4  1  0  0  0  0
  2  5  1  0  0  0  0
  5  6  2  0  0  0  0
  5  7  1  0  0  0  0
  7  8  1  0  0  0  0
  7  9  1  0  0  0  0
  9 10  1  0  0  0  0
  9 11  1  0  0  0  0
  9 19  1  0  0  0  0
 11 12  1  0  0  0  0
 11 13  1  0  0  0  0
 11 14  1  0  0  0  0
 14 15  2  0  0  0  0
 14 16  1  0  0  0  0
 16 17  1  0  0  0  0
 16 18  1  0  0  0  0
 19 20  2  0  0  0  0
 19 21  1  0  0  0  0
 21 22  1  0  0  0  0
 21 23  1  0  0  0  0
 23 24  1  0  0  0  0
 23 25  1  0  0  0  0
 23 26  1  0  0  0  0
M  END
$$$$

  -OEChem-04042215573D

 26 25  0     1  0  0  0  0  0999 V2000
   -2.8915   -3.9374    0.4255 H   0  0  0  0  0  0  0  0  0  0  0  0
   -2.9040   -2.9008    0.0772 C   0  0  0  0  0  0  0  0  0  0  0  0
   -3.6148   -2.3330    0.6827 H   0  0  0  0  0  0  0  0  0  0  0  0
   -3.2303   -2.8836   -0.9657 H   0  0  0  0  0  0  0  0  0  0  0  0
   -1.5200   -2.2913    0.1967 C   0  0  0  0  0  0  0  0  0  0  0  0
   -0.5999   -2.9438    0.6660 O   0  0  0  0  0  0  0  0  0  0  0  0
   -1.3019   -0.9968   -0.2266 N   0  0  0  0  0  0  0  0  0  0  0  0
   -2.0951   -0.4892   -0.6180 H   0  0  0  0  0  0  0  0  0  0  0  0
   -0.0080   -0.3031   -0.2043 C   0  0  1  0  0  0  0  0  0  0  0  0
    0.6472   -0.8364    0.4921 H   0  0  0  0  0  0  0  0  0  0  0  0
    0.6327   -0.4224   -1.6033 C   0  0  0  0  0  0  0  0  0  0  0  0
    1.7199   -0.4164   -1.4952 H   0  0  0  0  0  0  0  0  0  0  0  0
    0.3626   -1.3786   -2.0611 H   0  0  0  0  0  0  0  0  0  0  0  0
    0.2553    0.7085   -2.5521 C   0  0  0  0  0  0  0  0  0  0  0  0
   -0.7213    0.6210   -3.2713 O   0  0  0  0  0  0  0  0  0  0  0  0
    0.9750    1.8661   -2.6452 N   0  0  0  0  0  0  0  0  0  0  0  0
    0.4920    2.6166   -3.1315 H   0  0  0  0  0  0  0  0  0  0  0  0
    1.5982    2.0993   -1.8806 H   0  0  0  0  0  0  0  0  0  0  0  0
   -0.1007    1.1379    0.3425 C   0  0  0  0  0  0  0  0  0  0  0  0
   -1.0126    1.8781    0.0015 O   0  0  0  0  0  0  0  0  0  0  0  0
    0.8315    1.5966    1.2559 N   0  0  0  0  0  0  0  0  0  0  0  0
    1.4948    0.9216    1.6270 H   0  0  0  0  0  0  0  0  0  0  0  0
    0.7312    2.9004    1.9022 C   0  0  0  0  0  0  0  0  0  0  0  0
   -0.1921    2.9678    2.4873 H   0  0  0  0  0  0  0  0  0  0  0  0
    1.5798    3.0556    2.5753 H   0  0  0  0  0  0  0  0  0  0  0  0
    0.7333    3.7012    1.1552 H   0  0  0  0  0  0  0  0  0  0  0  0
  1  2  1  0  0  0  0
  2  3  1  0  0  0  0
  2  4  1  0  0  0  0
  2  5  1  0  0  0  0
  5  6  2  0  0  0  0
  5  7  1  0  0  0  0
  7  8  1  0  0  0  0
  7  9  1  0  0  0  0
  9 10  1  0  0  0  0
  9 11  1  0  0  0  0
  9 19  1  0  0  0  0
 11 12  1  0  0  0  0
 11 13  1  0  0  0  0
 11 14  1  0  0  0  0
 14 15  2  0  0  0  0
 14 16  1  0  0  0  0
 16 17  1  0  0  0  0
 16 18  1  0  0  0  0
 19 20  2  0  0  0  0
 19 21  1  0  0  0  0
 21 22  1  0  0  0  0
 21 23  1  0  0  0  0
 23 24  1  0  0  0  0
 23 25  1  0  0  0  0
 23 26  1  0  0  0  0
M  END
$$$$

  -OEChem-04042215573D

 26 25  0     1  0  0  0  0  0999 V2000
   -2.8976   -3.9380    0.4321 H   0  0  0  0  0  0  0  0  0  0  0  0
   -2.9091   -2.9028    0.0800 C   0  0  0  0  0  0  0  0  0  0  0  0
   -3.6202   -2.3327    0.6826 H   0  0  0  0  0  0  0  0  0  0  0  0
   -3.2340   -2.8889   -0.9633 H   0  0  0  0  0  0  0  0  0  0  0  0
   -1.5251   -2.2933    0.1980 C   0  0  0  0  0  0  0  0  0  0  0  0
   -0.6046   -2.9450    0.6678 O   0  0  0  0  0  0  0  0  0  0  0  0
   -1.3064   -1.0020   -0.2336 N   0  0  0  0  0  0  0  0  0  0  0  0
   -2.0975   -0.4972   -0.6336 H   0  0  0  0  0  0  0  0  0  0  0  0
   -0.0148   -0.3048   -0.2150 C   0  0  1  0  0  0  0  0  0  0  0  0
    0.6358   -0.8314    0.4908 H   0  0  0  0  0  0  0  0  0  0  0  0
    0.6377   -0.4396   -1.6068 C   0  0  0  0  0  0  0  0  0  0  0  0
    1.7240   -0.4296   -1.4888 H   0  0  0  0  0  0  0  0  0  0  0  0
    0.3727   -1.4002   -2.0580 H   0  0  0  0  0  0  0  0  0  0  0  0
    0.2591    0.6800   -2.5677 C   0  0  0  0  0  0  0  0  0  0  0  0
   -0.8380    0.7130   -3.0910 O   0  0  0  0  0  0  0  0  0  0  0  0
    1.0825    1.7403   -2.8203 N   0  0  0  0  0  0  0  0  0  0  0  0
    0.6211    2.5359   -3.2533 H   0  0  0  0  0  0  0  0  0  0  0  0
    1.8642    1.9002   -2.1955 H   0  0  0  0  0  0  0  0  0  0  0  0
   -0.1026    1.1419    0.3199 C   0  0  0  0  0  0  0  0  0  0  0  0
   -1.0269    1.8756   -0.0003 O   0  0  0  0  0  0  0  0  0  0  0  0
    0.8340    1.6026    1.2284 N   0  0  0  0  0  0  0  0  0  0  0  0
    1.5061    0.9316    1.5899 H   0  0  0  0  0  0  0  0  0  0  0  0
    0.7375    2.9085    1.8715 C   0  0  0  0  0  0  0  0  0  0  0  0
   -0.1746    2.9718    2.4742 H   0  0  0  0  0  0  0  0  0  0  0  0
    1.5983    3.0730    2.5266 H   0  0  0  0  0  0  0  0  0  0  0  0
    0.7190    3.7059    1.1210 H   0  0  0  0  0  0  0  0  0  0  0  0
  1  2  1  0  0  0  0
  2  3  1  0  0  0  0
  2  4  1  0  0  0  0
  2  5  1  0  0  0  0
  5  6  2  0  0  0  0
  5  7  1  0  0  0  0
  7  8  1  0  0  0  0
  7  9  1  0  0  0  0
  9 10  1  0  0  0  0
  9 11  1  0  0  0  0
  9 19  1  0  0  0  0
 11 12  1  0  0  0  0
 11 13  1  0  0  0  0
 11 14  1  0  0  0  0
 14 15  2  0  0  0  0
 14 16  1  0  0  0  0
 16 17  1  0  0  0  0
 16 18  1  0  0  0  0
 19 20  2  0  0  0  0
 19 21  1  0  0  0  0
 21 22  1  0  0  0  0
 21 23  1  0  0  0  0
 23 24  1  0  0  0  0
 23 25  1  0  0  0  0
 23 26  1  0  0  0  0
M  END
$$$$

  -OEChem-04042215573D

 26 25  0     1  0  0  0  0  0999 V2000
   -2.8920   -3.9402    0.4653 H   0  0  0  0  0  0  0  0  0  0  0  0
   -2.9117   -2.9067    0.1088 C   0  0  0  0  0  0  0  0  0  0  0  0
   -3.6059   -2.3329    0.7275 H   0  0  0  0  0  0  0  0  0  0  0  0
   -3.2638   -2.8972   -0.9257 H   0  0  0  0  0  0  0  0  0  0  0  0
   -1.5244   -2.2981    0.1885 C   0  0  0  0  0  0  0  0  0  0  0  0
   -0.5899   -2.9535    0.6249 O   0  0  0  0  0  0  0  0  0  0  0  0
   -1.3189   -1.0035   -0.2394 N   0  0  0  0  0  0  0  0  0  0  0  0
   -2.1224   -0.4919   -0.6051 H   0  0  0  0  0  0  0  0  0  0  0  0
   -0.0340   -0.2945   -0.2292 C   0  0  1  0  0  0  0  0  0  0  0  0
    0.6168   -0.8159    0.4801 H   0  0  0  0  0  0  0  0  0  0  0  0
    0.6320   -0.4316   -1.6145 C   0  0  0  0  0  0  0  0  0  0  0  0
    1.7162   -0.4097   -1.4817 H   0  0  0  0  0  0  0  0  0  0  0  0
    0.3821   -1.3998   -2.0578 H   0  0  0  0  0  0  0  0  0  0  0  0
    0.2558    0.6707   -2.5974 C   0  0  0  0  0  0  0  0  0  0  0  0
   -0.8966    0.8573   -2.9361 O   0  0  0  0  0  0  0  0  0  0  0  0
    1.1704    1.5663   -3.0736 N   0  0  0  0  0  0  0  0  0  0  0  0
    0.7733    2.3908   -3.5160 H   0  0  0  0  0  0  0  0  0  0  0  0
    2.0786    1.6219   -2.6274 H   0  0  0  0  0  0  0  0  0  0  0  0
   -0.1237    1.1508    0.3110 C   0  0  0  0  0  0  0  0  0  0  0  0
   -1.0826    1.8637    0.0526 O   0  0  0  0  0  0  0  0  0  0  0  0
    0.8226    1.6095    1.2109 N   0  0  0  0  0  0  0  0  0  0  0  0
    1.5267    0.9502    1.5297 H   0  0  0  0  0  0  0  0  0  0  0  0
    0.7205    2.9006    1.8818 C   0  0  0  0  0  0  0  0  0  0  0  0
   -0.1778    2.9372    2.5072 H   0  0  0  0  0  0  0  0  0  0  0  0
    1.5942    3.0661    2.5194 H   0  0  0  0  0  0  0  0  0  0  0  0
    0.6715    3.7117    1.1475 H   0  0  0  0  0  0  0  0  0  0  0  0
  1  2  1  0  0  0  0
  2  3  1  0  0  0  0
  2  4  1  0  0  0  0
  2  5  1  0  0  0  0
  5  6  2  0  0  0  0
  5  7  1  0  0  0  0
  7  8  1  0  0  0  0
  7  9  1  0  0  0  0
  9 10  1  0  0  0  0
  9 11  1  0  0  0  0
  9 19  1  0  0  0  0
 11 12  1  0  0  0  0
 11 13  1  0  0  0  0
 11 14  1  0  0  0  0
 14 15  2  0  0  0  0
 14 16  1  0  0  0  0
 16 17  1  0  0  0  0
 16 18  1  0  0  0  0
 19 20  2  0  0  0  0
 19 21  1  0  0  0  0
 21 22  1  0  0  0  0
 21 23  1  0  0  0  0
 23 24  1  0  0  0  0
 23 25  1  0  0  0  0
 23 26  1  0  0  0  0
M  END
$$$$

  -OEChem-04042215573D

 26 25  0     1  0  0  0  0  0999 V2000
   -2.8754   -3.9346    0.4981 H   0  0  0  0  0  0  0  0  0  0  0  0
   -2.9077   -2.8997    0.1463 C   0  0  0  0  0  0  0  0  0  0  0  0
   -3.5742   -2.3269    0.7957 H   0  0  0  0  0  0  0  0  0  0  0  0
   -3.3032   -2.8853   -0.8723 H   0  0  0  0  0  0  0  0  0  0  0  0
   -1.5167   -2.2943    0.1692 C   0  0  0  0  0  0  0  0  0  0  0  0
   -0.5625   -2.9602    0.5425 O   0  0  0  0  0  0  0  0  0  0  0  0
   -1.3295   -0.9924   -0.2443 N   0  0  0  0  0  0  0  0  0  0  0  0
   -2.1522   -0.4630   -0.5342 H   0  0  0  0  0  0  0  0  0  0  0  0
   -0.0513   -0.2715   -0.2452 C   0  0  1  0  0  0  0  0  0  0  0  0
    0.6038   -0.7920    0.4609 H   0  0  0  0  0  0  0  0  0  0  0  0
    0.6231   -0.4027   -1.6278 C   0  0  0  0  0  0  0  0  0  0  0  0
    1.7053   -0.3679   -1.4815 H   0  0  0  0  0  0  0  0  0  0  0  0
    0.3881   -1.3774   -2.0644 H   0  0  0  0  0  0  0  0  0  0  0  0
    0.2548    0.6820   -2.6345 C   0  0  0  0  0  0  0  0  0  0  0  0
   -0.8884    1.0529   -2.8098 O   0  0  0  0  0  0  0  0  0  0  0  0
    1.2035    1.3321   -3.3715 N   0  0  0  0  0  0  0  0  0  0  0  0
    0.8848    2.1601   -3.8675 H   0  0  0  0  0  0  0  0  0  0  0  0
    2.1824    1.2240   -3.1318 H   0  0  0  0  0  0  0  0  0  0  0  0
   -0.1513    1.1656    0.3168 C   0  0  0  0  0  0  0  0  0  0  0  0
   -1.1608    1.8368    0.1554 O   0  0  0  0  0  0  0  0  0  0  0  0
    0.8050    1.6210    1.2082 N   0  0  0  0  0  0  0  0  0  0  0  0
    1.5570    0.9861    1.4582 H   0  0  0  0  0  0  0  0  0  0  0  0
    0.6835    2.8814    1.9326 C   0  0  0  0  0  0  0  0  0  0  0  0
   -0.1883    2.8599    2.5950 H   0  0  0  0  0  0  0  0  0  0  0  0
    1.5766    3.0569    2.5400 H   0  0  0  0  0  0  0  0  0  0  0  0
    0.5734    3.7170    1.2331 H   0  0  0  0  0  0  0  0  0  0  0  0
  1  2  1  0  0  0  0
  2  3  1  0  0  0  0
  2  4  1  0  0  0  0
  2  5  1  0  0  0  0
  5  6  2  0  0  0  0
  5  7  1  0  0  0  0
  7  8  1  0  0  0  0
  7  9  1  0  0  0  0
  9 10  1  0  0  0  0
  9 11  1  0  0  0  0
  9 19  1  0  0  0  0
 11 12  1  0  0  0  0
 11 13  1  0  0  0  0
 11 14  1  0  0  0  0
 14 15  2  0  0  0  0
 14 16  1  0  0  0  0
 16 17  1  0  0  0  0
 16 18  1  0  0  0  0
 19 20  2  0  0  0  0
 19 21  1  0  0  0  0
 21 22  1  0  0  0  0
 21 23  1  0  0  0  0
 23 24  1  0  0  0  0
 23 25  1  0  0  0  0
 23 26  1  0  0  0  0
M  END
$$$$

  -OEChem-04042215573D

 26 25  0     1  0  0  0  0  0999 V2000
   -2.8538   -3.9183    0.5318 H   0  0  0  0  0  0  0  0  0  0  0  0
   -2.8990   -2.8809    0.1890 C   0  0  0  0  0  0  0  0  0  0  0  0
   -3.5251   -2.3086    0.8780 H   0  0  0  0  0  0  0  0  0  0  0  0
   -3.3499   -2.8575   -0.8062 H   0  0  0  0  0  0  0  0  0  0  0  0
   -1.5054   -2.2837    0.1391 C   0  0  0  0  0  0  0  0  0  0  0  0
   -0.5344   -2.9624    0.4394 O   0  0  0  0  0  0  0  0  0  0  0  0
   -1.3356   -0.9743   -0.2573 N   0  0  0  0  0  0  0  0  0  0  0  0
   -2.1736   -0.4253   -0.4510 H   0  0  0  0  0  0  0  0  0  0  0  0
   -0.0620   -0.2450   -0.2668 C   0  0  1  0  0  0  0  0  0  0  0  0
    0.5981   -0.7666    0.4339 H   0  0  0  0  0  0  0  0  0  0  0  0
    0.6172   -0.3685   -1.6492 C   0  0  0  0  0  0  0  0  0  0  0  0
    1.6977   -0.3216   -1.4938 H   0  0  0  0  0  0  0  0  0  0  0  0
    0.3951   -1.3488   -2.0796 H   0  0  0  0  0  0  0  0  0  0  0  0
    0.2616    0.7009   -2.6777 C   0  0  0  0  0  0  0  0  0  0  0  0
   -0.8093    1.2705   -2.7169 O   0  0  0  0  0  0  0  0  0  0  0  0
    1.1550    1.0821   -3.6380 N   0  0  0  0  0  0  0  0  0  0  0  0
    0.8986    1.8915   -4.1968 H   0  0  0  0  0  0  0  0  0  0  0  0
    2.1183    0.7697   -3.5875 H   0  0  0  0  0  0  0  0  0  0  0  0
   -0.1749    1.1814    0.3214 C   0  0  0  0  0  0  0  0  0  0  0  0
   -1.2267    1.8033    0.2521 O   0  0  0  0  0  0  0  0  0  0  0  0
    0.7886    1.6325    1.2077 N   0  0  0  0  0  0  0  0  0  0  0  0
    1.5879    1.0318    1.3839 H   0  0  0  0  0  0  0  0  0  0  0  0
    0.6425    2.8525    1.9938 C   0  0  0  0  0  0  0  0  0  0  0  0
   -0.2102    2.7689    2.6759 H   0  0  0  0  0  0  0  0  0  0  0  0
    1.5444    3.0314    2.5869 H   0  0  0  0  0  0  0  0  0  0  0  0
    0.4848    3.7148    1.3373 H   0  0  0  0  0  0  0  0  0  0  0  0
  1  2  1  0  0  0  0
  2  3  1  0  0  0  0
  2  4  1  0  0  0  0
  2  5  1  0  0  0  0
  5  6  2  0  0  0  0
  5  7  1  0  0  0  0
  7  8  1  0  0  0  0
  7  9  1  0  0  0  0
  9 10  1  0  0  0  0
  9 11  1  0  0  0  0
  9 19  1  0  0  0  0
 11 12  1  0  0  0  0
 11 13  1  0  0  0  0
 11 14  1  0  0  0  0
 14 15  2  0  0  0  0
 14 16  1  0  0  0  0
 16 17  1  0  0  0  0
 16 18  1  0  0  0  0
 19 20  2  0  0  0  0
 19 21  1  0  0  0  0
 21 22  1  0  0  0  0
 21 23  1  0  0  0  0
 23 24  1  0  0  0  0
 23 25  1  0  0  0  0
 23 26  1  0  0  0  0
M  END
$$$$

  -OEChem-04042215573D

 26 25  0     1  0  0  0  0  0999 V2000
   -2.8354   -3.9052    0.5618 H   0  0  0  0  0  0  0  0  0  0  0  0
   -2.8925   -2.8659    0.2264 C   0  0  0  0  0  0  0  0  0  0  0  0
   -3.4777   -2.2935    0.9504 H   0  0  0  0  0  0  0  0  0  0  0  0
   -3.3957   -2.8344   -0.7431 H   0  0  0  0  0  0  0  0  0  0  0  0
   -1.4996   -2.2766    0.1065 C   0  0  0  0  0  0  0  0  0  0  0  0
   -0.5181   -2.9659    0.3411 O   0  0  0  0  0  0  0  0  0  0  0  0
   -1.3426   -0.9604   -0.2726 N   0  0  0  0  0  0  0  0  0  0  0  0
   -2.1868   -0.3976   -0.3829 H   0  0  0  0  0  0  0  0  0  0  0  0
   -0.0704   -0.2280   -0.2859 C   0  0  1  0  0  0  0  0  0  0  0  0
    0.5941   -0.7540    0.4075 H   0  0  0  0  0  0  0  0  0  0  0  0
    0.6083   -0.3419   -1.6709 C   0  0  0  0  0  0  0  0  0  0  0  0
    1.6882   -0.2924   -1.5131 H   0  0  0  0  0  0  0  0  0  0  0  0
    0.3889   -1.3241   -2.0988 H   0  0  0  0  0  0  0  0  0  0  0  0
    0.2663    0.7199   -2.7126 C   0  0  0  0  0  0  0  0  0  0  0  0
   -0.6735    1.4828   -2.6386 O   0  0  0  0  0  0  0  0  0  0  0  0
    1.0321    0.8646   -3.8342 N   0  0  0  0  0  0  0  0  0  0  0  0
    0.8162    1.6532   -4.4376 H   0  0  0  0  0  0  0  0  0  0  0  0
    1.9029    0.3542   -3.9304 H   0  0  0  0  0  0  0  0  0  0  0  0
   -0.1933    1.1870    0.3283 C   0  0  0  0  0  0  0  0  0  0  0  0
   -1.2700    1.7709    0.3212 O   0  0  0  0  0  0  0  0  0  0  0  0
    0.7741    1.6317    1.2137 N   0  0  0  0  0  0  0  0  0  0  0  0
    1.6031    1.0588    1.3373 H   0  0  0  0  0  0  0  0  0  0  0  0
    0.6204    2.8299    2.0311 C   0  0  0  0  0  0  0  0  0  0  0  0
   -0.2218    2.7170    2.7221 H   0  0  0  0  0  0  0  0  0  0  0  0
    1.5271    3.0081    2.6171 H   0  0  0  0  0  0  0  0  0  0  0  0
    0.4413    3.7052    1.3974 H   0  0  0  0  0  0  0  0  0  0  0  0
  1  2  1  0  0  0  0
  2  3  1  0  0  0  0
  2  4  1  0  0  0  0
  2  5  1  0  0  0  0
  5  6  2  0  0  0  0
  5  7  1  0  0  0  0
  7  8  1  0  0  0  0
  7  9  1  0  0  0  0
  9 10  1  0  0  0  0
  9 11  1  0  0  0  0
  9 19  1  0  0  0  0
 11 12  1  0  0  0  0
 11 13  1  0  0  0  0
 11 14  1  0  0  0  0
 14 15  2  0  0  0  0
 14 16  1  0  0  0  0
 16 17  1  0  0  0  0
 16 18  1  0  0  0  0
 19 20  2  0  0  0  0
 19 21  1  0  0  0  0
 21 22  1  0  0  0  0
 21 23  1  0  0  0  0
 23 24  1  0  0  0  0
 23 25  1  0  0  0  0
 23 26  1  0  0  0  0
M  END
$$$$

  -OEChem-04042215573D

 26 25  0     1  0  0  0  0  0999 V2000
   -2.8257   -3.8948    0.5207 H   0  0  0  0  0  0  0  0  0  0  0  0
   -2.8850   -2.8471    0.2133 C   0  0  0  0  0  0  0  0  0  0  0  0
   -3.4458   -2.2898    0.9676 H   0  0  0  0  0  0  0  0  0  0  0  0
   -3.4149   -2.7887   -0.7407 H   0  0  0  0  0  0  0  0  0  0  0  0
   -1.4920   -2.2637    0.0684 C   0  0  0  0  0  0  0  0  0  0  0  0
   -0.5096   -2.9658    0.2559 O   0  0  0  0  0  0  0  0  0  0  0  0
   -1.3353   -0.9416   -0.2902 N   0  0  0  0  0  0  0  0  0  0  0  0
   -2.1771   -0.3661   -0.3349 H   0  0  0  0  0  0  0  0  0  0  0  0
   -0.0597   -0.2133   -0.2854 C   0  0  1  0  0  0  0  0  0  0  0  0
    0.5987   -0.7484    0.4071 H   0  0  0  0  0  0  0  0  0  0  0  0
    0.6316   -0.3126   -1.6663 C   0  0  0  0  0  0  0  0  0  0  0  0
    1.7105   -0.2697   -1.4987 H   0  0  0  0  0  0  0  0  0  0  0  0
    0.4111   -1.2916   -2.1003 H   0  0  0  0  0  0  0  0  0  0  0  0
    0.3151    0.7554   -2.7104 C   0  0  0  0  0  0  0  0  0  0  0  0
   -0.4420    1.6887   -2.5507 O   0  0  0  0  0  0  0  0  0  0  0  0
    0.9058    0.7107   -3.9407 N   0  0  0  0  0  0  0  0  0  0  0  0
    0.5247    1.3480   -4.6345 H   0  0  0  0  0  0  0  0  0  0  0  0
    1.3736   -0.1408   -4.2315 H   0  0  0  0  0  0  0  0  0  0  0  0
   -0.1966    1.1899    0.3532 C   0  0  0  0  0  0  0  0  0  0  0  0
   -1.2888    1.7464    0.3694 O   0  0  0  0  0  0  0  0  0  0  0  0
    0.7593    1.6258    1.2550 N   0  0  0  0  0  0  0  0  0  0  0  0
    1.6216    1.0951    1.3258 H   0  0  0  0  0  0  0  0  0  0  0  0
    0.6032    2.8247    2.0704 C   0  0  0  0  0  0  0  0  0  0  0  0
   -0.2446    2.7149    2.7548 H   0  0  0  0  0  0  0  0  0  0  0  0
    1.5059    2.9991    2.6634 H   0  0  0  0  0  0  0  0  0  0  0  0
    0.4327    3.7004    1.4350 H   0  0  0  0  0  0  0  0  0  0  0  0
  1  2  1  0  0  0  0
  2  3  1  0  0  0  0
  2  4  1  0  0  0  0
  2  5  1  0  0  0  0
  5  6  2  0  0  0  0
  5  7  1  0  0  0  0
  7  8  1  0  0  0  0
  7  9  1  0  0  0  0
  9 10  1  0  0  0  0
  9 11  1  0  0  0  0
  9 19  1  0  0  0  0
 11 12  1  0  0  0  0
 11 13  1  0  0  0  0
 11 14  1  0  0  0  0
 14 15  2  0  0  0  0
 14 16  1  0  0  0  0
 16 17  1  0  0  0  0
 16 18  1  0  0  0  0
 19 20  2  0  0  0  0
 19 21  1  0  0  0  0
 21 22  1  0  0  0  0
 21 23  1  0  0  0  0
 23 24  1  0  0  0  0
 23 25  1  0  0  0  0
 23 26  1  0  0  0  0
M  END
$$$$

  -OEChem-04042215573D

 26 25  0     1  0  0  0  0  0999 V2000
   -2.8377   -3.8765    0.5446 H   0  0  0  0  0  0  0  0  0  0  0  0
   -2.8906   -2.8305    0.2300 C   0  0  0  0  0  0  0  0  0  0  0  0
   -3.4277   -2.2604    0.9920 H   0  0  0  0  0  0  0  0  0  0  0  0
   -3.4405   -2.7726   -0.7125 H   0  0  0  0  0  0  0  0  0  0  0  0
   -1.4941   -2.2655    0.0506 C   0  0  0  0  0  0  0  0  0  0  0  0
   -0.5163   -2.9813    0.2067 O   0  0  0  0  0  0  0  0  0  0  0  0
   -1.3298   -0.9427   -0.3018 N   0  0  0  0  0  0  0  0  0  0  0  0
   -2.1654   -0.3564   -0.3048 H   0  0  0  0  0  0  0  0  0  0  0  0
   -0.0478   -0.2250   -0.2904 C   0  0  1  0  0  0  0  0  0  0  0  0
    0.6097   -0.7662    0.3982 H   0  0  0  0  0  0  0  0  0  0  0  0
    0.6359   -0.3196   -1.6762 C   0  0  0  0  0  0  0  0  0  0  0  0
    1.7164   -0.2897   -1.5154 H   0  0  0  0  0  0  0  0  0  0  0  0
    0.4036   -1.2944   -2.1132 H   0  0  0  0  0  0  0  0  0  0  0  0
    0.3302    0.7573   -2.7148 C   0  0  0  0  0  0  0  0  0  0  0  0
   -0.1975    1.8243   -2.4840 O   0  0  0  0  0  0  0  0  0  0  0  0
    0.6643    0.5646   -4.0244 N   0  0  0  0  0  0  0  0  0  0  0  0
    0.2788    1.2397   -4.6788 H   0  0  0  0  0  0  0  0  0  0  0  0
    0.9023   -0.3703   -4.3372 H   0  0  0  0  0  0  0  0  0  0  0  0
   -0.1933    1.1729    0.3580 C   0  0  0  0  0  0  0  0  0  0  0  0
   -1.2915    1.7194    0.3687 O   0  0  0  0  0  0  0  0  0  0  0  0
    0.7524    1.6084    1.2704 N   0  0  0  0  0  0  0  0  0  0  0  0
    1.6328    1.1054    1.3165 H   0  0  0  0  0  0  0  0  0  0  0  0
    0.5925    2.8191    2.0673 C   0  0  0  0  0  0  0  0  0  0  0  0
   -0.2740    2.7293    2.7310 H   0  0  0  0  0  0  0  0  0  0  0  0
    1.4821    2.9885    2.6814 H   0  0  0  0  0  0  0  0  0  0  0  0
    0.4497    3.6890    1.4174 H   0  0  0  0  0  0  0  0  0  0  0  0
  1  2  1  0  0  0  0
  2  3  1  0  0  0  0
  2  4  1  0  0  0  0
  2  5  1  0  0  0  0
  5  6  2  0  0  0  0
  5  7  1  0  0  0  0
  7  8  1  0  0  0  0
  7  9  1  0  0  0  0
  9 10  1  0  0  0  0
  9 11  1  0  0  0  0
  9 19  1  0  0  0  0
 11 12  1  0  0  0  0
 11 13  1  0  0  0  0
 11 14  1  0  0  0  0
 14 15  2  0  0  0  0
 14 16  1  0  0  0  0
 16 17  1  0  0  0  0
 16 18  1  0  0  0  0
 19 20  2  0  0  0  0
 19 21  1  0  0  0  0
 21 22  1  0  0  0  0
 21 23  1  0  0  0  0
 23 24  1  0  0  0  0
 23 25  1  0  0  0  0
 23 26  1  0  0  0  0
M  END
$$$$

  -OEChem-04042215573D

 26 25  0     1  0  0  0  0  0999 V2000
   -2.8547   -3.8636    0.5661 H   0  0  0  0  0  0  0  0  0  0  0  0
   -2.8990   -2.8202    0.2413 C   0  0  0  0  0  0  0  0  0  0  0  0
   -3.4256   -2.2373    1.0011 H   0  0  0  0  0  0  0  0  0  0  0  0
   -3.4538   -2.7659   -0.6986 H   0  0  0  0  0  0  0  0  0  0  0  0
   -1.4977   -2.2717    0.0479 C   0  0  0  0  0  0  0  0  0  0  0  0
   -0.5274   -2.9979    0.2008 O   0  0  0  0  0  0  0  0  0  0  0  0
   -1.3206   -0.9518   -0.3103 N   0  0  0  0  0  0  0  0  0  0  0  0
   -2.1493   -0.3556   -0.3009 H   0  0  0  0  0  0  0  0  0  0  0  0
   -0.0301   -0.2483   -0.2881 C   0  0  1  0  0  0  0  0  0  0  0  0
    0.6230   -0.7924    0.4025 H   0  0  0  0  0  0  0  0  0  0  0  0
    0.6489   -0.3407   -1.6766 C   0  0  0  0  0  0  0  0  0  0  0  0
    1.7306   -0.3250   -1.5210 H   0  0  0  0  0  0  0  0  0  0  0  0
    0.4055   -1.3098   -2.1203 H   0  0  0  0  0  0  0  0  0  0  0  0
    0.3512    0.7522   -2.7008 C   0  0  0  0  0  0  0  0  0  0  0  0
    0.0839    1.9033   -2.4262 O   0  0  0  0  0  0  0  0  0  0  0  0
    0.3724    0.4777   -4.0382 N   0  0  0  0  0  0  0  0  0  0  0  0
   -0.0116    1.2015   -4.6392 H   0  0  0  0  0  0  0  0  0  0  0  0
    0.3655   -0.4909   -4.3391 H   0  0  0  0  0  0  0  0  0  0  0  0
   -0.1845    1.1512    0.3545 C   0  0  0  0  0  0  0  0  0  0  0  0
   -1.2812    1.7014    0.3314 O   0  0  0  0  0  0  0  0  0  0  0  0
    0.7446    1.5916    1.2810 N   0  0  0  0  0  0  0  0  0  0  0  0
    1.6326    1.1020    1.3273 H   0  0  0  0  0  0  0  0  0  0  0  0
    0.5841    2.8249    2.0423 C   0  0  0  0  0  0  0  0  0  0  0  0
   -0.3068    2.7710    2.6767 H   0  0  0  0  0  0  0  0  0  0  0  0
    1.4549    2.9898    2.6839 H   0  0  0  0  0  0  0  0  0  0  0  0
    0.4841    3.6810    1.3667 H   0  0  0  0  0  0  0  0  0  0  0  0
  1  2  1  0  0  0  0
  2  3  1  0  0  0  0
  2  4  1  0  0  0  0
  2  5  1  0  0  0  0
  5  6  2  0  0  0  0
  5  7  1  0  0  0  0
  7  8  1  0  0  0  0
  7  9  1  0  0  0  0
  9 10  1  0  0  0  0
  9 11  1  0  0  0  0
  9 19  1  0  0  0  0
 11 12  1  0  0  0  0
 11 13  1  0  0  0  0
 11 14  1  0  0  0  0
 14 15  2  0  0  0  0
 14 16  1  0  0  0  0
 16 17  1  0  0  0  0
 16 18  1  0  0  0  0
 19 20  2  0  0  0  0
 19 21  1  0  0  0  0
 21 22  1  0  0  0  0
 21 23  1  0  0  0  0
 23 24  1  0  0  0  0
 23 25  1  0  0  0  0
 23 26  1  0  0  0  0
M  END
$$$$

  -OEChem-04042215573D

 26 25  0     1  0  0  0  0  0999 V2000
   -2.8746   -3.8589    0.5760 H   0  0  0  0  0  0  0  0  0  0  0  0
   -2.9064   -2.8192    0.2384 C   0  0  0  0  0  0  0  0  0  0  0  0
   -3.4365   -2.2226    0.9851 H   0  0  0  0  0  0  0  0  0  0  0  0
   -3.4504   -2.7717   -0.7080 H   0  0  0  0  0  0  0  0  0  0  0  0
   -1.4984   -2.2851    0.0536 C   0  0  0  0  0  0  0  0  0  0  0  0
   -0.5365   -3.0193    0.2188 O   0  0  0  0  0  0  0  0  0  0  0  0
   -1.3058   -0.9708   -0.3167 N   0  0  0  0  0  0  0  0  0  0  0  0
   -2.1281   -0.3659   -0.3099 H   0  0  0  0  0  0  0  0  0  0  0  0
   -0.0087   -0.2796   -0.2806 C   0  0  1  0  0  0  0  0  0  0  0  0
    0.6384   -0.8232    0.4161 H   0  0  0  0  0  0  0  0  0  0  0  0
    0.6701   -0.3713   -1.6680 C   0  0  0  0  0  0  0  0  0  0  0  0
    1.7523   -0.3624   -1.5151 H   0  0  0  0  0  0  0  0  0  0  0  0
    0.4223   -1.3348   -2.1216 H   0  0  0  0  0  0  0  0  0  0  0  0
    0.3726    0.7409   -2.6695 C   0  0  0  0  0  0  0  0  0  0  0  0
    0.3757    1.9220   -2.3876 O   0  0  0  0  0  0  0  0  0  0  0  0
    0.0444    0.4552   -3.9637 N   0  0  0  0  0  0  0  0  0  0  0  0
   -0.3330    1.2317   -4.4996 H   0  0  0  0  0  0  0  0  0  0  0  0
   -0.2092   -0.4974   -4.2021 H   0  0  0  0  0  0  0  0  0  0  0  0
   -0.1714    1.1261    0.3451 C   0  0  0  0  0  0  0  0  0  0  0  0
   -1.2596    1.6887    0.2674 O   0  0  0  0  0  0  0  0  0  0  0  0
    0.7372    1.5778    1.2859 N   0  0  0  0  0  0  0  0  0  0  0  0
    1.6289    1.0962    1.3449 H   0  0  0  0  0  0  0  0  0  0  0  0
    0.5780    2.8415    1.9955 C   0  0  0  0  0  0  0  0  0  0  0  0
   -0.3427    2.8353    2.5884 H   0  0  0  0  0  0  0  0  0  0  0  0
    1.4219    3.0046    2.6726 H   0  0  0  0  0  0  0  0  0  0  0  0
    0.5351    3.6752    1.2864 H   0  0  0  0  0  0  0  0  0  0  0  0
  1  2  1  0  0  0  0
  2  3  1  0  0  0  0
  2  4  1  0  0  0  0
  2  5  1  0  0  0  0
  5  6  2  0  0  0  0
  5  7  1  0  0  0  0
  7  8  1  0  0  0  0
  7  9  1  0  0  0  0
  9 10  1  0  0  0  0
  9 11  1  0  0  0  0
  9 19  1  0  0  0  0
 11 12  1  0  0  0  0
 11 13  1  0  0  0  0
 11 14  1  0  0  0  0
 14 15  2  0  0  0  0
 14 16  1  0  0  0  0
 16 17  1  0  0  0  0
 16 18  1  0  0  0  0
 19 20  2  0  0  0  0
 19 21  1  0  0  0  0
 21 22  1  0  0  0  0
 21 23  1  0  0  0  0
 23 24  1  0  0  0  0
 23 25  1  0  0  0  0
 23 26  1  0  0  0  0
M  END
$$$$

  -OEChem-04042215573D

 26 25  0     1  0  0  0  0  0999 V2000
   -2.8946   -3.8617    0.5939 H   0  0  0  0  0  0  0  0  0  0  0  0
   -2.9130   -2.8281    0.2372 C   0  0  0  0  0  0  0  0  0  0  0  0
   -3.4538   -2.2152    0.9627 H   0  0  0  0  0  0  0  0  0  0  0  0
   -3.4374   -2.7942   -0.7208 H   0  0  0  0  0  0  0  0  0  0  0  0
   -1.4981   -2.3069    0.0708 C   0  0  0  0  0  0  0  0  0  0  0  0
   -0.5453   -3.0431    0.2738 O   0  0  0  0  0  0  0  0  0  0  0  0
   -1.2887   -1.0016   -0.3223 N   0  0  0  0  0  0  0  0  0  0  0  0
   -2.1058   -0.3899   -0.3372 H   0  0  0  0  0  0  0  0  0  0  0  0
    0.0145   -0.3221   -0.2756 C   0  0  1  0  0  0  0  0  0  0  0  0
    0.6572   -0.8609    0.4290 H   0  0  0  0  0  0  0  0  0  0  0  0
    0.6938   -0.4072   -1.6610 C   0  0  0  0  0  0  0  0  0  0  0  0
    1.7764   -0.4054   -1.5107 H   0  0  0  0  0  0  0  0  0  0  0  0
    0.4408   -1.3605   -2.1326 H   0  0  0  0  0  0  0  0  0  0  0  0
    0.3888    0.7310   -2.6278 C   0  0  0  0  0  0  0  0  0  0  0  0
    0.6566    1.8898   -2.3774 O   0  0  0  0  0  0  0  0  0  0  0  0
   -0.2781    0.5169   -3.7996 N   0  0  0  0  0  0  0  0  0  0  0  0
   -0.6407    1.3527   -4.2497 H   0  0  0  0  0  0  0  0  0  0  0  0
   -0.7478   -0.3721   -3.9313 H   0  0  0  0  0  0  0  0  0  0  0  0
   -0.1584    1.0946    0.3209 C   0  0  0  0  0  0  0  0  0  0  0  0
   -1.2324    1.6711    0.1753 O   0  0  0  0  0  0  0  0  0  0  0  0
    0.7275    1.5655    1.2728 N   0  0  0  0  0  0  0  0  0  0  0  0
    1.6193    1.0872    1.3568 H   0  0  0  0  0  0  0  0  0  0  0  0
    0.5672    2.8587    1.9267 C   0  0  0  0  0  0  0  0  0  0  0  0
   -0.3803    2.8974    2.4746 H   0  0  0  0  0  0  0  0  0  0  0  0
    1.3825    3.0268    2.6368 H   0  0  0  0  0  0  0  0  0  0  0  0
    0.5791    3.6654    1.1860 H   0  0  0  0  0  0  0  0  0  0  0  0
  1  2  1  0  0  0  0
  2  3  1  0  0  0  0
  2  4  1  0  0  0  0
  2  5  1  0  0  0  0
  5  6  2  0  0  0  0
  5  7  1  0  0  0  0
  7  8  1  0  0  0  0
  7  9  1  0  0  0  0
  9 10  1  0  0  0  0
  9 11  1  0  0  0  0
  9 19  1  0  0  0  0
 11 12  1  0  0  0  0
 11 13  1  0  0  0  0
 11 14  1  0  0  0  0
 14 15  2  0  0  0  0
 14 16  1  0  0  0  0
 16 17  1  0  0  0  0
 16 18  1  0  0  0  0
 19 20  2  0  0  0  0
 19 21  1  0  0  0  0
 21 22  1  0  0  0  0
 21 23  1  0  0  0  0
 23 24  1  0  0  0  0
 23 25  1  0  0  0  0
 23 26  1  0  0  0  0
M  END
$$$$

  -OEChem-04042215573D

 26 25  0     1  0  0  0  0  0999 V2000
   -2.9015   -3.8811    0.6037 H   0  0  0  0  0  0  0  0  0  0  0  0
   -2.9151   -2.8493    0.2409 C   0  0  0  0  0  0  0  0  0  0  0  0
   -3.4598   -2.2314    0.9591 H   0  0  0  0  0  0  0  0  0  0  0  0
   -3.4331   -2.8205   -0.7207 H   0  0  0  0  0  0  0  0  0  0  0  0
   -1.4979   -2.3314    0.0815 C   0  0  0  0  0  0  0  0  0  0  0  0
   -0.5481   -3.0640    0.3088 O   0  0  0  0  0  0  0  0  0  0  0  0
   -1.2836   -1.0318   -0.3289 N   0  0  0  0  0  0  0  0  0  0  0  0
   -2.1005   -0.4206   -0.3584 H   0  0  0  0  0  0  0  0  0  0  0  0
    0.0210   -0.3547   -0.2747 C   0  0  1  0  0  0  0  0  0  0  0  0
    0.6622   -0.8884    0.4350 H   0  0  0  0  0  0  0  0  0  0  0  0
    0.7027   -0.4298   -1.6572 C   0  0  0  0  0  0  0  0  0  0  0  0
    1.7861   -0.4296   -1.5099 H   0  0  0  0  0  0  0  0  0  0  0  0
    0.4482   -1.3734   -2.1474 H   0  0  0  0  0  0  0  0  0  0  0  0
    0.3807    0.7306   -2.5885 C   0  0  0  0  0  0  0  0  0  0  0  0
    0.8780    1.8290   -2.4289 O   0  0  0  0  0  0  0  0  0  0  0  0
   -0.5483    0.6246   -3.5829 N   0  0  0  0  0  0  0  0  0  0  0  0
   -0.8714    1.5098   -3.9634 H   0  0  0  0  0  0  0  0  0  0  0  0
   -1.1743   -0.1728   -3.5662 H   0  0  0  0  0  0  0  0  0  0  0  0
   -0.1549    1.0707    0.2986 C   0  0  0  0  0  0  0  0  0  0  0  0
   -1.2099    1.6637    0.0937 O   0  0  0  0  0  0  0  0  0  0  0  0
    0.7165    1.5577    1.2554 N   0  0  0  0  0  0  0  0  0  0  0  0
    1.5976    1.0674    1.3768 H   0  0  0  0  0  0  0  0  0  0  0  0
    0.5637    2.8741    1.8628 C   0  0  0  0  0  0  0  0  0  0  0  0
   -0.3958    2.9466    2.3854 H   0  0  0  0  0  0  0  0  0  0  0  0
    1.3642    3.0522    2.5872 H   0  0  0  0  0  0  0  0  0  0  0  0
    0.6084    3.6557    1.0968 H   0  0  0  0  0  0  0  0  0  0  0  0
  1  2  1  0  0  0  0
  2  3  1  0  0  0  0
  2  4  1  0  0  0  0
  2  5  1  0  0  0  0
  5  6  2  0  0  0  0
  5  7  1  0  0  0  0
  7  8  1  0  0  0  0
  7  9  1  0  0  0  0
  9 10  1  0  0  0  0
  9 11  1  0  0  0  0
  9 19  1  0  0  0  0
 11 12  1  0  0  0  0
 11 13  1  0  0  0  0
 11 14  1  0  0  0  0
 14 15  2  0  0  0  0
 14 16  1  0  0  0  0
 16 17  1  0  0  0  0
 16 18  1  0  0  0  0
 19 20  2  0  0  0  0
 19 21  1  0  0  0  0
 21 22  1  0  0  0  0
 21 23  1  0  0  0  0
 23 24  1  0  0  0  0
 23 25  1  0  0  0  0
 23 26  1  0  0  0  0
M  END
$$$$

  -OEChem-04042215573D

 26 25  0     1  0  0  0  0  0999 V2000
   -2.8959   -3.9017    0.6307 H   0  0  0  0  0  0  0  0  0  0  0  0
   -2.9142   -2.8821    0.2355 C   0  0  0  0  0  0  0  0  0  0  0  0
   -3.4829   -2.2499    0.9219 H   0  0  0  0  0  0  0  0  0  0  0  0
   -3.4113   -2.8906   -0.7375 H   0  0  0  0  0  0  0  0  0  0  0  0
   -1.4999   -2.3518    0.0907 C   0  0  0  0  0  0  0  0  0  0  0  0
   -0.5472   -3.0752    0.3333 O   0  0  0  0  0  0  0  0  0  0  0  0
   -1.2914   -1.0523   -0.3245 N   0  0  0  0  0  0  0  0  0  0  0  0
   -2.1114   -0.4461   -0.3551 H   0  0  0  0  0  0  0  0  0  0  0  0
    0.0108   -0.3698   -0.2704 C   0  0  1  0  0  0  0  0  0  0  0  0
    0.6561   -0.9018    0.4372 H   0  0  0  0  0  0  0  0  0  0  0  0
    0.6920   -0.4300   -1.6520 C   0  0  0  0  0  0  0  0  0  0  0  0
    1.7762   -0.4268   -1.5083 H   0  0  0  0  0  0  0  0  0  0  0  0
    0.4381   -1.3658   -2.1572 H   0  0  0  0  0  0  0  0  0  0  0  0
    0.3494    0.7447   -2.5563 C   0  0  0  0  0  0  0  0  0  0  0  0
    1.0245    1.7564   -2.5502 O   0  0  0  0  0  0  0  0  0  0  0  0
   -0.7592    0.7506   -3.3520 N   0  0  0  0  0  0  0  0  0  0  0  0
   -1.0306    1.6685   -3.6930 H   0  0  0  0  0  0  0  0  0  0  0  0
   -1.4759    0.0595   -3.1613 H   0  0  0  0  0  0  0  0  0  0  0  0
   -0.1612    1.0582    0.2959 C   0  0  0  0  0  0  0  0  0  0  0  0
   -1.1978    1.6685    0.0530 O   0  0  0  0  0  0  0  0  0  0  0  0
    0.7093    1.5510    1.2500 N   0  0  0  0  0  0  0  0  0  0  0  0
    1.5772    1.0440    1.3967 H   0  0  0  0  0  0  0  0  0  0  0  0
    0.5799    2.8864    1.8205 C   0  0  0  0  0  0  0  0  0  0  0  0
   -0.3862    2.9985    2.3238 H   0  0  0  0  0  0  0  0  0  0  0  0
    1.3724    3.0621    2.5543 H   0  0  0  0  0  0  0  0  0  0  0  0
    0.6588    3.6460    1.0355 H   0  0  0  0  0  0  0  0  0  0  0  0
  1  2  1  0  0  0  0
  2  3  1  0  0  0  0
  2  4  1  0  0  0  0
  2  5  1  0  0  0  0
  5  6  2  0  0  0  0
  5  7  1  0  0  0  0
  7  8  1  0  0  0  0
  7  9  1  0  0  0  0
  9 10  1  0  0  0  0
  9 11  1  0  0  0  0
  9 19  1  0  0  0  0
 11 12  1  0  0  0  0
 11 13  1  0  0  0  0
 11 14  1  0  0  0  0
 14 15  2  0  0  0  0
 14 16  1  0  0  0  0
 16 17  1  0  0  0  0
 16 18  1  0  0  0  0
 19 20  2  0  0  0  0
 19 21  1  0  0  0  0
 21 22  1  0  0  0  0
 21 23  1  0  0  0  0
 23 24  1  0  0  0  0
 23 25  1  0  0  0  0
 23 26  1  0  0  0  0
M  END
$$$$

  -OEChem-04042215573D

 26 25  0     1  0  0  0  0  0999 V2000
   -2.8843   -3.9185    0.6299 H   0  0  0  0  0  0  0  0  0  0  0  0
   -2.9102   -2.8910    0.2563 C   0  0  0  0  0  0  0  0  0  0  0  0
   -3.4655   -2.2731    0.9661 H   0  0  0  0  0  0  0  0  0  0  0  0
   -3.4251   -2.8799   -0.7073 H   0  0  0  0  0  0  0  0  0  0  0  0
   -1.4993   -2.3567    0.0960 C   0  0  0  0  0  0  0  0  0  0  0  0
   -0.5416   -3.0755    0.3322 O   0  0  0  0  0  0  0  0  0  0  0  0
   -1.3007   -1.0555   -0.3197 N   0  0  0  0  0  0  0  0  0  0  0  0
   -2.1244   -0.4542   -0.3343 H   0  0  0  0  0  0  0  0  0  0  0  0
    0.0003   -0.3689   -0.2740 C   0  0  1  0  0  0  0  0  0  0  0  0
    0.6511   -0.9014    0.4282 H   0  0  0  0  0  0  0  0  0  0  0  0
    0.6770   -0.4205   -1.6583 C   0  0  0  0  0  0  0  0  0  0  0  0
    1.7618   -0.4178   -1.5187 H   0  0  0  0  0  0  0  0  0  0  0  0
    0.4209   -1.3530   -2.1683 H   0  0  0  0  0  0  0  0  0  0  0  0
    0.3247    0.7571   -2.5560 C   0  0  0  0  0  0  0  0  0  0  0  0
    1.1227    1.6529   -2.7550 O   0  0  0  0  0  0  0  0  0  0  0  0
   -0.8941    0.8748   -3.1582 N   0  0  0  0  0  0  0  0  0  0  0  0
   -1.0981    1.8035   -3.5161 H   0  0  0  0  0  0  0  0  0  0  0  0
   -1.6505    0.3168   -2.7786 H   0  0  0  0  0  0  0  0  0  0  0  0
   -0.1649    1.0581    0.2944 C   0  0  0  0  0  0  0  0  0  0  0  0
   -1.1933    1.6777    0.0428 O   0  0  0  0  0  0  0  0  0  0  0  0
    0.7126    1.5519    1.2412 N   0  0  0  0  0  0  0  0  0  0  0  0
    1.5683    1.0299    1.4080 H   0  0  0  0  0  0  0  0  0  0  0  0
    0.5781    2.8790    1.8300 C   0  0  0  0  0  0  0  0  0  0  0  0
   -0.3842    2.9760    2.3438 H   0  0  0  0  0  0  0  0  0  0  0  0
    1.3756    3.0520    2.5588 H   0  0  0  0  0  0  0  0  0  0  0  0
    0.6435    3.6500    1.0547 H   0  0  0  0  0  0  0  0  0  0  0  0
  1  2  1  0  0  0  0
  2  3  1  0  0  0  0
  2  4  1  0  0  0  0
  2  5  1  0  0  0  0
  5  6  2  0  0  0  0
  5  7  1  0  0  0  0
  7  8  1  0  0  0  0
  7  9  1  0  0  0  0
  9 10  1  0  0  0  0
  9 11  1  0  0  0  0
  9 19  1  0  0  0  0
 11 12  1  0  0  0  0
 11 13  1  0  0  0  0
 11 14  1  0  0  0  0
 14 15  2  0  0  0  0
 14 16  1  0  0  0  0
 16 17  1  0  0  0  0
 16 18  1  0  0  0  0
 19 20  2  0  0  0  0
 19 21  1  0  0  0  0
 21 22  1  0  0  0  0
 21 23  1  0  0  0  0
 23 24  1  0  0  0  0
 23 25  1  0  0  0  0
 23 26  1  0  0  0  0
M  END
$$$$

  -OEChem-04042215573D

 26 25  0     1  0  0  0  0  0999 V2000
   -2.8676   -3.9380    0.6330 H   0  0  0  0  0  0  0  0  0  0  0  0
   -2.9031   -2.9081    0.2666 C   0  0  0  0  0  0  0  0  0  0  0  0
   -3.4646   -2.3002    0.9803 H   0  0  0  0  0  0  0  0  0  0  0  0
   -3.4176   -2.8950   -0.6973 H   0  0  0  0  0  0  0  0  0  0  0  0
   -1.4969   -2.3604    0.1103 C   0  0  0  0  0  0  0  0  0  0  0  0
   -0.5336   -3.0696    0.3522 O   0  0  0  0  0  0  0  0  0  0  0  0
   -1.3095   -1.0564   -0.3026 N   0  0  0  0  0  0  0  0  0  0  0  0
   -2.1389   -0.4640   -0.3159 H   0  0  0  0  0  0  0  0  0  0  0  0
   -0.0109   -0.3639   -0.2700 C   0  0  1  0  0  0  0  0  0  0  0  0
    0.6500   -0.8973    0.4223 H   0  0  0  0  0  0  0  0  0  0  0  0
    0.6532   -0.4077   -1.6613 C   0  0  0  0  0  0  0  0  0  0  0  0
    1.7388   -0.4057   -1.5270 H   0  0  0  0  0  0  0  0  0  0  0  0
    0.3934   -1.3407   -2.1688 H   0  0  0  0  0  0  0  0  0  0  0  0
    0.3003    0.7636   -2.5702 C   0  0  0  0  0  0  0  0  0  0  0  0
    1.1647    1.5057   -2.9950 O   0  0  0  0  0  0  0  0  0  0  0  0
   -0.9768    1.0342   -2.9668 N   0  0  0  0  0  0  0  0  0  0  0  0
   -1.0925    1.9539   -3.3820 H   0  0  0  0  0  0  0  0  0  0  0  0
   -1.7156    0.6794   -2.3695 H   0  0  0  0  0  0  0  0  0  0  0  0
   -0.1706    1.0601    0.3053 C   0  0  0  0  0  0  0  0  0  0  0  0
   -1.1950    1.6867    0.0544 O   0  0  0  0  0  0  0  0  0  0  0  0
    0.7178    1.5530    1.2421 N   0  0  0  0  0  0  0  0  0  0  0  0
    1.5622    1.0168    1.4218 H   0  0  0  0  0  0  0  0  0  0  0  0
    0.5838    2.8718    1.8496 C   0  0  0  0  0  0  0  0  0  0  0  0
   -0.3719    2.9563    2.3776 H   0  0  0  0  0  0  0  0  0  0  0  0
    1.3904    3.0402    2.5695 H   0  0  0  0  0  0  0  0  0  0  0  0
    0.6342    3.6528    1.0836 H   0  0  0  0  0  0  0  0  0  0  0  0
  1  2  1  0  0  0  0
  2  3  1  0  0  0  0
  2  4  1  0  0  0  0
  2  5  1  0  0  0  0
  5  6  2  0  0  0  0
  5  7  1  0  0  0  0
  7  8  1  0  0  0  0
  7  9  1  0  0  0  0
  9 10  1  0  0  0  0
  9 11  1  0  0  0  0
  9 19  1  0  0  0  0
 11 12  1  0  0  0  0
 11 13  1  0  0  0  0
 11 14  1  0  0  0  0
 14 15  2  0  0  0  0
 14 16  1  0  0  0  0
 16 17  1  0  0  0  0
 16 18  1  0  0  0  0
 19 20  2  0  0  0  0
 19 21  1  0  0  0  0
 21 22  1  0  0  0  0
 21 23  1  0  0  0  0
 23 24  1  0  0  0  0
 23 25  1  0  0  0  0
 23 26  1  0  0  0  0
M  END
$$$$

  -OEChem-04042215573D

 26 25  0     1  0  0  0  0  0999 V2000
   -2.8516   -3.9628    0.6170 H   0  0  0  0  0  0  0  0  0  0  0  0
   -2.8933   -2.9312    0.2564 C   0  0  0  0  0  0  0  0  0  0  0  0
   -3.4795   -2.3357    0.9607 H   0  0  0  0  0  0  0  0  0  0  0  0
   -3.3858   -2.9192   -0.7190 H   0  0  0  0  0  0  0  0  0  0  0  0
   -1.4920   -2.3623    0.1355 C   0  0  0  0  0  0  0  0  0  0  0  0
   -0.5238   -3.0564    0.4017 O   0  0  0  0  0  0  0  0  0  0  0  0
   -1.3151   -1.0548   -0.2704 N   0  0  0  0  0  0  0  0  0  0  0  0
   -2.1543   -0.4811   -0.3373 H   0  0  0  0  0  0  0  0  0  0  0  0
   -0.0226   -0.3503   -0.2549 C   0  0  1  0  0  0  0  0  0  0  0  0
    0.6515   -0.8827    0.4251 H   0  0  0  0  0  0  0  0  0  0  0  0
    0.6187   -0.3968   -1.6587 C   0  0  0  0  0  0  0  0  0  0  0  0
    1.7056   -0.3882   -1.5358 H   0  0  0  0  0  0  0  0  0  0  0  0
    0.3586   -1.3383   -2.1498 H   0  0  0  0  0  0  0  0  0  0  0  0
    0.2617    0.7539   -2.5964 C   0  0  0  0  0  0  0  0  0  0  0  0
    1.1225    1.3081   -3.2521 O   0  0  0  0  0  0  0  0  0  0  0  0
   -1.0076    1.2218   -2.7746 N   0  0  0  0  0  0  0  0  0  0  0  0
   -1.0459    2.0901   -3.2999 H   0  0  0  0  0  0  0  0  0  0  0  0
   -1.6206    1.1330   -1.9672 H   0  0  0  0  0  0  0  0  0  0  0  0
   -0.1735    1.0697    0.3301 C   0  0  0  0  0  0  0  0  0  0  0  0
   -1.1967    1.7029    0.0899 O   0  0  0  0  0  0  0  0  0  0  0  0
    0.7318    1.5595    1.2519 N   0  0  0  0  0  0  0  0  0  0  0  0
    1.5612    1.0043    1.4450 H   0  0  0  0  0  0  0  0  0  0  0  0
    0.6017    2.8678    1.8824 C   0  0  0  0  0  0  0  0  0  0  0  0
   -0.3410    2.9357    2.4357 H   0  0  0  0  0  0  0  0  0  0  0  0
    1.4252    3.0332    2.5839 H   0  0  0  0  0  0  0  0  0  0  0  0
    0.6260    3.6606    1.1274 H   0  0  0  0  0  0  0  0  0  0  0  0
  1  2  1  0  0  0  0
  2  3  1  0  0  0  0
  2  4  1  0  0  0  0
  2  5  1  0  0  0  0
  5  6  2  0  0  0  0
  5  7  1  0  0  0  0
  7  8  1  0  0  0  0
  7  9  1  0  0  0  0
  9 10  1  0  0  0  0
  9 11  1  0  0  0  0
  9 19  1  0  0  0  0
 11 12  1  0  0  0  0
 11 13  1  0  0  0  0
 11 14  1  0  0  0  0
 14 15  2  0  0  0  0
 14 16  1  0  0  0  0
 16 17  1  0  0  0  0
 16 18  1  0  0  0  0
 19 20  2  0  0  0  0
 19 21  1  0  0  0  0
 21 22  1  0  0  0  0
 21 23  1  0  0  0  0
 23 24  1  0  0  0  0
 23 25  1  0  0  0  0
 23 26  1  0  0  0  0
M  END
$$$$

  -OEChem-04042215573D

 26 25  0     1  0  0  0  0  0999 V2000
   -2.8367   -3.9688    0.5868 H   0  0  0  0  0  0  0  0  0  0  0  0
   -2.8854   -2.9332    0.2381 C   0  0  0  0  0  0  0  0  0  0  0  0
   -3.4904   -2.3540    0.9399 H   0  0  0  0  0  0  0  0  0  0  0  0
   -3.3619   -2.9148   -0.7452 H   0  0  0  0  0  0  0  0  0  0  0  0
   -1.4897   -2.3454    0.1478 C   0  0  0  0  0  0  0  0  0  0  0  0
   -0.5180   -3.0306    0.4240 O   0  0  0  0  0  0  0  0  0  0  0  0
   -1.3213   -1.0314   -0.2406 N   0  0  0  0  0  0  0  0  0  0  0  0
   -2.1651   -0.4714   -0.3495 H   0  0  0  0  0  0  0  0  0  0  0  0
   -0.0337   -0.3189   -0.2350 C   0  0  1  0  0  0  0  0  0  0  0  0
    0.6461   -0.8574    0.4342 H   0  0  0  0  0  0  0  0  0  0  0  0
    0.5980   -0.3697   -1.6441 C   0  0  0  0  0  0  0  0  0  0  0  0
    1.6852   -0.3549   -1.5260 H   0  0  0  0  0  0  0  0  0  0  0  0
    0.3394   -1.3178   -2.1236 H   0  0  0  0  0  0  0  0  0  0  0  0
    0.2399    0.7636   -2.6040 C   0  0  0  0  0  0  0  0  0  0  0  0
    1.0323    1.1189   -3.4546 O   0  0  0  0  0  0  0  0  0  0  0  0
   -0.9817    1.3697   -2.6599 N   0  0  0  0  0  0  0  0  0  0  0  0
   -1.0076    2.1810   -3.2697 H   0  0  0  0  0  0  0  0  0  0  0  0
   -1.4950    1.4182   -1.7796 H   0  0  0  0  0  0  0  0  0  0  0  0
   -0.1659    1.0946    0.3702 C   0  0  0  0  0  0  0  0  0  0  0  0
   -1.1843    1.7437    0.1546 O   0  0  0  0  0  0  0  0  0  0  0  0
    0.7611    1.5675    1.2794 N   0  0  0  0  0  0  0  0  0  0  0  0
    1.5745    0.9897    1.4745 H   0  0  0  0  0  0  0  0  0  0  0  0
    0.6396    2.8572    1.9490 C   0  0  0  0  0  0  0  0  0  0  0  0
   -0.2844    2.8999    2.5351 H   0  0  0  0  0  0  0  0  0  0  0  0
    1.4846    3.0124    2.6266 H   0  0  0  0  0  0  0  0  0  0  0  0
    0.6309    3.6706    1.2157 H   0  0  0  0  0  0  0  0  0  0  0  0
  1  2  1  0  0  0  0
  2  3  1  0  0  0  0
  2  4  1  0  0  0  0
  2  5  1  0  0  0  0
  5  6  2  0  0  0  0
  5  7  1  0  0  0  0
  7  8  1  0  0  0  0
  7  9  1  0  0  0  0
  9 10  1  0  0  0  0
  9 11  1  0  0  0  0
  9 19  1  0  0  0  0
 11 12  1  0  0  0  0
 11 13  1  0  0  0  0
 11 14  1  0  0  0  0
 14 15  2  0  0  0  0
 14 16  1  0  0  0  0
 16 17  1  0  0  0  0
 16 18  1  0  0  0  0
 19 20  2  0  0  0  0
 19 21  1  0  0  0  0
 21 22  1  0  0  0  0
 21 23  1  0  0  0  0
 23 24  1  0  0  0  0
 23 25  1  0  0  0  0
 23 26  1  0  0  0  0
M  END
$$$$

  -OEChem-04042215573D

 26 25  0     1  0  0  0  0  0999 V2000
   -2.8285   -3.9648    0.5355 H   0  0  0  0  0  0  0  0  0  0  0  0
   -2.8795   -2.9223    0.2086 C   0  0  0  0  0  0  0  0  0  0  0  0
   -3.5016   -2.3630    0.9117 H   0  0  0  0  0  0  0  0  0  0  0  0
   -3.3385   -2.8860   -0.7824 H   0  0  0  0  0  0  0  0  0  0  0  0
   -1.4872   -2.3221    0.1557 C   0  0  0  0  0  0  0  0  0  0  0  0
   -0.5152   -3.0005    0.4475 O   0  0  0  0  0  0  0  0  0  0  0  0
   -1.3230   -1.0027   -0.2151 N   0  0  0  0  0  0  0  0  0  0  0  0
   -2.1683   -0.4540   -0.3629 H   0  0  0  0  0  0  0  0  0  0  0  0
   -0.0401   -0.2832   -0.2140 C   0  0  1  0  0  0  0  0  0  0  0  0
    0.6396   -0.8276    0.4506 H   0  0  0  0  0  0  0  0  0  0  0  0
    0.5939   -0.3438   -1.6229 C   0  0  0  0  0  0  0  0  0  0  0  0
    1.6802   -0.3185   -1.5010 H   0  0  0  0  0  0  0  0  0  0  0  0
    0.3450   -1.3017   -2.0882 H   0  0  0  0  0  0  0  0  0  0  0  0
    0.2416    0.7681   -2.6109 C   0  0  0  0  0  0  0  0  0  0  0  0
    0.9124    0.9183   -3.6133 O   0  0  0  0  0  0  0  0  0  0  0  0
   -0.9088    1.5029   -2.5822 N   0  0  0  0  0  0  0  0  0  0  0  0
   -0.9453    2.2588   -3.2588 H   0  0  0  0  0  0  0  0  0  0  0  0
   -1.3522    1.6386   -1.6726 H   0  0  0  0  0  0  0  0  0  0  0  0
   -0.1517    1.1247    0.4085 C   0  0  0  0  0  0  0  0  0  0  0  0
   -1.1623    1.7920    0.2156 O   0  0  0  0  0  0  0  0  0  0  0  0
    0.7958    1.5773    1.3070 N   0  0  0  0  0  0  0  0  0  0  0  0
    1.5923    0.9764    1.5021 H   0  0  0  0  0  0  0  0  0  0  0  0
    0.6841    2.8458    2.0180 C   0  0  0  0  0  0  0  0  0  0  0  0
   -0.2188    2.8601    2.6377 H   0  0  0  0  0  0  0  0  0  0  0  0
    1.5515    2.9923    2.6689 H   0  0  0  0  0  0  0  0  0  0  0  0
    0.6395    3.6799    1.3098 H   0  0  0  0  0  0  0  0  0  0  0  0
  1  2  1  0  0  0  0
  2  3  1  0  0  0  0
  2  4  1  0  0  0  0
  2  5  1  0  0  0  0
  5  6  2  0  0  0  0
  5  7  1  0  0  0  0
  7  8  1  0  0  0  0
  7  9  1  0  0  0  0
  9 10  1  0  0  0  0
  9 11  1  0  0  0  0
  9 19  1  0  0  0  0
 11 12  1  0  0  0  0
 11 13  1  0  0  0  0
 11 14  1  0  0  0  0
 14 15  2  0  0  0  0
 14 16  1  0  0  0  0
 16 17  1  0  0  0  0
 16 18  1  0  0  0  0
 19 20  2  0  0  0  0
 19 21  1  0  0  0  0
 21 22  1  0  0  0  0
 21 23  1  0  0  0  0
 23 24  1  0  0  0  0
 23 25  1  0  0  0  0
 23 26  1  0  0  0  0
M  END
$$$$

  -OEChem-04042215573D

 26 25  0     1  0  0  0  0  0999 V2000
   -2.8840   -3.9130    0.4823 H   0  0  0  0  0  0  0  0  0  0  0  0
   -2.9188   -2.8616    0.1837 C   0  0  0  0  0  0  0  0  0  0  0  0
   -3.5212   -2.3093    0.9090 H   0  0  0  0  0  0  0  0  0  0  0  0
   -3.3889   -2.7904   -0.8001 H   0  0  0  0  0  0  0  0  0  0  0  0
   -1.5155   -2.2873    0.1301 C   0  0  0  0  0  0  0  0  0  0  0  0
   -0.5548   -2.9921    0.3957 O   0  0  0  0  0  0  0  0  0  0  0  0
   -1.3271   -0.9619   -0.2071 N   0  0  0  0  0  0  0  0  0  0  0  0
   -2.1609   -0.3881   -0.3244 H   0  0  0  0  0  0  0  0  0  0  0  0
   -0.0301   -0.2682   -0.1909 C   0  0  1  0  0  0  0  0  0  0  0  0
    0.6325   -0.8338    0.4735 H   0  0  0  0  0  0  0  0  0  0  0  0
    0.6145   -0.3450   -1.6021 C   0  0  0  0  0  0  0  0  0  0  0  0
    1.6642   -0.6155   -1.4605 H   0  0  0  0  0  0  0  0  0  0  0  0
    0.1523   -1.1650   -2.1596 H   0  0  0  0  0  0  0  0  0  0  0  0
    0.6240    0.8817   -2.5207 C   0  0  0  0  0  0  0  0  0  0  0  0
    1.1369    0.7921   -3.6190 O   0  0  0  0  0  0  0  0  0  0  0  0
   -0.0023    2.0754   -2.3056 N   0  0  0  0  0  0  0  0  0  0  0  0
   -0.0857    2.6893   -3.1100 H   0  0  0  0  0  0  0  0  0  0  0  0
   -0.6486    2.1696   -1.5203 H   0  0  0  0  0  0  0  0  0  0  0  0
   -0.1357    1.1204    0.4714 C   0  0  0  0  0  0  0  0  0  0  0  0
   -1.1349    1.8052    0.2767 O   0  0  0  0  0  0  0  0  0  0  0  0
    0.8090    1.5441    1.3868 N   0  0  0  0  0  0  0  0  0  0  0  0
    1.5965    0.9299    1.5771 H   0  0  0  0  0  0  0  0  0  0  0  0
    0.7041    2.7987    2.1225 C   0  0  0  0  0  0  0  0  0  0  0  0
   -0.1941    2.8012    2.7489 H   0  0  0  0  0  0  0  0  0  0  0  0
    1.5765    2.9323    2.7694 H   0  0  0  0  0  0  0  0  0  0  0  0
    0.6545    3.6463    1.4309 H   0  0  0  0  0  0  0  0  0  0  0  0
  1  2  1  0  0  0  0
  2  3  1  0  0  0  0
  2  4  1  0  0  0  0
  2  5  1  0  0  0  0
  5  6  2  0  0  0  0
  5  7  1  0  0  0  0
  7  8  1  0  0  0  0
  7  9  1  0  0  0  0
  9 10  1  0  0  0  0
  9 11  1  0  0  0  0
  9 19  1  0  0  0  0
 11 12  1  0  0  0  0
 11 13  1  0  0  0  0
 11 14  1  0  0  0  0
 14 15  2  0  0  0  0
 14 16  1  0  0  0  0
 16 17  1  0  0  0  0
 16 18  1  0  0  0  0
 19 20  2  0  0  0  0
 19 21  1  0  0  0  0
 21 22  1  0  0  0  0
 21 23  1  0  0  0  0
 23 24  1  0  0  0  0
 23 25  1  0  0  0  0
 23 26  1  0  0  0  0
M  END
$$$$

  -OEChem-04042215573D

 26 25  0     1  0  0  0  0  0999 V2000
   -2.8467   -3.9651    0.4215 H   0  0  0  0  0  0  0  0  0  0  0  0
   -2.8905   -2.9142    0.1220 C   0  0  0  0  0  0  0  0  0  0  0  0
   -3.5373   -2.3764    0.8194 H   0  0  0  0  0  0  0  0  0  0  0  0
   -3.3173   -2.8521   -0.8820 H   0  0  0  0  0  0  0  0  0  0  0  0
   -1.4991   -2.3092    0.1315 C   0  0  0  0  0  0  0  0  0  0  0  0
   -0.5356   -2.9941    0.4363 O   0  0  0  0  0  0  0  0  0  0  0  0
   -1.3242   -0.9798   -0.1975 N   0  0  0  0  0  0  0  0  0  0  0  0
   -2.1620   -0.4266   -0.3715 H   0  0  0  0  0  0  0  0  0  0  0  0
   -0.0376   -0.2675   -0.1707 C   0  0  1  0  0  0  0  0  0  0  0  0
    0.6301   -0.8279    0.4928 H   0  0  0  0  0  0  0  0  0  0  0  0
    0.6096   -0.3349   -1.5823 C   0  0  0  0  0  0  0  0  0  0  0  0
    1.6634   -0.5862   -1.4364 H   0  0  0  0  0  0  0  0  0  0  0  0
    0.1648   -1.1663   -2.1371 H   0  0  0  0  0  0  0  0  0  0  0  0
    0.6082    0.8878   -2.5088 C   0  0  0  0  0  0  0  0  0  0  0  0
    0.8670    0.7352   -3.6867 O   0  0  0  0  0  0  0  0  0  0  0  0
    0.3343    2.1840   -2.1790 N   0  0  0  0  0  0  0  0  0  0  0  0
    0.2125    2.8007   -2.9764 H   0  0  0  0  0  0  0  0  0  0  0  0
   -0.2267    2.3520   -1.3430 H   0  0  0  0  0  0  0  0  0  0  0  0
   -0.1585    1.1160    0.4961 C   0  0  0  0  0  0  0  0  0  0  0  0
   -1.1248    1.8281    0.2467 O   0  0  0  0  0  0  0  0  0  0  0  0
    0.7794    1.5439    1.4164 N   0  0  0  0  0  0  0  0  0  0  0  0
    1.5491    0.9174    1.6375 H   0  0  0  0  0  0  0  0  0  0  0  0
    0.6919    2.8202    2.1161 C   0  0  0  0  0  0  0  0  0  0  0  0
   -0.2368    2.8783    2.6935 H   0  0  0  0  0  0  0  0  0  0  0  0
    1.5342    2.9314    2.8058 H   0  0  0  0  0  0  0  0  0  0  0  0
    0.7174    3.6509    1.4031 H   0  0  0  0  0  0  0  0  0  0  0  0
  1  2  1  0  0  0  0
  2  3  1  0  0  0  0
  2  4  1  0  0  0  0
  2  5  1  0  0  0  0
  5  6  2  0  0  0  0
  5  7  1  0  0  0  0
  7  8  1  0  0  0  0
  7  9  1  0  0  0  0
  9 10  1  0  0  0  0
  9 11  1  0  0  0  0
  9 19  1  0  0  0  0
 11 12  1  0  0  0  0
 11 13  1  0  0  0  0
 11 14  1  0  0  0  0
 14 15  2  0  0  0  0
 14 16  1  0  0  0  0
 16 17  1  0  0  0  0
 16 18  1  0  0  0  0
 19 20  2  0  0  0  0
 19 21  1  0  0  0  0
 21 22  1  0  0  0  0
 21 23  1  0  0  0  0
 23 24  1  0  0  0  0
 23 25  1  0  0  0  0
 23 26  1  0  0  0  0
M  END
$$$$

  -OEChem-04042215573D

 26 25  0     1  0  0  0  0  0999 V2000
   -2.8549   -3.9762    0.4317 H   0  0  0  0  0  0  0  0  0  0  0  0
   -2.8921   -2.9321    0.1086 C   0  0  0  0  0  0  0  0  0  0  0  0
   -3.5629   -2.3815    0.7726 H   0  0  0  0  0  0  0  0  0  0  0  0
   -3.2854   -2.8925   -0.9101 H   0  0  0  0  0  0  0  0  0  0  0  0
   -1.5041   -2.3213    0.1508 C   0  0  0  0  0  0  0  0  0  0  0  0
   -0.5470   -2.9962    0.4962 O   0  0  0  0  0  0  0  0  0  0  0  0
   -1.3265   -0.9963   -0.1925 N   0  0  0  0  0  0  0  0  0  0  0  0
   -2.1589   -0.4562   -0.4240 H   0  0  0  0  0  0  0  0  0  0  0  0
   -0.0414   -0.2828   -0.1665 C   0  0  1  0  0  0  0  0  0  0  0  0
    0.6324   -0.8378    0.4952 H   0  0  0  0  0  0  0  0  0  0  0  0
    0.5904   -0.3463   -1.5842 C   0  0  0  0  0  0  0  0  0  0  0  0
    1.6470   -0.5948   -1.4554 H   0  0  0  0  0  0  0  0  0  0  0  0
    0.1411   -1.1741   -2.1414 H   0  0  0  0  0  0  0  0  0  0  0  0
    0.5652    0.8939   -2.4859 C   0  0  0  0  0  0  0  0  0  0  0  0
    0.5292    0.7530   -3.6928 O   0  0  0  0  0  0  0  0  0  0  0  0
    0.7232    2.1923   -2.0920 N   0  0  0  0  0  0  0  0  0  0  0  0
    0.5832    2.8571   -2.8470 H   0  0  0  0  0  0  0  0  0  0  0  0
    0.3466    2.4342   -1.1770 H   0  0  0  0  0  0  0  0  0  0  0  0
   -0.1673    1.1077    0.4827 C   0  0  0  0  0  0  0  0  0  0  0  0
   -1.0830    1.8540    0.1611 O   0  0  0  0  0  0  0  0  0  0  0  0
    0.7655    1.5450    1.4039 N   0  0  0  0  0  0  0  0  0  0  0  0
    1.4955    0.8950    1.6844 H   0  0  0  0  0  0  0  0  0  0  0  0
    0.6925    2.8429    2.0655 C   0  0  0  0  0  0  0  0  0  0  0  0
   -0.2489    2.9406    2.6165 H   0  0  0  0  0  0  0  0  0  0  0  0
    1.5195    2.9528    2.7736 H   0  0  0  0  0  0  0  0  0  0  0  0
    0.7571    3.6525    1.3310 H   0  0  0  0  0  0  0  0  0  0  0  0
  1  2  1  0  0  0  0
  2  3  1  0  0  0  0
  2  4  1  0  0  0  0
  2  5  1  0  0  0  0
  5  6  2  0  0  0  0
  5  7  1  0  0  0  0
  7  8  1  0  0  0  0
  7  9  1  0  0  0  0
  9 10  1  0  0  0  0
  9 11  1  0  0  0  0
  9 19  1  0  0  0  0
 11 12  1  0  0  0  0
 11 13  1  0  0  0  0
 11 14  1  0  0  0  0
 14 15  2  0  0  0  0
 14 16  1  0  0  0  0
 16 17  1  0  0  0  0
 16 18  1  0  0  0  0
 19 20  2  0  0  0  0
 19 21  1  0  0  0  0
 21 22  1  0  0  0  0
 21 23  1  0  0  0  0
 23 24  1  0  0  0  0
 23 25  1  0  0  0  0
 23 26  1  0  0  0  0
M  END
$$$$

  -OEChem-04042215573D

 26 25  0     1  0  0  0  0  0999 V2000
   -2.8641   -3.9661    0.4549 H   0  0  0  0  0  0  0  0  0  0  0  0
   -2.8959   -2.9246    0.1230 C   0  0  0  0  0  0  0  0  0  0  0  0
   -3.5733   -2.3675    0.7748 H   0  0  0  0  0  0  0  0  0  0  0  0
   -3.2779   -2.8929   -0.9004 H   0  0  0  0  0  0  0  0  0  0  0  0
   -1.5074   -2.3156    0.1758 C   0  0  0  0  0  0  0  0  0  0  0  0
   -0.5581   -2.9829    0.5563 O   0  0  0  0  0  0  0  0  0  0  0  0
   -1.3196   -1.0010   -0.1998 N   0  0  0  0  0  0  0  0  0  0  0  0
   -2.1440   -0.4665   -0.4712 H   0  0  0  0  0  0  0  0  0  0  0  0
   -0.0305   -0.2954   -0.1867 C   0  0  1  0  0  0  0  0  0  0  0  0
    0.6494   -0.8410    0.4766 H   0  0  0  0  0  0  0  0  0  0  0  0
    0.5838   -0.3589   -1.6090 C   0  0  0  0  0  0  0  0  0  0  0  0
    1.6414   -0.6141   -1.5060 H   0  0  0  0  0  0  0  0  0  0  0  0
    0.1183   -1.1719   -2.1746 H   0  0  0  0  0  0  0  0  0  0  0  0
    0.5287    0.9118   -2.4587 C   0  0  0  0  0  0  0  0  0  0  0  0
    0.1942    0.8502   -3.6259 O   0  0  0  0  0  0  0  0  0  0  0  0
    1.0866    2.1056   -2.0938 N   0  0  0  0  0  0  0  0  0  0  0  0
    0.8964    2.8589   -2.7485 H   0  0  0  0  0  0  0  0  0  0  0  0
    1.1025    2.3256   -1.1030 H   0  0  0  0  0  0  0  0  0  0  0  0
   -0.1621    1.1107    0.4292 C   0  0  0  0  0  0  0  0  0  0  0  0
   -1.0826    1.8445    0.0969 O   0  0  0  0  0  0  0  0  0  0  0  0
    0.7673    1.5661    1.3458 N   0  0  0  0  0  0  0  0  0  0  0  0
    1.4596    0.9012    1.6821 H   0  0  0  0  0  0  0  0  0  0  0  0
    0.6560    2.8556    2.0191 C   0  0  0  0  0  0  0  0  0  0  0  0
   -0.2609    2.8987    2.6164 H   0  0  0  0  0  0  0  0  0  0  0  0
    1.5106    3.0093    2.6852 H   0  0  0  0  0  0  0  0  0  0  0  0
    0.6390    3.6712    1.2884 H   0  0  0  0  0  0  0  0  0  0  0  0
  1  2  1  0  0  0  0
  2  3  1  0  0  0  0
  2  4  1  0  0  0  0
  2  5  1  0  0  0  0
  5  6  2  0  0  0  0
  5  7  1  0  0  0  0
  7  8  1  0  0  0  0
  7  9  1  0  0  0  0
  9 10  1  0  0  0  0
  9 11  1  0  0  0  0
  9 19  1  0  0  0  0
 11 12  1  0  0  0  0
 11 13  1  0  0  0  0
 11 14  1  0  0  0  0
 14 15  2  0  0  0  0
 14 16  1  0  0  0  0
 16 17  1  0  0  0  0
 16 18  1  0  0  0  0
 19 20  2  0  0  0  0
 19 21  1  0  0  0  0
 21 22  1  0  0  0  0
 21 23  1  0  0  0  0
 23 24  1  0  0  0  0
 23 25  1  0  0  0  0
 23 26  1  0  0  0  0
M  END
$$$$

  -OEChem-04042215573D

 26 25  0     1  0  0  0  0  0999 V2000
   -2.8778   -3.9454    0.4680 H   0  0  0  0  0  0  0  0  0  0  0  0
   -2.9018   -2.9082    0.1223 C   0  0  0  0  0  0  0  0  0  0  0  0
   -3.5819   -2.3395    0.7610 H   0  0  0  0  0  0  0  0  0  0  0  0
   -3.2747   -2.8881   -0.9047 H   0  0  0  0  0  0  0  0  0  0  0  0
   -1.5111   -2.3049    0.1786 C   0  0  0  0  0  0  0  0  0  0  0  0
   -0.5690   -2.9714    0.5783 O   0  0  0  0  0  0  0  0  0  0  0  0
   -1.3118   -0.9979   -0.2164 N   0  0  0  0  0  0  0  0  0  0  0  0
   -2.1293   -0.4630   -0.5075 H   0  0  0  0  0  0  0  0  0  0  0  0
   -0.0187   -0.3003   -0.2007 C   0  0  1  0  0  0  0  0  0  0  0  0
    0.6506   -0.8414    0.4765 H   0  0  0  0  0  0  0  0  0  0  0  0
    0.6099   -0.3788   -1.6143 C   0  0  0  0  0  0  0  0  0  0  0  0
    1.6653   -0.6408   -1.5062 H   0  0  0  0  0  0  0  0  0  0  0  0
    0.1419   -1.1865   -2.1855 H   0  0  0  0  0  0  0  0  0  0  0  0
    0.5528    0.9012   -2.4451 C   0  0  0  0  0  0  0  0  0  0  0  0
   -0.0231    0.9227   -3.5154 O   0  0  0  0  0  0  0  0  0  0  0  0
    1.2896    2.0155   -2.1534 N   0  0  0  0  0  0  0  0  0  0  0  0
    1.0590    2.8242   -2.7240 H   0  0  0  0  0  0  0  0  0  0  0  0
    1.5603    2.1626   -1.1872 H   0  0  0  0  0  0  0  0  0  0  0  0
   -0.1425    1.1187    0.3905 C   0  0  0  0  0  0  0  0  0  0  0  0
   -1.0699    1.8454    0.0624 O   0  0  0  0  0  0  0  0  0  0  0  0
    0.7854    1.5770    1.3080 N   0  0  0  0  0  0  0  0  0  0  0  0
    1.4612    0.9061    1.6649 H   0  0  0  0  0  0  0  0  0  0  0  0
    0.6640    2.8657    1.9809 C   0  0  0  0  0  0  0  0  0  0  0  0
   -0.2534    2.9016    2.5778 H   0  0  0  0  0  0  0  0  0  0  0  0
    1.5171    3.0270    2.6470 H   0  0  0  0  0  0  0  0  0  0  0  0
    0.6396    3.6805    1.2496 H   0  0  0  0  0  0  0  0  0  0  0  0
  1  2  1  0  0  0  0
  2  3  1  0  0  0  0
  2  4  1  0  0  0  0
  2  5  1  0  0  0  0
  5  6  2  0  0  0  0
  5  7  1  0  0  0  0
  7  8  1  0  0  0  0
  7  9  1  0  0  0  0
  9 10  1  0  0  0  0
  9 11  1  0  0  0  0
  9 19  1  0  0  0  0
 11 12  1  0  0  0  0
 11 13  1  0  0  0  0
 11 14  1  0  0  0  0
 14 15  2  0  0  0  0
 14 16  1  0  0  0  0
 16 17  1  0  0  0  0
 16 18  1  0  0  0  0
 19 20  2  0  0  0  0
 19 21  1  0  0  0  0
 21 22  1  0  0  0  0
 21 23  1  0  0  0  0
 23 24  1  0  0  0  0
 23 25  1  0  0  0  0
 23 26  1  0  0  0  0
M  END
$$$$

  -OEChem-04042215573D

 26 25  0     1  0  0  0  0  0999 V2000
   -2.8921   -3.9305    0.4684 H   0  0  0  0  0  0  0  0  0  0  0  0
   -2.9081   -2.8954    0.1158 C   0  0  0  0  0  0  0  0  0  0  0  0
   -3.5889   -2.3188    0.7467 H   0  0  0  0  0  0  0  0  0  0  0  0
   -3.2752   -2.8796   -0.9135 H   0  0  0  0  0  0  0  0  0  0  0  0
   -1.5142   -2.2996    0.1776 C   0  0  0  0  0  0  0  0  0  0  0  0
   -0.5791   -2.9673    0.5923 O   0  0  0  0  0  0  0  0  0  0  0  0
   -1.3039   -0.9986   -0.2305 N   0  0  0  0  0  0  0  0  0  0  0  0
   -2.1147   -0.4641   -0.5412 H   0  0  0  0  0  0  0  0  0  0  0  0
   -0.0091   -0.3046   -0.2118 C   0  0  1  0  0  0  0  0  0  0  0  0
    0.6511   -0.8412    0.4777 H   0  0  0  0  0  0  0  0  0  0  0  0
    0.6323   -0.4039   -1.6172 C   0  0  0  0  0  0  0  0  0  0  0  0
    1.6861   -0.6690   -1.5008 H   0  0  0  0  0  0  0  0  0  0  0  0
    0.1648   -1.2121   -2.1877 H   0  0  0  0  0  0  0  0  0  0  0  0
    0.5748    0.8746   -2.4466 C   0  0  0  0  0  0  0  0  0  0  0  0
   -0.2039    0.9881   -3.3728 O   0  0  0  0  0  0  0  0  0  0  0  0
    1.4364    1.9185   -2.2564 N   0  0  0  0  0  0  0  0  0  0  0  0
    1.1771    2.7703   -2.7467 H   0  0  0  0  0  0  0  0  0  0  0  0
    1.9156    1.9880   -1.3659 H   0  0  0  0  0  0  0  0  0  0  0  0
   -0.1238    1.1246    0.3602 C   0  0  0  0  0  0  0  0  0  0  0  0
   -1.0578    1.8464    0.0403 O   0  0  0  0  0  0  0  0  0  0  0  0
    0.8036    1.5852    1.2778 N   0  0  0  0  0  0  0  0  0  0  0  0
    1.4740    0.9140    1.6431 H   0  0  0  0  0  0  0  0  0  0  0  0
    0.6826    2.8784    1.9422 C   0  0  0  0  0  0  0  0  0  0  0  0
   -0.2335    2.9176    2.5411 H   0  0  0  0  0  0  0  0  0  0  0  0
    1.5374    3.0452    2.6049 H   0  0  0  0  0  0  0  0  0  0  0  0
    0.6551    3.6883    1.2054 H   0  0  0  0  0  0  0  0  0  0  0  0
  1  2  1  0  0  0  0
  2  3  1  0  0  0  0
  2  4  1  0  0  0  0
  2  5  1  0  0  0  0
  5  6  2  0  0  0  0
  5  7  1  0  0  0  0
  7  8  1  0  0  0  0
  7  9  1  0  0  0  0
  9 10  1  0  0  0  0
  9 11  1  0  0  0  0
  9 19  1  0  0  0  0
 11 12  1  0  0  0  0
 11 13  1  0  0  0  0
 11 14  1  0  0  0  0
 14 15  2  0  0  0  0
 14 16  1  0  0  0  0
 16 17  1  0  0  0  0
 16 18  1  0  0  0  0
 19 20  2  0  0  0  0
 19 21  1  0  0  0  0
 21 22  1  0  0  0  0
 21 23  1  0  0  0  0
 23 24  1  0  0  0  0
 23 25  1  0  0  0  0
 23 26  1  0  0  0  0
M  END
$$$$

  -OEChem-04042215573D

 26 25  0     1  0  0  0  0  0999 V2000
   -2.9004   -3.9193    0.4788 H   0  0  0  0  0  0  0  0  0  0  0  0
   -2.9126   -2.8857    0.1221 C   0  0  0  0  0  0  0  0  0  0  0  0
   -3.5866   -2.3023    0.7541 H   0  0  0  0  0  0  0  0  0  0  0  0
   -3.2850   -2.8717   -0.9052 H   0  0  0  0  0  0  0  0  0  0  0  0
   -1.5154   -2.2971    0.1738 C   0  0  0  0  0  0  0  0  0  0  0  0
   -0.5811   -2.9663    0.5882 O   0  0  0  0  0  0  0  0  0  0  0  0
   -1.3014   -1.0004   -0.2449 N   0  0  0  0  0  0  0  0  0  0  0  0
   -2.1113   -0.4638   -0.5553 H   0  0  0  0  0  0  0  0  0  0  0  0
   -0.0075   -0.3060   -0.2286 C   0  0  1  0  0  0  0  0  0  0  0  0
    0.6455   -0.8360    0.4724 H   0  0  0  0  0  0  0  0  0  0  0  0
    0.6466   -0.4263   -1.6254 C   0  0  0  0  0  0  0  0  0  0  0  0
    1.6992   -0.6901   -1.4975 H   0  0  0  0  0  0  0  0  0  0  0  0
    0.1836   -1.2398   -2.1918 H   0  0  0  0  0  0  0  0  0  0  0  0
    0.5875    0.8447   -2.4635 C   0  0  0  0  0  0  0  0  0  0  0  0
   -0.3451    1.0648   -3.2108 O   0  0  0  0  0  0  0  0  0  0  0  0
    1.5541    1.8087   -2.4056 N   0  0  0  0  0  0  0  0  0  0  0  0
    1.2958    2.6950   -2.8313 H   0  0  0  0  0  0  0  0  0  0  0  0
    2.2054    1.7978   -1.6292 H   0  0  0  0  0  0  0  0  0  0  0  0
   -0.1164    1.1304    0.3287 C   0  0  0  0  0  0  0  0  0  0  0  0
   -1.0673    1.8410    0.0354 O   0  0  0  0  0  0  0  0  0  0  0  0
    0.8142    1.5927    1.2424 N   0  0  0  0  0  0  0  0  0  0  0  0
    1.4970    0.9270    1.5936 H   0  0  0  0  0  0  0  0  0  0  0  0
    0.6919    2.8832    1.9112 C   0  0  0  0  0  0  0  0  0  0  0  0
   -0.2268    2.9214    2.5062 H   0  0  0  0  0  0  0  0  0  0  0  0
    1.5439    3.0465    2.5783 H   0  0  0  0  0  0  0  0  0  0  0  0
    0.6690    3.6952    1.1765 H   0  0  0  0  0  0  0  0  0  0  0  0
  1  2  1  0  0  0  0
  2  3  1  0  0  0  0
  2  4  1  0  0  0  0
  2  5  1  0  0  0  0
  5  6  2  0  0  0  0
  5  7  1  0  0  0  0
  7  8  1  0  0  0  0
  7  9  1  0  0  0  0
  9 10  1  0  0  0  0
  9 11  1  0  0  0  0
  9 19  1  0  0  0  0
 11 12  1  0  0  0  0
 11 13  1  0  0  0  0
 11 14  1  0  0  0  0
 14 15  2  0  0  0  0
 14 16  1  0  0  0  0
 16 17  1  0  0  0  0
 16 18  1  0  0  0  0
 19 20  2  0  0  0  0
 19 21  1  0  0  0  0
 21 22  1  0  0  0  0
 21 23  1  0  0  0  0
 23 24  1  0  0  0  0
 23 25  1  0  0  0  0
 23 26  1  0  0  0  0
M  END
$$$$

  -OEChem-04042215573D

 26 25  0     1  0  0  0  0  0999 V2000
   -2.9011   -3.9137    0.5014 H   0  0  0  0  0  0  0  0  0  0  0  0
   -2.9167   -2.8812    0.1418 C   0  0  0  0  0  0  0  0  0  0  0  0
   -3.5768   -2.2935    0.7844 H   0  0  0  0  0  0  0  0  0  0  0  0
   -3.3083   -2.8690   -0.8784 H   0  0  0  0  0  0  0  0  0  0  0  0
   -1.5170   -2.2965    0.1652 C   0  0  0  0  0  0  0  0  0  0  0  0
   -0.5754   -2.9704    0.5552 O   0  0  0  0  0  0  0  0  0  0  0  0
   -1.3084   -1.0005   -0.2574 N   0  0  0  0  0  0  0  0  0  0  0  0
   -2.1240   -0.4569   -0.5398 H   0  0  0  0  0  0  0  0  0  0  0  0
   -0.0172   -0.3017   -0.2483 C   0  0  1  0  0  0  0  0  0  0  0  0
    0.6325   -0.8256    0.4605 H   0  0  0  0  0  0  0  0  0  0  0  0
    0.6496   -0.4348   -1.6376 C   0  0  0  0  0  0  0  0  0  0  0  0
    1.7011   -0.6964   -1.4965 H   0  0  0  0  0  0  0  0  0  0  0  0
    0.1923   -1.2550   -2.1986 H   0  0  0  0  0  0  0  0  0  0  0  0
    0.5919    0.8247   -2.4924 C   0  0  0  0  0  0  0  0  0  0  0  0
   -0.4323    1.1738   -3.0440 O   0  0  0  0  0  0  0  0  0  0  0  0
    1.6566    1.6720   -2.6135 N   0  0  0  0  0  0  0  0  0  0  0  0
    1.4410    2.5838   -3.0077 H   0  0  0  0  0  0  0  0  0  0  0  0
    2.4456    1.5650   -1.9866 H   0  0  0  0  0  0  0  0  0  0  0  0
   -0.1254    1.1371    0.3054 C   0  0  0  0  0  0  0  0  0  0  0  0
   -1.1084    1.8244    0.0668 O   0  0  0  0  0  0  0  0  0  0  0  0
    0.8108    1.6018    1.2126 N   0  0  0  0  0  0  0  0  0  0  0  0
    1.5273    0.9525    1.5240 H   0  0  0  0  0  0  0  0  0  0  0  0
    0.6815    2.8816    1.9005 C   0  0  0  0  0  0  0  0  0  0  0  0
   -0.2108    2.8873    2.5355 H   0  0  0  0  0  0  0  0  0  0  0  0
    1.5575    3.0624    2.5309 H   0  0  0  0  0  0  0  0  0  0  0  0
    0.6035    3.6999    1.1765 H   0  0  0  0  0  0  0  0  0  0  0  0
  1  2  1  0  0  0  0
  2  3  1  0  0  0  0
  2  4  1  0  0  0  0
  2  5  1  0  0  0  0
  5  6  2  0  0  0  0
  5  7  1  0  0  0  0
  7  8  1  0  0  0  0
  7  9  1  0  0  0  0
  9 10  1  0  0  0  0
  9 11  1  0  0  0  0
  9 19  1  0  0  0  0
 11 12  1  0  0  0  0
 11 13  1  0  0  0  0
 11 14  1  0  0  0  0
 14 15  2  0  0  0  0
 14 16  1  0  0  0  0
 16 17  1  0  0  0  0
 16 18  1  0  0  0  0
 19 20  2  0  0  0  0
 19 21  1  0  0  0  0
 21 22  1  0  0  0  0
 21 23  1  0  0  0  0
 23 24  1  0  0  0  0
 23 25  1  0  0  0  0
 23 26  1  0  0  0  0
M  END
$$$$

  -OEChem-04042215573D

 26 25  0     1  0  0  0  0  0999 V2000
   -2.8855   -3.9088    0.5358 H   0  0  0  0  0  0  0  0  0  0  0  0
   -2.9136   -2.8761    0.1772 C   0  0  0  0  0  0  0  0  0  0  0  0
   -3.5485   -2.2883    0.8448 H   0  0  0  0  0  0  0  0  0  0  0  0
   -3.3433   -2.8631   -0.8275 H   0  0  0  0  0  0  0  0  0  0  0  0
   -1.5134   -2.2932    0.1482 C   0  0  0  0  0  0  0  0  0  0  0  0
   -0.5577   -2.9739    0.4893 O   0  0  0  0  0  0  0  0  0  0  0  0
   -1.3194   -0.9931   -0.2685 N   0  0  0  0  0  0  0  0  0  0  0  0
   -2.1460   -0.4382   -0.4916 H   0  0  0  0  0  0  0  0  0  0  0  0
   -0.0328   -0.2860   -0.2683 C   0  0  1  0  0  0  0  0  0  0  0  0
    0.6182   -0.8062    0.4417 H   0  0  0  0  0  0  0  0  0  0  0  0
    0.6445   -0.4213   -1.6529 C   0  0  0  0  0  0  0  0  0  0  0  0
    1.6952   -0.6770   -1.4972 H   0  0  0  0  0  0  0  0  0  0  0  0
    0.1966   -1.2497   -2.2089 H   0  0  0  0  0  0  0  0  0  0  0  0
    0.5907    0.8245   -2.5293 C   0  0  0  0  0  0  0  0  0  0  0  0
   -0.4576    1.3231   -2.8847 O   0  0  0  0  0  0  0  0  0  0  0  0
    1.7207    1.5003   -2.8940 N   0  0  0  0  0  0  0  0  0  0  0  0
    1.5743    2.4198   -3.3020 H   0  0  0  0  0  0  0  0  0  0  0  0
    2.6071    1.2651   -2.4622 H   0  0  0  0  0  0  0  0  0  0  0  0
   -0.1486    1.1489    0.2966 C   0  0  0  0  0  0  0  0  0  0  0  0
   -1.1728    1.7989    0.1376 O   0  0  0  0  0  0  0  0  0  0  0  0
    0.7945    1.6126    1.1974 N   0  0  0  0  0  0  0  0  0  0  0  0
    1.5527    0.9867    1.4512 H   0  0  0  0  0  0  0  0  0  0  0  0
    0.6491    2.8677    1.9263 C   0  0  0  0  0  0  0  0  0  0  0  0
   -0.2290    2.8323    2.5799 H   0  0  0  0  0  0  0  0  0  0  0  0
    1.5336    3.0520    2.5434 H   0  0  0  0  0  0  0  0  0  0  0  0
    0.5352    3.7046    1.2290 H   0  0  0  0  0  0  0  0  0  0  0  0
  1  2  1  0  0  0  0
  2  3  1  0  0  0  0
  2  4  1  0  0  0  0
  2  5  1  0  0  0  0
  5  6  2  0  0  0  0
  5  7  1  0  0  0  0
  7  8  1  0  0  0  0
  7  9  1  0  0  0  0
  9 10  1  0  0  0  0
  9 11  1  0  0  0  0
  9 19  1  0  0  0  0
 11 12  1  0  0  0  0
 11 13  1  0  0  0  0
 11 14  1  0  0  0  0
 14 15  2  0  0  0  0
 14 16  1  0  0  0  0
 16 17  1  0  0  0  0
 16 18  1  0  0  0  0
 19 20  2  0  0  0  0
 19 21  1  0  0  0  0
 21 22  1  0  0  0  0
 21 23  1  0  0  0  0
 23 24  1  0  0  0  0
 23 25  1  0  0  0  0
 23 26  1  0  0  0  0
M  END
$$$$

  -OEChem-04042215573D

 26 25  0     1  0  0  0  0  0999 V2000
   -2.8506   -3.9039    0.5173 H   0  0  0  0  0  0  0  0  0  0  0  0
   -2.8920   -2.8657    0.1762 C   0  0  0  0  0  0  0  0  0  0  0  0
   -3.5053   -2.2896    0.8734 H   0  0  0  0  0  0  0  0  0  0  0  0
   -3.3542   -2.8373   -0.8136 H   0  0  0  0  0  0  0  0  0  0  0  0
   -1.4945   -2.2797    0.1104 C   0  0  0  0  0  0  0  0  0  0  0  0
   -0.5248   -2.9700    0.3871 O   0  0  0  0  0  0  0  0  0  0  0  0
   -1.3187   -0.9676   -0.2746 N   0  0  0  0  0  0  0  0  0  0  0  0
   -2.1554   -0.4017   -0.4197 H   0  0  0  0  0  0  0  0  0  0  0  0
   -0.0402   -0.2458   -0.2555 C   0  0  1  0  0  0  0  0  0  0  0  0
    0.6073   -0.7707    0.4545 H   0  0  0  0  0  0  0  0  0  0  0  0
    0.6606   -0.3580   -1.6311 C   0  0  0  0  0  0  0  0  0  0  0  0
    1.7112   -0.5969   -1.4496 H   0  0  0  0  0  0  0  0  0  0  0  0
    0.2371   -1.1939   -2.1947 H   0  0  0  0  0  0  0  0  0  0  0  0
    0.6200    0.8831   -2.5166 C   0  0  0  0  0  0  0  0  0  0  0  0
   -0.3814    1.5443   -2.6948 O   0  0  0  0  0  0  0  0  0  0  0  0
    1.7336    1.3254   -3.1719 N   0  0  0  0  0  0  0  0  0  0  0  0
    1.5732    2.0535   -3.8628 H   0  0  0  0  0  0  0  0  0  0  0  0
    2.5301    0.7043   -3.2631 H   0  0  0  0  0  0  0  0  0  0  0  0
   -0.1826    1.1727    0.3460 C   0  0  0  0  0  0  0  0  0  0  0  0
   -1.2486    1.7704    0.2668 O   0  0  0  0  0  0  0  0  0  0  0  0
    0.7524    1.6261    1.2606 N   0  0  0  0  0  0  0  0  0  0  0  0
    1.5814    1.0603    1.4129 H   0  0  0  0  0  0  0  0  0  0  0  0
    0.5897    2.8550    2.0289 C   0  0  0  0  0  0  0  0  0  0  0  0
   -0.3076    2.8010    2.6545 H   0  0  0  0  0  0  0  0  0  0  0  0
    1.4553    3.0118    2.6797 H   0  0  0  0  0  0  0  0  0  0  0  0
    0.5004    3.7163    1.3586 H   0  0  0  0  0  0  0  0  0  0  0  0
  1  2  1  0  0  0  0
  2  3  1  0  0  0  0
  2  4  1  0  0  0  0
  2  5  1  0  0  0  0
  5  6  2  0  0  0  0
  5  7  1  0  0  0  0
  7  8  1  0  0  0  0
  7  9  1  0  0  0  0
  9 10  1  0  0  0  0
  9 11  1  0  0  0  0
  9 19  1  0  0  0  0
 11 12  1  0  0  0  0
 11 13  1  0  0  0  0
 11 14  1  0  0  0  0
 14 15  2  0  0  0  0
 14 16  1  0  0  0  0
 16 17  1  0  0  0  0
 16 18  1  0  0  0  0
 19 20  2  0  0  0  0
 19 21  1  0  0  0  0
 21 22  1  0  0  0  0
 21 23  1  0  0  0  0
 23 24  1  0  0  0  0
 23 25  1  0  0  0  0
 23 26  1  0  0  0  0
M  END
$$$$

  -OEChem-04042215573D

 26 25  0     1  0  0  0  0  0999 V2000
   -2.8306   -3.8958    0.5155 H   0  0  0  0  0  0  0  0  0  0  0  0
   -2.8812   -2.8520    0.1934 C   0  0  0  0  0  0  0  0  0  0  0  0
   -3.4646   -2.2857    0.9235 H   0  0  0  0  0  0  0  0  0  0  0  0
   -3.3816   -2.8054   -0.7769 H   0  0  0  0  0  0  0  0  0  0  0  0
   -1.4852   -2.2690    0.0827 C   0  0  0  0  0  0  0  0  0  0  0  0
   -0.5076   -2.9654    0.3123 O   0  0  0  0  0  0  0  0  0  0  0  0
   -1.3208   -0.9511   -0.2876 N   0  0  0  0  0  0  0  0  0  0  0  0
   -2.1616   -0.3793   -0.3744 H   0  0  0  0  0  0  0  0  0  0  0  0
   -0.0444   -0.2248   -0.2694 C   0  0  1  0  0  0  0  0  0  0  0  0
    0.6042   -0.7526    0.4376 H   0  0  0  0  0  0  0  0  0  0  0  0
    0.6613   -0.3340   -1.6449 C   0  0  0  0  0  0  0  0  0  0  0  0
    1.7121   -0.5662   -1.4540 H   0  0  0  0  0  0  0  0  0  0  0  0
    0.2447   -1.1775   -2.2021 H   0  0  0  0  0  0  0  0  0  0  0  0
    0.6359    0.8911   -2.5548 C   0  0  0  0  0  0  0  0  0  0  0  0
   -0.2547    1.7138   -2.5736 O   0  0  0  0  0  0  0  0  0  0  0  0
    1.6454    1.1205   -3.4455 N   0  0  0  0  0  0  0  0  0  0  0  0
    1.4666    1.8495   -4.1308 H   0  0  0  0  0  0  0  0  0  0  0  0
    2.2930    0.3695   -3.6581 H   0  0  0  0  0  0  0  0  0  0  0  0
   -0.1953    1.1844    0.3526 C   0  0  0  0  0  0  0  0  0  0  0  0
   -1.2805    1.7528    0.3190 O   0  0  0  0  0  0  0  0  0  0  0  0
    0.7425    1.6318    1.2675 N   0  0  0  0  0  0  0  0  0  0  0  0
    1.5903    1.0858    1.3837 H   0  0  0  0  0  0  0  0  0  0  0  0
    0.5692    2.8395    2.0667 C   0  0  0  0  0  0  0  0  0  0  0  0
   -0.3033    2.7443    2.7217 H   0  0  0  0  0  0  0  0  0  0  0  0
    1.4521    3.0107    2.6898 H   0  0  0  0  0  0  0  0  0  0  0  0
    0.4295    3.7108    1.4181 H   0  0  0  0  0  0  0  0  0  0  0  0
  1  2  1  0  0  0  0
  2  3  1  0  0  0  0
  2  4  1  0  0  0  0
  2  5  1  0  0  0  0
  5  6  2  0  0  0  0
  5  7  1  0  0  0  0
  7  8  1  0  0  0  0
  7  9  1  0  0  0  0
  9 10  1  0  0  0  0
  9 11  1  0  0  0  0
  9 19  1  0  0  0  0
 11 12  1  0  0  0  0
 11 13  1  0  0  0  0
 11 14  1  0  0  0  0
 14 15  2  0  0  0  0
 14 16  1  0  0  0  0
 16 17  1  0  0  0  0
 16 18  1  0  0  0  0
 19 20  2  0  0  0  0
 19 21  1  0  0  0  0
 21 22  1  0  0  0  0
 21 23  1  0  0  0  0
 23 24  1  0  0  0  0
 23 25  1  0  0  0  0
 23 26  1  0  0  0  0
M  END
$$$$

  -OEChem-04042215573D

 26 25  0     1  0  0  0  0  0999 V2000
   -2.8235   -3.8896    0.5094 H   0  0  0  0  0  0  0  0  0  0  0  0
   -2.8774   -2.8409    0.2042 C   0  0  0  0  0  0  0  0  0  0  0  0
   -3.4336   -2.2816    0.9604 H   0  0  0  0  0  0  0  0  0  0  0  0
   -3.4081   -2.7772   -0.7489 H   0  0  0  0  0  0  0  0  0  0  0  0
   -1.4816   -2.2649    0.0582 C   0  0  0  0  0  0  0  0  0  0  0  0
   -0.5023   -2.9717    0.2440 O   0  0  0  0  0  0  0  0  0  0  0  0
   -1.3198   -0.9422   -0.2962 N   0  0  0  0  0  0  0  0  0  0  0  0
   -2.1591   -0.3624   -0.3298 H   0  0  0  0  0  0  0  0  0  0  0  0
   -0.0411   -0.2187   -0.2766 C   0  0  1  0  0  0  0  0  0  0  0  0
    0.6112   -0.7534    0.4219 H   0  0  0  0  0  0  0  0  0  0  0  0
    0.6566   -0.3185   -1.6588 C   0  0  0  0  0  0  0  0  0  0  0  0
    1.7069   -0.5561   -1.4729 H   0  0  0  0  0  0  0  0  0  0  0  0
    0.2340   -1.1607   -2.2134 H   0  0  0  0  0  0  0  0  0  0  0  0
    0.6465    0.8999   -2.5803 C   0  0  0  0  0  0  0  0  0  0  0  0
   -0.0710    1.8693   -2.4552 O   0  0  0  0  0  0  0  0  0  0  0  0
    1.4797    0.9511   -3.6607 N   0  0  0  0  0  0  0  0  0  0  0  0
    1.2911    1.6983   -4.3234 H   0  0  0  0  0  0  0  0  0  0  0  0
    1.9341    0.0987   -3.9702 H   0  0  0  0  0  0  0  0  0  0  0  0
   -0.2004    1.1800    0.3676 C   0  0  0  0  0  0  0  0  0  0  0  0
   -1.2982    1.7268    0.3577 O   0  0  0  0  0  0  0  0  0  0  0  0
    0.7346    1.6236    1.2874 N   0  0  0  0  0  0  0  0  0  0  0  0
    1.6090    1.1131    1.3593 H   0  0  0  0  0  0  0  0  0  0  0  0
    0.5580    2.8311    2.0860 C   0  0  0  0  0  0  0  0  0  0  0  0
   -0.3093    2.7300    2.7469 H   0  0  0  0  0  0  0  0  0  0  0  0
    1.4435    3.0103    2.7031 H   0  0  0  0  0  0  0  0  0  0  0  0
    0.4068    3.7002    1.4368 H   0  0  0  0  0  0  0  0  0  0  0  0
  1  2  1  0  0  0  0
  2  3  1  0  0  0  0
  2  4  1  0  0  0  0
  2  5  1  0  0  0  0
  5  6  2  0  0  0  0
  5  7  1  0  0  0  0
  7  8  1  0  0  0  0
  7  9  1  0  0  0  0
  9 10  1  0  0  0  0
  9 11  1  0  0  0  0
  9 19  1  0  0  0  0
 11 12  1  0  0  0  0
 11 13  1  0  0  0  0
 11 14  1  0  0  0  0
 14 15  2  0  0  0  0
 14 16  1  0  0  0  0
 16 17  1  0  0  0  0
 16 18  1  0  0  0  0
 19 20  2  0  0  0  0
 19 21  1  0  0  0  0
 21 22  1  0  0  0  0
 21 23  1  0  0  0  0
 23 24  1  0  0  0  0
 23 25  1  0  0  0  0
 23 26  1  0  0  0  0
M  END
$$$$

  -OEChem-04042215573D

 26 25  0     1  0  0  0  0  0999 V2000
   -2.8269   -3.8814    0.5256 H   0  0  0  0  0  0  0  0  0  0  0  0
   -2.8797   -2.8353    0.2112 C   0  0  0  0  0  0  0  0  0  0  0  0
   -3.4236   -2.2664    0.9694 H   0  0  0  0  0  0  0  0  0  0  0  0
   -3.4227   -2.7779   -0.7352 H   0  0  0  0  0  0  0  0  0  0  0  0
   -1.4830   -2.2678    0.0413 C   0  0  0  0  0  0  0  0  0  0  0  0
   -0.5050   -2.9833    0.1978 O   0  0  0  0  0  0  0  0  0  0  0  0
   -1.3186   -0.9423   -0.3012 N   0  0  0  0  0  0  0  0  0  0  0  0
   -2.1541   -0.3558   -0.3012 H   0  0  0  0  0  0  0  0  0  0  0  0
   -0.0352   -0.2261   -0.2772 C   0  0  1  0  0  0  0  0  0  0  0  0
    0.6202   -0.7682    0.4128 H   0  0  0  0  0  0  0  0  0  0  0  0
    0.6510   -0.3139   -1.6675 C   0  0  0  0  0  0  0  0  0  0  0  0
    1.7010   -0.5631   -1.4941 H   0  0  0  0  0  0  0  0  0  0  0  0
    0.2158   -1.1487   -2.2234 H   0  0  0  0  0  0  0  0  0  0  0  0
    0.6518    0.9073   -2.5863 C   0  0  0  0  0  0  0  0  0  0  0  0
    0.1538    1.9842   -2.3365 O   0  0  0  0  0  0  0  0  0  0  0  0
    1.2484    0.8387   -3.8123 N   0  0  0  0  0  0  0  0  0  0  0  0
    1.0553    1.6168   -4.4368 H   0  0  0  0  0  0  0  0  0  0  0  0
    1.4867   -0.0715   -4.1913 H   0  0  0  0  0  0  0  0  0  0  0  0
   -0.2021    1.1640    0.3837 C   0  0  0  0  0  0  0  0  0  0  0  0
   -1.3031    1.7058    0.3710 O   0  0  0  0  0  0  0  0  0  0  0  0
    0.7270    1.6030    1.3111 N   0  0  0  0  0  0  0  0  0  0  0  0
    1.6183    1.1192    1.3515 H   0  0  0  0  0  0  0  0  0  0  0  0
    0.5596    2.8290    2.0825 C   0  0  0  0  0  0  0  0  0  0  0  0
   -0.3298    2.7636    2.7180 H   0  0  0  0  0  0  0  0  0  0  0  0
    1.4303    2.9957    2.7238 H   0  0  0  0  0  0  0  0  0  0  0  0
    0.4519    3.6890    1.4129 H   0  0  0  0  0  0  0  0  0  0  0  0
  1  2  1  0  0  0  0
  2  3  1  0  0  0  0
  2  4  1  0  0  0  0
  2  5  1  0  0  0  0
  5  6  2  0  0  0  0
  5  7  1  0  0  0  0
  7  8  1  0  0  0  0
  7  9  1  0  0  0  0
  9 10  1  0  0  0  0
  9 11  1  0  0  0  0
  9 19  1  0  0  0  0
 11 12  1  0  0  0  0
 11 13  1  0  0  0  0
 11 14  1  0  0  0  0
 14 15  2  0  0  0  0
 14 16  1  0  0  0  0
 16 17  1  0  0  0  0
 16 18  1  0  0  0  0
 19 20  2  0  0  0  0
 19 21  1  0  0  0  0
 21 22  1  0  0  0  0
 21 23  1  0  0  0  0
 23 24  1  0  0  0  0
 23 25  1  0  0  0  0
 23 26  1  0  0  0  0
M  END
$$$$

  -OEChem-04042215573D

 26 25  0     1  0  0  0  0  0999 V2000
   -2.8440   -3.8669    0.5458 H   0  0  0  0  0  0  0  0  0  0  0  0
   -2.8879   -2.8227    0.2238 C   0  0  0  0  0  0  0  0  0  0  0  0
   -3.4205   -2.2426    0.9817 H   0  0  0  0  0  0  0  0  0  0  0  0
   -3.4366   -2.7667   -0.7194 H   0  0  0  0  0  0  0  0  0  0  0  0
   -1.4864   -2.2717    0.0405 C   0  0  0  0  0  0  0  0  0  0  0  0
   -0.5158   -2.9992    0.1858 O   0  0  0  0  0  0  0  0  0  0  0  0
   -1.3094   -0.9481   -0.3027 N   0  0  0  0  0  0  0  0  0  0  0  0
   -2.1374   -0.3512   -0.2846 H   0  0  0  0  0  0  0  0  0  0  0  0
   -0.0178   -0.2459   -0.2755 C   0  0  1  0  0  0  0  0  0  0  0  0
    0.6398   -0.7938    0.4079 H   0  0  0  0  0  0  0  0  0  0  0  0
    0.6510   -0.3259   -1.6757 C   0  0  0  0  0  0  0  0  0  0  0  0
    1.6999   -0.5907   -1.5205 H   0  0  0  0  0  0  0  0  0  0  0  0
    0.1981   -1.1499   -2.2337 H   0  0  0  0  0  0  0  0  0  0  0  0
    0.6594    0.9049   -2.5827 C   0  0  0  0  0  0  0  0  0  0  0  0
    0.4183    2.0418   -2.2350 O   0  0  0  0  0  0  0  0  0  0  0  0
    0.9682    0.7783   -3.9065 N   0  0  0  0  0  0  0  0  0  0  0  0
    0.7814    1.5964   -4.4797 H   0  0  0  0  0  0  0  0  0  0  0  0
    0.9672   -0.1463   -4.3235 H   0  0  0  0  0  0  0  0  0  0  0  0
   -0.1927    1.1425    0.3875 C   0  0  0  0  0  0  0  0  0  0  0  0
   -1.2921    1.6876    0.3471 O   0  0  0  0  0  0  0  0  0  0  0  0
    0.7243    1.5856    1.3246 N   0  0  0  0  0  0  0  0  0  0  0  0
    1.6274    1.1229    1.3510 H   0  0  0  0  0  0  0  0  0  0  0  0
    0.5545    2.8279    2.0690 C   0  0  0  0  0  0  0  0  0  0  0  0
   -0.3569    2.7909    2.6752 H   0  0  0  0  0  0  0  0  0  0  0  0
    1.4057    2.9886    2.7374 H   0  0  0  0  0  0  0  0  0  0  0  0
    0.4867    3.6784    1.3820 H   0  0  0  0  0  0  0  0  0  0  0  0
  1  2  1  0  0  0  0
  2  3  1  0  0  0  0
  2  4  1  0  0  0  0
  2  5  1  0  0  0  0
  5  6  2  0  0  0  0
  5  7  1  0  0  0  0
  7  8  1  0  0  0  0
  7  9  1  0  0  0  0
  9 10  1  0  0  0  0
  9 11  1  0  0  0  0
  9 19  1  0  0  0  0
 11 12  1  0  0  0  0
 11 13  1  0  0  0  0
 11 14  1  0  0  0  0
 14 15  2  0  0  0  0
 14 16  1  0  0  0  0
 16 17  1  0  0  0  0
 16 18  1  0  0  0  0
 19 20  2  0  0  0  0
 19 21  1  0  0  0  0
 21 22  1  0  0  0  0
 21 23  1  0  0  0  0
 23 24  1  0  0  0  0
 23 25  1  0  0  0  0
 23 26  1  0  0  0  0
M  END
$$$$

  -OEChem-04042215573D

 26 25  0     1  0  0  0  0  0999 V2000
   -2.8666   -3.8622    0.5588 H   0  0  0  0  0  0  0  0  0  0  0  0
   -2.8986   -2.8184    0.2342 C   0  0  0  0  0  0  0  0  0  0  0  0
   -3.4247   -2.2305    0.9905 H   0  0  0  0  0  0  0  0  0  0  0  0
   -3.4467   -2.7586   -0.7092 H   0  0  0  0  0  0  0  0  0  0  0  0
   -1.4908   -2.2834    0.0502 C   0  0  0  0  0  0  0  0  0  0  0  0
   -0.5282   -3.0184    0.2084 O   0  0  0  0  0  0  0  0  0  0  0  0
   -1.2997   -0.9645   -0.3039 N   0  0  0  0  0  0  0  0  0  0  0  0
   -2.1219   -0.3594   -0.2906 H   0  0  0  0  0  0  0  0  0  0  0  0
   -0.0007   -0.2758   -0.2699 C   0  0  1  0  0  0  0  0  0  0  0  0
    0.6554   -0.8241    0.4147 H   0  0  0  0  0  0  0  0  0  0  0  0
    0.6595   -0.3503   -1.6742 C   0  0  0  0  0  0  0  0  0  0  0  0
    1.7070   -0.6275   -1.5312 H   0  0  0  0  0  0  0  0  0  0  0  0
    0.1958   -1.1639   -2.2387 H   0  0  0  0  0  0  0  0  0  0  0  0
    0.6711    0.8971   -2.5583 C   0  0  0  0  0  0  0  0  0  0  0  0
    0.6994    2.0390   -2.1466 O   0  0  0  0  0  0  0  0  0  0  0  0
    0.6548    0.7861   -3.9191 N   0  0  0  0  0  0  0  0  0  0  0  0
    0.4777    1.6486   -4.4265 H   0  0  0  0  0  0  0  0  0  0  0  0
    0.4129   -0.1070   -4.3342 H   0  0  0  0  0  0  0  0  0  0  0  0
   -0.1837    1.1169    0.3808 C   0  0  0  0  0  0  0  0  0  0  0  0
   -1.2737    1.6759    0.2931 O   0  0  0  0  0  0  0  0  0  0  0  0
    0.7181    1.5678    1.3282 N   0  0  0  0  0  0  0  0  0  0  0  0
    1.6227    1.1085    1.3640 H   0  0  0  0  0  0  0  0  0  0  0  0
    0.5543    2.8366    2.0274 C   0  0  0  0  0  0  0  0  0  0  0  0
   -0.3746    2.8384    2.6074 H   0  0  0  0  0  0  0  0  0  0  0  0
    1.3896    3.0004    2.7149 H   0  0  0  0  0  0  0  0  0  0  0  0
    0.5250    3.6656    1.3124 H   0  0  0  0  0  0  0  0  0  0  0  0
  1  2  1  0  0  0  0
  2  3  1  0  0  0  0
  2  4  1  0  0  0  0
  2  5  1  0  0  0  0
  5  6  2  0  0  0  0
  5  7  1  0  0  0  0
  7  8  1  0  0  0  0
  7  9  1  0  0  0  0
  9 10  1  0  0  0  0
  9 11  1  0  0  0  0
  9 19  1  0  0  0  0
 11 12  1  0  0  0  0
 11 13  1  0  0  0  0
 11 14  1  0  0  0  0
 14 15  2  0  0  0  0
 14 16  1  0  0  0  0
 16 17  1  0  0  0  0
 16 18  1  0  0  0  0
 19 20  2  0  0  0  0
 19 21  1  0  0  0  0
 21 22  1  0  0  0  0
 21 23  1  0  0  0  0
 23 24  1  0  0  0  0
 23 25  1  0  0  0  0
 23 26  1  0  0  0  0
M  END
$$$$

  -OEChem-04042215573D

 26 25  0     1  0  0  0  0  0999 V2000
   -2.8851   -3.8646    0.5734 H   0  0  0  0  0  0  0  0  0  0  0  0
   -2.9069   -2.8255    0.2328 C   0  0  0  0  0  0  0  0  0  0  0  0
   -3.4419   -2.2243    0.9720 H   0  0  0  0  0  0  0  0  0  0  0  0
   -3.4394   -2.7772   -0.7200 H   0  0  0  0  0  0  0  0  0  0  0  0
   -1.4936   -2.3008    0.0632 C   0  0  0  0  0  0  0  0  0  0  0  0
   -0.5389   -3.0400    0.2462 O   0  0  0  0  0  0  0  0  0  0  0  0
   -1.2876   -0.9888   -0.3087 N   0  0  0  0  0  0  0  0  0  0  0  0
   -2.1050   -0.3774   -0.3135 H   0  0  0  0  0  0  0  0  0  0  0  0
    0.0175   -0.3117   -0.2630 C   0  0  1  0  0  0  0  0  0  0  0  0
    0.6685   -0.8568    0.4291 H   0  0  0  0  0  0  0  0  0  0  0  0
    0.6769   -0.3856   -1.6656 C   0  0  0  0  0  0  0  0  0  0  0  0
    1.7236   -0.6684   -1.5275 H   0  0  0  0  0  0  0  0  0  0  0  0
    0.2102   -1.1897   -2.2406 H   0  0  0  0  0  0  0  0  0  0  0  0
    0.6865    0.8815   -2.5183 C   0  0  0  0  0  0  0  0  0  0  0  0
    0.9814    1.9790   -2.0872 O   0  0  0  0  0  0  0  0  0  0  0  0
    0.3168    0.8545   -3.8323 N   0  0  0  0  0  0  0  0  0  0  0  0
    0.1468    1.7630   -4.2547 H   0  0  0  0  0  0  0  0  0  0  0  0
   -0.1660    0.0348   -4.1836 H   0  0  0  0  0  0  0  0  0  0  0  0
   -0.1702    1.0913    0.3634 C   0  0  0  0  0  0  0  0  0  0  0  0
   -1.2420    1.6709    0.2096 O   0  0  0  0  0  0  0  0  0  0  0  0
    0.7124    1.5564    1.3216 N   0  0  0  0  0  0  0  0  0  0  0  0
    1.6157    1.0964    1.3782 H   0  0  0  0  0  0  0  0  0  0  0  0
    0.5571    2.8558    1.9642 C   0  0  0  0  0  0  0  0  0  0  0  0
   -0.3961    2.9076    2.5009 H   0  0  0  0  0  0  0  0  0  0  0  0
    1.3655    3.0212    2.6827 H   0  0  0  0  0  0  0  0  0  0  0  0
    0.5859    3.6570    1.2178 H   0  0  0  0  0  0  0  0  0  0  0  0
  1  2  1  0  0  0  0
  2  3  1  0  0  0  0
  2  4  1  0  0  0  0
  2  5  1  0  0  0  0
  5  6  2  0  0  0  0
  5  7  1  0  0  0  0
  7  8  1  0  0  0  0
  7  9  1  0  0  0  0
  9 10  1  0  0  0  0
  9 11  1  0  0  0  0
  9 19  1  0  0  0  0
 11 12  1  0  0  0  0
 11 13  1  0  0  0  0
 11 14  1  0  0  0  0
 14 15  2  0  0  0  0
 14 16  1  0  0  0  0
 16 17  1  0  0  0  0
 16 18  1  0  0  0  0
 19 20  2  0  0  0  0
 19 21  1  0  0  0  0
 21 22  1  0  0  0  0
 21 23  1  0  0  0  0
 23 24  1  0  0  0  0
 23 25  1  0  0  0  0
 23 26  1  0  0  0  0
M  END
$$$$

  -OEChem-04042215573D

 26 25  0     1  0  0  0  0  0999 V2000
   -2.9047   -3.8693    0.6013 H   0  0  0  0  0  0  0  0  0  0  0  0
   -2.9134   -2.8429    0.2242 C   0  0  0  0  0  0  0  0  0  0  0  0
   -3.4682   -2.2154    0.9262 H   0  0  0  0  0  0  0  0  0  0  0  0
   -3.4176   -2.8272   -0.7451 H   0  0  0  0  0  0  0  0  0  0  0  0
   -1.4941   -2.3270    0.0782 C   0  0  0  0  0  0  0  0  0  0  0  0
   -0.5474   -3.0643    0.3037 O   0  0  0  0  0  0  0  0  0  0  0  0
   -1.2742   -1.0236   -0.3162 N   0  0  0  0  0  0  0  0  0  0  0  0
   -2.0887   -0.4096   -0.3510 H   0  0  0  0  0  0  0  0  0  0  0  0
    0.0343   -0.3534   -0.2613 C   0  0  1  0  0  0  0  0  0  0  0  0
    0.6815   -0.8922    0.4394 H   0  0  0  0  0  0  0  0  0  0  0  0
    0.6972   -0.4230   -1.6601 C   0  0  0  0  0  0  0  0  0  0  0  0
    1.7446   -0.7060   -1.5254 H   0  0  0  0  0  0  0  0  0  0  0  0
    0.2326   -1.2165   -2.2515 H   0  0  0  0  0  0  0  0  0  0  0  0
    0.6960    0.8677   -2.4723 C   0  0  0  0  0  0  0  0  0  0  0  0
    1.2368    1.8823   -2.0748 O   0  0  0  0  0  0  0  0  0  0  0  0
   -0.0099    0.9865   -3.6346 N   0  0  0  0  0  0  0  0  0  0  0  0
   -0.1596    1.9414   -3.9483 H   0  0  0  0  0  0  0  0  0  0  0  0
   -0.7018    0.2762   -3.8468 H   0  0  0  0  0  0  0  0  0  0  0  0
   -0.1584    1.0619    0.3342 C   0  0  0  0  0  0  0  0  0  0  0  0
   -1.2074    1.6599    0.1096 O   0  0  0  0  0  0  0  0  0  0  0  0
    0.7046    1.5475    1.2991 N   0  0  0  0  0  0  0  0  0  0  0  0
    1.5977    1.0742    1.3982 H   0  0  0  0  0  0  0  0  0  0  0  0
    0.5612    2.8790    1.8749 C   0  0  0  0  0  0  0  0  0  0  0  0
   -0.4117    2.9828    2.3669 H   0  0  0  0  0  0  0  0  0  0  0  0
    1.3433    3.0558    2.6192 H   0  0  0  0  0  0  0  0  0  0  0  0
    0.6448    3.6428    1.0944 H   0  0  0  0  0  0  0  0  0  0  0  0
  1  2  1  0  0  0  0
  2  3  1  0  0  0  0
  2  4  1  0  0  0  0
  2  5  1  0  0  0  0
  5  6  2  0  0  0  0
  5  7  1  0  0  0  0
  7  8  1  0  0  0  0
  7  9  1  0  0  0  0
  9 10  1  0  0  0  0
  9 11  1  0  0  0  0
  9 19  1  0  0  0  0
 11 12  1  0  0  0  0
 11 13  1  0  0  0  0
 11 14  1  0  0  0  0
 14 15  2  0  0  0  0
 14 16  1  0  0  0  0
 16 17  1  0  0  0  0
 16 18  1  0  0  0  0
 19 20  2  0  0  0  0
 19 21  1  0  0  0  0
 21 22  1  0  0  0  0
 21 23  1  0  0  0  0
 23 24  1  0  0  0  0
 23 25  1  0  0  0  0
 23 26  1  0  0  0  0
M  END
$$$$

  -OEChem-04042215573D

 26 25  0     1  0  0  0  0  0999 V2000
   -2.9062   -3.8920    0.6127 H   0  0  0  0  0  0  0  0  0  0  0  0
   -2.9162   -2.8702    0.2228 C   0  0  0  0  0  0  0  0  0  0  0  0
   -3.4845   -2.2377    0.9092 H   0  0  0  0  0  0  0  0  0  0  0  0
   -3.4080   -2.8702   -0.7529 H   0  0  0  0  0  0  0  0  0  0  0  0
   -1.4979   -2.3476    0.0884 C   0  0  0  0  0  0  0  0  0  0  0  0
   -0.5506   -3.0760    0.3380 O   0  0  0  0  0  0  0  0  0  0  0  0
   -1.2803   -1.0481   -0.3211 N   0  0  0  0  0  0  0  0  0  0  0  0
   -2.0977   -0.4399   -0.3733 H   0  0  0  0  0  0  0  0  0  0  0  0
    0.0257   -0.3728   -0.2657 C   0  0  1  0  0  0  0  0  0  0  0  0
    0.6728   -0.9052    0.4401 H   0  0  0  0  0  0  0  0  0  0  0  0
    0.6961   -0.4376   -1.6586 C   0  0  0  0  0  0  0  0  0  0  0  0
    1.7458   -0.7131   -1.5245 H   0  0  0  0  0  0  0  0  0  0  0  0
    0.2379   -1.2251   -2.2630 H   0  0  0  0  0  0  0  0  0  0  0  0
    0.6727    0.8701   -2.4384 C   0  0  0  0  0  0  0  0  0  0  0  0
    1.4147    1.7892   -2.1462 O   0  0  0  0  0  0  0  0  0  0  0  0
   -0.2577    1.1231   -3.4039 N   0  0  0  0  0  0  0  0  0  0  0  0
   -0.3631    2.1052   -3.6422 H   0  0  0  0  0  0  0  0  0  0  0  0
   -1.0666    0.5134   -3.4476 H   0  0  0  0  0  0  0  0  0  0  0  0
   -0.1615    1.0511    0.3095 C   0  0  0  0  0  0  0  0  0  0  0  0
   -1.1915    1.6646    0.0443 O   0  0  0  0  0  0  0  0  0  0  0  0
    0.6994    1.5469    1.2705 N   0  0  0  0  0  0  0  0  0  0  0  0
    1.5815    1.0588    1.3948 H   0  0  0  0  0  0  0  0  0  0  0  0
    0.5728    2.8932    1.8149 C   0  0  0  0  0  0  0  0  0  0  0  0
   -0.4004    3.0219    2.3000 H   0  0  0  0  0  0  0  0  0  0  0  0
    1.3541    3.0750    2.5589 H   0  0  0  0  0  0  0  0  0  0  0  0
    0.6717    3.6382    1.0182 H   0  0  0  0  0  0  0  0  0  0  0  0
  1  2  1  0  0  0  0
  2  3  1  0  0  0  0
  2  4  1  0  0  0  0
  2  5  1  0  0  0  0
  5  6  2  0  0  0  0
  5  7  1  0  0  0  0
  7  8  1  0  0  0  0
  7  9  1  0  0  0  0
  9 10  1  0  0  0  0
  9 11  1  0  0  0  0
  9 19  1  0  0  0  0
 11 12  1  0  0  0  0
 11 13  1  0  0  0  0
 11 14  1  0  0  0  0
 14 15  2  0  0  0  0
 14 16  1  0  0  0  0
 16 17  1  0  0  0  0
 16 18  1  0  0  0  0
 19 20  2  0  0  0  0
 19 21  1  0  0  0  0
 21 22  1  0  0  0  0
 21 23  1  0  0  0  0
 23 24  1  0  0  0  0
 23 25  1  0  0  0  0
 23 26  1  0  0  0  0
M  END
$$$$

  -OEChem-04042215573D

 26 25  0     1  0  0  0  0  0999 V2000
   -2.8945   -3.9153    0.6178 H   0  0  0  0  0  0  0  0  0  0  0  0
   -2.9133   -2.8940    0.2272 C   0  0  0  0  0  0  0  0  0  0  0  0
   -3.4896   -2.2666    0.9115 H   0  0  0  0  0  0  0  0  0  0  0  0
   -3.4019   -2.8995   -0.7500 H   0  0  0  0  0  0  0  0  0  0  0  0
   -1.4999   -2.3582    0.0963 C   0  0  0  0  0  0  0  0  0  0  0  0
   -0.5470   -3.0764    0.3535 O   0  0  0  0  0  0  0  0  0  0  0  0
   -1.2926   -1.0578   -0.3170 N   0  0  0  0  0  0  0  0  0  0  0  0
   -2.1153   -0.4573   -0.3697 H   0  0  0  0  0  0  0  0  0  0  0  0
    0.0100   -0.3753   -0.2687 C   0  0  1  0  0  0  0  0  0  0  0  0
    0.6622   -0.9054    0.4340 H   0  0  0  0  0  0  0  0  0  0  0  0
    0.6792   -0.4327   -1.6610 C   0  0  0  0  0  0  0  0  0  0  0  0
    1.7307   -0.7044   -1.5318 H   0  0  0  0  0  0  0  0  0  0  0  0
    0.2223   -1.2163   -2.2712 H   0  0  0  0  0  0  0  0  0  0  0  0
    0.6377    0.8828   -2.4260 C   0  0  0  0  0  0  0  0  0  0  0  0
    1.5337    1.6976   -2.3122 O   0  0  0  0  0  0  0  0  0  0  0  0
   -0.4329    1.2499   -3.1883 N   0  0  0  0  0  0  0  0  0  0  0  0
   -0.4670    2.2406   -3.4115 H   0  0  0  0  0  0  0  0  0  0  0  0
   -1.3034    0.7545   -3.0294 H   0  0  0  0  0  0  0  0  0  0  0  0
   -0.1687    1.0502    0.3030 C   0  0  0  0  0  0  0  0  0  0  0  0
   -1.1874    1.6752    0.0230 O   0  0  0  0  0  0  0  0  0  0  0  0
    0.6993    1.5486    1.2558 N   0  0  0  0  0  0  0  0  0  0  0  0
    1.5681    1.0426    1.4028 H   0  0  0  0  0  0  0  0  0  0  0  0
    0.5821    2.8965    1.7987 C   0  0  0  0  0  0  0  0  0  0  0  0
   -0.3881    3.0314    2.2884 H   0  0  0  0  0  0  0  0  0  0  0  0
    1.3681    3.0757    2.5386 H   0  0  0  0  0  0  0  0  0  0  0  0
    0.6810    3.6395    1.0002 H   0  0  0  0  0  0  0  0  0  0  0  0
  1  2  1  0  0  0  0
  2  3  1  0  0  0  0
  2  4  1  0  0  0  0
  2  5  1  0  0  0  0
  5  6  2  0  0  0  0
  5  7  1  0  0  0  0
  7  8  1  0  0  0  0
  7  9  1  0  0  0  0
  9 10  1  0  0  0  0
  9 11  1  0  0  0  0
  9 19  1  0  0  0  0
 11 12  1  0  0  0  0
 11 13  1  0  0  0  0
 11 14  1  0  0  0  0
 14 15  2  0  0  0  0
 14 16  1  0  0  0  0
 16 17  1  0  0  0  0
 16 18  1  0  0  0  0
 19 20  2  0  0  0  0
 19 21  1  0  0  0  0
 21 22  1  0  0  0  0
 21 23  1  0  0  0  0
 23 24  1  0  0  0  0
 23 25  1  0  0  0  0
 23 26  1  0  0  0  0
M  END
$$$$

  -OEChem-04042215573D

 26 25  0     1  0  0  0  0  0999 V2000
   -2.8803   -3.9345    0.6185 H   0  0  0  0  0  0  0  0  0  0  0  0
   -2.9069   -2.9115    0.2326 C   0  0  0  0  0  0  0  0  0  0  0  0
   -3.4891   -2.2918    0.9190 H   0  0  0  0  0  0  0  0  0  0  0  0
   -3.3940   -2.9165   -0.7455 H   0  0  0  0  0  0  0  0  0  0  0  0
   -1.4981   -2.3630    0.1064 C   0  0  0  0  0  0  0  0  0  0  0  0
   -0.5394   -3.0719    0.3673 O   0  0  0  0  0  0  0  0  0  0  0  0
   -1.3031   -1.0594   -0.3034 N   0  0  0  0  0  0  0  0  0  0  0  0
   -2.1322   -0.4686   -0.3564 H   0  0  0  0  0  0  0  0  0  0  0  0
   -0.0044   -0.3684   -0.2661 C   0  0  1  0  0  0  0  0  0  0  0  0
    0.6567   -0.8988    0.4283 H   0  0  0  0  0  0  0  0  0  0  0  0
    0.6552   -0.4181   -1.6633 C   0  0  0  0  0  0  0  0  0  0  0  0
    1.7081   -0.6880   -1.5402 H   0  0  0  0  0  0  0  0  0  0  0  0
    0.1956   -1.2022   -2.2711 H   0  0  0  0  0  0  0  0  0  0  0  0
    0.6040    0.8951   -2.4345 C   0  0  0  0  0  0  0  0  0  0  0  0
    1.5954    1.5898   -2.5502 O   0  0  0  0  0  0  0  0  0  0  0  0
   -0.5454    1.3777   -2.9891 N   0  0  0  0  0  0  0  0  0  0  0  0
   -0.4932    2.3554   -3.2597 H   0  0  0  0  0  0  0  0  0  0  0  0
   -1.4147    1.0343   -2.5937 H   0  0  0  0  0  0  0  0  0  0  0  0
   -0.1760    1.0544    0.3119 C   0  0  0  0  0  0  0  0  0  0  0  0
   -1.1911    1.6860    0.0347 O   0  0  0  0  0  0  0  0  0  0  0  0
    0.7032    1.5513    1.2547 N   0  0  0  0  0  0  0  0  0  0  0  0
    1.5579    1.0270    1.4213 H   0  0  0  0  0  0  0  0  0  0  0  0
    0.5887    2.8922    1.8151 C   0  0  0  0  0  0  0  0  0  0  0  0
   -0.3773    3.0190    2.3151 H   0  0  0  0  0  0  0  0  0  0  0  0
    1.3811    3.0634    2.5500 H   0  0  0  0  0  0  0  0  0  0  0  0
    0.6795    3.6457    1.0255 H   0  0  0  0  0  0  0  0  0  0  0  0
  1  2  1  0  0  0  0
  2  3  1  0  0  0  0
  2  4  1  0  0  0  0
  2  5  1  0  0  0  0
  5  6  2  0  0  0  0
  5  7  1  0  0  0  0
  7  8  1  0  0  0  0
  7  9  1  0  0  0  0
  9 10  1  0  0  0  0
  9 11  1  0  0  0  0
  9 19  1  0  0  0  0
 11 12  1  0  0  0  0
 11 13  1  0  0  0  0
 11 14  1  0  0  0  0
 14 15  2  0  0  0  0
 14 16  1  0  0  0  0
 16 17  1  0  0  0  0
 16 18  1  0  0  0  0
 19 20  2  0  0  0  0
 19 21  1  0  0  0  0
 21 22  1  0  0  0  0
 21 23  1  0  0  0  0
 23 24  1  0  0  0  0
 23 25  1  0  0  0  0
 23 26  1  0  0  0  0
M  END
$$$$

  -OEChem-04042215573D

 26 25  0     1  0  0  0  0  0999 V2000
   -2.8640   -3.9507    0.6022 H   0  0  0  0  0  0  0  0  0  0  0  0
   -2.8991   -2.9210    0.2354 C   0  0  0  0  0  0  0  0  0  0  0  0
   -3.4882   -2.3195    0.9320 H   0  0  0  0  0  0  0  0  0  0  0  0
   -3.3848   -2.9123   -0.7435 H   0  0  0  0  0  0  0  0  0  0  0  0
   -1.4947   -2.3581    0.1221 C   0  0  0  0  0  0  0  0  0  0  0  0
   -0.5310   -3.0580    0.3886 O   0  0  0  0  0  0  0  0  0  0  0  0
   -1.3091   -1.0508   -0.2799 N   0  0  0  0  0  0  0  0  0  0  0  0
   -2.1437   -0.4705   -0.3510 H   0  0  0  0  0  0  0  0  0  0  0  0
   -0.0135   -0.3530   -0.2568 C   0  0  1  0  0  0  0  0  0  0  0  0
    0.6576   -0.8859    0.4259 H   0  0  0  0  0  0  0  0  0  0  0  0
    0.6290   -0.4000   -1.6630 C   0  0  0  0  0  0  0  0  0  0  0  0
    1.6827   -0.6708   -1.5489 H   0  0  0  0  0  0  0  0  0  0  0  0
    0.1625   -1.1869   -2.2617 H   0  0  0  0  0  0  0  0  0  0  0  0
    0.5731    0.9034   -2.4534 C   0  0  0  0  0  0  0  0  0  0  0  0
    1.5926    1.4553   -2.8193 O   0  0  0  0  0  0  0  0  0  0  0  0
   -0.5972    1.5048   -2.8145 N   0  0  0  0  0  0  0  0  0  0  0  0
   -0.4764    2.4433   -3.1829 H   0  0  0  0  0  0  0  0  0  0  0  0
   -1.3882    1.3356   -2.1977 H   0  0  0  0  0  0  0  0  0  0  0  0
   -0.1766    1.0648    0.3334 C   0  0  0  0  0  0  0  0  0  0  0  0
   -1.1929    1.7010    0.0708 O   0  0  0  0  0  0  0  0  0  0  0  0
    0.7170    1.5572    1.2649 N   0  0  0  0  0  0  0  0  0  0  0  0
    1.5604    1.0181    1.4426 H   0  0  0  0  0  0  0  0  0  0  0  0
    0.5947    2.8810    1.8637 C   0  0  0  0  0  0  0  0  0  0  0  0
   -0.3621    2.9796    2.3873 H   0  0  0  0  0  0  0  0  0  0  0  0
    1.4004    3.0442    2.5858 H   0  0  0  0  0  0  0  0  0  0  0  0
    0.6568    3.6572    1.0936 H   0  0  0  0  0  0  0  0  0  0  0  0
  1  2  1  0  0  0  0
  2  3  1  0  0  0  0
  2  4  1  0  0  0  0
  2  5  1  0  0  0  0
  5  6  2  0  0  0  0
  5  7  1  0  0  0  0
  7  8  1  0  0  0  0
  7  9  1  0  0  0  0
  9 10  1  0  0  0  0
  9 11  1  0  0  0  0
  9 19  1  0  0  0  0
 11 12  1  0  0  0  0
 11 13  1  0  0  0  0
 11 14  1  0  0  0  0
 14 15  2  0  0  0  0
 14 16  1  0  0  0  0
 16 17  1  0  0  0  0
 16 18  1  0  0  0  0
 19 20  2  0  0  0  0
 19 21  1  0  0  0  0
 21 22  1  0  0  0  0
 21 23  1  0  0  0  0
 23 24  1  0  0  0  0
 23 25  1  0  0  0  0
 23 26  1  0  0  0  0
M  END
$$$$

  -OEChem-04042215573D

 26 25  0     1  0  0  0  0  0999 V2000
   -2.8479   -3.9568    0.5849 H   0  0  0  0  0  0  0  0  0  0  0  0
   -2.8902   -2.9239    0.2279 C   0  0  0  0  0  0  0  0  0  0  0  0
   -3.4919   -2.3352    0.9247 H   0  0  0  0  0  0  0  0  0  0  0  0
   -3.3658   -2.9107   -0.7558 H   0  0  0  0  0  0  0  0  0  0  0  0
   -1.4906   -2.3459    0.1335 C   0  0  0  0  0  0  0  0  0  0  0  0
   -0.5229   -3.0384    0.4051 O   0  0  0  0  0  0  0  0  0  0  0  0
   -1.3136   -1.0325   -0.2527 N   0  0  0  0  0  0  0  0  0  0  0  0
   -2.1525   -0.4628   -0.3519 H   0  0  0  0  0  0  0  0  0  0  0  0
   -0.0221   -0.3277   -0.2393 C   0  0  1  0  0  0  0  0  0  0  0  0
    0.6555   -0.8662    0.4324 H   0  0  0  0  0  0  0  0  0  0  0  0
    0.6098   -0.3743   -1.6518 C   0  0  0  0  0  0  0  0  0  0  0  0
    1.6651   -0.6397   -1.5403 H   0  0  0  0  0  0  0  0  0  0  0  0
    0.1433   -1.1690   -2.2407 H   0  0  0  0  0  0  0  0  0  0  0  0
    0.5522    0.9161   -2.4664 C   0  0  0  0  0  0  0  0  0  0  0  0
    1.5306    1.3115   -3.0697 O   0  0  0  0  0  0  0  0  0  0  0  0
   -0.5946    1.6255   -2.6765 N   0  0  0  0  0  0  0  0  0  0  0  0
   -0.4470    2.5178   -3.1381 H   0  0  0  0  0  0  0  0  0  0  0  0
   -1.2875    1.5828   -1.9294 H   0  0  0  0  0  0  0  0  0  0  0  0
   -0.1724    1.0826    0.3703 C   0  0  0  0  0  0  0  0  0  0  0  0
   -1.1862    1.7305    0.1280 O   0  0  0  0  0  0  0  0  0  0  0  0
    0.7389    1.5613    1.2918 N   0  0  0  0  0  0  0  0  0  0  0  0
    1.5634    0.9978    1.4821 H   0  0  0  0  0  0  0  0  0  0  0  0
    0.6170    2.8651    1.9329 C   0  0  0  0  0  0  0  0  0  0  0  0
   -0.3285    2.9373    2.4809 H   0  0  0  0  0  0  0  0  0  0  0  0
    1.4373    3.0161    2.6411 H   0  0  0  0  0  0  0  0  0  0  0  0
    0.6538    3.6643    1.1852 H   0  0  0  0  0  0  0  0  0  0  0  0
  1  2  1  0  0  0  0
  2  3  1  0  0  0  0
  2  4  1  0  0  0  0
  2  5  1  0  0  0  0
  5  6  2  0  0  0  0
  5  7  1  0  0  0  0
  7  8  1  0  0  0  0
  7  9  1  0  0  0  0
  9 10  1  0  0  0  0
  9 11  1  0  0  0  0
  9 19  1  0  0  0  0
 11 12  1  0  0  0  0
 11 13  1  0  0  0  0
 11 14  1  0  0  0  0
 14 15  2  0  0  0  0
 14 16  1  0  0  0  0
 16 17  1  0  0  0  0
 16 18  1  0  0  0  0
 19 20  2  0  0  0  0
 19 21  1  0  0  0  0
 21 22  1  0  0  0  0
 21 23  1  0  0  0  0
 23 24  1  0  0  0  0
 23 25  1  0  0  0  0
 23 26  1  0  0  0  0
M  END
$$$$

  -OEChem-04042215573D

 26 25  0     1  0  0  0  0  0999 V2000
   -2.8387   -3.9586    0.5371 H   0  0  0  0  0  0  0  0  0  0  0  0
   -2.8830   -2.9185    0.2021 C   0  0  0  0  0  0  0  0  0  0  0  0
   -3.4999   -2.3493    0.9016 H   0  0  0  0  0  0  0  0  0  0  0  0
   -3.3431   -2.8868   -0.7886 H   0  0  0  0  0  0  0  0  0  0  0  0
   -1.4868   -2.3279    0.1424 C   0  0  0  0  0  0  0  0  0  0  0  0
   -0.5177   -3.0152    0.4226 O   0  0  0  0  0  0  0  0  0  0  0  0
   -1.3154   -1.0084   -0.2249 N   0  0  0  0  0  0  0  0  0  0  0  0
   -2.1575   -0.4482   -0.3482 H   0  0  0  0  0  0  0  0  0  0  0  0
   -0.0280   -0.2962   -0.2147 C   0  0  1  0  0  0  0  0  0  0  0  0
    0.6497   -0.8416    0.4516 H   0  0  0  0  0  0  0  0  0  0  0  0
    0.6062   -0.3489   -1.6274 C   0  0  0  0  0  0  0  0  0  0  0  0
    1.6625   -0.6072   -1.5096 H   0  0  0  0  0  0  0  0  0  0  0  0
    0.1454   -1.1541   -2.2065 H   0  0  0  0  0  0  0  0  0  0  0  0
    0.5534    0.9236   -2.4717 C   0  0  0  0  0  0  0  0  0  0  0  0
    1.4308    1.1554   -3.2803 O   0  0  0  0  0  0  0  0  0  0  0  0
   -0.5450    1.7280   -2.5724 N   0  0  0  0  0  0  0  0  0  0  0  0
   -0.4023    2.5713   -3.1194 H   0  0  0  0  0  0  0  0  0  0  0  0
   -1.1611    1.7718   -1.7593 H   0  0  0  0  0  0  0  0  0  0  0  0
   -0.1604    1.1072    0.4144 C   0  0  0  0  0  0  0  0  0  0  0  0
   -1.1702    1.7690    0.1960 O   0  0  0  0  0  0  0  0  0  0  0  0
    0.7691    1.5675    1.3274 N   0  0  0  0  0  0  0  0  0  0  0  0
    1.5779    0.9824    1.5202 H   0  0  0  0  0  0  0  0  0  0  0  0
    0.6530    2.8506    2.0105 C   0  0  0  0  0  0  0  0  0  0  0  0
   -0.2766    2.8958    2.5878 H   0  0  0  0  0  0  0  0  0  0  0  0
    1.4926    2.9903    2.6984 H   0  0  0  0  0  0  0  0  0  0  0  0
    0.6592    3.6718    1.2860 H   0  0  0  0  0  0  0  0  0  0  0  0
  1  2  1  0  0  0  0
  2  3  1  0  0  0  0
  2  4  1  0  0  0  0
  2  5  1  0  0  0  0
  5  6  2  0  0  0  0
  5  7  1  0  0  0  0
  7  8  1  0  0  0  0
  7  9  1  0  0  0  0
  9 10  1  0  0  0  0
  9 11  1  0  0  0  0
  9 19  1  0  0  0  0
 11 12  1  0  0  0  0
 11 13  1  0  0  0  0
 11 14  1  0  0  0  0
 14 15  2  0  0  0  0
 14 16  1  0  0  0  0
 16 17  1  0  0  0  0
 16 18  1  0  0  0  0
 19 20  2  0  0  0  0
 19 21  1  0  0  0  0
 21 22  1  0  0  0  0
 21 23  1  0  0  0  0
 23 24  1  0  0  0  0
 23 25  1  0  0  0  0
 23 26  1  0  0  0  0
M  END
$$$$

  -OEChem-04042215573D

 26 25  0     1  0  0  0  0  0999 V2000
   -2.8371   -3.9519    0.4986 H   0  0  0  0  0  0  0  0  0  0  0  0
   -2.8803   -2.9133    0.1584 C   0  0  0  0  0  0  0  0  0  0  0  0
   -3.5243   -2.3476    0.8360 H   0  0  0  0  0  0  0  0  0  0  0  0
   -3.3095   -2.8894   -0.8462 H   0  0  0  0  0  0  0  0  0  0  0  0
   -1.4884   -2.3102    0.1414 C   0  0  0  0  0  0  0  0  0  0  0  0
   -0.5229   -2.9886    0.4540 O   0  0  0  0  0  0  0  0  0  0  0  0
   -1.3172   -0.9882   -0.2172 N   0  0  0  0  0  0  0  0  0  0  0  0
   -2.1584   -0.4391   -0.3866 H   0  0  0  0  0  0  0  0  0  0  0  0
   -0.0359   -0.2669   -0.1826 C   0  0  1  0  0  0  0  0  0  0  0  0
    0.6216   -0.8100    0.5052 H   0  0  0  0  0  0  0  0  0  0  0  0
    0.6462   -0.3438   -1.5731 C   0  0  0  0  0  0  0  0  0  0  0  0
    1.6995   -0.5885   -1.4094 H   0  0  0  0  0  0  0  0  0  0  0  0
    0.2139   -1.1709   -2.1434 H   0  0  0  0  0  0  0  0  0  0  0  0
    0.6266    0.8958   -2.4691 C   0  0  0  0  0  0  0  0  0  0  0  0
    1.3763    0.9553   -3.4240 O   0  0  0  0  0  0  0  0  0  0  0  0
   -0.3747    1.8241   -2.4947 N   0  0  0  0  0  0  0  0  0  0  0  0
   -0.2310    2.6085   -3.1228 H   0  0  0  0  0  0  0  0  0  0  0  0
   -0.9459    1.9483   -1.6572 H   0  0  0  0  0  0  0  0  0  0  0  0
   -0.1686    1.1358    0.4466 C   0  0  0  0  0  0  0  0  0  0  0  0
   -1.1681    1.8092    0.2194 O   0  0  0  0  0  0  0  0  0  0  0  0
    0.7550    1.5864    1.3707 N   0  0  0  0  0  0  0  0  0  0  0  0
    1.5454    0.9843    1.5859 H   0  0  0  0  0  0  0  0  0  0  0  0
    0.6324    2.8595    2.0714 C   0  0  0  0  0  0  0  0  0  0  0  0
   -0.3115    2.9042    2.6250 H   0  0  0  0  0  0  0  0  0  0  0  0
    1.4548    2.9798    2.7832 H   0  0  0  0  0  0  0  0  0  0  0  0
    0.6648    3.6923    1.3612 H   0  0  0  0  0  0  0  0  0  0  0  0
  1  2  1  0  0  0  0
  2  3  1  0  0  0  0
  2  4  1  0  0  0  0
  2  5  1  0  0  0  0
  5  6  2  0  0  0  0
  5  7  1  0  0  0  0
  7  8  1  0  0  0  0
  7  9  1  0  0  0  0
  9 10  1  0  0  0  0
  9 11  1  0  0  0  0
  9 19  1  0  0  0  0
 11 12  1  0  0  0  0
 11 13  1  0  0  0  0
 11 14  1  0  0  0  0
 14 15  2  0  0  0  0
 14 16  1  0  0  0  0
 16 17  1  0  0  0  0
 16 18  1  0  0  0  0
 19 20  2  0  0  0  0
 19 21  1  0  0  0  0
 21 22  1  0  0  0  0
 21 23  1  0  0  0  0
 23 24  1  0  0  0  0
 23 25  1  0  0  0  0
 23 26  1  0  0  0  0
M  END
$$$$

  -OEChem-04042215573D

 26 25  0     1  0  0  0  0  0999 V2000
   -2.8649   -3.9440    0.4403 H   0  0  0  0  0  0  0  0  0  0  0  0
   -2.8902   -2.9016    0.1106 C   0  0  0  0  0  0  0  0  0  0  0  0
   -3.5389   -2.3356    0.7836 H   0  0  0  0  0  0  0  0  0  0  0  0
   -3.3022   -2.8622   -0.9007 H   0  0  0  0  0  0  0  0  0  0  0  0
   -1.4911   -2.3148    0.1220 C   0  0  0  0  0  0  0  0  0  0  0  0
   -0.5361   -3.0117    0.4265 O   0  0  0  0  0  0  0  0  0  0  0  0
   -1.2999   -0.9868   -0.2019 N   0  0  0  0  0  0  0  0  0  0  0  0
   -2.1307   -0.4205   -0.3678 H   0  0  0  0  0  0  0  0  0  0  0  0
   -0.0055   -0.2893   -0.1538 C   0  0  1  0  0  0  0  0  0  0  0  0
    0.6605   -0.8496    0.5118 H   0  0  0  0  0  0  0  0  0  0  0  0
    0.6430   -0.3348   -1.5694 C   0  0  0  0  0  0  0  0  0  0  0  0
    1.5852   -0.8815   -1.4738 H   0  0  0  0  0  0  0  0  0  0  0  0
    0.0045   -0.9286   -2.2299 H   0  0  0  0  0  0  0  0  0  0  0  0
    0.9734    0.9523   -2.3367 C   0  0  0  0  0  0  0  0  0  0  0  0
    1.4811    0.8655   -3.4375 O   0  0  0  0  0  0  0  0  0  0  0  0
    0.6018    2.2276   -2.0209 N   0  0  0  0  0  0  0  0  0  0  0  0
    0.6712    2.8915   -2.7860 H   0  0  0  0  0  0  0  0  0  0  0  0
   -0.1315    2.3542   -1.3215 H   0  0  0  0  0  0  0  0  0  0  0  0
   -0.1582    1.0882    0.5194 C   0  0  0  0  0  0  0  0  0  0  0  0
   -1.1142    1.8000    0.2298 O   0  0  0  0  0  0  0  0  0  0  0  0
    0.7500    1.5207    1.4668 N   0  0  0  0  0  0  0  0  0  0  0  0
    1.5296    0.9084    1.6928 H   0  0  0  0  0  0  0  0  0  0  0  0
    0.6630    2.8177    2.1274 C   0  0  0  0  0  0  0  0  0  0  0  0
   -0.3056    2.9323    2.6255 H   0  0  0  0  0  0  0  0  0  0  0  0
    1.4503    2.9110    2.8817 H   0  0  0  0  0  0  0  0  0  0  0  0
    0.7834    3.6266    1.3992 H   0  0  0  0  0  0  0  0  0  0  0  0
  1  2  1  0  0  0  0
  2  3  1  0  0  0  0
  2  4  1  0  0  0  0
  2  5  1  0  0  0  0
  5  6  2  0  0  0  0
  5  7  1  0  0  0  0
  7  8  1  0  0  0  0
  7  9  1  0  0  0  0
  9 10  1  0  0  0  0
  9 11  1  0  0  0  0
  9 19  1  0  0  0  0
 11 12  1  0  0  0  0
 11 13  1  0  0  0  0
 11 14  1  0  0  0  0
 14 15  2  0  0  0  0
 14 16  1  0  0  0  0
 16 17  1  0  0  0  0
 16 18  1  0  0  0  0
 19 20  2  0  0  0  0
 19 21  1  0  0  0  0
 21 22  1  0  0  0  0
 21 23  1  0  0  0  0
 23 24  1  0  0  0  0
 23 25  1  0  0  0  0
 23 26  1  0  0  0  0
M  END
$$$$

  -OEChem-04042215573D

 26 25  0     1  0  0  0  0  0999 V2000
   -2.8687   -3.9590    0.4213 H   0  0  0  0  0  0  0  0  0  0  0  0
   -2.8947   -2.9139    0.0999 C   0  0  0  0  0  0  0  0  0  0  0  0
   -3.5583   -2.3574    0.7663 H   0  0  0  0  0  0  0  0  0  0  0  0
   -3.2897   -2.8683   -0.9180 H   0  0  0  0  0  0  0  0  0  0  0  0
   -1.4997   -2.3188    0.1411 C   0  0  0  0  0  0  0  0  0  0  0  0
   -0.5497   -3.0051    0.4830 O   0  0  0  0  0  0  0  0  0  0  0  0
   -1.3067   -0.9944   -0.1960 N   0  0  0  0  0  0  0  0  0  0  0  0
   -2.1324   -0.4396   -0.4168 H   0  0  0  0  0  0  0  0  0  0  0  0
   -0.0130   -0.2963   -0.1515 C   0  0  1  0  0  0  0  0  0  0  0  0
    0.6582   -0.8506    0.5138 H   0  0  0  0  0  0  0  0  0  0  0  0
    0.6220   -0.3501   -1.5733 C   0  0  0  0  0  0  0  0  0  0  0  0
    1.5658   -0.8946   -1.4829 H   0  0  0  0  0  0  0  0  0  0  0  0
   -0.0207   -0.9507   -2.2240 H   0  0  0  0  0  0  0  0  0  0  0  0
    0.9472    0.9321   -2.3528 C   0  0  0  0  0  0  0  0  0  0  0  0
    1.1800    0.8548   -3.5434 O   0  0  0  0  0  0  0  0  0  0  0  0
    1.0043    2.2110   -1.8774 N   0  0  0  0  0  0  0  0  0  0  0  0
    1.0715    2.9090   -2.6120 H   0  0  0  0  0  0  0  0  0  0  0  0
    0.4186    2.4250   -1.0712 H   0  0  0  0  0  0  0  0  0  0  0  0
   -0.1686    1.0865    0.5062 C   0  0  0  0  0  0  0  0  0  0  0  0
   -1.0691    1.8351    0.1476 O   0  0  0  0  0  0  0  0  0  0  0  0
    0.7374    1.5266    1.4524 N   0  0  0  0  0  0  0  0  0  0  0  0
    1.4686    0.8829    1.7444 H   0  0  0  0  0  0  0  0  0  0  0  0
    0.6516    2.8297    2.1017 C   0  0  0  0  0  0  0  0  0  0  0  0
   -0.3048    2.9355    2.6247 H   0  0  0  0  0  0  0  0  0  0  0  0
    1.4585    2.9411    2.8326 H   0  0  0  0  0  0  0  0  0  0  0  0
    0.7416    3.6335    1.3634 H   0  0  0  0  0  0  0  0  0  0  0  0
  1  2  1  0  0  0  0
  2  3  1  0  0  0  0
  2  4  1  0  0  0  0
  2  5  1  0  0  0  0
  5  6  2  0  0  0  0
  5  7  1  0  0  0  0
  7  8  1  0  0  0  0
  7  9  1  0  0  0  0
  9 10  1  0  0  0  0
  9 11  1  0  0  0  0
  9 19  1  0  0  0  0
 11 12  1  0  0  0  0
 11 13  1  0  0  0  0
 11 14  1  0  0  0  0
 14 15  2  0  0  0  0
 14 16  1  0  0  0  0
 16 17  1  0  0  0  0
 16 18  1  0  0  0  0
 19 20  2  0  0  0  0
 19 21  1  0  0  0  0
 21 22  1  0  0  0  0
 21 23  1  0  0  0  0
 23 24  1  0  0  0  0
 23 25  1  0  0  0  0
 23 26  1  0  0  0  0
M  END
$$$$

  -OEChem-04042215573D

 26 25  0     1  0  0  0  0  0999 V2000
   -2.8615   -3.9577    0.4835 H   0  0  0  0  0  0  0  0  0  0  0  0
   -2.8931   -2.9179    0.1460 C   0  0  0  0  0  0  0  0  0  0  0  0
   -3.5567   -2.3533    0.8054 H   0  0  0  0  0  0  0  0  0  0  0  0
   -3.2911   -2.8899   -0.8714 H   0  0  0  0  0  0  0  0  0  0  0  0
   -1.5006   -2.3168    0.1738 C   0  0  0  0  0  0  0  0  0  0  0  0
   -0.5493   -2.9875    0.5427 O   0  0  0  0  0  0  0  0  0  0  0  0
   -1.3102   -1.0034   -0.2040 N   0  0  0  0  0  0  0  0  0  0  0  0
   -2.1352   -0.4579   -0.4509 H   0  0  0  0  0  0  0  0  0  0  0  0
   -0.0160   -0.3062   -0.1916 C   0  0  1  0  0  0  0  0  0  0  0  0
    0.6759   -0.8451    0.4650 H   0  0  0  0  0  0  0  0  0  0  0  0
    0.5768   -0.3468   -1.6278 C   0  0  0  0  0  0  0  0  0  0  0  0
    1.5258   -0.8869   -1.5820 H   0  0  0  0  0  0  0  0  0  0  0  0
   -0.0847   -0.9295   -2.2762 H   0  0  0  0  0  0  0  0  0  0  0  0
    0.8575    0.9771   -2.3445 C   0  0  0  0  0  0  0  0  0  0  0  0
    0.7846    1.0332   -3.5566 O   0  0  0  0  0  0  0  0  0  0  0  0
    1.4952    2.0491   -1.7836 N   0  0  0  0  0  0  0  0  0  0  0  0
    1.5559    2.8548   -2.3995 H   0  0  0  0  0  0  0  0  0  0  0  0
    1.3595    2.2099   -0.7906 H   0  0  0  0  0  0  0  0  0  0  0  0
   -0.1836    1.0934    0.4299 C   0  0  0  0  0  0  0  0  0  0  0  0
   -1.1021    1.8183    0.0735 O   0  0  0  0  0  0  0  0  0  0  0  0
    0.7269    1.5616    1.3597 N   0  0  0  0  0  0  0  0  0  0  0  0
    1.4117    0.8999    1.7181 H   0  0  0  0  0  0  0  0  0  0  0  0
    0.5794    2.8440    2.0399 C   0  0  0  0  0  0  0  0  0  0  0  0
   -0.3444    2.8625    2.6280 H   0  0  0  0  0  0  0  0  0  0  0  0
    1.4236    3.0125    2.7158 H   0  0  0  0  0  0  0  0  0  0  0  0
    0.5513    3.6643    1.3148 H   0  0  0  0  0  0  0  0  0  0  0  0
  1  2  1  0  0  0  0
  2  3  1  0  0  0  0
  2  4  1  0  0  0  0
  2  5  1  0  0  0  0
  5  6  2  0  0  0  0
  5  7  1  0  0  0  0
  7  8  1  0  0  0  0
  7  9  1  0  0  0  0
  9 10  1  0  0  0  0
  9 11  1  0  0  0  0
  9 19  1  0  0  0  0
 11 12  1  0  0  0  0
 11 13  1  0  0  0  0
 11 14  1  0  0  0  0
 14 15  2  0  0  0  0
 14 16  1  0  0  0  0
 16 17  1  0  0  0  0
 16 18  1  0  0  0  0
 19 20  2  0  0  0  0
 19 21  1  0  0  0  0
 21 22  1  0  0  0  0
 21 23  1  0  0  0  0
 23 24  1  0  0  0  0
 23 25  1  0  0  0  0
 23 26  1  0  0  0  0
M  END
$$$$

  -OEChem-04042215573D

 26 25  0     1  0  0  0  0  0999 V2000
   -2.8796   -3.9388    0.4908 H   0  0  0  0  0  0  0  0  0  0  0  0
   -2.9010   -2.9025    0.1422 C   0  0  0  0  0  0  0  0  0  0  0  0
   -3.5655   -2.3261    0.7904 H   0  0  0  0  0  0  0  0  0  0  0  0
   -3.2909   -2.8828   -0.8784 H   0  0  0  0  0  0  0  0  0  0  0  0
   -1.5044   -2.3111    0.1740 C   0  0  0  0  0  0  0  0  0  0  0  0
   -0.5604   -2.9846    0.5566 O   0  0  0  0  0  0  0  0  0  0  0  0
   -1.3022   -1.0040   -0.2183 N   0  0  0  0  0  0  0  0  0  0  0  0
   -2.1215   -0.4557   -0.4782 H   0  0  0  0  0  0  0  0  0  0  0  0
   -0.0056   -0.3128   -0.2011 C   0  0  1  0  0  0  0  0  0  0  0  0
    0.6768   -0.8488    0.4673 H   0  0  0  0  0  0  0  0  0  0  0  0
    0.6033   -0.3653   -1.6282 C   0  0  0  0  0  0  0  0  0  0  0  0
    1.5516   -0.9061   -1.5761 H   0  0  0  0  0  0  0  0  0  0  0  0
   -0.0526   -0.9437   -2.2863 H   0  0  0  0  0  0  0  0  0  0  0  0
    0.8818    0.9719   -2.3154 C   0  0  0  0  0  0  0  0  0  0  0  0
    0.5703    1.1467   -3.4771 O   0  0  0  0  0  0  0  0  0  0  0  0
    1.7030    1.9334   -1.7940 N   0  0  0  0  0  0  0  0  0  0  0  0
    1.7231    2.7960   -2.3311 H   0  0  0  0  0  0  0  0  0  0  0  0
    1.7949    1.9839   -0.7851 H   0  0  0  0  0  0  0  0  0  0  0  0
   -0.1645    1.0986    0.3997 C   0  0  0  0  0  0  0  0  0  0  0  0
   -1.0910    1.8158    0.0488 O   0  0  0  0  0  0  0  0  0  0  0  0
    0.7454    1.5675    1.3305 N   0  0  0  0  0  0  0  0  0  0  0  0
    1.4053    0.8964    1.7167 H   0  0  0  0  0  0  0  0  0  0  0  0
    0.6001    2.8585    1.9949 C   0  0  0  0  0  0  0  0  0  0  0  0
   -0.3193    2.8827    2.5894 H   0  0  0  0  0  0  0  0  0  0  0  0
    1.4493    3.0393    2.6611 H   0  0  0  0  0  0  0  0  0  0  0  0
    0.5637    3.6680    1.2581 H   0  0  0  0  0  0  0  0  0  0  0  0
  1  2  1  0  0  0  0
  2  3  1  0  0  0  0
  2  4  1  0  0  0  0
  2  5  1  0  0  0  0
  5  6  2  0  0  0  0
  5  7  1  0  0  0  0
  7  8  1  0  0  0  0
  7  9  1  0  0  0  0
  9 10  1  0  0  0  0
  9 11  1  0  0  0  0
  9 19  1  0  0  0  0
 11 12  1  0  0  0  0
 11 13  1  0  0  0  0
 11 14  1  0  0  0  0
 14 15  2  0  0  0  0
 14 16  1  0  0  0  0
 16 17  1  0  0  0  0
 16 18  1  0  0  0  0
 19 20  2  0  0  0  0
 19 21  1  0  0  0  0
 21 22  1  0  0  0  0
 21 23  1  0  0  0  0
 23 24  1  0  0  0  0
 23 25  1  0  0  0  0
 23 26  1  0  0  0  0
M  END
$$$$

  -OEChem-04042215573D

 26 25  0     1  0  0  0  0  0999 V2000
   -2.8903   -3.9227    0.4909 H   0  0  0  0  0  0  0  0  0  0  0  0
   -2.9055   -2.8880    0.1374 C   0  0  0  0  0  0  0  0  0  0  0  0
   -3.5712   -2.3056    0.7789 H   0  0  0  0  0  0  0  0  0  0  0  0
   -3.2899   -2.8705   -0.8854 H   0  0  0  0  0  0  0  0  0  0  0  0
   -1.5068   -2.3025    0.1742 C   0  0  0  0  0  0  0  0  0  0  0  0
   -0.5687   -2.9764    0.5710 O   0  0  0  0  0  0  0  0  0  0  0  0
   -1.2954   -1.0011   -0.2314 N   0  0  0  0  0  0  0  0  0  0  0  0
   -2.1101   -0.4515   -0.5030 H   0  0  0  0  0  0  0  0  0  0  0  0
    0.0035   -0.3146   -0.2116 C   0  0  1  0  0  0  0  0  0  0  0  0
    0.6754   -0.8472    0.4697 H   0  0  0  0  0  0  0  0  0  0  0  0
    0.6266   -0.3903   -1.6301 C   0  0  0  0  0  0  0  0  0  0  0  0
    1.5731   -0.9329   -1.5658 H   0  0  0  0  0  0  0  0  0  0  0  0
   -0.0249   -0.9705   -2.2909 H   0  0  0  0  0  0  0  0  0  0  0  0
    0.9061    0.9473   -2.3109 C   0  0  0  0  0  0  0  0  0  0  0  0
    0.3830    1.2366   -3.3690 O   0  0  0  0  0  0  0  0  0  0  0  0
    1.8621    1.8191   -1.8688 N   0  0  0  0  0  0  0  0  0  0  0  0
    1.8521    2.7235   -2.3326 H   0  0  0  0  0  0  0  0  0  0  0  0
    2.1519    1.7634   -0.8990 H   0  0  0  0  0  0  0  0  0  0  0  0
   -0.1414    1.1076    0.3697 C   0  0  0  0  0  0  0  0  0  0  0  0
   -1.0781    1.8183    0.0331 O   0  0  0  0  0  0  0  0  0  0  0  0
    0.7707    1.5760    1.2988 N   0  0  0  0  0  0  0  0  0  0  0  0
    1.4235    0.9027    1.6916 H   0  0  0  0  0  0  0  0  0  0  0  0
    0.6246    2.8667    1.9626 C   0  0  0  0  0  0  0  0  0  0  0  0
   -0.2940    2.8897    2.5585 H   0  0  0  0  0  0  0  0  0  0  0  0
    1.4743    3.0482    2.6277 H   0  0  0  0  0  0  0  0  0  0  0  0
    0.5861    3.6760    1.2255 H   0  0  0  0  0  0  0  0  0  0  0  0
  1  2  1  0  0  0  0
  2  3  1  0  0  0  0
  2  4  1  0  0  0  0
  2  5  1  0  0  0  0
  5  6  2  0  0  0  0
  5  7  1  0  0  0  0
  7  8  1  0  0  0  0
  7  9  1  0  0  0  0
  9 10  1  0  0  0  0
  9 11  1  0  0  0  0
  9 19  1  0  0  0  0
 11 12  1  0  0  0  0
 11 13  1  0  0  0  0
 11 14  1  0  0  0  0
 14 15  2  0  0  0  0
 14 16  1  0  0  0  0
 16 17  1  0  0  0  0
 16 18  1  0  0  0  0
 19 20  2  0  0  0  0
 19 21  1  0  0  0  0
 21 22  1  0  0  0  0
 21 23  1  0  0  0  0
 23 24  1  0  0  0  0
 23 25  1  0  0  0  0
 23 26  1  0  0  0  0
M  END
$$$$

  -OEChem-04042215573D

 26 25  0     1  0  0  0  0  0999 V2000
   -2.9014   -3.9074    0.5013 H   0  0  0  0  0  0  0  0  0  0  0  0
   -2.9108   -2.8737    0.1444 C   0  0  0  0  0  0  0  0  0  0  0  0
   -3.5674   -2.2839    0.7886 H   0  0  0  0  0  0  0  0  0  0  0  0
   -3.3020   -2.8569   -0.8758 H   0  0  0  0  0  0  0  0  0  0  0  0
   -1.5074   -2.2979    0.1696 C   0  0  0  0  0  0  0  0  0  0  0  0
   -0.5709   -2.9771    0.5619 O   0  0  0  0  0  0  0  0  0  0  0  0
   -1.2896   -1.0009   -0.2461 N   0  0  0  0  0  0  0  0  0  0  0  0
   -2.1028   -0.4445   -0.5091 H   0  0  0  0  0  0  0  0  0  0  0  0
    0.0108   -0.3178   -0.2277 C   0  0  1  0  0  0  0  0  0  0  0  0
    0.6756   -0.8459    0.4640 H   0  0  0  0  0  0  0  0  0  0  0  0
    0.6432   -0.4121   -1.6401 C   0  0  0  0  0  0  0  0  0  0  0  0
    1.5862   -0.9600   -1.5686 H   0  0  0  0  0  0  0  0  0  0  0  0
   -0.0079   -0.9913   -2.3020 H   0  0  0  0  0  0  0  0  0  0  0  0
    0.9238    0.9235   -2.3204 C   0  0  0  0  0  0  0  0  0  0  0  0
    0.2261    1.3350   -3.2258 O   0  0  0  0  0  0  0  0  0  0  0  0
    2.0007    1.7003   -1.9965 N   0  0  0  0  0  0  0  0  0  0  0  0
    1.9899    2.6362   -2.3930 H   0  0  0  0  0  0  0  0  0  0  0  0
    2.4852    1.5292   -1.1232 H   0  0  0  0  0  0  0  0  0  0  0  0
   -0.1280    1.1115    0.3408 C   0  0  0  0  0  0  0  0  0  0  0  0
   -1.0868    1.8065    0.0345 O   0  0  0  0  0  0  0  0  0  0  0  0
    0.7843    1.5843    1.2678 N   0  0  0  0  0  0  0  0  0  0  0  0
    1.4601    0.9228    1.6393 H   0  0  0  0  0  0  0  0  0  0  0  0
    0.6320    2.8713    1.9375 C   0  0  0  0  0  0  0  0  0  0  0  0
   -0.2790    2.8818    2.5454 H   0  0  0  0  0  0  0  0  0  0  0  0
    1.4881    3.0615    2.5922 H   0  0  0  0  0  0  0  0  0  0  0  0
    0.5743    3.6818    1.2030 H   0  0  0  0  0  0  0  0  0  0  0  0
  1  2  1  0  0  0  0
  2  3  1  0  0  0  0
  2  4  1  0  0  0  0
  2  5  1  0  0  0  0
  5  6  2  0  0  0  0
  5  7  1  0  0  0  0
  7  8  1  0  0  0  0
  7  9  1  0  0  0  0
  9 10  1  0  0  0  0
  9 11  1  0  0  0  0
  9 19  1  0  0  0  0
 11 12  1  0  0  0  0
 11 13  1  0  0  0  0
 11 14  1  0  0  0  0
 14 15  2  0  0  0  0
 14 16  1  0  0  0  0
 16 17  1  0  0  0  0
 16 18  1  0  0  0  0
 19 20  2  0  0  0  0
 19 21  1  0  0  0  0
 21 22  1  0  0  0  0
 21 23  1  0  0  0  0
 23 24  1  0  0  0  0
 23 25  1  0  0  0  0
 23 26  1  0  0  0  0
M  END
$$$$

  -OEChem-04042215573D

 26 25  0     1  0  0  0  0  0999 V2000
   -2.9047   -3.8919    0.5306 H   0  0  0  0  0  0  0  0  0  0  0  0
   -2.9147   -2.8601    0.1685 C   0  0  0  0  0  0  0  0  0  0  0  0
   -3.5500   -2.2616    0.8259 H   0  0  0  0  0  0  0  0  0  0  0  0
   -3.3318   -2.8451   -0.8414 H   0  0  0  0  0  0  0  0  0  0  0  0
   -1.5066   -2.2959    0.1548 C   0  0  0  0  0  0  0  0  0  0  0  0
   -0.5649   -2.9834    0.5196 O   0  0  0  0  0  0  0  0  0  0  0  0
   -1.2900   -1.0009   -0.2666 N   0  0  0  0  0  0  0  0  0  0  0  0
   -2.1067   -0.4348   -0.4970 H   0  0  0  0  0  0  0  0  0  0  0  0
    0.0097   -0.3172   -0.2526 C   0  0  1  0  0  0  0  0  0  0  0  0
    0.6693   -0.8404    0.4476 H   0  0  0  0  0  0  0  0  0  0  0  0
    0.6552   -0.4255   -1.6570 C   0  0  0  0  0  0  0  0  0  0  0  0
    1.5967   -0.9739   -1.5724 H   0  0  0  0  0  0  0  0  0  0  0  0
    0.0098   -1.0092   -2.3204 H   0  0  0  0  0  0  0  0  0  0  0  0
    0.9363    0.9061   -2.3422 C   0  0  0  0  0  0  0  0  0  0  0  0
    0.1177    1.4430   -3.0608 O   0  0  0  0  0  0  0  0  0  0  0  0
    2.1137    1.5774   -2.1688 N   0  0  0  0  0  0  0  0  0  0  0  0
    2.1310    2.5327   -2.5158 H   0  0  0  0  0  0  0  0  0  0  0  0
    2.7531    1.2860   -1.4387 H   0  0  0  0  0  0  0  0  0  0  0  0
   -0.1288    1.1158    0.3101 C   0  0  0  0  0  0  0  0  0  0  0  0
   -1.1206    1.7854    0.0556 O   0  0  0  0  0  0  0  0  0  0  0  0
    0.7857    1.5920    1.2333 N   0  0  0  0  0  0  0  0  0  0  0  0
    1.5004    0.9497    1.5624 H   0  0  0  0  0  0  0  0  0  0  0  0
    0.6246    2.8681    1.9210 C   0  0  0  0  0  0  0  0  0  0  0  0
   -0.2746    2.8558    2.5460 H   0  0  0  0  0  0  0  0  0  0  0  0
    1.4897    3.0650    2.5613 H   0  0  0  0  0  0  0  0  0  0  0  0
    0.5392    3.6856    1.1971 H   0  0  0  0  0  0  0  0  0  0  0  0
  1  2  1  0  0  0  0
  2  3  1  0  0  0  0
  2  4  1  0  0  0  0
  2  5  1  0  0  0  0
  5  6  2  0  0  0  0
  5  7  1  0  0  0  0
  7  8  1  0  0  0  0
  7  9  1  0  0  0  0
  9 10  1  0  0  0  0
  9 11  1  0  0  0  0
  9 19  1  0  0  0  0
 11 12  1  0  0  0  0
 11 13  1  0  0  0  0
 11 14  1  0  0  0  0
 14 15  2  0  0  0  0
 14 16  1  0  0  0  0
 16 17  1  0  0  0  0
 16 18  1  0  0  0  0
 19 20  2  0  0  0  0
 19 21  1  0  0  0  0
 21 22  1  0  0  0  0
 21 23  1  0  0  0  0
 23 24  1  0  0  0  0
 23 25  1  0  0  0  0
 23 26  1  0  0  0  0
M  END
$$$$

  -OEChem-04042215573D

 26 25  0     1  0  0  0  0  0999 V2000
   -2.8889   -3.8925    0.5344 H   0  0  0  0  0  0  0  0  0  0  0  0
   -2.9094   -2.8571    0.1833 C   0  0  0  0  0  0  0  0  0  0  0  0
   -3.5210   -2.2643    0.8679 H   0  0  0  0  0  0  0  0  0  0  0  0
   -3.3602   -2.8310   -0.8118 H   0  0  0  0  0  0  0  0  0  0  0  0
   -1.5015   -2.2946    0.1288 C   0  0  0  0  0  0  0  0  0  0  0  0
   -0.5483   -2.9923    0.4415 O   0  0  0  0  0  0  0  0  0  0  0  0
   -1.2966   -0.9931   -0.2777 N   0  0  0  0  0  0  0  0  0  0  0  0
   -2.1205   -0.4139   -0.4416 H   0  0  0  0  0  0  0  0  0  0  0  0
   -0.0020   -0.2994   -0.2512 C   0  0  1  0  0  0  0  0  0  0  0  0
    0.6518   -0.8208    0.4559 H   0  0  0  0  0  0  0  0  0  0  0  0
    0.6685   -0.3979   -1.6442 C   0  0  0  0  0  0  0  0  0  0  0  0
    1.6097   -0.9431   -1.5419 H   0  0  0  0  0  0  0  0  0  0  0  0
    0.0371   -0.9833   -2.3191 H   0  0  0  0  0  0  0  0  0  0  0  0
    0.9512    0.9355   -2.3243 C   0  0  0  0  0  0  0  0  0  0  0  0
    0.0768    1.6038   -2.8358 O   0  0  0  0  0  0  0  0  0  0  0  0
    2.2066    1.4733   -2.3540 N   0  0  0  0  0  0  0  0  0  0  0  0
    2.3173    2.2913   -2.9473 H   0  0  0  0  0  0  0  0  0  0  0  0
    3.0030    0.8784   -2.1541 H   0  0  0  0  0  0  0  0  0  0  0  0
   -0.1618    1.1265    0.3284 C   0  0  0  0  0  0  0  0  0  0  0  0
   -1.2030    1.7461    0.1516 O   0  0  0  0  0  0  0  0  0  0  0  0
    0.7425    1.6030    1.2612 N   0  0  0  0  0  0  0  0  0  0  0  0
    1.5497    1.0274    1.4798 H   0  0  0  0  0  0  0  0  0  0  0  0
    0.5687    2.8677    1.9661 C   0  0  0  0  0  0  0  0  0  0  0  0
   -0.3495    2.8510    2.5628 H   0  0  0  0  0  0  0  0  0  0  0  0
    1.4139    3.0465    2.6375 H   0  0  0  0  0  0  0  0  0  0  0  0
    0.5111    3.6978    1.2540 H   0  0  0  0  0  0  0  0  0  0  0  0
  1  2  1  0  0  0  0
  2  3  1  0  0  0  0
  2  4  1  0  0  0  0
  2  5  1  0  0  0  0
  5  6  2  0  0  0  0
  5  7  1  0  0  0  0
  7  8  1  0  0  0  0
  7  9  1  0  0  0  0
  9 10  1  0  0  0  0
  9 11  1  0  0  0  0
  9 19  1  0  0  0  0
 11 12  1  0  0  0  0
 11 13  1  0  0  0  0
 11 14  1  0  0  0  0
 14 15  2  0  0  0  0
 14 16  1  0  0  0  0
 16 17  1  0  0  0  0
 16 18  1  0  0  0  0
 19 20  2  0  0  0  0
 19 21  1  0  0  0  0
 21 22  1  0  0  0  0
 21 23  1  0  0  0  0
 23 24  1  0  0  0  0
 23 25  1  0  0  0  0
 23 26  1  0  0  0  0
M  END
$$$$

  -OEChem-04042215573D

 26 25  0     1  0  0  0  0  0999 V2000
   -2.8755   -3.8870    0.5463 H   0  0  0  0  0  0  0  0  0  0  0  0
   -2.9040   -2.8510    0.1973 C   0  0  0  0  0  0  0  0  0  0  0  0
   -3.5007   -2.2597    0.8963 H   0  0  0  0  0  0  0  0  0  0  0  0
   -3.3766   -2.8235   -0.7876 H   0  0  0  0  0  0  0  0  0  0  0  0
   -1.4972   -2.2888    0.1122 C   0  0  0  0  0  0  0  0  0  0  0  0
   -0.5365   -2.9909    0.3901 O   0  0  0  0  0  0  0  0  0  0  0  0
   -1.3019   -0.9837   -0.2869 N   0  0  0  0  0  0  0  0  0  0  0  0
   -2.1298   -0.3996   -0.4092 H   0  0  0  0  0  0  0  0  0  0  0  0
   -0.0106   -0.2841   -0.2627 C   0  0  1  0  0  0  0  0  0  0  0  0
    0.6406   -0.8038    0.4481 H   0  0  0  0  0  0  0  0  0  0  0  0
    0.6738   -0.3883   -1.6495 C   0  0  0  0  0  0  0  0  0  0  0  0
    1.6154   -0.9292   -1.5270 H   0  0  0  0  0  0  0  0  0  0  0  0
    0.0523   -0.9857   -2.3227 H   0  0  0  0  0  0  0  0  0  0  0  0
    0.9644    0.9317   -2.3549 C   0  0  0  0  0  0  0  0  0  0  0  0
    0.0986    1.7252   -2.6591 O   0  0  0  0  0  0  0  0  0  0  0  0
    2.2421    1.3217   -2.6393 N   0  0  0  0  0  0  0  0  0  0  0  0
    2.3245    2.1405   -3.2362 H   0  0  0  0  0  0  0  0  0  0  0  0
    2.9817    0.6279   -2.6248 H   0  0  0  0  0  0  0  0  0  0  0  0
   -0.1764    1.1372    0.3278 C   0  0  0  0  0  0  0  0  0  0  0  0
   -1.2440    1.7265    0.2083 O   0  0  0  0  0  0  0  0  0  0  0  0
    0.7329    1.6084    1.2587 N   0  0  0  0  0  0  0  0  0  0  0  0
    1.5741    1.0635    1.4201 H   0  0  0  0  0  0  0  0  0  0  0  0
    0.5547    2.8597    1.9860 C   0  0  0  0  0  0  0  0  0  0  0  0
   -0.3603    2.8271    2.5869 H   0  0  0  0  0  0  0  0  0  0  0  0
    1.4020    3.0317    2.6565 H   0  0  0  0  0  0  0  0  0  0  0  0
    0.4888    3.7015    1.2885 H   0  0  0  0  0  0  0  0  0  0  0  0
  1  2  1  0  0  0  0
  2  3  1  0  0  0  0
  2  4  1  0  0  0  0
  2  5  1  0  0  0  0
  5  6  2  0  0  0  0
  5  7  1  0  0  0  0
  7  8  1  0  0  0  0
  7  9  1  0  0  0  0
  9 10  1  0  0  0  0
  9 11  1  0  0  0  0
  9 19  1  0  0  0  0
 11 12  1  0  0  0  0
 11 13  1  0  0  0  0
 11 14  1  0  0  0  0
 14 15  2  0  0  0  0
 14 16  1  0  0  0  0
 16 17  1  0  0  0  0
 16 18  1  0  0  0  0
 19 20  2  0  0  0  0
 19 21  1  0  0  0  0
 21 22  1  0  0  0  0
 21 23  1  0  0  0  0
 23 24  1  0  0  0  0
 23 25  1  0  0  0  0
 23 26  1  0  0  0  0
M  END
$$$$

  -OEChem-04042215573D

 26 25  0     1  0  0  0  0  0999 V2000
   -2.8552   -3.8845    0.5337 H   0  0  0  0  0  0  0  0  0  0  0  0
   -2.8915   -2.8427    0.2033 C   0  0  0  0  0  0  0  0  0  0  0  0
   -3.4688   -2.2633    0.9280 H   0  0  0  0  0  0  0  0  0  0  0  0
   -3.3899   -2.7974   -0.7680 H   0  0  0  0  0  0  0  0  0  0  0  0
   -1.4876   -2.2792    0.0897 C   0  0  0  0  0  0  0  0  0  0  0  0
   -0.5202   -2.9857    0.3308 O   0  0  0  0  0  0  0  0  0  0  0  0
   -1.3030   -0.9680   -0.2941 N   0  0  0  0  0  0  0  0  0  0  0  0
   -2.1344   -0.3817   -0.3763 H   0  0  0  0  0  0  0  0  0  0  0  0
   -0.0145   -0.2626   -0.2658 C   0  0  1  0  0  0  0  0  0  0  0  0
    0.6361   -0.7841    0.4441 H   0  0  0  0  0  0  0  0  0  0  0  0
    0.6778   -0.3664   -1.6510 C   0  0  0  0  0  0  0  0  0  0  0  0
    1.6201   -0.9027   -1.5131 H   0  0  0  0  0  0  0  0  0  0  0  0
    0.0636   -0.9759   -2.3195 H   0  0  0  0  0  0  0  0  0  0  0  0
    0.9811    0.9368   -2.3860 C   0  0  0  0  0  0  0  0  0  0  0  0
    0.1971    1.8559   -2.4937 O   0  0  0  0  0  0  0  0  0  0  0  0
    2.1993    1.1519   -2.9646 N   0  0  0  0  0  0  0  0  0  0  0  0
    2.2562    1.9665   -3.5699 H   0  0  0  0  0  0  0  0  0  0  0  0
    2.8156    0.3613   -3.1188 H   0  0  0  0  0  0  0  0  0  0  0  0
   -0.1897    1.1499    0.3442 C   0  0  0  0  0  0  0  0  0  0  0  0
   -1.2742    1.7161    0.2611 O   0  0  0  0  0  0  0  0  0  0  0  0
    0.7193    1.6148    1.2787 N   0  0  0  0  0  0  0  0  0  0  0  0
    1.5815    1.0939    1.4033 H   0  0  0  0  0  0  0  0  0  0  0  0
    0.5309    2.8523    2.0268 C   0  0  0  0  0  0  0  0  0  0  0  0
   -0.3695    2.7918    2.6470 H   0  0  0  0  0  0  0  0  0  0  0  0
    1.3889    3.0340    2.6808 H   0  0  0  0  0  0  0  0  0  0  0  0
    0.4316    3.7018    1.3428 H   0  0  0  0  0  0  0  0  0  0  0  0
  1  2  1  0  0  0  0
  2  3  1  0  0  0  0
  2  4  1  0  0  0  0
  2  5  1  0  0  0  0
  5  6  2  0  0  0  0
  5  7  1  0  0  0  0
  7  8  1  0  0  0  0
  7  9  1  0  0  0  0
  9 10  1  0  0  0  0
  9 11  1  0  0  0  0
  9 19  1  0  0  0  0
 11 12  1  0  0  0  0
 11 13  1  0  0  0  0
 11 14  1  0  0  0  0
 14 15  2  0  0  0  0
 14 16  1  0  0  0  0
 16 17  1  0  0  0  0
 16 18  1  0  0  0  0
 19 20  2  0  0  0  0
 19 21  1  0  0  0  0
 21 22  1  0  0  0  0
 21 23  1  0  0  0  0
 23 24  1  0  0  0  0
 23 25  1  0  0  0  0
 23 26  1  0  0  0  0
M  END
$$$$

  -OEChem-04042215573D

 26 25  0     1  0  0  0  0  0999 V2000
   -2.8421   -3.8837    0.5156 H   0  0  0  0  0  0  0  0  0  0  0  0
   -2.8821   -2.8375    0.2003 C   0  0  0  0  0  0  0  0  0  0  0  0
   -3.4441   -2.2665    0.9436 H   0  0  0  0  0  0  0  0  0  0  0  0
   -3.3987   -2.7782   -0.7609 H   0  0  0  0  0  0  0  0  0  0  0  0
   -1.4791   -2.2757    0.0686 C   0  0  0  0  0  0  0  0  0  0  0  0
   -0.5088   -2.9889    0.2755 O   0  0  0  0  0  0  0  0  0  0  0  0
   -1.2993   -0.9585   -0.2962 N   0  0  0  0  0  0  0  0  0  0  0  0
   -2.1310   -0.3681   -0.3382 H   0  0  0  0  0  0  0  0  0  0  0  0
   -0.0109   -0.2521   -0.2626 C   0  0  1  0  0  0  0  0  0  0  0  0
    0.6419   -0.7808    0.4402 H   0  0  0  0  0  0  0  0  0  0  0  0
    0.6780   -0.3430   -1.6526 C   0  0  0  0  0  0  0  0  0  0  0  0
    1.6199   -0.8798   -1.5144 H   0  0  0  0  0  0  0  0  0  0  0  0
    0.0621   -0.9540   -2.3181 H   0  0  0  0  0  0  0  0  0  0  0  0
    0.9945    0.9490   -2.4055 C   0  0  0  0  0  0  0  0  0  0  0  0
    0.3594    1.9791   -2.3266 O   0  0  0  0  0  0  0  0  0  0  0  0
    2.0621    1.0107   -3.2545 N   0  0  0  0  0  0  0  0  0  0  0  0
    2.1005    1.8343   -3.8487 H   0  0  0  0  0  0  0  0  0  0  0  0
    2.5010    0.1468   -3.5543 H   0  0  0  0  0  0  0  0  0  0  0  0
   -0.1984    1.1483    0.3715 C   0  0  0  0  0  0  0  0  0  0  0  0
   -1.2939    1.6972    0.3058 O   0  0  0  0  0  0  0  0  0  0  0  0
    0.7062    1.6076    1.3132 N   0  0  0  0  0  0  0  0  0  0  0  0
    1.5930    1.1205    1.3938 H   0  0  0  0  0  0  0  0  0  0  0  0
    0.5194    2.8501    2.0533 C   0  0  0  0  0  0  0  0  0  0  0  0
   -0.3829    2.7961    2.6715 H   0  0  0  0  0  0  0  0  0  0  0  0
    1.3759    3.0333    2.7090 H   0  0  0  0  0  0  0  0  0  0  0  0
    0.4238    3.6954    1.3632 H   0  0  0  0  0  0  0  0  0  0  0  0
  1  2  1  0  0  0  0
  2  3  1  0  0  0  0
  2  4  1  0  0  0  0
  2  5  1  0  0  0  0
  5  6  2  0  0  0  0
  5  7  1  0  0  0  0
  7  8  1  0  0  0  0
  7  9  1  0  0  0  0
  9 10  1  0  0  0  0
  9 11  1  0  0  0  0
  9 19  1  0  0  0  0
 11 12  1  0  0  0  0
 11 13  1  0  0  0  0
 11 14  1  0  0  0  0
 14 15  2  0  0  0  0
 14 16  1  0  0  0  0
 16 17  1  0  0  0  0
 16 18  1  0  0  0  0
 19 20  2  0  0  0  0
 19 21  1  0  0  0  0
 21 22  1  0  0  0  0
 21 23  1  0  0  0  0
 23 24  1  0  0  0  0
 23 25  1  0  0  0  0
 23 26  1  0  0  0  0
M  END
$$$$

  -OEChem-04042215573D

 26 25  0     1  0  0  0  0  0999 V2000
   -2.8370   -3.8736    0.5184 H   0  0  0  0  0  0  0  0  0  0  0  0
   -2.8764   -2.8277    0.2016 C   0  0  0  0  0  0  0  0  0  0  0  0
   -3.4236   -2.2527    0.9527 H   0  0  0  0  0  0  0  0  0  0  0  0
   -3.4078   -2.7672   -0.7513 H   0  0  0  0  0  0  0  0  0  0  0  0
   -1.4727   -2.2731    0.0475 C   0  0  0  0  0  0  0  0  0  0  0  0
   -0.5030   -2.9945    0.2263 O   0  0  0  0  0  0  0  0  0  0  0  0
   -1.2917   -0.9519   -0.3024 N   0  0  0  0  0  0  0  0  0  0  0  0
   -2.1206   -0.3562   -0.3138 H   0  0  0  0  0  0  0  0  0  0  0  0
    0.0000   -0.2506   -0.2599 C   0  0  1  0  0  0  0  0  0  0  0  0
    0.6556   -0.7868    0.4347 H   0  0  0  0  0  0  0  0  0  0  0  0
    0.6795   -0.3279   -1.6572 C   0  0  0  0  0  0  0  0  0  0  0  0
    1.6192   -0.8714   -1.5291 H   0  0  0  0  0  0  0  0  0  0  0  0
    0.0548   -0.9323   -2.3201 H   0  0  0  0  0  0  0  0  0  0  0  0
    1.0103    0.9570   -2.4181 C   0  0  0  0  0  0  0  0  0  0  0  0
    0.5772    2.0630   -2.1729 O   0  0  0  0  0  0  0  0  0  0  0  0
    1.8508    0.9155   -3.4932 N   0  0  0  0  0  0  0  0  0  0  0  0
    1.8747    1.7579   -4.0613 H   0  0  0  0  0  0  0  0  0  0  0  0
    2.0703    0.0161   -3.9079 H   0  0  0  0  0  0  0  0  0  0  0  0
   -0.1991    1.1398    0.3927 C   0  0  0  0  0  0  0  0  0  0  0  0
   -1.2959    1.6862    0.3178 O   0  0  0  0  0  0  0  0  0  0  0  0
    0.6965    1.5935    1.3454 N   0  0  0  0  0  0  0  0  0  0  0  0
    1.5968    1.1283    1.4020 H   0  0  0  0  0  0  0  0  0  0  0  0
    0.5103    2.8442    2.0712 C   0  0  0  0  0  0  0  0  0  0  0  0
   -0.4097    2.8104    2.6641 H   0  0  0  0  0  0  0  0  0  0  0  0
    1.3511    3.0176    2.7494 H   0  0  0  0  0  0  0  0  0  0  0  0
    0.4487    3.6856    1.3728 H   0  0  0  0  0  0  0  0  0  0  0  0
  1  2  1  0  0  0  0
  2  3  1  0  0  0  0
  2  4  1  0  0  0  0
  2  5  1  0  0  0  0
  5  6  2  0  0  0  0
  5  7  1  0  0  0  0
  7  8  1  0  0  0  0
  7  9  1  0  0  0  0
  9 10  1  0  0  0  0
  9 11  1  0  0  0  0
  9 19  1  0  0  0  0
 11 12  1  0  0  0  0
 11 13  1  0  0  0  0
 11 14  1  0  0  0  0
 14 15  2  0  0  0  0
 14 16  1  0  0  0  0
 16 17  1  0  0  0  0
 16 18  1  0  0  0  0
 19 20  2  0  0  0  0
 19 21  1  0  0  0  0
 21 22  1  0  0  0  0
 21 23  1  0  0  0  0
 23 24  1  0  0  0  0
 23 25  1  0  0  0  0
 23 26  1  0  0  0  0
M  END
$$$$

  -OEChem-04042215573D

 26 25  0     1  0  0  0  0  0999 V2000
   -2.8483   -3.8648    0.5267 H   0  0  0  0  0  0  0  0  0  0  0  0
   -2.8811   -2.8191    0.2082 C   0  0  0  0  0  0  0  0  0  0  0  0
   -3.4188   -2.2381    0.9616 H   0  0  0  0  0  0  0  0  0  0  0  0
   -3.4177   -2.7556   -0.7415 H   0  0  0  0  0  0  0  0  0  0  0  0
   -1.4740   -2.2767    0.0440 C   0  0  0  0  0  0  0  0  0  0  0  0
   -0.5095   -3.0073    0.2118 O   0  0  0  0  0  0  0  0  0  0  0  0
   -1.2843   -0.9557   -0.3018 N   0  0  0  0  0  0  0  0  0  0  0  0
   -2.1081   -0.3527   -0.2989 H   0  0  0  0  0  0  0  0  0  0  0  0
    0.0140   -0.2658   -0.2569 C   0  0  1  0  0  0  0  0  0  0  0  0
    0.6741   -0.8082    0.4286 H   0  0  0  0  0  0  0  0  0  0  0  0
    0.6750   -0.3287   -1.6652 C   0  0  0  0  0  0  0  0  0  0  0  0
    1.6097   -0.8856   -1.5595 H   0  0  0  0  0  0  0  0  0  0  0  0
    0.0327   -0.9170   -2.3261 H   0  0  0  0  0  0  0  0  0  0  0  0
    1.0142    0.9591   -2.4193 C   0  0  0  0  0  0  0  0  0  0  0  0
    0.8201    2.0913   -2.0287 O   0  0  0  0  0  0  0  0  0  0  0  0
    1.5903    0.8911   -3.6551 N   0  0  0  0  0  0  0  0  0  0  0  0
    1.6194    1.7648   -4.1734 H   0  0  0  0  0  0  0  0  0  0  0  0
    1.5873    0.0055   -4.1498 H   0  0  0  0  0  0  0  0  0  0  0  0
   -0.1939    1.1200    0.4034 C   0  0  0  0  0  0  0  0  0  0  0  0
   -1.2869    1.6719    0.3053 O   0  0  0  0  0  0  0  0  0  0  0  0
    0.6925    1.5740    1.3642 N   0  0  0  0  0  0  0  0  0  0  0  0
    1.6017    1.1246    1.4061 H   0  0  0  0  0  0  0  0  0  0  0  0
    0.5117    2.8414    2.0618 C   0  0  0  0  0  0  0  0  0  0  0  0
   -0.4243    2.8367    2.6304 H   0  0  0  0  0  0  0  0  0  0  0  0
    1.3372    3.0105    2.7596 H   0  0  0  0  0  0  0  0  0  0  0  0
    0.4859    3.6706    1.3467 H   0  0  0  0  0  0  0  0  0  0  0  0
  1  2  1  0  0  0  0
  2  3  1  0  0  0  0
  2  4  1  0  0  0  0
  2  5  1  0  0  0  0
  5  6  2  0  0  0  0
  5  7  1  0  0  0  0
  7  8  1  0  0  0  0
  7  9  1  0  0  0  0
  9 10  1  0  0  0  0
  9 11  1  0  0  0  0
  9 19  1  0  0  0  0
 11 12  1  0  0  0  0
 11 13  1  0  0  0  0
 11 14  1  0  0  0  0
 14 15  2  0  0  0  0
 14 16  1  0  0  0  0
 16 17  1  0  0  0  0
 16 18  1  0  0  0  0
 19 20  2  0  0  0  0
 19 21  1  0  0  0  0
 21 22  1  0  0  0  0
 21 23  1  0  0  0  0
 23 24  1  0  0  0  0
 23 25  1  0  0  0  0
 23 26  1  0  0  0  0
M  END
$$$$

  -OEChem-04042215573D

 26 25  0     1  0  0  0  0  0999 V2000
   -2.8668   -3.8591    0.5482 H   0  0  0  0  0  0  0  0  0  0  0  0
   -2.8913   -2.8173    0.2162 C   0  0  0  0  0  0  0  0  0  0  0  0
   -3.4292   -2.2237    0.9596 H   0  0  0  0  0  0  0  0  0  0  0  0
   -3.4229   -2.7626   -0.7370 H   0  0  0  0  0  0  0  0  0  0  0  0
   -1.4793   -2.2867    0.0531 C   0  0  0  0  0  0  0  0  0  0  0  0
   -0.5216   -3.0247    0.2267 O   0  0  0  0  0  0  0  0  0  0  0  0
   -1.2778   -0.9685   -0.2978 N   0  0  0  0  0  0  0  0  0  0  0  0
   -2.0962   -0.3581   -0.2960 H   0  0  0  0  0  0  0  0  0  0  0  0
    0.0268   -0.2902   -0.2513 C   0  0  1  0  0  0  0  0  0  0  0  0
    0.6907   -0.8351    0.4286 H   0  0  0  0  0  0  0  0  0  0  0  0
    0.6708   -0.3414   -1.6681 C   0  0  0  0  0  0  0  0  0  0  0  0
    1.6016   -0.9080   -1.5846 H   0  0  0  0  0  0  0  0  0  0  0  0
    0.0141   -0.9144   -2.3281 H   0  0  0  0  0  0  0  0  0  0  0  0
    1.0129    0.9559   -2.4047 C   0  0  0  0  0  0  0  0  0  0  0  0
    1.0742    2.0603   -1.9039 O   0  0  0  0  0  0  0  0  0  0  0  0
    1.2963    0.9323   -3.7400 N   0  0  0  0  0  0  0  0  0  0  0  0
    1.3327    1.8396   -4.1963 H   0  0  0  0  0  0  0  0  0  0  0  0
    1.0658    0.1023   -4.2755 H   0  0  0  0  0  0  0  0  0  0  0  0
   -0.1868    1.0967    0.4045 C   0  0  0  0  0  0  0  0  0  0  0  0
   -1.2683    1.6633    0.2671 O   0  0  0  0  0  0  0  0  0  0  0  0
    0.6901    1.5551    1.3714 N   0  0  0  0  0  0  0  0  0  0  0  0
    1.6029    1.1125    1.4094 H   0  0  0  0  0  0  0  0  0  0  0  0
    0.5214    2.8446    2.0297 C   0  0  0  0  0  0  0  0  0  0  0  0
   -0.4337    2.8813    2.5642 H   0  0  0  0  0  0  0  0  0  0  0  0
    1.3261    3.0080    2.7528 H   0  0  0  0  0  0  0  0  0  0  0  0
    0.5454    3.6548    1.2930 H   0  0  0  0  0  0  0  0  0  0  0  0
  1  2  1  0  0  0  0
  2  3  1  0  0  0  0
  2  4  1  0  0  0  0
  2  5  1  0  0  0  0
  5  6  2  0  0  0  0
  5  7  1  0  0  0  0
  7  8  1  0  0  0  0
  7  9  1  0  0  0  0
  9 10  1  0  0  0  0
  9 11  1  0  0  0  0
  9 19  1  0  0  0  0
 11 12  1  0  0  0  0
 11 13  1  0  0  0  0
 11 14  1  0  0  0  0
 14 15  2  0  0  0  0
 14 16  1  0  0  0  0
 16 17  1  0  0  0  0
 16 18  1  0  0  0  0
 19 20  2  0  0  0  0
 19 21  1  0  0  0  0
 21 22  1  0  0  0  0
 21 23  1  0  0  0  0
 23 24  1  0  0  0  0
 23 25  1  0  0  0  0
 23 26  1  0  0  0  0
M  END
$$$$

  -OEChem-04042215573D

 26 25  0     1  0  0  0  0  0999 V2000
   -2.8871   -3.8628    0.5630 H   0  0  0  0  0  0  0  0  0  0  0  0
   -2.9020   -2.8219    0.2277 C   0  0  0  0  0  0  0  0  0  0  0  0
   -3.4400   -2.2222    0.9661 H   0  0  0  0  0  0  0  0  0  0  0  0
   -3.4271   -2.7663   -0.7289 H   0  0  0  0  0  0  0  0  0  0  0  0
   -1.4855   -2.3019    0.0707 C   0  0  0  0  0  0  0  0  0  0  0  0
   -0.5346   -3.0439    0.2620 O   0  0  0  0  0  0  0  0  0  0  0  0
   -1.2718   -0.9897   -0.2952 N   0  0  0  0  0  0  0  0  0  0  0  0
   -2.0857   -0.3735   -0.3065 H   0  0  0  0  0  0  0  0  0  0  0  0
    0.0388   -0.3225   -0.2474 C   0  0  1  0  0  0  0  0  0  0  0  0
    0.7034   -0.8658    0.4333 H   0  0  0  0  0  0  0  0  0  0  0  0
    0.6721   -0.3687   -1.6678 C   0  0  0  0  0  0  0  0  0  0  0  0
    1.6004   -0.9417   -1.6011 H   0  0  0  0  0  0  0  0  0  0  0  0
    0.0072   -0.9287   -2.3308 H   0  0  0  0  0  0  0  0  0  0  0  0
    1.0120    0.9451   -2.3739 C   0  0  0  0  0  0  0  0  0  0  0  0
    1.3287    1.9714   -1.8048 O   0  0  0  0  0  0  0  0  0  0  0  0
    0.9837    1.0350   -3.7360 N   0  0  0  0  0  0  0  0  0  0  0  0
    1.0375    1.9768   -4.1139 H   0  0  0  0  0  0  0  0  0  0  0  0
    0.5262    0.3006   -4.2652 H   0  0  0  0  0  0  0  0  0  0  0  0
   -0.1772    1.0721    0.3910 C   0  0  0  0  0  0  0  0  0  0  0  0
   -1.2410    1.6571    0.2017 O   0  0  0  0  0  0  0  0  0  0  0  0
    0.6884    1.5423    1.3619 N   0  0  0  0  0  0  0  0  0  0  0  0
    1.6007    1.0992    1.4102 H   0  0  0  0  0  0  0  0  0  0  0  0
    0.5305    2.8551    1.9752 C   0  0  0  0  0  0  0  0  0  0  0  0
   -0.4380    2.9298    2.4811 H   0  0  0  0  0  0  0  0  0  0  0  0
    1.3185    3.0233    2.7155 H   0  0  0  0  0  0  0  0  0  0  0  0
    0.5932    3.6412    1.2150 H   0  0  0  0  0  0  0  0  0  0  0  0
  1  2  1  0  0  0  0
  2  3  1  0  0  0  0
  2  4  1  0  0  0  0
  2  5  1  0  0  0  0
  5  6  2  0  0  0  0
  5  7  1  0  0  0  0
  7  8  1  0  0  0  0
  7  9  1  0  0  0  0
  9 10  1  0  0  0  0
  9 11  1  0  0  0  0
  9 19  1  0  0  0  0
 11 12  1  0  0  0  0
 11 13  1  0  0  0  0
 11 14  1  0  0  0  0
 14 15  2  0  0  0  0
 14 16  1  0  0  0  0
 16 17  1  0  0  0  0
 16 18  1  0  0  0  0
 19 20  2  0  0  0  0
 19 21  1  0  0  0  0
 21 22  1  0  0  0  0
 21 23  1  0  0  0  0
 23 24  1  0  0  0  0
 23 25  1  0  0  0  0
 23 26  1  0  0  0  0
M  END
$$$$

  -OEChem-04042215573D

 26 25  0     1  0  0  0  0  0999 V2000
   -2.9072   -3.8693    0.5826 H   0  0  0  0  0  0  0  0  0  0  0  0
   -2.9116   -2.8353    0.2267 C   0  0  0  0  0  0  0  0  0  0  0  0
   -3.4632   -2.2197    0.9414 H   0  0  0  0  0  0  0  0  0  0  0  0
   -3.4166   -2.7975   -0.7415 H   0  0  0  0  0  0  0  0  0  0  0  0
   -1.4900   -2.3230    0.0902 C   0  0  0  0  0  0  0  0  0  0  0  0
   -0.5465   -3.0644    0.3162 O   0  0  0  0  0  0  0  0  0  0  0  0
   -1.2639   -1.0187   -0.2966 N   0  0  0  0  0  0  0  0  0  0  0  0
   -2.0747   -0.4000   -0.3369 H   0  0  0  0  0  0  0  0  0  0  0  0
    0.0500   -0.3584   -0.2452 C   0  0  1  0  0  0  0  0  0  0  0  0
    0.7122   -0.8958    0.4426 H   0  0  0  0  0  0  0  0  0  0  0  0
    0.6837   -0.4056   -1.6632 C   0  0  0  0  0  0  0  0  0  0  0  0
    1.6145   -0.9751   -1.6011 H   0  0  0  0  0  0  0  0  0  0  0  0
    0.0226   -0.9599   -2.3346 H   0  0  0  0  0  0  0  0  0  0  0  0
    1.0164    0.9269   -2.3322 C   0  0  0  0  0  0  0  0  0  0  0  0
    1.5724    1.8397   -1.7510 O   0  0  0  0  0  0  0  0  0  0  0  0
    0.6560    1.1894   -3.6226 N   0  0  0  0  0  0  0  0  0  0  0  0
    0.7170    2.1654   -3.8989 H   0  0  0  0  0  0  0  0  0  0  0  0
   -0.0224    0.5812   -4.0680 H   0  0  0  0  0  0  0  0  0  0  0  0
   -0.1651    1.0485    0.3651 C   0  0  0  0  0  0  0  0  0  0  0  0
   -1.2056    1.6524    0.1158 O   0  0  0  0  0  0  0  0  0  0  0  0
    0.6883    1.5354    1.3380 N   0  0  0  0  0  0  0  0  0  0  0  0
    1.5958    1.0846    1.4090 H   0  0  0  0  0  0  0  0  0  0  0  0
    0.5451    2.8737    1.8973 C   0  0  0  0  0  0  0  0  0  0  0  0
   -0.4373    2.9923    2.3662 H   0  0  0  0  0  0  0  0  0  0  0  0
    1.3117    3.0491    2.6581 H   0  0  0  0  0  0  0  0  0  0  0  0
    0.6549    3.6286    1.1115 H   0  0  0  0  0  0  0  0  0  0  0  0
  1  2  1  0  0  0  0
  2  3  1  0  0  0  0
  2  4  1  0  0  0  0
  2  5  1  0  0  0  0
  5  6  2  0  0  0  0
  5  7  1  0  0  0  0
  7  8  1  0  0  0  0
  7  9  1  0  0  0  0
  9 10  1  0  0  0  0
  9 11  1  0  0  0  0
  9 19  1  0  0  0  0
 11 12  1  0  0  0  0
 11 13  1  0  0  0  0
 11 14  1  0  0  0  0
 14 15  2  0  0  0  0
 14 16  1  0  0  0  0
 16 17  1  0  0  0  0
 16 18  1  0  0  0  0
 19 20  2  0  0  0  0
 19 21  1  0  0  0  0
 21 22  1  0  0  0  0
 21 23  1  0  0  0  0
 23 24  1  0  0  0  0
 23 25  1  0  0  0  0
 23 26  1  0  0  0  0
M  END
$$$$

  -OEChem-04042215573D

 26 25  0     1  0  0  0  0  0999 V2000
   -2.9185   -3.8783    0.6084 H   0  0  0  0  0  0  0  0  0  0  0  0
   -2.9173   -2.8551    0.2221 C   0  0  0  0  0  0  0  0  0  0  0  0
   -3.4859   -2.2203    0.9061 H   0  0  0  0  0  0  0  0  0  0  0  0
   -3.4004   -2.8475   -0.7578 H   0  0  0  0  0  0  0  0  0  0  0  0
   -1.4942   -2.3431    0.1016 C   0  0  0  0  0  0  0  0  0  0  0  0
   -0.5546   -3.0775    0.3624 O   0  0  0  0  0  0  0  0  0  0  0  0
   -1.2631   -1.0462   -0.3074 N   0  0  0  0  0  0  0  0  0  0  0  0
   -2.0744   -0.4317   -0.3777 H   0  0  0  0  0  0  0  0  0  0  0  0
    0.0504   -0.3855   -0.2540 C   0  0  1  0  0  0  0  0  0  0  0  0
    0.7088   -0.9146    0.4438 H   0  0  0  0  0  0  0  0  0  0  0  0
    0.6935   -0.4380   -1.6648 C   0  0  0  0  0  0  0  0  0  0  0  0
    1.6297   -0.9984   -1.5982 H   0  0  0  0  0  0  0  0  0  0  0  0
    0.0440   -0.9915   -2.3482 H   0  0  0  0  0  0  0  0  0  0  0  0
    1.0116    0.9127   -2.2978 C   0  0  0  0  0  0  0  0  0  0  0  0
    1.7773    1.6987   -1.7708 O   0  0  0  0  0  0  0  0  0  0  0  0
    0.3596    1.3643   -3.4087 N   0  0  0  0  0  0  0  0  0  0  0  0
    0.4413    2.3637   -3.5737 H   0  0  0  0  0  0  0  0  0  0  0  0
   -0.4882    0.8829   -3.6883 H   0  0  0  0  0  0  0  0  0  0  0  0
   -0.1578    1.0345    0.3262 C   0  0  0  0  0  0  0  0  0  0  0  0
   -1.1738    1.6555    0.0250 O   0  0  0  0  0  0  0  0  0  0  0  0
    0.6894    1.5370    1.2958 N   0  0  0  0  0  0  0  0  0  0  0  0
    1.5838    1.0671    1.4039 H   0  0  0  0  0  0  0  0  0  0  0  0
    0.5609    2.8922    1.8167 C   0  0  0  0  0  0  0  0  0  0  0  0
   -0.4223    3.0356    2.2770 H   0  0  0  0  0  0  0  0  0  0  0  0
    1.3262    3.0794    2.5759 H   0  0  0  0  0  0  0  0  0  0  0  0
    0.6841    3.6238    1.0111 H   0  0  0  0  0  0  0  0  0  0  0  0
  1  2  1  0  0  0  0
  2  3  1  0  0  0  0
  2  4  1  0  0  0  0
  2  5  1  0  0  0  0
  5  6  2  0  0  0  0
  5  7  1  0  0  0  0
  7  8  1  0  0  0  0
  7  9  1  0  0  0  0
  9 10  1  0  0  0  0
  9 11  1  0  0  0  0
  9 19  1  0  0  0  0
 11 12  1  0  0  0  0
 11 13  1  0  0  0  0
 11 14  1  0  0  0  0
 14 15  2  0  0  0  0
 14 16  1  0  0  0  0
 16 17  1  0  0  0  0
 16 18  1  0  0  0  0
 19 20  2  0  0  0  0
 19 21  1  0  0  0  0
 21 22  1  0  0  0  0
 21 23  1  0  0  0  0
 23 24  1  0  0  0  0
 23 25  1  0  0  0  0
 23 26  1  0  0  0  0
M  END
$$$$

  -OEChem-04042215573D

 26 25  0     1  0  0  0  0  0999 V2000
   -2.9137   -3.8992    0.6156 H   0  0  0  0  0  0  0  0  0  0  0  0
   -2.9176   -2.8775    0.2256 C   0  0  0  0  0  0  0  0  0  0  0  0
   -3.4904   -2.2431    0.9065 H   0  0  0  0  0  0  0  0  0  0  0  0
   -3.4000   -2.8762   -0.7548 H   0  0  0  0  0  0  0  0  0  0  0  0
   -1.4970   -2.3582    0.1050 C   0  0  0  0  0  0  0  0  0  0  0  0
   -0.5544   -3.0819    0.3839 O   0  0  0  0  0  0  0  0  0  0  0  0
   -1.2728   -1.0635   -0.3156 N   0  0  0  0  0  0  0  0  0  0  0  0
   -2.0886   -0.4572   -0.3989 H   0  0  0  0  0  0  0  0  0  0  0  0
    0.0366   -0.3949   -0.2672 C   0  0  1  0  0  0  0  0  0  0  0  0
    0.6965   -0.9181    0.4339 H   0  0  0  0  0  0  0  0  0  0  0  0
    0.6869   -0.4465   -1.6723 C   0  0  0  0  0  0  0  0  0  0  0  0
    1.6293   -0.9964   -1.6036 H   0  0  0  0  0  0  0  0  0  0  0  0
    0.0472   -1.0004   -2.3646 H   0  0  0  0  0  0  0  0  0  0  0  0
    0.9844    0.9181   -2.2803 C   0  0  0  0  0  0  0  0  0  0  0  0
    1.9227    1.5847   -1.8848 O   0  0  0  0  0  0  0  0  0  0  0  0
    0.1421    1.5201   -3.1694 N   0  0  0  0  0  0  0  0  0  0  0  0
    0.2837    2.5213   -3.2698 H   0  0  0  0  0  0  0  0  0  0  0  0
   -0.8003    1.1507   -3.2376 H   0  0  0  0  0  0  0  0  0  0  0  0
   -0.1629    1.0315    0.2982 C   0  0  0  0  0  0  0  0  0  0  0  0
   -1.1647    1.6629   -0.0268 O   0  0  0  0  0  0  0  0  0  0  0  0
    0.6886    1.5415    1.2593 N   0  0  0  0  0  0  0  0  0  0  0  0
    1.5702    1.0541    1.3945 H   0  0  0  0  0  0  0  0  0  0  0  0
    0.5702    2.9018    1.7688 C   0  0  0  0  0  0  0  0  0  0  0  0
   -0.4094    3.0543    2.2339 H   0  0  0  0  0  0  0  0  0  0  0  0
    1.3412    3.0909    2.5219 H   0  0  0  0  0  0  0  0  0  0  0  0
    0.6927    3.6261    0.9566 H   0  0  0  0  0  0  0  0  0  0  0  0
  1  2  1  0  0  0  0
  2  3  1  0  0  0  0
  2  4  1  0  0  0  0
  2  5  1  0  0  0  0
  5  6  2  0  0  0  0
  5  7  1  0  0  0  0
  7  8  1  0  0  0  0
  7  9  1  0  0  0  0
  9 10  1  0  0  0  0
  9 11  1  0  0  0  0
  9 19  1  0  0  0  0
 11 12  1  0  0  0  0
 11 13  1  0  0  0  0
 11 14  1  0  0  0  0
 14 15  2  0  0  0  0
 14 16  1  0  0  0  0
 16 17  1  0  0  0  0
 16 18  1  0  0  0  0
 19 20  2  0  0  0  0
 19 21  1  0  0  0  0
 21 22  1  0  0  0  0
 21 23  1  0  0  0  0
 23 24  1  0  0  0  0
 23 25  1  0  0  0  0
 23 26  1  0  0  0  0
M  END
$$$$

  -OEChem-04042215573D

 26 25  0     1  0  0  0  0  0999 V2000
   -2.8956   -3.9249    0.6048 H   0  0  0  0  0  0  0  0  0  0  0  0
   -2.9112   -2.9022    0.2176 C   0  0  0  0  0  0  0  0  0  0  0  0
   -3.5043   -2.2798    0.8921 H   0  0  0  0  0  0  0  0  0  0  0  0
   -3.3793   -2.9064   -0.7698 H   0  0  0  0  0  0  0  0  0  0  0  0
   -1.4977   -2.3597    0.1180 C   0  0  0  0  0  0  0  0  0  0  0  0
   -0.5478   -3.0698    0.4066 O   0  0  0  0  0  0  0  0  0  0  0  0
   -1.2872   -1.0622   -0.3018 N   0  0  0  0  0  0  0  0  0  0  0  0
   -2.1101   -0.4679   -0.3976 H   0  0  0  0  0  0  0  0  0  0  0  0
    0.0175   -0.3830   -0.2657 C   0  0  1  0  0  0  0  0  0  0  0  0
    0.6851   -0.9054    0.4286 H   0  0  0  0  0  0  0  0  0  0  0  0
    0.6594   -0.4334   -1.6740 C   0  0  0  0  0  0  0  0  0  0  0  0
    1.6059   -0.9776   -1.6098 H   0  0  0  0  0  0  0  0  0  0  0  0
    0.0195   -0.9915   -2.3627 H   0  0  0  0  0  0  0  0  0  0  0  0
    0.9401    0.9328   -2.2861 C   0  0  0  0  0  0  0  0  0  0  0  0
    2.0059    1.4894   -2.1030 O   0  0  0  0  0  0  0  0  0  0  0  0
   -0.0079    1.6369   -2.9697 N   0  0  0  0  0  0  0  0  0  0  0  0
    0.2145    2.6201   -3.0949 H   0  0  0  0  0  0  0  0  0  0  0  0
   -0.9750    1.3789   -2.7991 H   0  0  0  0  0  0  0  0  0  0  0  0
   -0.1696    1.0429    0.3029 C   0  0  0  0  0  0  0  0  0  0  0  0
   -1.1653    1.6838   -0.0212 O   0  0  0  0  0  0  0  0  0  0  0  0
    0.6964    1.5518    1.2518 N   0  0  0  0  0  0  0  0  0  0  0  0
    1.5590    1.0394    1.4155 H   0  0  0  0  0  0  0  0  0  0  0  0
    0.5844    2.9061    1.7794 C   0  0  0  0  0  0  0  0  0  0  0  0
   -0.3903    3.0540    2.2561 H   0  0  0  0  0  0  0  0  0  0  0  0
    1.3632    3.0858    2.5269 H   0  0  0  0  0  0  0  0  0  0  0  0
    0.6987    3.6402    0.9750 H   0  0  0  0  0  0  0  0  0  0  0  0
  1  2  1  0  0  0  0
  2  3  1  0  0  0  0
  2  4  1  0  0  0  0
  2  5  1  0  0  0  0
  5  6  2  0  0  0  0
  5  7  1  0  0  0  0
  7  8  1  0  0  0  0
  7  9  1  0  0  0  0
  9 10  1  0  0  0  0
  9 11  1  0  0  0  0
  9 19  1  0  0  0  0
 11 12  1  0  0  0  0
 11 13  1  0  0  0  0
 11 14  1  0  0  0  0
 14 15  2  0  0  0  0
 14 16  1  0  0  0  0
 16 17  1  0  0  0  0
 16 18  1  0  0  0  0
 19 20  2  0  0  0  0
 19 21  1  0  0  0  0
 21 22  1  0  0  0  0
 21 23  1  0  0  0  0
 23 24  1  0  0  0  0
 23 25  1  0  0  0  0
 23 26  1  0  0  0  0
M  END
$$$$

  -OEChem-04042215573D

 26 25  0     1  0  0  0  0  0999 V2000
   -2.8792   -3.9432    0.5933 H   0  0  0  0  0  0  0  0  0  0  0  0
   -2.9021   -2.9183    0.2124 C   0  0  0  0  0  0  0  0  0  0  0  0
   -3.5105   -2.3072    0.8834 H   0  0  0  0  0  0  0  0  0  0  0  0
   -3.3582   -2.9221   -0.7806 H   0  0  0  0  0  0  0  0  0  0  0  0
   -1.4944   -2.3583    0.1327 C   0  0  0  0  0  0  0  0  0  0  0  0
   -0.5391   -3.0581    0.4285 O   0  0  0  0  0  0  0  0  0  0  0  0
   -1.2954   -1.0563   -0.2791 N   0  0  0  0  0  0  0  0  0  0  0  0
   -2.1242   -0.4733   -0.3890 H   0  0  0  0  0  0  0  0  0  0  0  0
    0.0051   -0.3688   -0.2553 C   0  0  1  0  0  0  0  0  0  0  0  0
    0.6840   -0.8930    0.4266 H   0  0  0  0  0  0  0  0  0  0  0  0
    0.6298   -0.4119   -1.6719 C   0  0  0  0  0  0  0  0  0  0  0  0
    1.5770   -0.9566   -1.6188 H   0  0  0  0  0  0  0  0  0  0  0  0
   -0.0185   -0.9707   -2.3523 H   0  0  0  0  0  0  0  0  0  0  0  0
    0.9013    0.9505   -2.3003 C   0  0  0  0  0  0  0  0  0  0  0  0
    2.0322    1.3909   -2.3718 O   0  0  0  0  0  0  0  0  0  0  0  0
   -0.0920    1.7503   -2.7855 N   0  0  0  0  0  0  0  0  0  0  0  0
    0.2066    2.6989   -2.9905 H   0  0  0  0  0  0  0  0  0  0  0  0
   -1.0115    1.6183   -2.3703 H   0  0  0  0  0  0  0  0  0  0  0  0
   -0.1762    1.0515    0.3256 C   0  0  0  0  0  0  0  0  0  0  0  0
   -1.1701    1.6992    0.0090 O   0  0  0  0  0  0  0  0  0  0  0  0
    0.7028    1.5557    1.2646 N   0  0  0  0  0  0  0  0  0  0  0  0
    1.5467    1.0209    1.4531 H   0  0  0  0  0  0  0  0  0  0  0  0
    0.5920    2.9006    1.8167 C   0  0  0  0  0  0  0  0  0  0  0  0
   -0.3784    3.0372    2.3055 H   0  0  0  0  0  0  0  0  0  0  0  0
    1.3776    3.0703    2.5595 H   0  0  0  0  0  0  0  0  0  0  0  0
    0.6966    3.6495    1.0245 H   0  0  0  0  0  0  0  0  0  0  0  0
  1  2  1  0  0  0  0
  2  3  1  0  0  0  0
  2  4  1  0  0  0  0
  2  5  1  0  0  0  0
  5  6  2  0  0  0  0
  5  7  1  0  0  0  0
  7  8  1  0  0  0  0
  7  9  1  0  0  0  0
  9 10  1  0  0  0  0
  9 11  1  0  0  0  0
  9 19  1  0  0  0  0
 11 12  1  0  0  0  0
 11 13  1  0  0  0  0
 11 14  1  0  0  0  0
 14 15  2  0  0  0  0
 14 16  1  0  0  0  0
 16 17  1  0  0  0  0
 16 18  1  0  0  0  0
 19 20  2  0  0  0  0
 19 21  1  0  0  0  0
 21 22  1  0  0  0  0
 21 23  1  0  0  0  0
 23 24  1  0  0  0  0
 23 25  1  0  0  0  0
 23 26  1  0  0  0  0
M  END
$$$$

  -OEChem-04042215573D

 26 25  0     1  0  0  0  0  0999 V2000
   -2.8633   -3.9513    0.5798 H   0  0  0  0  0  0  0  0  0  0  0  0
   -2.8948   -2.9207    0.2153 C   0  0  0  0  0  0  0  0  0  0  0  0
   -3.5014   -2.3237    0.9006 H   0  0  0  0  0  0  0  0  0  0  0  0
   -3.3585   -2.9111   -0.7740 H   0  0  0  0  0  0  0  0  0  0  0  0
   -1.4907   -2.3517    0.1343 C   0  0  0  0  0  0  0  0  0  0  0  0
   -0.5303   -3.0470    0.4238 O   0  0  0  0  0  0  0  0  0  0  0  0
   -1.3012   -1.0430   -0.2607 N   0  0  0  0  0  0  0  0  0  0  0  0
   -2.1344   -0.4678   -0.3772 H   0  0  0  0  0  0  0  0  0  0  0  0
   -0.0041   -0.3489   -0.2417 C   0  0  1  0  0  0  0  0  0  0  0  0
    0.6795   -0.8796    0.4303 H   0  0  0  0  0  0  0  0  0  0  0  0
    0.6156   -0.3842   -1.6623 C   0  0  0  0  0  0  0  0  0  0  0  0
    1.5628   -0.9290   -1.6123 H   0  0  0  0  0  0  0  0  0  0  0  0
   -0.0356   -0.9448   -2.3385 H   0  0  0  0  0  0  0  0  0  0  0  0
    0.8845    0.9732   -2.3065 C   0  0  0  0  0  0  0  0  0  0  0  0
    2.0099    1.2969   -2.6326 O   0  0  0  0  0  0  0  0  0  0  0  0
   -0.1086    1.8483   -2.6398 N   0  0  0  0  0  0  0  0  0  0  0  0
    0.2238    2.7609   -2.9360 H   0  0  0  0  0  0  0  0  0  0  0  0
   -0.9522    1.8059   -2.0683 H   0  0  0  0  0  0  0  0  0  0  0  0
   -0.1780    1.0627    0.3602 C   0  0  0  0  0  0  0  0  0  0  0  0
   -1.1709    1.7196    0.0604 O   0  0  0  0  0  0  0  0  0  0  0  0
    0.7128    1.5550    1.2944 N   0  0  0  0  0  0  0  0  0  0  0  0
    1.5394    0.9997    1.4995 H   0  0  0  0  0  0  0  0  0  0  0  0
    0.5982    2.8832    1.8847 C   0  0  0  0  0  0  0  0  0  0  0  0
   -0.3635    2.9947    2.3966 H   0  0  0  0  0  0  0  0  0  0  0  0
    1.3972    3.0422    2.6155 H   0  0  0  0  0  0  0  0  0  0  0  0
    0.6783    3.6543    1.1111 H   0  0  0  0  0  0  0  0  0  0  0  0
  1  2  1  0  0  0  0
  2  3  1  0  0  0  0
  2  4  1  0  0  0  0
  2  5  1  0  0  0  0
  5  6  2  0  0  0  0
  5  7  1  0  0  0  0
  7  8  1  0  0  0  0
  7  9  1  0  0  0  0
  9 10  1  0  0  0  0
  9 11  1  0  0  0  0
  9 19  1  0  0  0  0
 11 12  1  0  0  0  0
 11 13  1  0  0  0  0
 11 14  1  0  0  0  0
 14 15  2  0  0  0  0
 14 16  1  0  0  0  0
 16 17  1  0  0  0  0
 16 18  1  0  0  0  0
 19 20  2  0  0  0  0
 19 21  1  0  0  0  0
 21 22  1  0  0  0  0
 21 23  1  0  0  0  0
 23 24  1  0  0  0  0
 23 25  1  0  0  0  0
 23 26  1  0  0  0  0
M  END
$$$$

  -OEChem-04042215573D

 26 25  0     1  0  0  0  0  0999 V2000
   -2.8493   -3.9533    0.5448 H   0  0  0  0  0  0  0  0  0  0  0  0
   -2.8859   -2.9173    0.1964 C   0  0  0  0  0  0  0  0  0  0  0  0
   -3.5081   -2.3375    0.8823 H   0  0  0  0  0  0  0  0  0  0  0  0
   -3.3359   -2.8969   -0.7991 H   0  0  0  0  0  0  0  0  0  0  0  0
   -1.4864   -2.3335    0.1439 C   0  0  0  0  0  0  0  0  0  0  0  0
   -0.5238   -3.0227    0.4410 O   0  0  0  0  0  0  0  0  0  0  0  0
   -1.3031   -1.0188   -0.2342 N   0  0  0  0  0  0  0  0  0  0  0  0
   -2.1387   -0.4515   -0.3701 H   0  0  0  0  0  0  0  0  0  0  0  0
   -0.0094   -0.3188   -0.2177 C   0  0  1  0  0  0  0  0  0  0  0  0
    0.6748   -0.8557    0.4486 H   0  0  0  0  0  0  0  0  0  0  0  0
    0.6110   -0.3606   -1.6391 C   0  0  0  0  0  0  0  0  0  0  0  0
    1.5603   -0.9011   -1.5802 H   0  0  0  0  0  0  0  0  0  0  0  0
   -0.0373   -0.9334   -2.3080 H   0  0  0  0  0  0  0  0  0  0  0  0
    0.8818    0.9831   -2.3134 C   0  0  0  0  0  0  0  0  0  0  0  0
    1.9358    1.1866   -2.8835 O   0  0  0  0  0  0  0  0  0  0  0  0
   -0.0857    1.9227   -2.5273 N   0  0  0  0  0  0  0  0  0  0  0  0
    0.2501    2.7970   -2.9191 H   0  0  0  0  0  0  0  0  0  0  0  0
   -0.8567    1.9501   -1.8583 H   0  0  0  0  0  0  0  0  0  0  0  0
   -0.1682    1.0859    0.4028 C   0  0  0  0  0  0  0  0  0  0  0  0
   -1.1575    1.7565    0.1239 O   0  0  0  0  0  0  0  0  0  0  0  0
    0.7392    1.5598    1.3308 N   0  0  0  0  0  0  0  0  0  0  0  0
    1.5436    0.9776    1.5497 H   0  0  0  0  0  0  0  0  0  0  0  0
    0.6203    2.8623    1.9751 C   0  0  0  0  0  0  0  0  0  0  0  0
   -0.3350    2.9437    2.5047 H   0  0  0  0  0  0  0  0  0  0  0  0
    1.4280    3.0001    2.7005 H   0  0  0  0  0  0  0  0  0  0  0  0
    0.6821    3.6643    1.2320 H   0  0  0  0  0  0  0  0  0  0  0  0
  1  2  1  0  0  0  0
  2  3  1  0  0  0  0
  2  4  1  0  0  0  0
  2  5  1  0  0  0  0
  5  6  2  0  0  0  0
  5  7  1  0  0  0  0
  7  8  1  0  0  0  0
  7  9  1  0  0  0  0
  9 10  1  0  0  0  0
  9 11  1  0  0  0  0
  9 19  1  0  0  0  0
 11 12  1  0  0  0  0
 11 13  1  0  0  0  0
 11 14  1  0  0  0  0
 14 15  2  0  0  0  0
 14 16  1  0  0  0  0
 16 17  1  0  0  0  0
 16 18  1  0  0  0  0
 19 20  2  0  0  0  0
 19 21  1  0  0  0  0
 21 22  1  0  0  0  0
 21 23  1  0  0  0  0
 23 24  1  0  0  0  0
 23 25  1  0  0  0  0
 23 26  1  0  0  0  0
M  END
$$$$

  -OEChem-04042215573D

 26 25  0     1  0  0  0  0  0999 V2000
   -2.8441   -3.9560    0.5004 H   0  0  0  0  0  0  0  0  0  0  0  0
   -2.8833   -2.9132    0.1730 C   0  0  0  0  0  0  0  0  0  0  0  0
   -3.5131   -2.3502    0.8661 H   0  0  0  0  0  0  0  0  0  0  0  0
   -3.3265   -2.8744   -0.8251 H   0  0  0  0  0  0  0  0  0  0  0  0
   -1.4862   -2.3215    0.1432 C   0  0  0  0  0  0  0  0  0  0  0  0
   -0.5238   -3.0077    0.4482 O   0  0  0  0  0  0  0  0  0  0  0  0
   -1.3054   -1.0013   -0.2169 N   0  0  0  0  0  0  0  0  0  0  0  0
   -2.1419   -0.4399   -0.3703 H   0  0  0  0  0  0  0  0  0  0  0  0
   -0.0145   -0.2960   -0.1923 C   0  0  1  0  0  0  0  0  0  0  0  0
    0.6614   -0.8396    0.4769 H   0  0  0  0  0  0  0  0  0  0  0  0
    0.6266   -0.3448   -1.6063 C   0  0  0  0  0  0  0  0  0  0  0  0
    1.5765   -0.8814   -1.5252 H   0  0  0  0  0  0  0  0  0  0  0  0
   -0.0106   -0.9310   -2.2743 H   0  0  0  0  0  0  0  0  0  0  0  0
    0.9119    0.9809   -2.3139 C   0  0  0  0  0  0  0  0  0  0  0  0
    1.8427    1.0642   -3.0910 O   0  0  0  0  0  0  0  0  0  0  0  0
    0.0123    2.0039   -2.4110 N   0  0  0  0  0  0  0  0  0  0  0  0
    0.3439    2.8361   -2.8883 H   0  0  0  0  0  0  0  0  0  0  0  0
   -0.6983    2.0918   -1.6823 H   0  0  0  0  0  0  0  0  0  0  0  0
   -0.1621    1.1019    0.4444 C   0  0  0  0  0  0  0  0  0  0  0  0
   -1.1461    1.7851    0.1798 O   0  0  0  0  0  0  0  0  0  0  0  0
    0.7537    1.5586    1.3729 N   0  0  0  0  0  0  0  0  0  0  0  0
    1.5397    0.9558    1.6024 H   0  0  0  0  0  0  0  0  0  0  0  0
    0.6378    2.8470    2.0459 C   0  0  0  0  0  0  0  0  0  0  0  0
   -0.3018    2.9050    2.6055 H   0  0  0  0  0  0  0  0  0  0  0  0
    1.4659    2.9823    2.7483 H   0  0  0  0  0  0  0  0  0  0  0  0
    0.6658    3.6640    1.3173 H   0  0  0  0  0  0  0  0  0  0  0  0
  1  2  1  0  0  0  0
  2  3  1  0  0  0  0
  2  4  1  0  0  0  0
  2  5  1  0  0  0  0
  5  6  2  0  0  0  0
  5  7  1  0  0  0  0
  7  8  1  0  0  0  0
  7  9  1  0  0  0  0
  9 10  1  0  0  0  0
  9 11  1  0  0  0  0
  9 19  1  0  0  0  0
 11 12  1  0  0  0  0
 11 13  1  0  0  0  0
 11 14  1  0  0  0  0
 14 15  2  0  0  0  0
 14 16  1  0  0  0  0
 16 17  1  0  0  0  0
 16 18  1  0  0  0  0
 19 20  2  0  0  0  0
 19 21  1  0  0  0  0
 21 22  1  0  0  0  0
 21 23  1  0  0  0  0
 23 24  1  0  0  0  0
 23 25  1  0  0  0  0
 23 26  1  0  0  0  0
M  END
$$$$

  -OEChem-04042215573D

 26 25  0     1  0  0  0  0  0999 V2000
   -2.8610   -3.9360    0.4551 H   0  0  0  0  0  0  0  0  0  0  0  0
   -2.8919   -2.8862    0.1503 C   0  0  0  0  0  0  0  0  0  0  0  0
   -3.5123   -2.3325    0.8591 H   0  0  0  0  0  0  0  0  0  0  0  0
   -3.3400   -2.8214   -0.8441 H   0  0  0  0  0  0  0  0  0  0  0  0
   -1.4895   -2.3079    0.1246 C   0  0  0  0  0  0  0  0  0  0  0  0
   -0.5324   -3.0086    0.4130 O   0  0  0  0  0  0  0  0  0  0  0  0
   -1.2971   -0.9838   -0.2142 N   0  0  0  0  0  0  0  0  0  0  0  0
   -2.1288   -0.4100   -0.3480 H   0  0  0  0  0  0  0  0  0  0  0  0
    0.0000   -0.2903   -0.1753 C   0  0  1  0  0  0  0  0  0  0  0  0
    0.6675   -0.8462    0.4925 H   0  0  0  0  0  0  0  0  0  0  0  0
    0.6464   -0.3371   -1.5897 C   0  0  0  0  0  0  0  0  0  0  0  0
    1.5871   -0.8880   -1.5009 H   0  0  0  0  0  0  0  0  0  0  0  0
    0.0039   -0.9209   -2.2549 H   0  0  0  0  0  0  0  0  0  0  0  0
    0.9676    0.9652   -2.3307 C   0  0  0  0  0  0  0  0  0  0  0  0
    1.7110    0.9330   -3.2918 O   0  0  0  0  0  0  0  0  0  0  0  0
    0.3175    2.1570   -2.1849 N   0  0  0  0  0  0  0  0  0  0  0  0
    0.4531    2.8465   -2.9176 H   0  0  0  0  0  0  0  0  0  0  0  0
   -0.4719    2.2301   -1.5407 H   0  0  0  0  0  0  0  0  0  0  0  0
   -0.1524    1.0950    0.4850 C   0  0  0  0  0  0  0  0  0  0  0  0
   -1.1406    1.7771    0.2307 O   0  0  0  0  0  0  0  0  0  0  0  0
    0.7561    1.5372    1.4276 N   0  0  0  0  0  0  0  0  0  0  0  0
    1.5508    0.9398    1.6401 H   0  0  0  0  0  0  0  0  0  0  0  0
    0.6337    2.8146    2.1195 C   0  0  0  0  0  0  0  0  0  0  0  0
   -0.3080    2.8601    2.6768 H   0  0  0  0  0  0  0  0  0  0  0  0
    1.4594    2.9427    2.8261 H   0  0  0  0  0  0  0  0  0  0  0  0
    0.6602    3.6427    1.4034 H   0  0  0  0  0  0  0  0  0  0  0  0
  1  2  1  0  0  0  0
  2  3  1  0  0  0  0
  2  4  1  0  0  0  0
  2  5  1  0  0  0  0
  5  6  2  0  0  0  0
  5  7  1  0  0  0  0
  7  8  1  0  0  0  0
  7  9  1  0  0  0  0
  9 10  1  0  0  0  0
  9 11  1  0  0  0  0
  9 19  1  0  0  0  0
 11 12  1  0  0  0  0
 11 13  1  0  0  0  0
 11 14  1  0  0  0  0
 14 15  2  0  0  0  0
 14 16  1  0  0  0  0
 16 17  1  0  0  0  0
 16 18  1  0  0  0  0
 19 20  2  0  0  0  0
 19 21  1  0  0  0  0
 21 22  1  0  0  0  0
 21 23  1  0  0  0  0
 23 24  1  0  0  0  0
 23 25  1  0  0  0  0
 23 26  1  0  0  0  0
M  END
$$$$

  -OEChem-04042215573D

 26 25  0     1  0  0  0  0  0999 V2000
   -2.8919   -3.9344    0.4085 H   0  0  0  0  0  0  0  0  0  0  0  0
   -2.8979   -2.8903    0.0828 C   0  0  0  0  0  0  0  0  0  0  0  0
   -3.5639   -2.3217    0.7364 H   0  0  0  0  0  0  0  0  0  0  0  0
   -3.2757   -2.8428   -0.9414 H   0  0  0  0  0  0  0  0  0  0  0  0
   -1.4952   -2.3157    0.1436 C   0  0  0  0  0  0  0  0  0  0  0  0
   -0.5621   -3.0118    0.5110 O   0  0  0  0  0  0  0  0  0  0  0  0
   -1.2757   -0.9976   -0.2004 N   0  0  0  0  0  0  0  0  0  0  0  0
   -2.0878   -0.4295   -0.4374 H   0  0  0  0  0  0  0  0  0  0  0  0
    0.0285   -0.3221   -0.1282 C   0  0  1  0  0  0  0  0  0  0  0  0
    0.6945   -0.8732    0.5449 H   0  0  0  0  0  0  0  0  0  0  0  0
    0.6641   -0.3668   -1.5506 C   0  0  0  0  0  0  0  0  0  0  0  0
    1.4109   -1.1659   -1.5528 H   0  0  0  0  0  0  0  0  0  0  0  0
   -0.1115   -0.6585   -2.2648 H   0  0  0  0  0  0  0  0  0  0  0  0
    1.3258    0.8737   -2.1665 C   0  0  0  0  0  0  0  0  0  0  0  0
    1.8112    0.7907   -3.2777 O   0  0  0  0  0  0  0  0  0  0  0  0
    1.2469    2.1633   -1.7247 N   0  0  0  0  0  0  0  0  0  0  0  0
    1.5003    2.8513   -2.4275 H   0  0  0  0  0  0  0  0  0  0  0  0
    0.4857    2.3871   -1.0832 H   0  0  0  0  0  0  0  0  0  0  0  0
   -0.1537    1.0637    0.5179 C   0  0  0  0  0  0  0  0  0  0  0  0
   -1.0279    1.8165    0.1048 O   0  0  0  0  0  0  0  0  0  0  0  0
    0.7170    1.5106    1.4935 N   0  0  0  0  0  0  0  0  0  0  0  0
    1.4400    0.8711    1.8134 H   0  0  0  0  0  0  0  0  0  0  0  0
    0.6215    2.8269    2.1139 C   0  0  0  0  0  0  0  0  0  0  0  0
   -0.3564    2.9570    2.5894 H   0  0  0  0  0  0  0  0  0  0  0  0
    1.3948    2.9405    2.8799 H   0  0  0  0  0  0  0  0  0  0  0  0
    0.7582    3.6149    1.3660 H   0  0  0  0  0  0  0  0  0  0  0  0
  1  2  1  0  0  0  0
  2  3  1  0  0  0  0
  2  4  1  0  0  0  0
  2  5  1  0  0  0  0
  5  6  2  0  0  0  0
  5  7  1  0  0  0  0
  7  8  1  0  0  0  0
  7  9  1  0  0  0  0
  9 10  1  0  0  0  0
  9 11  1  0  0  0  0
  9 19  1  0  0  0  0
 11 12  1  0  0  0  0
 11 13  1  0  0  0  0
 11 14  1  0  0  0  0
 14 15  2  0  0  0  0
 14 16  1  0  0  0  0
 16 17  1  0  0  0  0
 16 18  1  0  0  0  0
 19 20  2  0  0  0  0
 19 21  1  0  0  0  0
 21 22  1  0  0  0  0
 21 23  1  0  0  0  0
 23 24  1  0  0  0  0
 23 25  1  0  0  0  0
 23 26  1  0  0  0  0
M  END
$$$$

  -OEChem-04042215573D

 26 25  0     1  0  0  0  0  0999 V2000
   -2.8700   -3.9421    0.4912 H   0  0  0  0  0  0  0  0  0  0  0  0
   -2.8902   -2.9045    0.1459 C   0  0  0  0  0  0  0  0  0  0  0  0
   -3.5526   -2.3292    0.7973 H   0  0  0  0  0  0  0  0  0  0  0  0
   -3.2820   -2.8804   -0.8740 H   0  0  0  0  0  0  0  0  0  0  0  0
   -1.4924   -2.3156    0.1775 C   0  0  0  0  0  0  0  0  0  0  0  0
   -0.5491   -2.9907    0.5586 O   0  0  0  0  0  0  0  0  0  0  0  0
   -1.2878   -1.0066   -0.2073 N   0  0  0  0  0  0  0  0  0  0  0  0
   -2.1064   -0.4517   -0.4551 H   0  0  0  0  0  0  0  0  0  0  0  0
    0.0135   -0.3230   -0.1843 C   0  0  1  0  0  0  0  0  0  0  0  0
    0.7150   -0.8548    0.4675 H   0  0  0  0  0  0  0  0  0  0  0  0
    0.5826   -0.3445   -1.6308 C   0  0  0  0  0  0  0  0  0  0  0  0
    1.3401   -1.1312   -1.6824 H   0  0  0  0  0  0  0  0  0  0  0  0
   -0.2186   -0.6290   -2.3195 H   0  0  0  0  0  0  0  0  0  0  0  0
    1.2008    0.9282   -2.2198 C   0  0  0  0  0  0  0  0  0  0  0  0
    1.3912    0.9984   -3.4181 O   0  0  0  0  0  0  0  0  0  0  0  0
    1.8212    1.9218   -1.5142 N   0  0  0  0  0  0  0  0  0  0  0  0
    2.1140    2.7088   -2.0863 H   0  0  0  0  0  0  0  0  0  0  0  0
    1.5014    2.1027   -0.5677 H   0  0  0  0  0  0  0  0  0  0  0  0
   -0.1868    1.0750    0.4313 C   0  0  0  0  0  0  0  0  0  0  0  0
   -1.0876    1.7987    0.0301 O   0  0  0  0  0  0  0  0  0  0  0  0
    0.6963    1.5569    1.3810 N   0  0  0  0  0  0  0  0  0  0  0  0
    1.3639    0.8975    1.7752 H   0  0  0  0  0  0  0  0  0  0  0  0
    0.5244    2.8472    2.0405 C   0  0  0  0  0  0  0  0  0  0  0  0
   -0.4198    2.8717    2.5950 H   0  0  0  0  0  0  0  0  0  0  0  0
    1.3437    3.0248    2.7441 H   0  0  0  0  0  0  0  0  0  0  0  0
    0.5215    3.6588    1.3050 H   0  0  0  0  0  0  0  0  0  0  0  0
  1  2  1  0  0  0  0
  2  3  1  0  0  0  0
  2  4  1  0  0  0  0
  2  5  1  0  0  0  0
  5  6  2  0  0  0  0
  5  7  1  0  0  0  0
  7  8  1  0  0  0  0
  7  9  1  0  0  0  0
  9 10  1  0  0  0  0
  9 11  1  0  0  0  0
  9 19  1  0  0  0  0
 11 12  1  0  0  0  0
 11 13  1  0  0  0  0
 11 14  1  0  0  0  0
 14 15  2  0  0  0  0
 14 16  1  0  0  0  0
 16 17  1  0  0  0  0
 16 18  1  0  0  0  0
 19 20  2  0  0  0  0
 19 21  1  0  0  0  0
 21 22  1  0  0  0  0
 21 23  1  0  0  0  0
 23 24  1  0  0  0  0
 23 25  1  0  0  0  0
 23 26  1  0  0  0  0
M  END
$$$$

  -OEChem-04042215573D

 26 25  0     1  0  0  0  0  0999 V2000
   -2.8811   -3.9334    0.4969 H   0  0  0  0  0  0  0  0  0  0  0  0
   -2.8979   -2.8987    0.1431 C   0  0  0  0  0  0  0  0  0  0  0  0
   -3.5634   -2.3171    0.7858 H   0  0  0  0  0  0  0  0  0  0  0  0
   -3.2839   -2.8829   -0.8790 H   0  0  0  0  0  0  0  0  0  0  0  0
   -1.4992   -2.3118    0.1780 C   0  0  0  0  0  0  0  0  0  0  0  0
   -0.5602   -2.9850    0.5730 O   0  0  0  0  0  0  0  0  0  0  0  0
   -1.2883   -1.0076   -0.2191 N   0  0  0  0  0  0  0  0  0  0  0  0
   -2.1034   -0.4539   -0.4809 H   0  0  0  0  0  0  0  0  0  0  0  0
    0.0135   -0.3251   -0.1920 C   0  0  1  0  0  0  0  0  0  0  0  0
    0.7073   -0.8546    0.4699 H   0  0  0  0  0  0  0  0  0  0  0  0
    0.5980   -0.3558   -1.6301 C   0  0  0  0  0  0  0  0  0  0  0  0
    1.3616   -1.1368   -1.6742 H   0  0  0  0  0  0  0  0  0  0  0  0
   -0.1929   -0.6419   -2.3304 H   0  0  0  0  0  0  0  0  0  0  0  0
    1.2121    0.9329   -2.1815 C   0  0  0  0  0  0  0  0  0  0  0  0
    1.1832    1.1621   -3.3747 O   0  0  0  0  0  0  0  0  0  0  0  0
    2.0434    1.7582   -1.4754 N   0  0  0  0  0  0  0  0  0  0  0  0
    2.3126    2.5994   -1.9781 H   0  0  0  0  0  0  0  0  0  0  0  0
    1.9197    1.8099   -0.4698 H   0  0  0  0  0  0  0  0  0  0  0  0
   -0.1741    1.0840    0.4048 C   0  0  0  0  0  0  0  0  0  0  0  0
   -1.0822    1.8021    0.0106 O   0  0  0  0  0  0  0  0  0  0  0  0
    0.7141    1.5623    1.3525 N   0  0  0  0  0  0  0  0  0  0  0  0
    1.3462    0.8882    1.7784 H   0  0  0  0  0  0  0  0  0  0  0  0
    0.5531    2.8618    1.9958 C   0  0  0  0  0  0  0  0  0  0  0  0
   -0.3870    2.8993    2.5565 H   0  0  0  0  0  0  0  0  0  0  0  0
    1.3786    3.0456    2.6903 H   0  0  0  0  0  0  0  0  0  0  0  0
    0.5487    3.6623    1.2484 H   0  0  0  0  0  0  0  0  0  0  0  0
  1  2  1  0  0  0  0
  2  3  1  0  0  0  0
  2  4  1  0  0  0  0
  2  5  1  0  0  0  0
  5  6  2  0  0  0  0
  5  7  1  0  0  0  0
  7  8  1  0  0  0  0
  7  9  1  0  0  0  0
  9 10  1  0  0  0  0
  9 11  1  0  0  0  0
  9 19  1  0  0  0  0
 11 12  1  0  0  0  0
 11 13  1  0  0  0  0
 11 14  1  0  0  0  0
 14 15  2  0  0  0  0
 14 16  1  0  0  0  0
 16 17  1  0  0  0  0
 16 18  1  0  0  0  0
 19 20  2  0  0  0  0
 19 21  1  0  0  0  0
 21 22  1  0  0  0  0
 21 23  1  0  0  0  0
 23 24  1  0  0  0  0
 23 25  1  0  0  0  0
 23 26  1  0  0  0  0
M  END
$$$$

  -OEChem-04042215573D

 26 25  0     1  0  0  0  0  0999 V2000
   -2.8941   -3.9184    0.5012 H   0  0  0  0  0  0  0  0  0  0  0  0
   -2.9035   -2.8853    0.1429 C   0  0  0  0  0  0  0  0  0  0  0  0
   -3.5663   -2.2969    0.7820 H   0  0  0  0  0  0  0  0  0  0  0  0
   -3.2881   -2.8712   -0.8798 H   0  0  0  0  0  0  0  0  0  0  0  0
   -1.5013   -2.3070    0.1765 C   0  0  0  0  0  0  0  0  0  0  0  0
   -0.5666   -2.9828    0.5779 O   0  0  0  0  0  0  0  0  0  0  0  0
   -1.2817   -1.0077   -0.2315 N   0  0  0  0  0  0  0  0  0  0  0  0
   -2.0935   -0.4496   -0.4948 H   0  0  0  0  0  0  0  0  0  0  0  0
    0.0220   -0.3299   -0.2023 C   0  0  1  0  0  0  0  0  0  0  0  0
    0.7068   -0.8583    0.4696 H   0  0  0  0  0  0  0  0  0  0  0  0
    0.6176   -0.3768   -1.6339 C   0  0  0  0  0  0  0  0  0  0  0  0
    1.3830   -1.1562   -1.6694 H   0  0  0  0  0  0  0  0  0  0  0  0
   -0.1659   -0.6648   -2.3418 H   0  0  0  0  0  0  0  0  0  0  0  0
    1.2312    0.9187   -2.1630 C   0  0  0  0  0  0  0  0  0  0  0  0
    0.9975    1.3075   -3.2903 O   0  0  0  0  0  0  0  0  0  0  0  0
    2.2140    1.6079   -1.5086 N   0  0  0  0  0  0  0  0  0  0  0  0
    2.4528    2.5000   -1.9332 H   0  0  0  0  0  0  0  0  0  0  0  0
    2.2830    1.5062   -0.5027 H   0  0  0  0  0  0  0  0  0  0  0  0
   -0.1512    1.0891    0.3784 C   0  0  0  0  0  0  0  0  0  0  0  0
   -1.0714    1.7997   -0.0014 O   0  0  0  0  0  0  0  0  0  0  0  0
    0.7394    1.5675    1.3240 N   0  0  0  0  0  0  0  0  0  0  0  0
    1.3582    0.8904    1.7629 H   0  0  0  0  0  0  0  0  0  0  0  0
    0.5798    2.8705    1.9603 C   0  0  0  0  0  0  0  0  0  0  0  0
   -0.3571    2.9092    2.5260 H   0  0  0  0  0  0  0  0  0  0  0  0
    1.4092    3.0598    2.6486 H   0  0  0  0  0  0  0  0  0  0  0  0
    0.5694    3.6663    1.2078 H   0  0  0  0  0  0  0  0  0  0  0  0
  1  2  1  0  0  0  0
  2  3  1  0  0  0  0
  2  4  1  0  0  0  0
  2  5  1  0  0  0  0
  5  6  2  0  0  0  0
  5  7  1  0  0  0  0
  7  8  1  0  0  0  0
  7  9  1  0  0  0  0
  9 10  1  0  0  0  0
  9 11  1  0  0  0  0
  9 19  1  0  0  0  0
 11 12  1  0  0  0  0
 11 13  1  0  0  0  0
 11 14  1  0  0  0  0
 14 15  2  0  0  0  0
 14 16  1  0  0  0  0
 16 17  1  0  0  0  0
 16 18  1  0  0  0  0
 19 20  2  0  0  0  0
 19 21  1  0  0  0  0
 21 22  1  0  0  0  0
 21 23  1  0  0  0  0
 23 24  1  0  0  0  0
 23 25  1  0  0  0  0
 23 26  1  0  0  0  0
M  END
$$$$

  -OEChem-04042215573D

 26 25  0     1  0  0  0  0  0999 V2000
   -2.9028   -3.8982    0.5194 H   0  0  0  0  0  0  0  0  0  0  0  0
   -2.9064   -2.8662    0.1575 C   0  0  0  0  0  0  0  0  0  0  0  0
   -3.5540   -2.2682    0.8034 H   0  0  0  0  0  0  0  0  0  0  0  0
   -3.3049   -2.8509   -0.8600 H   0  0  0  0  0  0  0  0  0  0  0  0
   -1.4983   -2.3017    0.1700 C   0  0  0  0  0  0  0  0  0  0  0  0
   -0.5641   -2.9856    0.5591 O   0  0  0  0  0  0  0  0  0  0  0  0
   -1.2726   -1.0067   -0.2470 N   0  0  0  0  0  0  0  0  0  0  0  0
   -2.0839   -0.4389   -0.4913 H   0  0  0  0  0  0  0  0  0  0  0  0
    0.0329   -0.3334   -0.2195 C   0  0  1  0  0  0  0  0  0  0  0  0
    0.7131   -0.8582    0.4597 H   0  0  0  0  0  0  0  0  0  0  0  0
    0.6321   -0.3917   -1.6478 C   0  0  0  0  0  0  0  0  0  0  0  0
    1.3952   -1.1735   -1.6822 H   0  0  0  0  0  0  0  0  0  0  0  0
   -0.1491   -0.6754   -2.3599 H   0  0  0  0  0  0  0  0  0  0  0  0
    1.2440    0.9095   -2.1574 C   0  0  0  0  0  0  0  0  0  0  0  0
    0.8301    1.4601   -3.1581 O   0  0  0  0  0  0  0  0  0  0  0  0
    2.3747    1.4506   -1.6129 N   0  0  0  0  0  0  0  0  0  0  0  0
    2.6267    2.3733   -1.9566 H   0  0  0  0  0  0  0  0  0  0  0  0
    2.6788    1.1491   -0.6952 H   0  0  0  0  0  0  0  0  0  0  0  0
   -0.1389    1.0920    0.3506 C   0  0  0  0  0  0  0  0  0  0  0  0
   -1.0907    1.7791    0.0058 O   0  0  0  0  0  0  0  0  0  0  0  0
    0.7475    1.5797    1.2950 N   0  0  0  0  0  0  0  0  0  0  0  0
    1.4051    0.9216    1.7033 H   0  0  0  0  0  0  0  0  0  0  0  0
    0.5715    2.8752    1.9419 C   0  0  0  0  0  0  0  0  0  0  0  0
   -0.3565    2.8905    2.5231 H   0  0  0  0  0  0  0  0  0  0  0  0
    1.4080    3.0780    2.6175 H   0  0  0  0  0  0  0  0  0  0  0  0
    0.5318    3.6752    1.1948 H   0  0  0  0  0  0  0  0  0  0  0  0
  1  2  1  0  0  0  0
  2  3  1  0  0  0  0
  2  4  1  0  0  0  0
  2  5  1  0  0  0  0
  5  6  2  0  0  0  0
  5  7  1  0  0  0  0
  7  8  1  0  0  0  0
  7  9  1  0  0  0  0
  9 10  1  0  0  0  0
  9 11  1  0  0  0  0
  9 19  1  0  0  0  0
 11 12  1  0  0  0  0
 11 13  1  0  0  0  0
 11 14  1  0  0  0  0
 14 15  2  0  0  0  0
 14 16  1  0  0  0  0
 16 17  1  0  0  0  0
 16 18  1  0  0  0  0
 19 20  2  0  0  0  0
 19 21  1  0  0  0  0
 21 22  1  0  0  0  0
 21 23  1  0  0  0  0
 23 24  1  0  0  0  0
 23 25  1  0  0  0  0
 23 26  1  0  0  0  0
M  END
$$$$

  -OEChem-04042215573D

 26 25  0     1  0  0  0  0  0999 V2000
   -2.8997   -3.8872    0.5404 H   0  0  0  0  0  0  0  0  0  0  0  0
   -2.9075   -2.8547    0.1800 C   0  0  0  0  0  0  0  0  0  0  0  0
   -3.5239   -2.2515    0.8511 H   0  0  0  0  0  0  0  0  0  0  0  0
   -3.3449   -2.8342   -0.8212 H   0  0  0  0  0  0  0  0  0  0  0  0
   -1.4948   -2.3033    0.1392 C   0  0  0  0  0  0  0  0  0  0  0  0
   -0.5509   -3.0024    0.4753 O   0  0  0  0  0  0  0  0  0  0  0  0
   -1.2750   -1.0055   -0.2708 N   0  0  0  0  0  0  0  0  0  0  0  0
   -2.0921   -0.4199   -0.4454 H   0  0  0  0  0  0  0  0  0  0  0  0
    0.0276   -0.3278   -0.2279 C   0  0  1  0  0  0  0  0  0  0  0  0
    0.6983   -0.8481    0.4639 H   0  0  0  0  0  0  0  0  0  0  0  0
    0.6578   -0.3753   -1.6418 C   0  0  0  0  0  0  0  0  0  0  0  0
    1.4209   -1.1569   -1.6707 H   0  0  0  0  0  0  0  0  0  0  0  0
   -0.1082   -0.6484   -2.3740 H   0  0  0  0  0  0  0  0  0  0  0  0
    1.2676    0.9404   -2.1084 C   0  0  0  0  0  0  0  0  0  0  0  0
    0.7295    1.6506   -2.9332 O   0  0  0  0  0  0  0  0  0  0  0  0
    2.5028    1.3445   -1.6867 N   0  0  0  0  0  0  0  0  0  0  0  0
    2.9029    2.1188   -2.2100 H   0  0  0  0  0  0  0  0  0  0  0  0
    3.1133    0.6633   -1.2494 H   0  0  0  0  0  0  0  0  0  0  0  0
   -0.1681    1.0947    0.3492 C   0  0  0  0  0  0  0  0  0  0  0  0
   -1.1778    1.7304    0.0730 O   0  0  0  0  0  0  0  0  0  0  0  0
    0.6988    1.5914    1.3058 N   0  0  0  0  0  0  0  0  0  0  0  0
    1.4851    1.0127    1.5838 H   0  0  0  0  0  0  0  0  0  0  0  0
    0.5126    2.8842    1.9539 C   0  0  0  0  0  0  0  0  0  0  0  0
   -0.4041    2.8838    2.5528 H   0  0  0  0  0  0  0  0  0  0  0  0
    1.3578    3.1025    2.6135 H   0  0  0  0  0  0  0  0  0  0  0  0
    0.4447    3.6817    1.2061 H   0  0  0  0  0  0  0  0  0  0  0  0
  1  2  1  0  0  0  0
  2  3  1  0  0  0  0
  2  4  1  0  0  0  0
  2  5  1  0  0  0  0
  5  6  2  0  0  0  0
  5  7  1  0  0  0  0
  7  8  1  0  0  0  0
  7  9  1  0  0  0  0
  9 10  1  0  0  0  0
  9 11  1  0  0  0  0
  9 19  1  0  0  0  0
 11 12  1  0  0  0  0
 11 13  1  0  0  0  0
 11 14  1  0  0  0  0
 14 15  2  0  0  0  0
 14 16  1  0  0  0  0
 16 17  1  0  0  0  0
 16 18  1  0  0  0  0
 19 20  2  0  0  0  0
 19 21  1  0  0  0  0
 21 22  1  0  0  0  0
 21 23  1  0  0  0  0
 23 24  1  0  0  0  0
 23 25  1  0  0  0  0
 23 26  1  0  0  0  0
M  END
$$$$

  -OEChem-04042215573D

 26 25  0     1  0  0  0  0  0999 V2000
   -2.9033   -3.8818    0.5538 H   0  0  0  0  0  0  0  0  0  0  0  0
   -2.9101   -2.8504    0.1903 C   0  0  0  0  0  0  0  0  0  0  0  0
   -3.5157   -2.2424    0.8669 H   0  0  0  0  0  0  0  0  0  0  0  0
   -3.3591   -2.8304   -0.8058 H   0  0  0  0  0  0  0  0  0  0  0  0
   -1.4953   -2.3058    0.1306 C   0  0  0  0  0  0  0  0  0  0  0  0
   -0.5496   -3.0118    0.4470 O   0  0  0  0  0  0  0  0  0  0  0  0
   -1.2757   -1.0083   -0.2804 N   0  0  0  0  0  0  0  0  0  0  0  0
   -2.0929   -0.4163   -0.4326 H   0  0  0  0  0  0  0  0  0  0  0  0
    0.0278   -0.3321   -0.2415 C   0  0  1  0  0  0  0  0  0  0  0  0
    0.6941   -0.8516    0.4552 H   0  0  0  0  0  0  0  0  0  0  0  0
    0.6673   -0.3915   -1.6503 C   0  0  0  0  0  0  0  0  0  0  0  0
    1.4274   -1.1764   -1.6681 H   0  0  0  0  0  0  0  0  0  0  0  0
   -0.0946   -0.6677   -2.3855 H   0  0  0  0  0  0  0  0  0  0  0  0
    1.2809    0.9190   -2.1252 C   0  0  0  0  0  0  0  0  0  0  0  0
    0.6505    1.7490   -2.7471 O   0  0  0  0  0  0  0  0  0  0  0  0
    2.5863    1.2292   -1.8687 N   0  0  0  0  0  0  0  0  0  0  0  0
    2.9434    2.0373   -2.3716 H   0  0  0  0  0  0  0  0  0  0  0  0
    3.2186    0.4834   -1.5998 H   0  0  0  0  0  0  0  0  0  0  0  0
   -0.1629    1.0918    0.3357 C   0  0  0  0  0  0  0  0  0  0  0  0
   -1.1943    1.7103    0.1019 O   0  0  0  0  0  0  0  0  0  0  0  0
    0.7108    1.5846    1.2886 N   0  0  0  0  0  0  0  0  0  0  0  0
    1.5328    1.0326    1.5130 H   0  0  0  0  0  0  0  0  0  0  0  0
    0.5361    2.8808    1.9336 C   0  0  0  0  0  0  0  0  0  0  0  0
   -0.4206    2.9195    2.4653 H   0  0  0  0  0  0  0  0  0  0  0  0
    1.3390    3.0560    2.6560 H   0  0  0  0  0  0  0  0  0  0  0  0
    0.5583    3.6841    1.1895 H   0  0  0  0  0  0  0  0  0  0  0  0
  1  2  1  0  0  0  0
  2  3  1  0  0  0  0
  2  4  1  0  0  0  0
  2  5  1  0  0  0  0
  5  6  2  0  0  0  0
  5  7  1  0  0  0  0
  7  8  1  0  0  0  0
  7  9  1  0  0  0  0
  9 10  1  0  0  0  0
  9 11  1  0  0  0  0
  9 19  1  0  0  0  0
 11 12  1  0  0  0  0
 11 13  1  0  0  0  0
 11 14  1  0  0  0  0
 14 15  2  0  0  0  0
 14 16  1  0  0  0  0
 16 17  1  0  0  0  0
 16 18  1  0  0  0  0
 19 20  2  0  0  0  0
 19 21  1  0  0  0  0
 21 22  1  0  0  0  0
 21 23  1  0  0  0  0
 23 24  1  0  0  0  0
 23 25  1  0  0  0  0
 23 26  1  0  0  0  0
M  END
$$$$

  -OEChem-04042215573D

 26 25  0     1  0  0  0  0  0999 V2000
   -2.8971   -3.8718    0.5690 H   0  0  0  0  0  0  0  0  0  0  0  0
   -2.9100   -2.8393    0.2089 C   0  0  0  0  0  0  0  0  0  0  0  0
   -3.4956   -2.2314    0.9030 H   0  0  0  0  0  0  0  0  0  0  0  0
   -3.3848   -2.8149   -0.7750 H   0  0  0  0  0  0  0  0  0  0  0  0
   -1.4949   -2.2998    0.1144 C   0  0  0  0  0  0  0  0  0  0  0  0
   -0.5444   -3.0126    0.4002 O   0  0  0  0  0  0  0  0  0  0  0  0
   -1.2793   -1.0013   -0.2953 N   0  0  0  0  0  0  0  0  0  0  0  0
   -2.0975   -0.4023   -0.4123 H   0  0  0  0  0  0  0  0  0  0  0  0
    0.0242   -0.3245   -0.2599 C   0  0  1  0  0  0  0  0  0  0  0  0
    0.6868   -0.8419    0.4419 H   0  0  0  0  0  0  0  0  0  0  0  0
    0.6761   -0.3973   -1.6627 C   0  0  0  0  0  0  0  0  0  0  0  0
    1.4325   -1.1860   -1.6630 H   0  0  0  0  0  0  0  0  0  0  0  0
   -0.0810   -0.6817   -2.3992 H   0  0  0  0  0  0  0  0  0  0  0  0
    1.2975    0.9018   -2.1605 C   0  0  0  0  0  0  0  0  0  0  0  0
    0.6393    1.8373   -2.5657 O   0  0  0  0  0  0  0  0  0  0  0  0
    2.6473    1.1052   -2.1159 N   0  0  0  0  0  0  0  0  0  0  0  0
    2.9769    1.9323   -2.6065 H   0  0  0  0  0  0  0  0  0  0  0  0
    3.2580    0.3020   -2.0126 H   0  0  0  0  0  0  0  0  0  0  0  0
   -0.1668    1.0981    0.3209 C   0  0  0  0  0  0  0  0  0  0  0  0
   -1.2216    1.6943    0.1341 O   0  0  0  0  0  0  0  0  0  0  0  0
    0.7127    1.5855    1.2714 N   0  0  0  0  0  0  0  0  0  0  0  0
    1.5615    1.0576    1.4490 H   0  0  0  0  0  0  0  0  0  0  0  0
    0.5309    2.8691    1.9388 C   0  0  0  0  0  0  0  0  0  0  0  0
   -0.4131    2.8828    2.4938 H   0  0  0  0  0  0  0  0  0  0  0  0
    1.3479    3.0483    2.6441 H   0  0  0  0  0  0  0  0  0  0  0  0
    0.5210    3.6824    1.2054 H   0  0  0  0  0  0  0  0  0  0  0  0
  1  2  1  0  0  0  0
  2  3  1  0  0  0  0
  2  4  1  0  0  0  0
  2  5  1  0  0  0  0
  5  6  2  0  0  0  0
  5  7  1  0  0  0  0
  7  8  1  0  0  0  0
  7  9  1  0  0  0  0
  9 10  1  0  0  0  0
  9 11  1  0  0  0  0
  9 19  1  0  0  0  0
 11 12  1  0  0  0  0
 11 13  1  0  0  0  0
 11 14  1  0  0  0  0
 14 15  2  0  0  0  0
 14 16  1  0  0  0  0
 16 17  1  0  0  0  0
 16 18  1  0  0  0  0
 19 20  2  0  0  0  0
 19 21  1  0  0  0  0
 21 22  1  0  0  0  0
 21 23  1  0  0  0  0
 23 24  1  0  0  0  0
 23 25  1  0  0  0  0
 23 26  1  0  0  0  0
M  END
$$$$

  -OEChem-04042215573D

 26 25  0     1  0  0  0  0  0999 V2000
   -2.8859   -3.8648    0.5775 H   0  0  0  0  0  0  0  0  0  0  0  0
   -2.9023   -2.8336    0.2139 C   0  0  0  0  0  0  0  0  0  0  0  0
   -3.4782   -2.2225    0.9132 H   0  0  0  0  0  0  0  0  0  0  0  0
   -3.3892   -2.8121   -0.7640 H   0  0  0  0  0  0  0  0  0  0  0  0
   -1.4882   -2.2960    0.1001 C   0  0  0  0  0  0  0  0  0  0  0  0
   -0.5342   -3.0138    0.3600 O   0  0  0  0  0  0  0  0  0  0  0  0
   -1.2784   -0.9931   -0.2983 N   0  0  0  0  0  0  0  0  0  0  0  0
   -2.0983   -0.3909   -0.3841 H   0  0  0  0  0  0  0  0  0  0  0  0
    0.0236   -0.3129   -0.2613 C   0  0  1  0  0  0  0  0  0  0  0  0
    0.6865   -0.8316    0.4396 H   0  0  0  0  0  0  0  0  0  0  0  0
    0.6791   -0.3873   -1.6645 C   0  0  0  0  0  0  0  0  0  0  0  0
    1.4323   -1.1793   -1.6548 H   0  0  0  0  0  0  0  0  0  0  0  0
   -0.0784   -0.6782   -2.3977 H   0  0  0  0  0  0  0  0  0  0  0  0
    1.3083    0.8989   -2.1914 C   0  0  0  0  0  0  0  0  0  0  0  0
    0.6915    1.9284   -2.3701 O   0  0  0  0  0  0  0  0  0  0  0  0
    2.6499    0.9796   -2.4333 N   0  0  0  0  0  0  0  0  0  0  0  0
    2.9538    1.8183   -2.9206 H   0  0  0  0  0  0  0  0  0  0  0  0
    3.1822    0.1208   -2.5236 H   0  0  0  0  0  0  0  0  0  0  0  0
   -0.1765    1.1029    0.3346 C   0  0  0  0  0  0  0  0  0  0  0  0
   -1.2480    1.6797    0.1795 O   0  0  0  0  0  0  0  0  0  0  0  0
    0.7022    1.5861    1.2881 N   0  0  0  0  0  0  0  0  0  0  0  0
    1.5719    1.0820    1.4295 H   0  0  0  0  0  0  0  0  0  0  0  0
    0.5158    2.8660    1.9613 C   0  0  0  0  0  0  0  0  0  0  0  0
   -0.4340    2.8789    2.5063 H   0  0  0  0  0  0  0  0  0  0  0  0
    1.3252    3.0390    2.6767 H   0  0  0  0  0  0  0  0  0  0  0  0
    0.5154    3.6835    1.2327 H   0  0  0  0  0  0  0  0  0  0  0  0
  1  2  1  0  0  0  0
  2  3  1  0  0  0  0
  2  4  1  0  0  0  0
  2  5  1  0  0  0  0
  5  6  2  0  0  0  0
  5  7  1  0  0  0  0
  7  8  1  0  0  0  0
  7  9  1  0  0  0  0
  9 10  1  0  0  0  0
  9 11  1  0  0  0  0
  9 19  1  0  0  0  0
 11 12  1  0  0  0  0
 11 13  1  0  0  0  0
 11 14  1  0  0  0  0
 14 15  2  0  0  0  0
 14 16  1  0  0  0  0
 16 17  1  0  0  0  0
 16 18  1  0  0  0  0
 19 20  2  0  0  0  0
 19 21  1  0  0  0  0
 21 22  1  0  0  0  0
 21 23  1  0  0  0  0
 23 24  1  0  0  0  0
 23 25  1  0  0  0  0
 23 26  1  0  0  0  0
M  END
$$$$

  -OEChem-04042215573D

 26 25  0     1  0  0  0  0  0999 V2000
   -2.8703   -3.8621    0.5586 H   0  0  0  0  0  0  0  0  0  0  0  0
   -2.8899   -2.8266    0.2077 C   0  0  0  0  0  0  0  0  0  0  0  0
   -3.4580   -2.2237    0.9204 H   0  0  0  0  0  0  0  0  0  0  0  0
   -3.3871   -2.7926   -0.7647 H   0  0  0  0  0  0  0  0  0  0  0  0
   -1.4770   -2.2879    0.0847 C   0  0  0  0  0  0  0  0  0  0  0  0
   -0.5201   -3.0105    0.3196 O   0  0  0  0  0  0  0  0  0  0  0  0
   -1.2727   -0.9797   -0.2989 N   0  0  0  0  0  0  0  0  0  0  0  0
   -2.0937   -0.3755   -0.3562 H   0  0  0  0  0  0  0  0  0  0  0  0
    0.0280   -0.2969   -0.2524 C   0  0  1  0  0  0  0  0  0  0  0  0
    0.6887   -0.8189    0.4480 H   0  0  0  0  0  0  0  0  0  0  0  0
    0.6890   -0.3691   -1.6555 C   0  0  0  0  0  0  0  0  0  0  0  0
    1.4408   -1.1622   -1.6334 H   0  0  0  0  0  0  0  0  0  0  0  0
   -0.0662   -0.6688   -2.3872 H   0  0  0  0  0  0  0  0  0  0  0  0
    1.3304    0.9008   -2.2128 C   0  0  0  0  0  0  0  0  0  0  0  0
    0.8267    2.0040   -2.1802 O   0  0  0  0  0  0  0  0  0  0  0  0
    2.5697    0.8610   -2.7844 N   0  0  0  0  0  0  0  0  0  0  0  0
    2.8474    1.7027   -3.2817 H   0  0  0  0  0  0  0  0  0  0  0  0
    2.9551   -0.0379   -3.0540 H   0  0  0  0  0  0  0  0  0  0  0  0
   -0.1862    1.1099    0.3608 C   0  0  0  0  0  0  0  0  0  0  0  0
   -1.2685    1.6717    0.2190 O   0  0  0  0  0  0  0  0  0  0  0  0
    0.6852    1.5884    1.3236 N   0  0  0  0  0  0  0  0  0  0  0  0
    1.5750    1.1120    1.4304 H   0  0  0  0  0  0  0  0  0  0  0  0
    0.4909    2.8645    2.0019 C   0  0  0  0  0  0  0  0  0  0  0  0
   -0.4615    2.8716    2.5425 H   0  0  0  0  0  0  0  0  0  0  0  0
    1.2961    3.0362    2.7225 H   0  0  0  0  0  0  0  0  0  0  0  0
    0.4917    3.6860    1.2774 H   0  0  0  0  0  0  0  0  0  0  0  0
  1  2  1  0  0  0  0
  2  3  1  0  0  0  0
  2  4  1  0  0  0  0
  2  5  1  0  0  0  0
  5  6  2  0  0  0  0
  5  7  1  0  0  0  0
  7  8  1  0  0  0  0
  7  9  1  0  0  0  0
  9 10  1  0  0  0  0
  9 11  1  0  0  0  0
  9 19  1  0  0  0  0
 11 12  1  0  0  0  0
 11 13  1  0  0  0  0
 11 14  1  0  0  0  0
 14 15  2  0  0  0  0
 14 16  1  0  0  0  0
 16 17  1  0  0  0  0
 16 18  1  0  0  0  0
 19 20  2  0  0  0  0
 19 21  1  0  0  0  0
 21 22  1  0  0  0  0
 21 23  1  0  0  0  0
 23 24  1  0  0  0  0
 23 25  1  0  0  0  0
 23 26  1  0  0  0  0
M  END
$$$$

  -OEChem-04042215573D

 26 25  0     1  0  0  0  0  0999 V2000
   -2.8622   -3.8604    0.5359 H   0  0  0  0  0  0  0  0  0  0  0  0
   -2.8823   -2.8207    0.1977 C   0  0  0  0  0  0  0  0  0  0  0  0
   -3.4452   -2.2257    0.9211 H   0  0  0  0  0  0  0  0  0  0  0  0
   -3.3852   -2.7740   -0.7712 H   0  0  0  0  0  0  0  0  0  0  0  0
   -1.4689   -2.2836    0.0729 C   0  0  0  0  0  0  0  0  0  0  0  0
   -0.5125   -3.0112    0.2936 O   0  0  0  0  0  0  0  0  0  0  0  0
   -1.2636   -0.9717   -0.2972 N   0  0  0  0  0  0  0  0  0  0  0  0
   -2.0836   -0.3649   -0.3386 H   0  0  0  0  0  0  0  0  0  0  0  0
    0.0383   -0.2911   -0.2413 C   0  0  1  0  0  0  0  0  0  0  0  0
    0.6998   -0.8179    0.4550 H   0  0  0  0  0  0  0  0  0  0  0  0
    0.6958   -0.3540   -1.6487 C   0  0  0  0  0  0  0  0  0  0  0  0
    1.4450   -1.1496   -1.6269 H   0  0  0  0  0  0  0  0  0  0  0  0
   -0.0635   -0.6528   -2.3766 H   0  0  0  0  0  0  0  0  0  0  0  0
    1.3489    0.9033   -2.2258 C   0  0  0  0  0  0  0  0  0  0  0  0
    1.0142    2.0464   -1.9946 O   0  0  0  0  0  0  0  0  0  0  0  0
    2.4012    0.7955   -3.0890 N   0  0  0  0  0  0  0  0  0  0  0  0
    2.6614    1.6512   -3.5717 H   0  0  0  0  0  0  0  0  0  0  0  0
    2.5998   -0.1061   -3.5096 H   0  0  0  0  0  0  0  0  0  0  0  0
   -0.1893    1.1067    0.3872 C   0  0  0  0  0  0  0  0  0  0  0  0
   -1.2730    1.6650    0.2375 O   0  0  0  0  0  0  0  0  0  0  0  0
    0.6732    1.5800    1.3604 N   0  0  0  0  0  0  0  0  0  0  0  0
    1.5780    1.1268    1.4396 H   0  0  0  0  0  0  0  0  0  0  0  0
    0.4793    2.8627    2.0257 C   0  0  0  0  0  0  0  0  0  0  0  0
   -0.4802    2.8813    2.5532 H   0  0  0  0  0  0  0  0  0  0  0  0
    1.2762    3.0341    2.7556 H   0  0  0  0  0  0  0  0  0  0  0  0
    0.4959    3.6782    1.2947 H   0  0  0  0  0  0  0  0  0  0  0  0
  1  2  1  0  0  0  0
  2  3  1  0  0  0  0
  2  4  1  0  0  0  0
  2  5  1  0  0  0  0
  5  6  2  0  0  0  0
  5  7  1  0  0  0  0
  7  8  1  0  0  0  0
  7  9  1  0  0  0  0
  9 10  1  0  0  0  0
  9 11  1  0  0  0  0
  9 19  1  0  0  0  0
 11 12  1  0  0  0  0
 11 13  1  0  0  0  0
 11 14  1  0  0  0  0
 14 15  2  0  0  0  0
 14 16  1  0  0  0  0
 16 17  1  0  0  0  0
 16 18  1  0  0  0  0
 19 20  2  0  0  0  0
 19 21  1  0  0  0  0
 21 22  1  0  0  0  0
 21 23  1  0  0  0  0
 23 24  1  0  0  0  0
 23 25  1  0  0  0  0
 23 26  1  0  0  0  0
M  END
$$$$

  -OEChem-04042215573D

 26 25  0     1  0  0  0  0  0999 V2000
   -2.8667   -3.8538    0.5351 H   0  0  0  0  0  0  0  0  0  0  0  0
   -2.8818   -2.8153    0.1926 C   0  0  0  0  0  0  0  0  0  0  0  0
   -3.4420   -2.2149    0.9137 H   0  0  0  0  0  0  0  0  0  0  0  0
   -3.3844   -2.7702   -0.7765 H   0  0  0  0  0  0  0  0  0  0  0  0
   -1.4661   -2.2849    0.0660 C   0  0  0  0  0  0  0  0  0  0  0  0
   -0.5132   -3.0193    0.2778 O   0  0  0  0  0  0  0  0  0  0  0  0
   -1.2542   -0.9717   -0.2960 N   0  0  0  0  0  0  0  0  0  0  0  0
   -2.0707   -0.3595   -0.3270 H   0  0  0  0  0  0  0  0  0  0  0  0
    0.0523   -0.2991   -0.2324 C   0  0  1  0  0  0  0  0  0  0  0  0
    0.7159   -0.8314    0.4576 H   0  0  0  0  0  0  0  0  0  0  0  0
    0.6984   -0.3473   -1.6473 C   0  0  0  0  0  0  0  0  0  0  0  0
    1.4425   -1.1481   -1.6410 H   0  0  0  0  0  0  0  0  0  0  0  0
   -0.0709   -0.6335   -2.3696 H   0  0  0  0  0  0  0  0  0  0  0  0
    1.3617    0.9040   -2.2287 C   0  0  0  0  0  0  0  0  0  0  0  0
    1.2363    2.0393   -1.8183 O   0  0  0  0  0  0  0  0  0  0  0  0
    2.1704    0.7979   -3.3236 N   0  0  0  0  0  0  0  0  0  0  0  0
    2.4221    1.6755   -3.7700 H   0  0  0  0  0  0  0  0  0  0  0  0
    2.1567   -0.0618   -3.8621 H   0  0  0  0  0  0  0  0  0  0  0  0
   -0.1855    1.0928    0.4059 C   0  0  0  0  0  0  0  0  0  0  0  0
   -1.2622    1.6588    0.2324 O   0  0  0  0  0  0  0  0  0  0  0  0
    0.6663    1.5636    1.3892 N   0  0  0  0  0  0  0  0  0  0  0  0
    1.5796    1.1253    1.4529 H   0  0  0  0  0  0  0  0  0  0  0  0
    0.4793    2.8604    2.0279 C   0  0  0  0  0  0  0  0  0  0  0  0
   -0.4942    2.9064    2.5271 H   0  0  0  0  0  0  0  0  0  0  0  0
    1.2577    3.0286    2.7781 H   0  0  0  0  0  0  0  0  0  0  0  0
    0.5331    3.6622    1.2839 H   0  0  0  0  0  0  0  0  0  0  0  0
  1  2  1  0  0  0  0
  2  3  1  0  0  0  0
  2  4  1  0  0  0  0
  2  5  1  0  0  0  0
  5  6  2  0  0  0  0
  5  7  1  0  0  0  0
  7  8  1  0  0  0  0
  7  9  1  0  0  0  0
  9 10  1  0  0  0  0
  9 11  1  0  0  0  0
  9 19  1  0  0  0  0
 11 12  1  0  0  0  0
 11 13  1  0  0  0  0
 11 14  1  0  0  0  0
 14 15  2  0  0  0  0
 14 16  1  0  0  0  0
 16 17  1  0  0  0  0
 16 18  1  0  0  0  0
 19 20  2  0  0  0  0
 19 21  1  0  0  0  0
 21 22  1  0  0  0  0
 21 23  1  0  0  0  0
 23 24  1  0  0  0  0
 23 25  1  0  0  0  0
 23 26  1  0  0  0  0
M  END
$$$$

  -OEChem-04042215573D

 26 25  0     1  0  0  0  0  0999 V2000
   -2.8796   -3.8490    0.5441 H   0  0  0  0  0  0  0  0  0  0  0  0
   -2.8890   -2.8109    0.2002 C   0  0  0  0  0  0  0  0  0  0  0  0
   -3.4431   -2.2059    0.9221 H   0  0  0  0  0  0  0  0  0  0  0  0
   -3.3942   -2.7637   -0.7676 H   0  0  0  0  0  0  0  0  0  0  0  0
   -1.4699   -2.2909    0.0686 C   0  0  0  0  0  0  0  0  0  0  0  0
   -0.5222   -3.0330    0.2758 O   0  0  0  0  0  0  0  0  0  0  0  0
   -1.2488   -0.9793   -0.2940 N   0  0  0  0  0  0  0  0  0  0  0  0
   -2.0608   -0.3608   -0.3205 H   0  0  0  0  0  0  0  0  0  0  0  0
    0.0635   -0.3169   -0.2303 C   0  0  1  0  0  0  0  0  0  0  0  0
    0.7318   -0.8538    0.4520 H   0  0  0  0  0  0  0  0  0  0  0  0
    0.6922   -0.3523   -1.6536 C   0  0  0  0  0  0  0  0  0  0  0  0
    1.4294   -1.1592   -1.6702 H   0  0  0  0  0  0  0  0  0  0  0  0
   -0.0903   -0.6212   -2.3684 H   0  0  0  0  0  0  0  0  0  0  0  0
    1.3599    0.9005   -2.2263 C   0  0  0  0  0  0  0  0  0  0  0  0
    1.4628    1.9740   -1.6680 O   0  0  0  0  0  0  0  0  0  0  0  0
    1.9113    0.8683   -3.4747 N   0  0  0  0  0  0  0  0  0  0  0  0
    2.1719    1.7700   -3.8641 H   0  0  0  0  0  0  0  0  0  0  0  0
    1.6904    0.0923   -4.0893 H   0  0  0  0  0  0  0  0  0  0  0  0
   -0.1786    1.0743    0.4090 C   0  0  0  0  0  0  0  0  0  0  0  0
   -1.2433    1.6531    0.2041 O   0  0  0  0  0  0  0  0  0  0  0  0
    0.6660    1.5481    1.3968 N   0  0  0  0  0  0  0  0  0  0  0  0
    1.5858    1.1212    1.4476 H   0  0  0  0  0  0  0  0  0  0  0  0
    0.4860    2.8577    2.0109 C   0  0  0  0  0  0  0  0  0  0  0  0
   -0.4968    2.9274    2.4890 H   0  0  0  0  0  0  0  0  0  0  0  0
    1.2516    3.0257    2.7742 H   0  0  0  0  0  0  0  0  0  0  0  0
    0.5679    3.6468    1.2558 H   0  0  0  0  0  0  0  0  0  0  0  0
  1  2  1  0  0  0  0
  2  3  1  0  0  0  0
  2  4  1  0  0  0  0
  2  5  1  0  0  0  0
  5  6  2  0  0  0  0
  5  7  1  0  0  0  0
  7  8  1  0  0  0  0
  7  9  1  0  0  0  0
  9 10  1  0  0  0  0
  9 11  1  0  0  0  0
  9 19  1  0  0  0  0
 11 12  1  0  0  0  0
 11 13  1  0  0  0  0
 11 14  1  0  0  0  0
 14 15  2  0  0  0  0
 14 16  1  0  0  0  0
 16 17  1  0  0  0  0
 16 18  1  0  0  0  0
 19 20  2  0  0  0  0
 19 21  1  0  0  0  0
 21 22  1  0  0  0  0
 21 23  1  0  0  0  0
 23 24  1  0  0  0  0
 23 25  1  0  0  0  0
 23 26  1  0  0  0  0
M  END
$$$$

  -OEChem-04042215573D

 26 25  0     1  0  0  0  0  0999 V2000
   -2.9013   -3.8459    0.5672 H   0  0  0  0  0  0  0  0  0  0  0  0
   -2.8995   -2.8122    0.2105 C   0  0  0  0  0  0  0  0  0  0  0  0
   -3.4533   -2.1939    0.9212 H   0  0  0  0  0  0  0  0  0  0  0  0
   -3.3975   -2.7734   -0.7612 H   0  0  0  0  0  0  0  0  0  0  0  0
   -1.4757   -2.3040    0.0821 C   0  0  0  0  0  0  0  0  0  0  0  0
   -0.5347   -3.0512    0.2999 O   0  0  0  0  0  0  0  0  0  0  0  0
   -1.2443   -0.9965   -0.2893 N   0  0  0  0  0  0  0  0  0  0  0  0
   -2.0521   -0.3732   -0.3258 H   0  0  0  0  0  0  0  0  0  0  0  0
    0.0728   -0.3434   -0.2283 C   0  0  1  0  0  0  0  0  0  0  0  0
    0.7451   -0.8808    0.4495 H   0  0  0  0  0  0  0  0  0  0  0  0
    0.6851   -0.3684   -1.6582 C   0  0  0  0  0  0  0  0  0  0  0  0
    1.4184   -1.1781   -1.6978 H   0  0  0  0  0  0  0  0  0  0  0  0
   -0.1077   -0.6215   -2.3673 H   0  0  0  0  0  0  0  0  0  0  0  0
    1.3521    0.8936   -2.2094 C   0  0  0  0  0  0  0  0  0  0  0  0
    1.6869    1.8552   -1.5458 O   0  0  0  0  0  0  0  0  0  0  0  0
    1.6272    1.0033   -3.5422 N   0  0  0  0  0  0  0  0  0  0  0  0
    1.8977    1.9294   -3.8610 H   0  0  0  0  0  0  0  0  0  0  0  0
    1.1987    0.3477   -4.1868 H   0  0  0  0  0  0  0  0  0  0  0  0
   -0.1691    1.0523    0.4017 C   0  0  0  0  0  0  0  0  0  0  0  0
   -1.2169    1.6466    0.1579 O   0  0  0  0  0  0  0  0  0  0  0  0
    0.6692    1.5346    1.3904 N   0  0  0  0  0  0  0  0  0  0  0  0
    1.5889    1.1072    1.4445 H   0  0  0  0  0  0  0  0  0  0  0  0
    0.5009    2.8612    1.9705 C   0  0  0  0  0  0  0  0  0  0  0  0
   -0.4907    2.9610    2.4245 H   0  0  0  0  0  0  0  0  0  0  0  0
    1.2521    3.0320    2.7475 H   0  0  0  0  0  0  0  0  0  0  0  0
    0.6154    3.6307    1.1996 H   0  0  0  0  0  0  0  0  0  0  0  0
  1  2  1  0  0  0  0
  2  3  1  0  0  0  0
  2  4  1  0  0  0  0
  2  5  1  0  0  0  0
  5  6  2  0  0  0  0
  5  7  1  0  0  0  0
  7  8  1  0  0  0  0
  7  9  1  0  0  0  0
  9 10  1  0  0  0  0
  9 11  1  0  0  0  0
  9 19  1  0  0  0  0
 11 12  1  0  0  0  0
 11 13  1  0  0  0  0
 11 14  1  0  0  0  0
 14 15  2  0  0  0  0
 14 16  1  0  0  0  0
 16 17  1  0  0  0  0
 16 18  1  0  0  0  0
 19 20  2  0  0  0  0
 19 21  1  0  0  0  0
 21 22  1  0  0  0  0
 21 23  1  0  0  0  0
 23 24  1  0  0  0  0
 23 25  1  0  0  0  0
 23 26  1  0  0  0  0
M  END
$$$$

  -OEChem-04042215573D

 26 25  0     1  0  0  0  0  0999 V2000
   -2.9168   -3.8532    0.5923 H   0  0  0  0  0  0  0  0  0  0  0  0
   -2.9104   -2.8219    0.2285 C   0  0  0  0  0  0  0  0  0  0  0  0
   -3.4616   -2.1964    0.9350 H   0  0  0  0  0  0  0  0  0  0  0  0
   -3.4086   -2.7874   -0.7433 H   0  0  0  0  0  0  0  0  0  0  0  0
   -1.4841   -2.3217    0.0969 C   0  0  0  0  0  0  0  0  0  0  0  0
   -0.5476   -3.0698    0.3299 O   0  0  0  0  0  0  0  0  0  0  0  0
   -1.2456   -1.0202   -0.2907 N   0  0  0  0  0  0  0  0  0  0  0  0
   -2.0510   -0.3951   -0.3415 H   0  0  0  0  0  0  0  0  0  0  0  0
    0.0749   -0.3732   -0.2330 C   0  0  1  0  0  0  0  0  0  0  0  0
    0.7484   -0.9079    0.4458 H   0  0  0  0  0  0  0  0  0  0  0  0
    0.6811   -0.3943   -1.6636 C   0  0  0  0  0  0  0  0  0  0  0  0
    1.4165   -1.2014   -1.7150 H   0  0  0  0  0  0  0  0  0  0  0  0
   -0.1121   -0.6403   -2.3746 H   0  0  0  0  0  0  0  0  0  0  0  0
    1.3431    0.8834   -2.1796 C   0  0  0  0  0  0  0  0  0  0  0  0
    1.8963    1.6957   -1.4625 O   0  0  0  0  0  0  0  0  0  0  0  0
    1.3419    1.1917   -3.5096 N   0  0  0  0  0  0  0  0  0  0  0  0
    1.6247    2.1402   -3.7392 H   0  0  0  0  0  0  0  0  0  0  0  0
    0.7133    0.6877   -4.1257 H   0  0  0  0  0  0  0  0  0  0  0  0
   -0.1616    1.0316    0.3780 C   0  0  0  0  0  0  0  0  0  0  0  0
   -1.1886    1.6428    0.0920 O   0  0  0  0  0  0  0  0  0  0  0  0
    0.6728    1.5255    1.3637 N   0  0  0  0  0  0  0  0  0  0  0  0
    1.5897    1.0923    1.4272 H   0  0  0  0  0  0  0  0  0  0  0  0
    0.5187    2.8688    1.9080 C   0  0  0  0  0  0  0  0  0  0  0  0
   -0.4765    2.9949    2.3471 H   0  0  0  0  0  0  0  0  0  0  0  0
    1.2635    3.0472    2.6894 H   0  0  0  0  0  0  0  0  0  0  0  0
    0.6545    3.6170    1.1198 H   0  0  0  0  0  0  0  0  0  0  0  0
  1  2  1  0  0  0  0
  2  3  1  0  0  0  0
  2  4  1  0  0  0  0
  2  5  1  0  0  0  0
  5  6  2  0  0  0  0
  5  7  1  0  0  0  0
  7  8  1  0  0  0  0
  7  9  1  0  0  0  0
  9 10  1  0  0  0  0
  9 11  1  0  0  0  0
  9 19  1  0  0  0  0
 11 12  1  0  0  0  0
 11 13  1  0  0  0  0
 11 14  1  0  0  0  0
 14 15  2  0  0  0  0
 14 16  1  0  0  0  0
 16 17  1  0  0  0  0
 16 18  1  0  0  0  0
 19 20  2  0  0  0  0
 19 21  1  0  0  0  0
 21 22  1  0  0  0  0
 21 23  1  0  0  0  0
 23 24  1  0  0  0  0
 23 25  1  0  0  0  0
 23 26  1  0  0  0  0
M  END
$$$$

  -OEChem-04042215573D

 26 25  0     1  0  0  0  0  0999 V2000
   -2.9320   -3.8630    0.6159 H   0  0  0  0  0  0  0  0  0  0  0  0
   -2.9196   -2.8393    0.2313 C   0  0  0  0  0  0  0  0  0  0  0  0
   -3.4843   -2.2001    0.9146 H   0  0  0  0  0  0  0  0  0  0  0  0
   -3.3996   -2.8253   -0.7502 H   0  0  0  0  0  0  0  0  0  0  0  0
   -1.4913   -2.3409    0.1158 C   0  0  0  0  0  0  0  0  0  0  0  0
   -0.5594   -3.0823    0.3849 O   0  0  0  0  0  0  0  0  0  0  0  0
   -1.2467   -1.0476   -0.2953 N   0  0  0  0  0  0  0  0  0  0  0  0
   -2.0512   -0.4252   -0.3760 H   0  0  0  0  0  0  0  0  0  0  0  0
    0.0742   -0.4020   -0.2421 C   0  0  1  0  0  0  0  0  0  0  0  0
    0.7470   -0.9280    0.4444 H   0  0  0  0  0  0  0  0  0  0  0  0
    0.6848   -0.4307   -1.6680 C   0  0  0  0  0  0  0  0  0  0  0  0
    1.4304   -1.2287   -1.7160 H   0  0  0  0  0  0  0  0  0  0  0  0
   -0.0986   -0.6822   -2.3878 H   0  0  0  0  0  0  0  0  0  0  0  0
    1.3368    0.8647   -2.1452 C   0  0  0  0  0  0  0  0  0  0  0  0
    2.0865    1.5123   -1.4375 O   0  0  0  0  0  0  0  0  0  0  0  0
    1.0460    1.4151   -3.3603 N   0  0  0  0  0  0  0  0  0  0  0  0
    1.3352    2.3821   -3.4769 H   0  0  0  0  0  0  0  0  0  0  0  0
    0.2326    1.0722   -3.8598 H   0  0  0  0  0  0  0  0  0  0  0  0
   -0.1519    1.0163    0.3390 C   0  0  0  0  0  0  0  0  0  0  0  0
   -1.1550    1.6436    0.0079 O   0  0  0  0  0  0  0  0  0  0  0  0
    0.6817    1.5249    1.3171 N   0  0  0  0  0  0  0  0  0  0  0  0
    1.5898    1.0763    1.4041 H   0  0  0  0  0  0  0  0  0  0  0  0
    0.5442    2.8836    1.8259 C   0  0  0  0  0  0  0  0  0  0  0  0
   -0.4485    3.0323    2.2637 H   0  0  0  0  0  0  0  0  0  0  0  0
    1.2928    3.0743    2.6009 H   0  0  0  0  0  0  0  0  0  0  0  0
    0.6865    3.6096    1.0184 H   0  0  0  0  0  0  0  0  0  0  0  0
  1  2  1  0  0  0  0
  2  3  1  0  0  0  0
  2  4  1  0  0  0  0
  2  5  1  0  0  0  0
  5  6  2  0  0  0  0
  5  7  1  0  0  0  0
  7  8  1  0  0  0  0
  7  9  1  0  0  0  0
  9 10  1  0  0  0  0
  9 11  1  0  0  0  0
  9 19  1  0  0  0  0
 11 12  1  0  0  0  0
 11 13  1  0  0  0  0
 11 14  1  0  0  0  0
 14 15  2  0  0  0  0
 14 16  1  0  0  0  0
 16 17  1  0  0  0  0
 16 18  1  0  0  0  0
 19 20  2  0  0  0  0
 19 21  1  0  0  0  0
 21 22  1  0  0  0  0
 21 23  1  0  0  0  0
 23 24  1  0  0  0  0
 23 25  1  0  0  0  0
 23 26  1  0  0  0  0
M  END
$$$$

  -OEChem-04042215573D

 26 25  0     1  0  0  0  0  0999 V2000
   -2.9311   -3.8802    0.6289 H   0  0  0  0  0  0  0  0  0  0  0  0
   -2.9225   -2.8587    0.2383 C   0  0  0  0  0  0  0  0  0  0  0  0
   -3.4871   -2.2172    0.9194 H   0  0  0  0  0  0  0  0  0  0  0  0
   -3.4049   -2.8519   -0.7421 H   0  0  0  0  0  0  0  0  0  0  0  0
   -1.4956   -2.3573    0.1172 C   0  0  0  0  0  0  0  0  0  0  0  0
   -0.5623   -3.0898    0.4046 O   0  0  0  0  0  0  0  0  0  0  0  0
   -1.2549   -1.0687   -0.3116 N   0  0  0  0  0  0  0  0  0  0  0  0
   -2.0627   -0.4539   -0.4106 H   0  0  0  0  0  0  0  0  0  0  0  0
    0.0629   -0.4170   -0.2631 C   0  0  1  0  0  0  0  0  0  0  0  0
    0.7335   -0.9356    0.4311 H   0  0  0  0  0  0  0  0  0  0  0  0
    0.6857   -0.4536   -1.6807 C   0  0  0  0  0  0  0  0  0  0  0  0
    1.4449   -1.2395   -1.7180 H   0  0  0  0  0  0  0  0  0  0  0  0
   -0.0823   -0.7152   -2.4137 H   0  0  0  0  0  0  0  0  0  0  0  0
    1.3211    0.8591   -2.1238 C   0  0  0  0  0  0  0  0  0  0  0  0
    2.2415    1.3531   -1.4983 O   0  0  0  0  0  0  0  0  0  0  0  0
    0.7939    1.6228   -3.1245 N   0  0  0  0  0  0  0  0  0  0  0  0
    1.1138    2.5870   -3.1375 H   0  0  0  0  0  0  0  0  0  0  0  0
   -0.1516    1.4128   -3.4269 H   0  0  0  0  0  0  0  0  0  0  0  0
   -0.1508    1.0111    0.2950 C   0  0  0  0  0  0  0  0  0  0  0  0
   -1.1340    1.6509   -0.0685 O   0  0  0  0  0  0  0  0  0  0  0  0
    0.6866    1.5307    1.2634 N   0  0  0  0  0  0  0  0  0  0  0  0
    1.5803    1.0605    1.3842 H   0  0  0  0  0  0  0  0  0  0  0  0
    0.5628    2.8982    1.7521 C   0  0  0  0  0  0  0  0  0  0  0  0
   -0.4260    3.0604    2.1938 H   0  0  0  0  0  0  0  0  0  0  0  0
    1.3179    3.0948    2.5192 H   0  0  0  0  0  0  0  0  0  0  0  0
    0.7053    3.6112    0.9334 H   0  0  0  0  0  0  0  0  0  0  0  0
  1  2  1  0  0  0  0
  2  3  1  0  0  0  0
  2  4  1  0  0  0  0
  2  5  1  0  0  0  0
  5  6  2  0  0  0  0
  5  7  1  0  0  0  0
  7  8  1  0  0  0  0
  7  9  1  0  0  0  0
  9 10  1  0  0  0  0
  9 11  1  0  0  0  0
  9 19  1  0  0  0  0
 11 12  1  0  0  0  0
 11 13  1  0  0  0  0
 11 14  1  0  0  0  0
 14 15  2  0  0  0  0
 14 16  1  0  0  0  0
 16 17  1  0  0  0  0
 16 18  1  0  0  0  0
 19 20  2  0  0  0  0
 19 21  1  0  0  0  0
 21 22  1  0  0  0  0
 21 23  1  0  0  0  0
 23 24  1  0  0  0  0
 23 25  1  0  0  0  0
 23 26  1  0  0  0  0
M  END
$$$$

  -OEChem-04042215573D

 26 25  0     1  0  0  0  0  0999 V2000
   -2.9137   -3.9180    0.6001 H   0  0  0  0  0  0  0  0  0  0  0  0
   -2.9163   -2.8914    0.2228 C   0  0  0  0  0  0  0  0  0  0  0  0
   -3.4993   -2.2672    0.9044 H   0  0  0  0  0  0  0  0  0  0  0  0
   -3.3862   -2.8795   -0.7636 H   0  0  0  0  0  0  0  0  0  0  0  0
   -1.4963   -2.3661    0.1260 C   0  0  0  0  0  0  0  0  0  0  0  0
   -0.5564   -3.0806    0.4357 O   0  0  0  0  0  0  0  0  0  0  0  0
   -1.2699   -1.0760   -0.3069 N   0  0  0  0  0  0  0  0  0  0  0  0
   -2.0857   -0.4773   -0.4315 H   0  0  0  0  0  0  0  0  0  0  0  0
    0.0408   -0.4100   -0.2675 C   0  0  1  0  0  0  0  0  0  0  0  0
    0.7169   -0.9237    0.4249 H   0  0  0  0  0  0  0  0  0  0  0  0
    0.6634   -0.4473   -1.6835 C   0  0  0  0  0  0  0  0  0  0  0  0
    1.4339   -1.2226   -1.7175 H   0  0  0  0  0  0  0  0  0  0  0  0
   -0.0980   -0.7189   -2.4195 H   0  0  0  0  0  0  0  0  0  0  0  0
    1.2773    0.8770   -2.1189 C   0  0  0  0  0  0  0  0  0  0  0  0
    2.3431    1.2468   -1.6630 O   0  0  0  0  0  0  0  0  0  0  0  0
    0.5999    1.7776   -2.8886 N   0  0  0  0  0  0  0  0  0  0  0  0
    0.9856    2.7172   -2.8726 H   0  0  0  0  0  0  0  0  0  0  0  0
   -0.4081    1.6667   -2.9448 H   0  0  0  0  0  0  0  0  0  0  0  0
   -0.1618    1.0202    0.2857 C   0  0  0  0  0  0  0  0  0  0  0  0
   -1.1270    1.6750   -0.0977 O   0  0  0  0  0  0  0  0  0  0  0  0
    0.6880    1.5409    1.2423 N   0  0  0  0  0  0  0  0  0  0  0  0
    1.5553    1.0357    1.4070 H   0  0  0  0  0  0  0  0  0  0  0  0
    0.5911    2.9150    1.7182 C   0  0  0  0  0  0  0  0  0  0  0  0
   -0.3952    3.1021    2.1555 H   0  0  0  0  0  0  0  0  0  0  0  0
    1.3483    3.1021    2.4857 H   0  0  0  0  0  0  0  0  0  0  0  0
    0.7512    3.6176    0.8936 H   0  0  0  0  0  0  0  0  0  0  0  0
  1  2  1  0  0  0  0
  2  3  1  0  0  0  0
  2  4  1  0  0  0  0
  2  5  1  0  0  0  0
  5  6  2  0  0  0  0
  5  7  1  0  0  0  0
  7  8  1  0  0  0  0
  7  9  1  0  0  0  0
  9 10  1  0  0  0  0
  9 11  1  0  0  0  0
  9 19  1  0  0  0  0
 11 12  1  0  0  0  0
 11 13  1  0  0  0  0
 11 14  1  0  0  0  0
 14 15  2  0  0  0  0
 14 16  1  0  0  0  0
 16 17  1  0  0  0  0
 16 18  1  0  0  0  0
 19 20  2  0  0  0  0
 19 21  1  0  0  0  0
 21 22  1  0  0  0  0
 21 23  1  0  0  0  0
 23 24  1  0  0  0  0
 23 25  1  0  0  0  0
 23 26  1  0  0  0  0
M  END
$$$$

  -OEChem-04042215573D

 26 25  0     1  0  0  0  0  0999 V2000
   -2.8981   -3.9322    0.5963 H   0  0  0  0  0  0  0  0  0  0  0  0
   -2.9084   -2.9074    0.2142 C   0  0  0  0  0  0  0  0  0  0  0  0
   -3.5109   -2.2885    0.8836 H   0  0  0  0  0  0  0  0  0  0  0  0
   -3.3628   -2.9065   -0.7795 H   0  0  0  0  0  0  0  0  0  0  0  0
   -1.4941   -2.3637    0.1366 C   0  0  0  0  0  0  0  0  0  0  0  0
   -0.5489   -3.0667    0.4562 O   0  0  0  0  0  0  0  0  0  0  0  0
   -1.2786   -1.0697   -0.2907 N   0  0  0  0  0  0  0  0  0  0  0  0
   -2.0999   -0.4822   -0.4298 H   0  0  0  0  0  0  0  0  0  0  0  0
    0.0275   -0.3941   -0.2632 C   0  0  1  0  0  0  0  0  0  0  0  0
    0.7140   -0.9092    0.4182 H   0  0  0  0  0  0  0  0  0  0  0  0
    0.6360   -0.4251   -1.6861 C   0  0  0  0  0  0  0  0  0  0  0  0
    1.4096   -1.1970   -1.7276 H   0  0  0  0  0  0  0  0  0  0  0  0
   -0.1309   -0.7002   -2.4152 H   0  0  0  0  0  0  0  0  0  0  0  0
    1.2377    0.9010   -2.1353 C   0  0  0  0  0  0  0  0  0  0  0  0
    2.4055    1.1614   -1.9190 O   0  0  0  0  0  0  0  0  0  0  0  0
    0.4873    1.8909   -2.7011 N   0  0  0  0  0  0  0  0  0  0  0  0
    0.9480    2.7952   -2.7385 H   0  0  0  0  0  0  0  0  0  0  0  0
   -0.5113    1.8658   -2.5083 H   0  0  0  0  0  0  0  0  0  0  0  0
   -0.1690    1.0317    0.2991 C   0  0  0  0  0  0  0  0  0  0  0  0
   -1.1269    1.6964   -0.0857 O   0  0  0  0  0  0  0  0  0  0  0  0
    0.6931    1.5493    1.2461 N   0  0  0  0  0  0  0  0  0  0  0  0
    1.5345    1.0162    1.4519 H   0  0  0  0  0  0  0  0  0  0  0  0
    0.5931    2.9134    1.7499 C   0  0  0  0  0  0  0  0  0  0  0  0
   -0.3840    3.0804    2.2153 H   0  0  0  0  0  0  0  0  0  0  0  0
    1.3672    3.0959    2.5015 H   0  0  0  0  0  0  0  0  0  0  0  0
    0.7244    3.6332    0.9351 H   0  0  0  0  0  0  0  0  0  0  0  0
  1  2  1  0  0  0  0
  2  3  1  0  0  0  0
  2  4  1  0  0  0  0
  2  5  1  0  0  0  0
  5  6  2  0  0  0  0
  5  7  1  0  0  0  0
  7  8  1  0  0  0  0
  7  9  1  0  0  0  0
  9 10  1  0  0  0  0
  9 11  1  0  0  0  0
  9 19  1  0  0  0  0
 11 12  1  0  0  0  0
 11 13  1  0  0  0  0
 11 14  1  0  0  0  0
 14 15  2  0  0  0  0
 14 16  1  0  0  0  0
 16 17  1  0  0  0  0
 16 18  1  0  0  0  0
 19 20  2  0  0  0  0
 19 21  1  0  0  0  0
 21 22  1  0  0  0  0
 21 23  1  0  0  0  0
 23 24  1  0  0  0  0
 23 25  1  0  0  0  0
 23 26  1  0  0  0  0
M  END
$$$$

  -OEChem-04042215573D

 26 25  0     1  0  0  0  0  0999 V2000
   -2.8821   -3.9452    0.5760 H   0  0  0  0  0  0  0  0  0  0  0  0
   -2.8983   -2.9188    0.1990 C   0  0  0  0  0  0  0  0  0  0  0  0
   -3.5208   -2.3109    0.8600 H   0  0  0  0  0  0  0  0  0  0  0  0
   -3.3341   -2.9187   -0.8030 H   0  0  0  0  0  0  0  0  0  0  0  0
   -1.4901   -2.3566    0.1499 C   0  0  0  0  0  0  0  0  0  0  0  0
   -0.5411   -3.0499    0.4792 O   0  0  0  0  0  0  0  0  0  0  0  0
   -1.2845   -1.0567   -0.2640 N   0  0  0  0  0  0  0  0  0  0  0  0
   -2.1102   -0.4808   -0.4233 H   0  0  0  0  0  0  0  0  0  0  0  0
    0.0178   -0.3735   -0.2437 C   0  0  1  0  0  0  0  0  0  0  0  0
    0.7129   -0.8934    0.4252 H   0  0  0  0  0  0  0  0  0  0  0  0
    0.6112   -0.3978   -1.6742 C   0  0  0  0  0  0  0  0  0  0  0  0
    1.3832   -1.1713   -1.7248 H   0  0  0  0  0  0  0  0  0  0  0  0
   -0.1651   -0.6732   -2.3931 H   0  0  0  0  0  0  0  0  0  0  0  0
    1.2065    0.9250   -2.1461 C   0  0  0  0  0  0  0  0  0  0  0  0
    2.4099    1.0870   -2.1999 O   0  0  0  0  0  0  0  0  0  0  0  0
    0.4359    1.9782   -2.5468 N   0  0  0  0  0  0  0  0  0  0  0  0
    0.9447    2.8479   -2.6723 H   0  0  0  0  0  0  0  0  0  0  0  0
   -0.5078    2.0187   -2.1631 H   0  0  0  0  0  0  0  0  0  0  0  0
   -0.1734    1.0449    0.3367 C   0  0  0  0  0  0  0  0  0  0  0  0
   -1.1271    1.7204   -0.0396 O   0  0  0  0  0  0  0  0  0  0  0  0
    0.7004    1.5537    1.2781 N   0  0  0  0  0  0  0  0  0  0  0  0
    1.5170    0.9955    1.5145 H   0  0  0  0  0  0  0  0  0  0  0  0
    0.5987    2.9057    1.8141 C   0  0  0  0  0  0  0  0  0  0  0  0
   -0.3737    3.0565    2.2947 H   0  0  0  0  0  0  0  0  0  0  0  0
    1.3812    3.0759    2.5601 H   0  0  0  0  0  0  0  0  0  0  0  0
    0.7158    3.6447    1.0145 H   0  0  0  0  0  0  0  0  0  0  0  0
  1  2  1  0  0  0  0
  2  3  1  0  0  0  0
  2  4  1  0  0  0  0
  2  5  1  0  0  0  0
  5  6  2  0  0  0  0
  5  7  1  0  0  0  0
  7  8  1  0  0  0  0
  7  9  1  0  0  0  0
  9 10  1  0  0  0  0
  9 11  1  0  0  0  0
  9 19  1  0  0  0  0
 11 12  1  0  0  0  0
 11 13  1  0  0  0  0
 11 14  1  0  0  0  0
 14 15  2  0  0  0  0
 14 16  1  0  0  0  0
 16 17  1  0  0  0  0
 16 18  1  0  0  0  0
 19 20  2  0  0  0  0
 19 21  1  0  0  0  0
 21 22  1  0  0  0  0
 21 23  1  0  0  0  0
 23 24  1  0  0  0  0
 23 25  1  0  0  0  0
 23 26  1  0  0  0  0
M  END
$$$$

  -OEChem-04042215573D

 26 25  0     1  0  0  0  0  0999 V2000
   -2.8674   -3.9523    0.5504 H   0  0  0  0  0  0  0  0  0  0  0  0
   -2.8910   -2.9199    0.1901 C   0  0  0  0  0  0  0  0  0  0  0  0
   -3.5185   -2.3276    0.8604 H   0  0  0  0  0  0  0  0  0  0  0  0
   -3.3264   -2.9067   -0.8120 H   0  0  0  0  0  0  0  0  0  0  0  0
   -1.4868   -2.3468    0.1522 C   0  0  0  0  0  0  0  0  0  0  0  0
   -0.5344   -3.0355    0.4814 O   0  0  0  0  0  0  0  0  0  0  0  0
   -1.2883   -1.0399   -0.2437 N   0  0  0  0  0  0  0  0  0  0  0  0
   -2.1165   -0.4702   -0.4115 H   0  0  0  0  0  0  0  0  0  0  0  0
    0.0113   -0.3516   -0.2215 C   0  0  1  0  0  0  0  0  0  0  0  0
    0.7066   -0.8786    0.4416 H   0  0  0  0  0  0  0  0  0  0  0  0
    0.6066   -0.3721   -1.6530 C   0  0  0  0  0  0  0  0  0  0  0  0
    1.3770   -1.1472   -1.7010 H   0  0  0  0  0  0  0  0  0  0  0  0
   -0.1710   -0.6503   -2.3695 H   0  0  0  0  0  0  0  0  0  0  0  0
    1.2027    0.9448   -2.1452 C   0  0  0  0  0  0  0  0  0  0  0  0
    2.3739    1.0198   -2.4609 O   0  0  0  0  0  0  0  0  0  0  0  0
    0.4438    2.0470   -2.4183 N   0  0  0  0  0  0  0  0  0  0  0  0
    0.9701    2.8874   -2.6365 H   0  0  0  0  0  0  0  0  0  0  0  0
   -0.4401    2.1350   -1.9149 H   0  0  0  0  0  0  0  0  0  0  0  0
   -0.1727    1.0581    0.3795 C   0  0  0  0  0  0  0  0  0  0  0  0
   -1.1223    1.7460    0.0165 O   0  0  0  0  0  0  0  0  0  0  0  0
    0.7105    1.5512    1.3204 N   0  0  0  0  0  0  0  0  0  0  0  0
    1.5044    0.9697    1.5773 H   0  0  0  0  0  0  0  0  0  0  0  0
    0.6033    2.8861    1.8963 C   0  0  0  0  0  0  0  0  0  0  0  0
   -0.3665    3.0148    2.3884 H   0  0  0  0  0  0  0  0  0  0  0  0
    1.3903    3.0409    2.6408 H   0  0  0  0  0  0  0  0  0  0  0  0
    0.7086    3.6491    1.1178 H   0  0  0  0  0  0  0  0  0  0  0  0
  1  2  1  0  0  0  0
  2  3  1  0  0  0  0
  2  4  1  0  0  0  0
  2  5  1  0  0  0  0
  5  6  2  0  0  0  0
  5  7  1  0  0  0  0
  7  8  1  0  0  0  0
  7  9  1  0  0  0  0
  9 10  1  0  0  0  0
  9 11  1  0  0  0  0
  9 19  1  0  0  0  0
 11 12  1  0  0  0  0
 11 13  1  0  0  0  0
 11 14  1  0  0  0  0
 14 15  2  0  0  0  0
 14 16  1  0  0  0  0
 16 17  1  0  0  0  0
 16 18  1  0  0  0  0
 19 20  2  0  0  0  0
 19 21  1  0  0  0  0
 21 22  1  0  0  0  0
 21 23  1  0  0  0  0
 23 24  1  0  0  0  0
 23 25  1  0  0  0  0
 23 26  1  0  0  0  0
M  END
$$$$

  -OEChem-04042215573D

 26 25  0     1  0  0  0  0  0999 V2000
   -2.8600   -3.9549    0.5114 H   0  0  0  0  0  0  0  0  0  0  0  0
   -2.8853   -2.9196    0.1600 C   0  0  0  0  0  0  0  0  0  0  0  0
   -3.5308   -2.3383    0.8229 H   0  0  0  0  0  0  0  0  0  0  0  0
   -3.3008   -2.9008   -0.8505 H   0  0  0  0  0  0  0  0  0  0  0  0
   -1.4854   -2.3349    0.1552 C   0  0  0  0  0  0  0  0  0  0  0  0
   -0.5331   -3.0208    0.4905 O   0  0  0  0  0  0  0  0  0  0  0  0
   -1.2900   -1.0216   -0.2206 N   0  0  0  0  0  0  0  0  0  0  0  0
   -2.1187   -0.4577   -0.4040 H   0  0  0  0  0  0  0  0  0  0  0  0
    0.0069   -0.3285   -0.1899 C   0  0  1  0  0  0  0  0  0  0  0  0
    0.6962   -0.8630    0.4733 H   0  0  0  0  0  0  0  0  0  0  0  0
    0.6153   -0.3564   -1.6178 C   0  0  0  0  0  0  0  0  0  0  0  0
    1.3860   -1.1321   -1.6502 H   0  0  0  0  0  0  0  0  0  0  0  0
   -0.1578   -0.6450   -2.3352 H   0  0  0  0  0  0  0  0  0  0  0  0
    1.2171    0.9488   -2.1380 C   0  0  0  0  0  0  0  0  0  0  0  0
    2.2959    0.9504   -2.6976 O   0  0  0  0  0  0  0  0  0  0  0  0
    0.4906    2.0949   -2.2962 N   0  0  0  0  0  0  0  0  0  0  0  0
    1.0095    2.9075   -2.6140 H   0  0  0  0  0  0  0  0  0  0  0  0
   -0.3375    2.2215   -1.7113 H   0  0  0  0  0  0  0  0  0  0  0  0
   -0.1662    1.0736    0.4303 C   0  0  0  0  0  0  0  0  0  0  0  0
   -1.1106    1.7752    0.0819 O   0  0  0  0  0  0  0  0  0  0  0  0
    0.7261    1.5476    1.3729 N   0  0  0  0  0  0  0  0  0  0  0  0
    1.5005    0.9449    1.6402 H   0  0  0  0  0  0  0  0  0  0  0  0
    0.6238    2.8690    1.9806 C   0  0  0  0  0  0  0  0  0  0  0  0
   -0.3452    2.9902    2.4761 H   0  0  0  0  0  0  0  0  0  0  0  0
    1.4114    3.0031    2.7284 H   0  0  0  0  0  0  0  0  0  0  0  0
    0.7320    3.6499    1.2207 H   0  0  0  0  0  0  0  0  0  0  0  0
  1  2  1  0  0  0  0
  2  3  1  0  0  0  0
  2  4  1  0  0  0  0
  2  5  1  0  0  0  0
  5  6  2  0  0  0  0
  5  7  1  0  0  0  0
  7  8  1  0  0  0  0
  7  9  1  0  0  0  0
  9 10  1  0  0  0  0
  9 11  1  0  0  0  0
  9 19  1  0  0  0  0
 11 12  1  0  0  0  0
 11 13  1  0  0  0  0
 11 14  1  0  0  0  0
 14 15  2  0  0  0  0
 14 16  1  0  0  0  0
 16 17  1  0  0  0  0
 16 18  1  0  0  0  0
 19 20  2  0  0  0  0
 19 21  1  0  0  0  0
 21 22  1  0  0  0  0
 21 23  1  0  0  0  0
 23 24  1  0  0  0  0
 23 25  1  0  0  0  0
 23 26  1  0  0  0  0
M  END
$$$$

  -OEChem-04042215573D

 26 25  0     1  0  0  0  0  0999 V2000
   -2.8632   -3.9504    0.4697 H   0  0  0  0  0  0  0  0  0  0  0  0
   -2.8853   -2.9101    0.1328 C   0  0  0  0  0  0  0  0  0  0  0  0
   -3.5382   -2.3389    0.7972 H   0  0  0  0  0  0  0  0  0  0  0  0
   -3.2900   -2.8772   -0.8816 H   0  0  0  0  0  0  0  0  0  0  0  0
   -1.4856   -2.3250    0.1504 C   0  0  0  0  0  0  0  0  0  0  0  0
   -0.5367   -3.0151    0.4871 O   0  0  0  0  0  0  0  0  0  0  0  0
   -1.2858   -1.0072   -0.2075 N   0  0  0  0  0  0  0  0  0  0  0  0
   -2.1115   -0.4419   -0.4004 H   0  0  0  0  0  0  0  0  0  0  0  0
    0.0122   -0.3171   -0.1635 C   0  0  1  0  0  0  0  0  0  0  0  0
    0.6921   -0.8597    0.5028 H   0  0  0  0  0  0  0  0  0  0  0  0
    0.6376   -0.3515   -1.5861 C   0  0  0  0  0  0  0  0  0  0  0  0
    1.4019   -1.1341   -1.6038 H   0  0  0  0  0  0  0  0  0  0  0  0
   -0.1324   -0.6432   -2.3057 H   0  0  0  0  0  0  0  0  0  0  0  0
    1.2583    0.9341   -2.1378 C   0  0  0  0  0  0  0  0  0  0  0  0
    2.1889    0.8695   -2.9169 O   0  0  0  0  0  0  0  0  0  0  0  0
    0.6314    2.1481   -2.1384 N   0  0  0  0  0  0  0  0  0  0  0  0
    1.1073    2.9200   -2.5946 H   0  0  0  0  0  0  0  0  0  0  0  0
   -0.1623    2.3135   -1.5165 H   0  0  0  0  0  0  0  0  0  0  0  0
   -0.1574    1.0770    0.4738 C   0  0  0  0  0  0  0  0  0  0  0  0
   -1.0963    1.7889    0.1327 O   0  0  0  0  0  0  0  0  0  0  0  0
    0.7340    1.5360    1.4248 N   0  0  0  0  0  0  0  0  0  0  0  0
    1.4972    0.9217    1.6975 H   0  0  0  0  0  0  0  0  0  0  0  0
    0.6289    2.8467    2.0549 C   0  0  0  0  0  0  0  0  0  0  0  0
   -0.3413    2.9579    2.5506 H   0  0  0  0  0  0  0  0  0  0  0  0
    1.4152    2.9696    2.8060 H   0  0  0  0  0  0  0  0  0  0  0  0
    0.7370    3.6404    1.3083 H   0  0  0  0  0  0  0  0  0  0  0  0
  1  2  1  0  0  0  0
  2  3  1  0  0  0  0
  2  4  1  0  0  0  0
  2  5  1  0  0  0  0
  5  6  2  0  0  0  0
  5  7  1  0  0  0  0
  7  8  1  0  0  0  0
  7  9  1  0  0  0  0
  9 10  1  0  0  0  0
  9 11  1  0  0  0  0
  9 19  1  0  0  0  0
 11 12  1  0  0  0  0
 11 13  1  0  0  0  0
 11 14  1  0  0  0  0
 14 15  2  0  0  0  0
 14 16  1  0  0  0  0
 16 17  1  0  0  0  0
 16 18  1  0  0  0  0
 19 20  2  0  0  0  0
 19 21  1  0  0  0  0
 21 22  1  0  0  0  0
 21 23  1  0  0  0  0
 23 24  1  0  0  0  0
 23 25  1  0  0  0  0
 23 26  1  0  0  0  0
M  END
$$$$

  -OEChem-04042215573D

 26 25  0     1  0  0  0  0  0999 V2000
   -2.8830   -3.9352    0.4404 H   0  0  0  0  0  0  0  0  0  0  0  0
   -2.8920   -2.8943    0.1045 C   0  0  0  0  0  0  0  0  0  0  0  0
   -3.5446   -2.3175    0.7645 H   0  0  0  0  0  0  0  0  0  0  0  0
   -3.2887   -2.8564   -0.9130 H   0  0  0  0  0  0  0  0  0  0  0  0
   -1.4866   -2.3226    0.1342 C   0  0  0  0  0  0  0  0  0  0  0  0
   -0.5458   -3.0248    0.4690 O   0  0  0  0  0  0  0  0  0  0  0  0
   -1.2734   -1.0020   -0.2044 N   0  0  0  0  0  0  0  0  0  0  0  0
   -2.0933   -0.4267   -0.3929 H   0  0  0  0  0  0  0  0  0  0  0  0
    0.0292   -0.3218   -0.1376 C   0  0  1  0  0  0  0  0  0  0  0  0
    0.7005   -0.8744    0.5291 H   0  0  0  0  0  0  0  0  0  0  0  0
    0.6618   -0.3471   -1.5602 C   0  0  0  0  0  0  0  0  0  0  0  0
    1.4152   -1.1400   -1.5749 H   0  0  0  0  0  0  0  0  0  0  0  0
   -0.1107   -0.6315   -2.2801 H   0  0  0  0  0  0  0  0  0  0  0  0
    1.3096    0.9167   -2.1390 C   0  0  0  0  0  0  0  0  0  0  0  0
    2.0334    0.8201   -3.1105 O   0  0  0  0  0  0  0  0  0  0  0  0
    0.9346    2.2045   -1.8822 N   0  0  0  0  0  0  0  0  0  0  0  0
    1.2093    2.8832   -2.5857 H   0  0  0  0  0  0  0  0  0  0  0  0
    0.0815    2.3592   -1.3419 H   0  0  0  0  0  0  0  0  0  0  0  0
   -0.1554    1.0610    0.5173 C   0  0  0  0  0  0  0  0  0  0  0  0
   -1.0770    1.7834    0.1518 O   0  0  0  0  0  0  0  0  0  0  0  0
    0.7185    1.5096    1.4891 N   0  0  0  0  0  0  0  0  0  0  0  0
    1.4841    0.8975    1.7591 H   0  0  0  0  0  0  0  0  0  0  0  0
    0.6275    2.8299    2.1010 C   0  0  0  0  0  0  0  0  0  0  0  0
   -0.3541    2.9723    2.5651 H   0  0  0  0  0  0  0  0  0  0  0  0
    1.3932    2.9412    2.8749 H   0  0  0  0  0  0  0  0  0  0  0  0
    0.7794    3.6114    1.3490 H   0  0  0  0  0  0  0  0  0  0  0  0
  1  2  1  0  0  0  0
  2  3  1  0  0  0  0
  2  4  1  0  0  0  0
  2  5  1  0  0  0  0
  5  6  2  0  0  0  0
  5  7  1  0  0  0  0
  7  8  1  0  0  0  0
  7  9  1  0  0  0  0
  9 10  1  0  0  0  0
  9 11  1  0  0  0  0
  9 19  1  0  0  0  0
 11 12  1  0  0  0  0
 11 13  1  0  0  0  0
 11 14  1  0  0  0  0
 14 15  2  0  0  0  0
 14 16  1  0  0  0  0
 16 17  1  0  0  0  0
 16 18  1  0  0  0  0
 19 20  2  0  0  0  0
 19 21  1  0  0  0  0
 21 22  1  0  0  0  0
 21 23  1  0  0  0  0
 23 24  1  0  0  0  0
 23 25  1  0  0  0  0
 23 26  1  0  0  0  0
M  END
$$$$

  -OEChem-04042215573D

 26 25  0     1  0  0  0  0  0999 V2000
   -2.8936   -3.9296    0.4644 H   0  0  0  0  0  0  0  0  0  0  0  0
   -2.8956   -2.8923    0.1179 C   0  0  0  0  0  0  0  0  0  0  0  0
   -3.5678   -2.3100    0.7527 H   0  0  0  0  0  0  0  0  0  0  0  0
   -3.2625   -2.8660   -0.9110 H   0  0  0  0  0  0  0  0  0  0  0  0
   -1.4932   -2.3173    0.1817 C   0  0  0  0  0  0  0  0  0  0  0  0
   -0.5670   -3.0000    0.5896 O   0  0  0  0  0  0  0  0  0  0  0  0
   -1.2647   -1.0138   -0.2078 N   0  0  0  0  0  0  0  0  0  0  0  0
   -2.0709   -0.4512   -0.4771 H   0  0  0  0  0  0  0  0  0  0  0  0
    0.0431   -0.3448   -0.1566 C   0  0  1  0  0  0  0  0  0  0  0  0
    0.7377   -0.8776    0.5023 H   0  0  0  0  0  0  0  0  0  0  0  0
    0.6103   -0.3666   -1.6012 C   0  0  0  0  0  0  0  0  0  0  0  0
    1.1316   -1.3172   -1.7443 H   0  0  0  0  0  0  0  0  0  0  0  0
   -0.2311   -0.3504   -2.3004 H   0  0  0  0  0  0  0  0  0  0  0  0
    1.5431    0.7547   -2.0727 C   0  0  0  0  0  0  0  0  0  0  0  0
    1.9806    0.7257   -3.2060 O   0  0  0  0  0  0  0  0  0  0  0  0
    2.0274    1.7952   -1.3302 N   0  0  0  0  0  0  0  0  0  0  0  0
    2.5129    2.5001   -1.8777 H   0  0  0  0  0  0  0  0  0  0  0  0
    1.4900    2.0929   -0.5210 H   0  0  0  0  0  0  0  0  0  0  0  0
   -0.1701    1.0574    0.4441 C   0  0  0  0  0  0  0  0  0  0  0  0
   -1.0342    1.7925   -0.0134 O   0  0  0  0  0  0  0  0  0  0  0  0
    0.6837    1.5460    1.4166 N   0  0  0  0  0  0  0  0  0  0  0  0
    1.3465    0.8936    1.8298 H   0  0  0  0  0  0  0  0  0  0  0  0
    0.5204    2.8576    2.0345 C   0  0  0  0  0  0  0  0  0  0  0  0
   -0.4512    2.9280    2.5352 H   0  0  0  0  0  0  0  0  0  0  0  0
    1.3054    3.0257    2.7783 H   0  0  0  0  0  0  0  0  0  0  0  0
    0.5855    3.6491    1.2805 H   0  0  0  0  0  0  0  0  0  0  0  0
  1  2  1  0  0  0  0
  2  3  1  0  0  0  0
  2  4  1  0  0  0  0
  2  5  1  0  0  0  0
  5  6  2  0  0  0  0
  5  7  1  0  0  0  0
  7  8  1  0  0  0  0
  7  9  1  0  0  0  0
  9 10  1  0  0  0  0
  9 11  1  0  0  0  0
  9 19  1  0  0  0  0
 11 12  1  0  0  0  0
 11 13  1  0  0  0  0
 11 14  1  0  0  0  0
 14 15  2  0  0  0  0
 14 16  1  0  0  0  0
 16 17  1  0  0  0  0
 16 18  1  0  0  0  0
 19 20  2  0  0  0  0
 19 21  1  0  0  0  0
 21 22  1  0  0  0  0
 21 23  1  0  0  0  0
 23 24  1  0  0  0  0
 23 25  1  0  0  0  0
 23 26  1  0  0  0  0
M  END
$$$$

  -OEChem-04042215573D

 26 25  0     1  0  0  0  0  0999 V2000
   -2.8950   -3.9214    0.4799 H   0  0  0  0  0  0  0  0  0  0  0  0
   -2.8972   -2.8868    0.1257 C   0  0  0  0  0  0  0  0  0  0  0  0
   -3.5708   -2.3003    0.7551 H   0  0  0  0  0  0  0  0  0  0  0  0
   -3.2628   -2.8682   -0.9038 H   0  0  0  0  0  0  0  0  0  0  0  0
   -1.4957   -2.3092    0.1868 C   0  0  0  0  0  0  0  0  0  0  0  0
   -0.5696   -2.9844    0.6077 O   0  0  0  0  0  0  0  0  0  0  0  0
   -1.2680   -1.0104   -0.2181 N   0  0  0  0  0  0  0  0  0  0  0  0
   -2.0741   -0.4529   -0.4987 H   0  0  0  0  0  0  0  0  0  0  0  0
    0.0384   -0.3387   -0.1734 C   0  0  1  0  0  0  0  0  0  0  0  0
    0.7341   -0.8672    0.4876 H   0  0  0  0  0  0  0  0  0  0  0  0
    0.6019   -0.3635   -1.6168 C   0  0  0  0  0  0  0  0  0  0  0  0
    1.1330   -1.3079   -1.7626 H   0  0  0  0  0  0  0  0  0  0  0  0
   -0.2378   -0.3497   -2.3185 H   0  0  0  0  0  0  0  0  0  0  0  0
    1.5260    0.7741   -2.0571 C   0  0  0  0  0  0  0  0  0  0  0  0
    1.7629    0.9377   -3.2376 O   0  0  0  0  0  0  0  0  0  0  0  0
    2.2923    1.5448   -1.2276 N   0  0  0  0  0  0  0  0  0  0  0  0
    2.7743    2.3032   -1.7022 H   0  0  0  0  0  0  0  0  0  0  0  0
    1.9623    1.6962   -0.2799 H   0  0  0  0  0  0  0  0  0  0  0  0
   -0.1639    1.0742    0.4089 C   0  0  0  0  0  0  0  0  0  0  0  0
   -1.0455    1.7975   -0.0334 O   0  0  0  0  0  0  0  0  0  0  0  0
    0.7006    1.5626    1.3735 N   0  0  0  0  0  0  0  0  0  0  0  0
    1.3055    0.8879    1.8369 H   0  0  0  0  0  0  0  0  0  0  0  0
    0.5244    2.8710    1.9949 C   0  0  0  0  0  0  0  0  0  0  0  0
   -0.4326    2.9182    2.5252 H   0  0  0  0  0  0  0  0  0  0  0  0
    1.3281    3.0607    2.7130 H   0  0  0  0  0  0  0  0  0  0  0  0
    0.5461    3.6625    1.2381 H   0  0  0  0  0  0  0  0  0  0  0  0
  1  2  1  0  0  0  0
  2  3  1  0  0  0  0
  2  4  1  0  0  0  0
  2  5  1  0  0  0  0
  5  6  2  0  0  0  0
  5  7  1  0  0  0  0
  7  8  1  0  0  0  0
  7  9  1  0  0  0  0
  9 10  1  0  0  0  0
  9 11  1  0  0  0  0
  9 19  1  0  0  0  0
 11 12  1  0  0  0  0
 11 13  1  0  0  0  0
 11 14  1  0  0  0  0
 14 15  2  0  0  0  0
 14 16  1  0  0  0  0
 16 17  1  0  0  0  0
 16 18  1  0  0  0  0
 19 20  2  0  0  0  0
 19 21  1  0  0  0  0
 21 22  1  0  0  0  0
 21 23  1  0  0  0  0
 23 24  1  0  0  0  0
 23 25  1  0  0  0  0
 23 26  1  0  0  0  0
M  END
$$$$

  -OEChem-04042215573D

 26 25  0     1  0  0  0  0  0999 V2000
   -2.8955   -3.9224    0.4818 H   0  0  0  0  0  0  0  0  0  0  0  0
   -2.8994   -2.8881    0.1266 C   0  0  0  0  0  0  0  0  0  0  0  0
   -3.5733   -2.3019    0.7560 H   0  0  0  0  0  0  0  0  0  0  0  0
   -3.2660   -2.8713   -0.9027 H   0  0  0  0  0  0  0  0  0  0  0  0
   -1.4983   -2.3093    0.1863 C   0  0  0  0  0  0  0  0  0  0  0  0
   -0.5722   -2.9817    0.6119 O   0  0  0  0  0  0  0  0  0  0  0  0
   -1.2701   -1.0131   -0.2263 N   0  0  0  0  0  0  0  0  0  0  0  0
   -2.0755   -0.4563   -0.5104 H   0  0  0  0  0  0  0  0  0  0  0  0
    0.0359   -0.3414   -0.1822 C   0  0  1  0  0  0  0  0  0  0  0  0
    0.7283   -0.8695    0.4822 H   0  0  0  0  0  0  0  0  0  0  0  0
    0.6050   -0.3721   -1.6215 C   0  0  0  0  0  0  0  0  0  0  0  0
    1.1440   -1.3121   -1.7657 H   0  0  0  0  0  0  0  0  0  0  0  0
   -0.2283   -0.3606   -2.3309 H   0  0  0  0  0  0  0  0  0  0  0  0
    1.5245    0.7793   -2.0265 C   0  0  0  0  0  0  0  0  0  0  0  0
    1.5801    1.1501   -3.1822 O   0  0  0  0  0  0  0  0  0  0  0  0
    2.4640    1.3393   -1.2065 N   0  0  0  0  0  0  0  0  0  0  0  0
    2.9303    2.1498   -1.6049 H   0  0  0  0  0  0  0  0  0  0  0  0
    2.3030    1.3093   -0.2065 H   0  0  0  0  0  0  0  0  0  0  0  0
   -0.1510    1.0790    0.3893 C   0  0  0  0  0  0  0  0  0  0  0  0
   -1.0412    1.7991   -0.0410 O   0  0  0  0  0  0  0  0  0  0  0  0
    0.7213    1.5637    1.3490 N   0  0  0  0  0  0  0  0  0  0  0  0
    1.2985    0.8815    1.8349 H   0  0  0  0  0  0  0  0  0  0  0  0
    0.5650    2.8842    1.9495 C   0  0  0  0  0  0  0  0  0  0  0  0
   -0.4037    2.9653    2.4542 H   0  0  0  0  0  0  0  0  0  0  0  0
    1.3553    3.0619    2.6854 H   0  0  0  0  0  0  0  0  0  0  0  0
    0.6282    3.6637    1.1825 H   0  0  0  0  0  0  0  0  0  0  0  0
  1  2  1  0  0  0  0
  2  3  1  0  0  0  0
  2  4  1  0  0  0  0
  2  5  1  0  0  0  0
  5  6  2  0  0  0  0
  5  7  1  0  0  0  0
  7  8  1  0  0  0  0
  7  9  1  0  0  0  0
  9 10  1  0  0  0  0
  9 11  1  0  0  0  0
  9 19  1  0  0  0  0
 11 12  1  0  0  0  0
 11 13  1  0  0  0  0
 11 14  1  0  0  0  0
 14 15  2  0  0  0  0
 14 16  1  0  0  0  0
 16 17  1  0  0  0  0
 16 18  1  0  0  0  0
 19 20  2  0  0  0  0
 19 21  1  0  0  0  0
 21 22  1  0  0  0  0
 21 23  1  0  0  0  0
 23 24  1  0  0  0  0
 23 25  1  0  0  0  0
 23 26  1  0  0  0  0
M  END
$$$$

  -OEChem-04042215573D

 26 25  0     1  0  0  0  0  0999 V2000
   -2.8978   -3.9025    0.5209 H   0  0  0  0  0  0  0  0  0  0  0  0
   -2.8999   -2.8722    0.1541 C   0  0  0  0  0  0  0  0  0  0  0  0
   -3.5521   -2.2719    0.7930 H   0  0  0  0  0  0  0  0  0  0  0  0
   -3.2920   -2.8620   -0.8658 H   0  0  0  0  0  0  0  0  0  0  0  0
   -1.4923   -2.3067    0.1729 C   0  0  0  0  0  0  0  0  0  0  0  0
   -0.5598   -2.9883    0.5699 O   0  0  0  0  0  0  0  0  0  0  0  0
   -1.2641   -1.0126   -0.2459 N   0  0  0  0  0  0  0  0  0  0  0  0
   -2.0741   -0.4422   -0.4886 H   0  0  0  0  0  0  0  0  0  0  0  0
    0.0420   -0.3415   -0.2043 C   0  0  1  0  0  0  0  0  0  0  0  0
    0.7336   -0.8660    0.4632 H   0  0  0  0  0  0  0  0  0  0  0  0
    0.6121   -0.3624   -1.6419 C   0  0  0  0  0  0  0  0  0  0  0  0
    1.1563   -1.2971   -1.7993 H   0  0  0  0  0  0  0  0  0  0  0  0
   -0.2167   -0.3409   -2.3566 H   0  0  0  0  0  0  0  0  0  0  0  0
    1.5246    0.8080   -1.9934 C   0  0  0  0  0  0  0  0  0  0  0  0
    1.4175    1.4027   -3.0473 O   0  0  0  0  0  0  0  0  0  0  0  0
    2.6416    1.1132   -1.2669 N   0  0  0  0  0  0  0  0  0  0  0  0
    3.1673    1.9302   -1.5657 H   0  0  0  0  0  0  0  0  0  0  0  0
    2.7863    0.7078   -0.3507 H   0  0  0  0  0  0  0  0  0  0  0  0
   -0.1530    1.0829    0.3620 C   0  0  0  0  0  0  0  0  0  0  0  0
   -1.0914    1.7671   -0.0242 O   0  0  0  0  0  0  0  0  0  0  0  0
    0.7085    1.5859    1.3211 N   0  0  0  0  0  0  0  0  0  0  0  0
    1.3599    0.9382    1.7542 H   0  0  0  0  0  0  0  0  0  0  0  0
    0.5304    2.9007    1.9268 C   0  0  0  0  0  0  0  0  0  0  0  0
   -0.4173    2.9462    2.4735 H   0  0  0  0  0  0  0  0  0  0  0  0
    1.3455    3.1088    2.6266 H   0  0  0  0  0  0  0  0  0  0  0  0
    0.5307    3.6803    1.1575 H   0  0  0  0  0  0  0  0  0  0  0  0
  1  2  1  0  0  0  0
  2  3  1  0  0  0  0
  2  4  1  0  0  0  0
  2  5  1  0  0  0  0
  5  6  2  0  0  0  0
  5  7  1  0  0  0  0
  7  8  1  0  0  0  0
  7  9  1  0  0  0  0
  9 10  1  0  0  0  0
  9 11  1  0  0  0  0
  9 19  1  0  0  0  0
 11 12  1  0  0  0  0
 11 13  1  0  0  0  0
 11 14  1  0  0  0  0
 14 15  2  0  0  0  0
 14 16  1  0  0  0  0
 16 17  1  0  0  0  0
 16 18  1  0  0  0  0
 19 20  2  0  0  0  0
 19 21  1  0  0  0  0
 21 22  1  0  0  0  0
 21 23  1  0  0  0  0
 23 24  1  0  0  0  0
 23 25  1  0  0  0  0
 23 26  1  0  0  0  0
M  END
$$$$

  -OEChem-04042215573D

 26 25  0     1  0  0  0  0  0999 V2000
   -2.8959   -3.8996    0.5384 H   0  0  0  0  0  0  0  0  0  0  0  0
   -2.9017   -2.8688    0.1731 C   0  0  0  0  0  0  0  0  0  0  0  0
   -3.5269   -2.2641    0.8346 H   0  0  0  0  0  0  0  0  0  0  0  0
   -3.3277   -2.8537   -0.8332 H   0  0  0  0  0  0  0  0  0  0  0  0
   -1.4895   -2.3148    0.1454 C   0  0  0  0  0  0  0  0  0  0  0  0
   -0.5474   -3.0124    0.4894 O   0  0  0  0  0  0  0  0  0  0  0  0
   -1.2663   -1.0177   -0.2652 N   0  0  0  0  0  0  0  0  0  0  0  0
   -2.0817   -0.4313   -0.4443 H   0  0  0  0  0  0  0  0  0  0  0  0
    0.0366   -0.3422   -0.2087 C   0  0  1  0  0  0  0  0  0  0  0  0
    0.7184   -0.8625    0.4724 H   0  0  0  0  0  0  0  0  0  0  0  0
    0.6399   -0.3489   -1.6305 C   0  0  0  0  0  0  0  0  0  0  0  0
    1.1912   -1.2789   -1.7903 H   0  0  0  0  0  0  0  0  0  0  0  0
   -0.1703   -0.3167   -2.3656 H   0  0  0  0  0  0  0  0  0  0  0  0
    1.5472    0.8409   -1.9141 C   0  0  0  0  0  0  0  0  0  0  0  0
    1.3235    1.6340   -2.8057 O   0  0  0  0  0  0  0  0  0  0  0  0
    2.7528    0.9810   -1.2862 N   0  0  0  0  0  0  0  0  0  0  0  0
    3.3774    1.6545   -1.7221 H   0  0  0  0  0  0  0  0  0  0  0  0
    3.1444    0.1688   -0.8218 H   0  0  0  0  0  0  0  0  0  0  0  0
   -0.1796    1.0787    0.3649 C   0  0  0  0  0  0  0  0  0  0  0  0
   -1.1729    1.7176    0.0398 O   0  0  0  0  0  0  0  0  0  0  0  0
    0.6644    1.5887    1.3348 N   0  0  0  0  0  0  0  0  0  0  0  0
    1.4767    1.0391    1.5970 H   0  0  0  0  0  0  0  0  0  0  0  0
    0.4989    2.9172    1.9123 C   0  0  0  0  0  0  0  0  0  0  0  0
   -0.4757    3.0030    2.4043 H   0  0  0  0  0  0  0  0  0  0  0  0
    1.2787    3.1069    2.6562 H   0  0  0  0  0  0  0  0  0  0  0  0
    0.5694    3.6839    1.1334 H   0  0  0  0  0  0  0  0  0  0  0  0
  1  2  1  0  0  0  0
  2  3  1  0  0  0  0
  2  4  1  0  0  0  0
  2  5  1  0  0  0  0
  5  6  2  0  0  0  0
  5  7  1  0  0  0  0
  7  8  1  0  0  0  0
  7  9  1  0  0  0  0
  9 10  1  0  0  0  0
  9 11  1  0  0  0  0
  9 19  1  0  0  0  0
 11 12  1  0  0  0  0
 11 13  1  0  0  0  0
 11 14  1  0  0  0  0
 14 15  2  0  0  0  0
 14 16  1  0  0  0  0
 16 17  1  0  0  0  0
 16 18  1  0  0  0  0
 19 20  2  0  0  0  0
 19 21  1  0  0  0  0
 21 22  1  0  0  0  0
 21 23  1  0  0  0  0
 23 24  1  0  0  0  0
 23 25  1  0  0  0  0
 23 26  1  0  0  0  0
M  END
$$$$

  -OEChem-04042215573D

 26 25  0     1  0  0  0  0  0999 V2000
   -2.9081   -3.8866    0.5554 H   0  0  0  0  0  0  0  0  0  0  0  0
   -2.9106   -2.8572    0.1863 C   0  0  0  0  0  0  0  0  0  0  0  0
   -3.5194   -2.2443    0.8557 H   0  0  0  0  0  0  0  0  0  0  0  0
   -3.3531   -2.8421   -0.8129 H   0  0  0  0  0  0  0  0  0  0  0  0
   -1.4940   -2.3167    0.1335 C   0  0  0  0  0  0  0  0  0  0  0  0
   -0.5525   -3.0245    0.4582 O   0  0  0  0  0  0  0  0  0  0  0  0
   -1.2667   -1.0216   -0.2807 N   0  0  0  0  0  0  0  0  0  0  0  0
   -2.0807   -0.4268   -0.4386 H   0  0  0  0  0  0  0  0  0  0  0  0
    0.0392   -0.3514   -0.2286 C   0  0  1  0  0  0  0  0  0  0  0  0
    0.7140   -0.8717    0.4594 H   0  0  0  0  0  0  0  0  0  0  0  0
    0.6558   -0.3748   -1.6436 C   0  0  0  0  0  0  0  0  0  0  0  0
    1.2049   -1.3085   -1.7891 H   0  0  0  0  0  0  0  0  0  0  0  0
   -0.1463   -0.3470   -2.3875 H   0  0  0  0  0  0  0  0  0  0  0  0
    1.5687    0.8103   -1.9270 C   0  0  0  0  0  0  0  0  0  0  0  0
    1.2382    1.7384   -2.6361 O   0  0  0  0  0  0  0  0  0  0  0  0
    2.8397    0.8625   -1.4286 N   0  0  0  0  0  0  0  0  0  0  0  0
    3.4282    1.5825   -1.8400 H   0  0  0  0  0  0  0  0  0  0  0  0
    3.2613   -0.0000   -1.1009 H   0  0  0  0  0  0  0  0  0  0  0  0
   -0.1662    1.0727    0.3418 C   0  0  0  0  0  0  0  0  0  0  0  0
   -1.1780    1.7009    0.0539 O   0  0  0  0  0  0  0  0  0  0  0  0
    0.6877    1.5750    1.3070 N   0  0  0  0  0  0  0  0  0  0  0  0
    1.5226    1.0407    1.5263 H   0  0  0  0  0  0  0  0  0  0  0  0
    0.5300    2.9006    1.8934 C   0  0  0  0  0  0  0  0  0  0  0  0
   -0.4443    2.9898    2.3853 H   0  0  0  0  0  0  0  0  0  0  0  0
    1.3099    3.0796    2.6396 H   0  0  0  0  0  0  0  0  0  0  0  0
    0.6062    3.6718    1.1196 H   0  0  0  0  0  0  0  0  0  0  0  0
  1  2  1  0  0  0  0
  2  3  1  0  0  0  0
  2  4  1  0  0  0  0
  2  5  1  0  0  0  0
  5  6  2  0  0  0  0
  5  7  1  0  0  0  0
  7  8  1  0  0  0  0
  7  9  1  0  0  0  0
  9 10  1  0  0  0  0
  9 11  1  0  0  0  0
  9 19  1  0  0  0  0
 11 12  1  0  0  0  0
 11 13  1  0  0  0  0
 11 14  1  0  0  0  0
 14 15  2  0  0  0  0
 14 16  1  0  0  0  0
 16 17  1  0  0  0  0
 16 18  1  0  0  0  0
 19 20  2  0  0  0  0
 19 21  1  0  0  0  0
 21 22  1  0  0  0  0
 21 23  1  0  0  0  0
 23 24  1  0  0  0  0
 23 25  1  0  0  0  0
 23 26  1  0  0  0  0
M  END
$$$$

  -OEChem-04042215573D

 26 25  0     1  0  0  0  0  0999 V2000
   -2.9109   -3.8742    0.5761 H   0  0  0  0  0  0  0  0  0  0  0  0
   -2.9140   -2.8460    0.2036 C   0  0  0  0  0  0  0  0  0  0  0  0
   -3.5027   -2.2264    0.8846 H   0  0  0  0  0  0  0  0  0  0  0  0
   -3.3788   -2.8301   -0.7852 H   0  0  0  0  0  0  0  0  0  0  0  0
   -1.4949   -2.3162    0.1172 C   0  0  0  0  0  0  0  0  0  0  0  0
   -0.5511   -3.0326    0.4151 O   0  0  0  0  0  0  0  0  0  0  0  0
   -1.2677   -1.0209   -0.2968 N   0  0  0  0  0  0  0  0  0  0  0  0
   -2.0812   -0.4176   -0.4236 H   0  0  0  0  0  0  0  0  0  0  0  0
    0.0404   -0.3544   -0.2488 C   0  0  1  0  0  0  0  0  0  0  0  0
    0.7120   -0.8754    0.4418 H   0  0  0  0  0  0  0  0  0  0  0  0
    0.6643   -0.3893   -1.6606 C   0  0  0  0  0  0  0  0  0  0  0  0
    1.2072   -1.3278   -1.7974 H   0  0  0  0  0  0  0  0  0  0  0  0
   -0.1343   -0.3625   -2.4082 H   0  0  0  0  0  0  0  0  0  0  0  0
    1.5829    0.7893   -1.9533 C   0  0  0  0  0  0  0  0  0  0  0  0
    1.1888    1.8271   -2.4438 O   0  0  0  0  0  0  0  0  0  0  0  0
    2.9105    0.7477   -1.6350 N   0  0  0  0  0  0  0  0  0  0  0  0
    3.4688    1.5037   -2.0227 H   0  0  0  0  0  0  0  0  0  0  0  0
    3.3378   -0.1575   -1.4692 H   0  0  0  0  0  0  0  0  0  0  0  0
   -0.1603    1.0696    0.3244 C   0  0  0  0  0  0  0  0  0  0  0  0
   -1.1910    1.6839    0.0729 O   0  0  0  0  0  0  0  0  0  0  0  0
    0.7001    1.5662    1.2870 N   0  0  0  0  0  0  0  0  0  0  0  0
    1.5510    1.0453    1.4746 H   0  0  0  0  0  0  0  0  0  0  0  0
    0.5418    2.8866    1.8850 C   0  0  0  0  0  0  0  0  0  0  0  0
   -0.4264    2.9661    2.3907 H   0  0  0  0  0  0  0  0  0  0  0  0
    1.3307    3.0654    2.6219 H   0  0  0  0  0  0  0  0  0  0  0  0
    0.6025    3.6643    1.1162 H   0  0  0  0  0  0  0  0  0  0  0  0
  1  2  1  0  0  0  0
  2  3  1  0  0  0  0
  2  4  1  0  0  0  0
  2  5  1  0  0  0  0
  5  6  2  0  0  0  0
  5  7  1  0  0  0  0
  7  8  1  0  0  0  0
  7  9  1  0  0  0  0
  9 10  1  0  0  0  0
  9 11  1  0  0  0  0
  9 19  1  0  0  0  0
 11 12  1  0  0  0  0
 11 13  1  0  0  0  0
 11 14  1  0  0  0  0
 14 15  2  0  0  0  0
 14 16  1  0  0  0  0
 16 17  1  0  0  0  0
 16 18  1  0  0  0  0
 19 20  2  0  0  0  0
 19 21  1  0  0  0  0
 21 22  1  0  0  0  0
 21 23  1  0  0  0  0
 23 24  1  0  0  0  0
 23 25  1  0  0  0  0
 23 26  1  0  0  0  0
M  END
$$$$

  -OEChem-04042215573D

 26 25  0     1  0  0  0  0  0999 V2000
   -2.9043   -3.8672    0.5832 H   0  0  0  0  0  0  0  0  0  0  0  0
   -2.9109   -2.8385    0.2123 C   0  0  0  0  0  0  0  0  0  0  0  0
   -3.4883   -2.2188    0.9028 H   0  0  0  0  0  0  0  0  0  0  0  0
   -3.3900   -2.8207   -0.7696 H   0  0  0  0  0  0  0  0  0  0  0  0
   -1.4923   -2.3113    0.1060 C   0  0  0  0  0  0  0  0  0  0  0  0
   -0.5458   -3.0330    0.3819 O   0  0  0  0  0  0  0  0  0  0  0  0
   -1.2687   -1.0140   -0.3036 N   0  0  0  0  0  0  0  0  0  0  0  0
   -2.0827   -0.4066   -0.4057 H   0  0  0  0  0  0  0  0  0  0  0  0
    0.0398   -0.3475   -0.2572 C   0  0  1  0  0  0  0  0  0  0  0  0
    0.7098   -0.8683    0.4351 H   0  0  0  0  0  0  0  0  0  0  0  0
    0.6668   -0.3929   -1.6685 C   0  0  0  0  0  0  0  0  0  0  0  0
    1.2028   -1.3371   -1.7943 H   0  0  0  0  0  0  0  0  0  0  0  0
   -0.1324   -0.3709   -2.4150 H   0  0  0  0  0  0  0  0  0  0  0  0
    1.5916    0.7748   -1.9898 C   0  0  0  0  0  0  0  0  0  0  0  0
    1.1916    1.8914   -2.2475 O   0  0  0  0  0  0  0  0  0  0  0  0
    2.9486    0.6401   -1.9177 N   0  0  0  0  0  0  0  0  0  0  0  0
    3.4826    1.4196   -2.2926 H   0  0  0  0  0  0  0  0  0  0  0  0
    3.3450   -0.2940   -1.9267 H   0  0  0  0  0  0  0  0  0  0  0  0
   -0.1634    1.0736    0.3233 C   0  0  0  0  0  0  0  0  0  0  0  0
   -1.2102    1.6734    0.1015 O   0  0  0  0  0  0  0  0  0  0  0  0
    0.7000    1.5651    1.2860 N   0  0  0  0  0  0  0  0  0  0  0  0
    1.5660    1.0595    1.4439 H   0  0  0  0  0  0  0  0  0  0  0  0
    0.5379    2.8794    1.8956 C   0  0  0  0  0  0  0  0  0  0  0  0
   -0.4288    2.9500    2.4054 H   0  0  0  0  0  0  0  0  0  0  0  0
    1.3284    3.0552    2.6313 H   0  0  0  0  0  0  0  0  0  0  0  0
    0.5925    3.6632    1.1324 H   0  0  0  0  0  0  0  0  0  0  0  0
  1  2  1  0  0  0  0
  2  3  1  0  0  0  0
  2  4  1  0  0  0  0
  2  5  1  0  0  0  0
  5  6  2  0  0  0  0
  5  7  1  0  0  0  0
  7  8  1  0  0  0  0
  7  9  1  0  0  0  0
  9 10  1  0  0  0  0
  9 11  1  0  0  0  0
  9 19  1  0  0  0  0
 11 12  1  0  0  0  0
 11 13  1  0  0  0  0
 11 14  1  0  0  0  0
 14 15  2  0  0  0  0
 14 16  1  0  0  0  0
 16 17  1  0  0  0  0
 16 18  1  0  0  0  0
 19 20  2  0  0  0  0
 19 21  1  0  0  0  0
 21 22  1  0  0  0  0
 21 23  1  0  0  0  0
 23 24  1  0  0  0  0
 23 25  1  0  0  0  0
 23 26  1  0  0  0  0
M  END
$$$$

  -OEChem-04042215573D

 26 25  0     1  0  0  0  0  0999 V2000
   -2.8983   -3.8617    0.5780 H   0  0  0  0  0  0  0  0  0  0  0  0
   -2.9046   -2.8319    0.2099 C   0  0  0  0  0  0  0  0  0  0  0  0
   -3.4766   -2.2129    0.9057 H   0  0  0  0  0  0  0  0  0  0  0  0
   -3.3897   -2.8102   -0.7689 H   0  0  0  0  0  0  0  0  0  0  0  0
   -1.4854   -2.3073    0.0956 C   0  0  0  0  0  0  0  0  0  0  0  0
   -0.5382   -3.0358    0.3504 O   0  0  0  0  0  0  0  0  0  0  0  0
   -1.2625   -1.0062   -0.3017 N   0  0  0  0  0  0  0  0  0  0  0  0
   -2.0761   -0.3945   -0.3793 H   0  0  0  0  0  0  0  0  0  0  0  0
    0.0459   -0.3390   -0.2477 C   0  0  1  0  0  0  0  0  0  0  0  0
    0.7150   -0.8621    0.4440 H   0  0  0  0  0  0  0  0  0  0  0  0
    0.6750   -0.3844   -1.6607 C   0  0  0  0  0  0  0  0  0  0  0  0
    1.2030   -1.3339   -1.7800 H   0  0  0  0  0  0  0  0  0  0  0  0
   -0.1271   -0.3644   -2.4040 H   0  0  0  0  0  0  0  0  0  0  0  0
    1.6089    0.7693   -2.0156 C   0  0  0  0  0  0  0  0  0  0  0  0
    1.2735    1.9357   -2.0365 O   0  0  0  0  0  0  0  0  0  0  0  0
    2.9325    0.5471   -2.2670 N   0  0  0  0  0  0  0  0  0  0  0  0
    3.4443    1.3392   -2.6461 H   0  0  0  0  0  0  0  0  0  0  0  0
    3.2380   -0.3986   -2.4719 H   0  0  0  0  0  0  0  0  0  0  0  0
   -0.1713    1.0748    0.3470 C   0  0  0  0  0  0  0  0  0  0  0  0
   -1.2289    1.6611    0.1363 O   0  0  0  0  0  0  0  0  0  0  0  0
    0.6836    1.5646    1.3182 N   0  0  0  0  0  0  0  0  0  0  0  0
    1.5690    1.0850    1.4453 H   0  0  0  0  0  0  0  0  0  0  0  0
    0.5147    2.8810    1.9216 C   0  0  0  0  0  0  0  0  0  0  0  0
   -0.4575    2.9542    2.4203 H   0  0  0  0  0  0  0  0  0  0  0  0
    1.2967    3.0589    2.6659 H   0  0  0  0  0  0  0  0  0  0  0  0
    0.5783    3.6626    1.1569 H   0  0  0  0  0  0  0  0  0  0  0  0
  1  2  1  0  0  0  0
  2  3  1  0  0  0  0
  2  4  1  0  0  0  0
  2  5  1  0  0  0  0
  5  6  2  0  0  0  0
  5  7  1  0  0  0  0
  7  8  1  0  0  0  0
  7  9  1  0  0  0  0
  9 10  1  0  0  0  0
  9 11  1  0  0  0  0
  9 19  1  0  0  0  0
 11 12  1  0  0  0  0
 11 13  1  0  0  0  0
 11 14  1  0  0  0  0
 14 15  2  0  0  0  0
 14 16  1  0  0  0  0
 16 17  1  0  0  0  0
 16 18  1  0  0  0  0
 19 20  2  0  0  0  0
 19 21  1  0  0  0  0
 21 22  1  0  0  0  0
 21 23  1  0  0  0  0
 23 24  1  0  0  0  0
 23 25  1  0  0  0  0
 23 26  1  0  0  0  0
M  END
$$$$

  -OEChem-04042215573D

 26 25  0     1  0  0  0  0  0999 V2000
   -2.8922   -3.8560    0.5574 H   0  0  0  0  0  0  0  0  0  0  0  0
   -2.8957   -2.8233    0.1976 C   0  0  0  0  0  0  0  0  0  0  0  0
   -3.4674   -2.2083    0.8970 H   0  0  0  0  0  0  0  0  0  0  0  0
   -3.3789   -2.7922   -0.7820 H   0  0  0  0  0  0  0  0  0  0  0  0
   -1.4752   -2.3011    0.0907 C   0  0  0  0  0  0  0  0  0  0  0  0
   -0.5296   -3.0342    0.3375 O   0  0  0  0  0  0  0  0  0  0  0  0
   -1.2503   -0.9973   -0.2961 N   0  0  0  0  0  0  0  0  0  0  0  0
   -2.0629   -0.3829   -0.3626 H   0  0  0  0  0  0  0  0  0  0  0  0
    0.0584   -0.3316   -0.2304 C   0  0  1  0  0  0  0  0  0  0  0  0
    0.7253   -0.8568    0.4615 H   0  0  0  0  0  0  0  0  0  0  0  0
    0.6880   -0.3767   -1.6455 C   0  0  0  0  0  0  0  0  0  0  0  0
    1.2115   -1.3302   -1.7548 H   0  0  0  0  0  0  0  0  0  0  0  0
   -0.1159   -0.3620   -2.3869 H   0  0  0  0  0  0  0  0  0  0  0  0
    1.6318    0.7617   -2.0315 C   0  0  0  0  0  0  0  0  0  0  0  0
    1.4212    1.9402   -1.8306 O   0  0  0  0  0  0  0  0  0  0  0  0
    2.8326    0.4966   -2.6245 N   0  0  0  0  0  0  0  0  0  0  0  0
    3.3225    1.3026   -3.0032 H   0  0  0  0  0  0  0  0  0  0  0  0
    2.9915   -0.4253   -3.0171 H   0  0  0  0  0  0  0  0  0  0  0  0
   -0.1753    1.0755    0.3747 C   0  0  0  0  0  0  0  0  0  0  0  0
   -1.2347    1.6566    0.1550 O   0  0  0  0  0  0  0  0  0  0  0  0
    0.6667    1.5641    1.3579 N   0  0  0  0  0  0  0  0  0  0  0  0
    1.5667    1.1067    1.4631 H   0  0  0  0  0  0  0  0  0  0  0  0
    0.4898    2.8829    1.9534 C   0  0  0  0  0  0  0  0  0  0  0  0
   -0.4918    2.9603    2.4324 H   0  0  0  0  0  0  0  0  0  0  0  0
    1.2573    3.0611    2.7126 H   0  0  0  0  0  0  0  0  0  0  0  0
    0.5708    3.6614    1.1873 H   0  0  0  0  0  0  0  0  0  0  0  0
  1  2  1  0  0  0  0
  2  3  1  0  0  0  0
  2  4  1  0  0  0  0
  2  5  1  0  0  0  0
  5  6  2  0  0  0  0
  5  7  1  0  0  0  0
  7  8  1  0  0  0  0
  7  9  1  0  0  0  0
  9 10  1  0  0  0  0
  9 11  1  0  0  0  0
  9 19  1  0  0  0  0
 11 12  1  0  0  0  0
 11 13  1  0  0  0  0
 11 14  1  0  0  0  0
 14 15  2  0  0  0  0
 14 16  1  0  0  0  0
 16 17  1  0  0  0  0
 16 18  1  0  0  0  0
 19 20  2  0  0  0  0
 19 21  1  0  0  0  0
 21 22  1  0  0  0  0
 21 23  1  0  0  0  0
 23 24  1  0  0  0  0
 23 25  1  0  0  0  0
 23 26  1  0  0  0  0
M  END
$$$$

  -OEChem-04042215573D

 26 25  0     1  0  0  0  0  0999 V2000
   -2.8945   -3.8473    0.5432 H   0  0  0  0  0  0  0  0  0  0  0  0
   -2.8922   -2.8126    0.1894 C   0  0  0  0  0  0  0  0  0  0  0  0
   -3.4615   -2.1989    0.8919 H   0  0  0  0  0  0  0  0  0  0  0  0
   -3.3743   -2.7736   -0.7904 H   0  0  0  0  0  0  0  0  0  0  0  0
   -1.4688   -2.2974    0.0868 C   0  0  0  0  0  0  0  0  0  0  0  0
   -0.5280   -3.0374    0.3307 O   0  0  0  0  0  0  0  0  0  0  0  0
   -1.2360   -0.9932   -0.2937 N   0  0  0  0  0  0  0  0  0  0  0  0
   -2.0451   -0.3736   -0.3544 H   0  0  0  0  0  0  0  0  0  0  0  0
    0.0760   -0.3343   -0.2164 C   0  0  1  0  0  0  0  0  0  0  0  0
    0.7407   -0.8631    0.4754 H   0  0  0  0  0  0  0  0  0  0  0  0
    0.7030   -0.3734   -1.6347 C   0  0  0  0  0  0  0  0  0  0  0  0
    1.2204   -1.3299   -1.7462 H   0  0  0  0  0  0  0  0  0  0  0  0
   -0.1048   -0.3535   -2.3716 H   0  0  0  0  0  0  0  0  0  0  0  0
    1.6581    0.7511   -2.0384 C   0  0  0  0  0  0  0  0  0  0  0  0
    1.6158    1.8950   -1.6340 O   0  0  0  0  0  0  0  0  0  0  0  0
    2.6600    0.5128   -2.9345 N   0  0  0  0  0  0  0  0  0  0  0  0
    3.1337    1.3366   -3.2947 H   0  0  0  0  0  0  0  0  0  0  0  0
    2.6360   -0.3410   -3.4821 H   0  0  0  0  0  0  0  0  0  0  0  0
   -0.1712    1.0690    0.3939 C   0  0  0  0  0  0  0  0  0  0  0  0
   -1.2249    1.6525    0.1515 O   0  0  0  0  0  0  0  0  0  0  0  0
    0.6559    1.5583    1.3892 N   0  0  0  0  0  0  0  0  0  0  0  0
    1.5685    1.1221    1.4760 H   0  0  0  0  0  0  0  0  0  0  0  0
    0.4709    2.8806    1.9745 C   0  0  0  0  0  0  0  0  0  0  0  0
   -0.5211    2.9650    2.4306 H   0  0  0  0  0  0  0  0  0  0  0  0
    1.2213    3.0587    2.7504 H   0  0  0  0  0  0  0  0  0  0  0  0
    0.5731    3.6551    1.2070 H   0  0  0  0  0  0  0  0  0  0  0  0
  1  2  1  0  0  0  0
  2  3  1  0  0  0  0
  2  4  1  0  0  0  0
  2  5  1  0  0  0  0
  5  6  2  0  0  0  0
  5  7  1  0  0  0  0
  7  8  1  0  0  0  0
  7  9  1  0  0  0  0
  9 10  1  0  0  0  0
  9 11  1  0  0  0  0
  9 19  1  0  0  0  0
 11 12  1  0  0  0  0
 11 13  1  0  0  0  0
 11 14  1  0  0  0  0
 14 15  2  0  0  0  0
 14 16  1  0  0  0  0
 16 17  1  0  0  0  0
 16 18  1  0  0  0  0
 19 20  2  0  0  0  0
 19 21  1  0  0  0  0
 21 22  1  0  0  0  0
 21 23  1  0  0  0  0
 23 24  1  0  0  0  0
 23 25  1  0  0  0  0
 23 26  1  0  0  0  0
M  END
$$$$

  -OEChem-04042215573D

 26 25  0     1  0  0  0  0  0999 V2000
   -2.9030   -3.8428    0.5433 H   0  0  0  0  0  0  0  0  0  0  0  0
   -2.8953   -2.8084    0.1886 C   0  0  0  0  0  0  0  0  0  0  0  0
   -3.4622   -2.1915    0.8902 H   0  0  0  0  0  0  0  0  0  0  0  0
   -3.3761   -2.7680   -0.7918 H   0  0  0  0  0  0  0  0  0  0  0  0
   -1.4693   -2.3004    0.0868 C   0  0  0  0  0  0  0  0  0  0  0  0
   -0.5328   -3.0453    0.3316 O   0  0  0  0  0  0  0  0  0  0  0  0
   -1.2292   -0.9969   -0.2922 N   0  0  0  0  0  0  0  0  0  0  0  0
   -2.0351   -0.3732   -0.3534 H   0  0  0  0  0  0  0  0  0  0  0  0
    0.0867   -0.3453   -0.2110 C   0  0  1  0  0  0  0  0  0  0  0  0
    0.7536   -0.8771    0.4763 H   0  0  0  0  0  0  0  0  0  0  0  0
    0.7049   -0.3740   -1.6339 C   0  0  0  0  0  0  0  0  0  0  0  0
    1.2169   -1.3319   -1.7578 H   0  0  0  0  0  0  0  0  0  0  0  0
   -0.1095   -0.3429   -2.3631 H   0  0  0  0  0  0  0  0  0  0  0  0
    1.6663    0.7444   -2.0417 C   0  0  0  0  0  0  0  0  0  0  0  0
    1.8134    1.8013   -1.4616 O   0  0  0  0  0  0  0  0  0  0  0  0
    2.4443    0.6061   -3.1550 N   0  0  0  0  0  0  0  0  0  0  0  0
    2.9146    1.4490   -3.4725 H   0  0  0  0  0  0  0  0  0  0  0  0
    2.2360   -0.1392   -3.8110 H   0  0  0  0  0  0  0  0  0  0  0  0
   -0.1660    1.0569    0.4011 C   0  0  0  0  0  0  0  0  0  0  0  0
   -1.2096    1.6494    0.1359 O   0  0  0  0  0  0  0  0  0  0  0  0
    0.6536    1.5467    1.4021 N   0  0  0  0  0  0  0  0  0  0  0  0
    1.5736    1.1227    1.4738 H   0  0  0  0  0  0  0  0  0  0  0  0
    0.4734    2.8767    1.9714 C   0  0  0  0  0  0  0  0  0  0  0  0
   -0.5249    2.9767    2.4103 H   0  0  0  0  0  0  0  0  0  0  0  0
    1.2128    3.0536    2.7582 H   0  0  0  0  0  0  0  0  0  0  0  0
    0.5975    3.6423    1.1980 H   0  0  0  0  0  0  0  0  0  0  0  0
  1  2  1  0  0  0  0
  2  3  1  0  0  0  0
  2  4  1  0  0  0  0
  2  5  1  0  0  0  0
  5  6  2  0  0  0  0
  5  7  1  0  0  0  0
  7  8  1  0  0  0  0
  7  9  1  0  0  0  0
  9 10  1  0  0  0  0
  9 11  1  0  0  0  0
  9 19  1  0  0  0  0
 11 12  1  0  0  0  0
 11 13  1  0  0  0  0
 11 14  1  0  0  0  0
 14 15  2  0  0  0  0
 14 16  1  0  0  0  0
 16 17  1  0  0  0  0
 16 18  1  0  0  0  0
 19 20  2  0  0  0  0
 19 21  1  0  0  0  0
 21 22  1  0  0  0  0
 21 23  1  0  0  0  0
 23 24  1  0  0  0  0
 23 25  1  0  0  0  0
 23 26  1  0  0  0  0
M  END
$$$$

  -OEChem-04042215573D

 26 25  0     1  0  0  0  0  0999 V2000
   -2.9155   -3.8406    0.5583 H   0  0  0  0  0  0  0  0  0  0  0  0
   -2.9027   -2.8077    0.1991 C   0  0  0  0  0  0  0  0  0  0  0  0
   -3.4650   -2.1844    0.8987 H   0  0  0  0  0  0  0  0  0  0  0  0
   -3.3844   -2.7688   -0.7808 H   0  0  0  0  0  0  0  0  0  0  0  0
   -1.4741   -2.3082    0.0927 C   0  0  0  0  0  0  0  0  0  0  0  0
   -0.5414   -3.0582    0.3357 O   0  0  0  0  0  0  0  0  0  0  0  0
   -1.2284   -1.0068   -0.2903 N   0  0  0  0  0  0  0  0  0  0  0  0
   -2.0313   -0.3791   -0.3486 H   0  0  0  0  0  0  0  0  0  0  0  0
    0.0919   -0.3629   -0.2130 C   0  0  1  0  0  0  0  0  0  0  0  0
    0.7635   -0.8975    0.4676 H   0  0  0  0  0  0  0  0  0  0  0  0
    0.6945   -0.3792   -1.6424 C   0  0  0  0  0  0  0  0  0  0  0  0
    1.2025   -1.3365   -1.7862 H   0  0  0  0  0  0  0  0  0  0  0  0
   -0.1283   -0.3342   -2.3615 H   0  0  0  0  0  0  0  0  0  0  0  0
    1.6569    0.7411   -2.0396 C   0  0  0  0  0  0  0  0  0  0  0  0
    2.0007    1.6593   -1.3212 O   0  0  0  0  0  0  0  0  0  0  0  0
    2.2097    0.7629   -3.2875 N   0  0  0  0  0  0  0  0  0  0  0  0
    2.6958    1.6181   -3.5422 H   0  0  0  0  0  0  0  0  0  0  0  0
    1.8246    0.1605   -4.0071 H   0  0  0  0  0  0  0  0  0  0  0  0
   -0.1585    1.0412    0.3967 C   0  0  0  0  0  0  0  0  0  0  0  0
   -1.1895    1.6449    0.1086 O   0  0  0  0  0  0  0  0  0  0  0  0
    0.6590    1.5349    1.3970 N   0  0  0  0  0  0  0  0  0  0  0  0
    1.5844    1.1193    1.4544 H   0  0  0  0  0  0  0  0  0  0  0  0
    0.4850    2.8727    1.9488 C   0  0  0  0  0  0  0  0  0  0  0  0
   -0.5172    2.9867    2.3752 H   0  0  0  0  0  0  0  0  0  0  0  0
    1.2171    3.0521    2.7418 H   0  0  0  0  0  0  0  0  0  0  0  0
    0.6247    3.6284    1.1685 H   0  0  0  0  0  0  0  0  0  0  0  0
  1  2  1  0  0  0  0
  2  3  1  0  0  0  0
  2  4  1  0  0  0  0
  2  5  1  0  0  0  0
  5  6  2  0  0  0  0
  5  7  1  0  0  0  0
  7  8  1  0  0  0  0
  7  9  1  0  0  0  0
  9 10  1  0  0  0  0
  9 11  1  0  0  0  0
  9 19  1  0  0  0  0
 11 12  1  0  0  0  0
 11 13  1  0  0  0  0
 11 14  1  0  0  0  0
 14 15  2  0  0  0  0
 14 16  1  0  0  0  0
 16 17  1  0  0  0  0
 16 18  1  0  0  0  0
 19 20  2  0  0  0  0
 19 21  1  0  0  0  0
 21 22  1  0  0  0  0
 21 23  1  0  0  0  0
 23 24  1  0  0  0  0
 23 25  1  0  0  0  0
 23 26  1  0  0  0  0
M  END
$$$$

  -OEChem-04042215573D

 26 25  0     1  0  0  0  0  0999 V2000
   -2.9292   -3.8441    0.5840 H   0  0  0  0  0  0  0  0  0  0  0  0
   -2.9130   -2.8139    0.2176 C   0  0  0  0  0  0  0  0  0  0  0  0
   -3.4700   -2.1834    0.9150 H   0  0  0  0  0  0  0  0  0  0  0  0
   -3.3980   -2.7797   -0.7608 H   0  0  0  0  0  0  0  0  0  0  0  0
   -1.4826   -2.3213    0.1032 C   0  0  0  0  0  0  0  0  0  0  0  0
   -0.5530   -3.0726    0.3532 O   0  0  0  0  0  0  0  0  0  0  0  0
   -1.2324   -1.0239   -0.2905 N   0  0  0  0  0  0  0  0  0  0  0  0
   -2.0334   -0.3948   -0.3568 H   0  0  0  0  0  0  0  0  0  0  0  0
    0.0906   -0.3849   -0.2204 C   0  0  1  0  0  0  0  0  0  0  0  0
    0.7661   -0.9189    0.4571 H   0  0  0  0  0  0  0  0  0  0  0  0
    0.6835   -0.3935   -1.6522 C   0  0  0  0  0  0  0  0  0  0  0  0
    1.1924   -1.3476   -1.8124 H   0  0  0  0  0  0  0  0  0  0  0  0
   -0.1431   -0.3392   -2.3661 H   0  0  0  0  0  0  0  0  0  0  0  0
    1.6431    0.7364   -2.0238 C   0  0  0  0  0  0  0  0  0  0  0  0
    2.1739    1.4767   -1.2173 O   0  0  0  0  0  0  0  0  0  0  0  0
    1.9663    0.9783   -3.3279 N   0  0  0  0  0  0  0  0  0  0  0  0
    2.4596    1.8480   -3.5083 H   0  0  0  0  0  0  0  0  0  0  0  0
    1.4123    0.5456   -4.0593 H   0  0  0  0  0  0  0  0  0  0  0  0
   -0.1517    1.0248    0.3786 C   0  0  0  0  0  0  0  0  0  0  0  0
   -1.1670    1.6419    0.0647 O   0  0  0  0  0  0  0  0  0  0  0  0
    0.6680    1.5251    1.3733 N   0  0  0  0  0  0  0  0  0  0  0  0
    1.5944    1.1091    1.4249 H   0  0  0  0  0  0  0  0  0  0  0  0
    0.5046    2.8717    1.9066 C   0  0  0  0  0  0  0  0  0  0  0  0
   -0.4979    3.0005    2.3278 H   0  0  0  0  0  0  0  0  0  0  0  0
    1.2356    3.0543    2.6999 H   0  0  0  0  0  0  0  0  0  0  0  0
    0.6541    3.6153    1.1167 H   0  0  0  0  0  0  0  0  0  0  0  0
  1  2  1  0  0  0  0
  2  3  1  0  0  0  0
  2  4  1  0  0  0  0
  2  5  1  0  0  0  0
  5  6  2  0  0  0  0
  5  7  1  0  0  0  0
  7  8  1  0  0  0  0
  7  9  1  0  0  0  0
  9 10  1  0  0  0  0
  9 11  1  0  0  0  0
  9 19  1  0  0  0  0
 11 12  1  0  0  0  0
 11 13  1  0  0  0  0
 11 14  1  0  0  0  0
 14 15  2  0  0  0  0
 14 16  1  0  0  0  0
 16 17  1  0  0  0  0
 16 18  1  0  0  0  0
 19 20  2  0  0  0  0
 19 21  1  0  0  0  0
 21 22  1  0  0  0  0
 21 23  1  0  0  0  0
 23 24  1  0  0  0  0
 23 25  1  0  0  0  0
 23 26  1  0  0  0  0
M  END
$$$$

  -OEChem-04042215573D

 26 25  0     1  0  0  0  0  0999 V2000
   -2.9382   -3.8590    0.6086 H   0  0  0  0  0  0  0  0  0  0  0  0
   -2.9223   -2.8324    0.2321 C   0  0  0  0  0  0  0  0  0  0  0  0
   -3.4830   -2.1962    0.9213 H   0  0  0  0  0  0  0  0  0  0  0  0
   -3.4039   -2.8084   -0.7483 H   0  0  0  0  0  0  0  0  0  0  0  0
   -1.4918   -2.3395    0.1181 C   0  0  0  0  0  0  0  0  0  0  0  0
   -0.5631   -3.0861    0.3839 O   0  0  0  0  0  0  0  0  0  0  0  0
   -1.2413   -1.0468   -0.2911 N   0  0  0  0  0  0  0  0  0  0  0  0
   -2.0431   -0.4212   -0.3732 H   0  0  0  0  0  0  0  0  0  0  0  0
    0.0813   -0.4063   -0.2315 C   0  0  1  0  0  0  0  0  0  0  0  0
    0.7606   -0.9352    0.4464 H   0  0  0  0  0  0  0  0  0  0  0  0
    0.6716   -0.4145   -1.6620 C   0  0  0  0  0  0  0  0  0  0  0  0
    1.1913   -1.3618   -1.8276 H   0  0  0  0  0  0  0  0  0  0  0  0
   -0.1524   -0.3629   -2.3790 H   0  0  0  0  0  0  0  0  0  0  0  0
    1.6217    0.7327   -1.9965 C   0  0  0  0  0  0  0  0  0  0  0  0
    2.3220    1.2760   -1.1614 O   0  0  0  0  0  0  0  0  0  0  0  0
    1.7179    1.2332   -3.2630 N   0  0  0  0  0  0  0  0  0  0  0  0
    2.2183    2.1130   -3.3525 H   0  0  0  0  0  0  0  0  0  0  0  0
    1.0048    0.9846   -3.9405 H   0  0  0  0  0  0  0  0  0  0  0  0
   -0.1473    1.0121    0.3498 C   0  0  0  0  0  0  0  0  0  0  0  0
   -1.1444    1.6434    0.0089 O   0  0  0  0  0  0  0  0  0  0  0  0
    0.6800    1.5206    1.3333 N   0  0  0  0  0  0  0  0  0  0  0  0
    1.5996    1.0896    1.3938 H   0  0  0  0  0  0  0  0  0  0  0  0
    0.5371    2.8785    1.8431 C   0  0  0  0  0  0  0  0  0  0  0  0
   -0.4613    3.0272    2.2676 H   0  0  0  0  0  0  0  0  0  0  0  0
    1.2753    3.0662    2.6286 H   0  0  0  0  0  0  0  0  0  0  0  0
    0.6916    3.6061    1.0394 H   0  0  0  0  0  0  0  0  0  0  0  0
  1  2  1  0  0  0  0
  2  3  1  0  0  0  0
  2  4  1  0  0  0  0
  2  5  1  0  0  0  0
  5  6  2  0  0  0  0
  5  7  1  0  0  0  0
  7  8  1  0  0  0  0
  7  9  1  0  0  0  0
  9 10  1  0  0  0  0
  9 11  1  0  0  0  0
  9 19  1  0  0  0  0
 11 12  1  0  0  0  0
 11 13  1  0  0  0  0
 11 14  1  0  0  0  0
 14 15  2  0  0  0  0
 14 16  1  0  0  0  0
 16 17  1  0  0  0  0
 16 18  1  0  0  0  0
 19 20  2  0  0  0  0
 19 21  1  0  0  0  0
 21 22  1  0  0  0  0
 21 23  1  0  0  0  0
 23 24  1  0  0  0  0
 23 25  1  0  0  0  0
 23 26  1  0  0  0  0
M  END
$$$$

  -OEChem-04042215573D

 26 25  0     1  0  0  0  0  0999 V2000
   -2.9404   -3.8769    0.6282 H   0  0  0  0  0  0  0  0  0  0  0  0
   -2.9273   -2.8551    0.2388 C   0  0  0  0  0  0  0  0  0  0  0  0
   -3.4982   -2.2138    0.9147 H   0  0  0  0  0  0  0  0  0  0  0  0
   -3.3997   -2.8470   -0.7463 H   0  0  0  0  0  0  0  0  0  0  0  0
   -1.4990   -2.3546    0.1322 C   0  0  0  0  0  0  0  0  0  0  0  0
   -0.5692   -3.0894    0.4251 O   0  0  0  0  0  0  0  0  0  0  0  0
   -1.2531   -1.0672   -0.2965 N   0  0  0  0  0  0  0  0  0  0  0  0
   -2.0585   -0.4508   -0.4049 H   0  0  0  0  0  0  0  0  0  0  0  0
    0.0666   -0.4203   -0.2496 C   0  0  1  0  0  0  0  0  0  0  0  0
    0.7472   -0.9419    0.4330 H   0  0  0  0  0  0  0  0  0  0  0  0
    0.6643   -0.4381   -1.6743 C   0  0  0  0  0  0  0  0  0  0  0  0
    1.2031   -1.3766   -1.8301 H   0  0  0  0  0  0  0  0  0  0  0  0
   -0.1495   -0.4018   -2.4032 H   0  0  0  0  0  0  0  0  0  0  0  0
    1.6003    0.7285   -1.9716 C   0  0  0  0  0  0  0  0  0  0  0  0
    2.4524    1.0815   -1.1758 O   0  0  0  0  0  0  0  0  0  0  0  0
    1.4727    1.4936   -3.0952 N   0  0  0  0  0  0  0  0  0  0  0  0
    1.9809    2.3734   -3.0852 H   0  0  0  0  0  0  0  0  0  0  0  0
    0.6201    1.4119   -3.6393 H   0  0  0  0  0  0  0  0  0  0  0  0
   -0.1439    1.0083    0.3089 C   0  0  0  0  0  0  0  0  0  0  0  0
   -1.1222    1.6541   -0.0564 O   0  0  0  0  0  0  0  0  0  0  0  0
    0.6962    1.5242    1.2770 N   0  0  0  0  0  0  0  0  0  0  0  0
    1.6022    1.0679    1.3629 H   0  0  0  0  0  0  0  0  0  0  0  0
    0.5726    2.8888    1.7740 C   0  0  0  0  0  0  0  0  0  0  0  0
   -0.4173    3.0497    2.2138 H   0  0  0  0  0  0  0  0  0  0  0  0
    1.3255    3.0786    2.5450 H   0  0  0  0  0  0  0  0  0  0  0  0
    0.7186    3.6070    0.9604 H   0  0  0  0  0  0  0  0  0  0  0  0
  1  2  1  0  0  0  0
  2  3  1  0  0  0  0
  2  4  1  0  0  0  0
  2  5  1  0  0  0  0
  5  6  2  0  0  0  0
  5  7  1  0  0  0  0
  7  8  1  0  0  0  0
  7  9  1  0  0  0  0
  9 10  1  0  0  0  0
  9 11  1  0  0  0  0
  9 19  1  0  0  0  0
 11 12  1  0  0  0  0
 11 13  1  0  0  0  0
 11 14  1  0  0  0  0
 14 15  2  0  0  0  0
 14 16  1  0  0  0  0
 16 17  1  0  0  0  0
 16 18  1  0  0  0  0
 19 20  2  0  0  0  0
 19 21  1  0  0  0  0
 21 22  1  0  0  0  0
 21 23  1  0  0  0  0
 23 24  1  0  0  0  0
 23 25  1  0  0  0  0
 23 26  1  0  0  0  0
M  END
$$$$

  -OEChem-04042215573D

 26 25  0     1  0  0  0  0  0999 V2000
   -2.9284   -3.9160    0.5982 H   0  0  0  0  0  0  0  0  0  0  0  0
   -2.9237   -2.8880    0.2252 C   0  0  0  0  0  0  0  0  0  0  0  0
   -3.5085   -2.2641    0.9055 H   0  0  0  0  0  0  0  0  0  0  0  0
   -3.3871   -2.8704   -0.7642 H   0  0  0  0  0  0  0  0  0  0  0  0
   -1.5007   -2.3687    0.1399 C   0  0  0  0  0  0  0  0  0  0  0  0
   -0.5669   -3.0863    0.4608 O   0  0  0  0  0  0  0  0  0  0  0  0
   -1.2648   -1.0831   -0.3004 N   0  0  0  0  0  0  0  0  0  0  0  0
   -2.0763   -0.4823   -0.4416 H   0  0  0  0  0  0  0  0  0  0  0  0
    0.0487   -0.4239   -0.2606 C   0  0  1  0  0  0  0  0  0  0  0  0
    0.7319   -0.9386    0.4246 H   0  0  0  0  0  0  0  0  0  0  0  0
    0.6509   -0.4493   -1.6816 C   0  0  0  0  0  0  0  0  0  0  0  0
    1.2082   -1.3788   -1.8262 H   0  0  0  0  0  0  0  0  0  0  0  0
   -0.1537   -0.4297   -2.4215 H   0  0  0  0  0  0  0  0  0  0  0  0
    1.5685    0.7348   -1.9571 C   0  0  0  0  0  0  0  0  0  0  0  0
    2.5627    0.9255   -1.2808 O   0  0  0  0  0  0  0  0  0  0  0  0
    1.2373    1.7223   -2.8394 N   0  0  0  0  0  0  0  0  0  0  0  0
    1.7701    2.5817   -2.7424 H   0  0  0  0  0  0  0  0  0  0  0  0
    0.2721    1.7708   -3.1505 H   0  0  0  0  0  0  0  0  0  0  0  0
   -0.1469    1.0108    0.2818 C   0  0  0  0  0  0  0  0  0  0  0  0
   -1.0927    1.6783   -0.1255 O   0  0  0  0  0  0  0  0  0  0  0  0
    0.7035    1.5316    1.2380 N   0  0  0  0  0  0  0  0  0  0  0  0
    1.5761    1.0290    1.3868 H   0  0  0  0  0  0  0  0  0  0  0  0
    0.6211    2.9124    1.6966 C   0  0  0  0  0  0  0  0  0  0  0  0
   -0.3685    3.1193    2.1172 H   0  0  0  0  0  0  0  0  0  0  0  0
    1.3694    3.0974    2.4733 H   0  0  0  0  0  0  0  0  0  0  0  0
    0.8038    3.6026    0.8664 H   0  0  0  0  0  0  0  0  0  0  0  0
  1  2  1  0  0  0  0
  2  3  1  0  0  0  0
  2  4  1  0  0  0  0
  2  5  1  0  0  0  0
  5  6  2  0  0  0  0
  5  7  1  0  0  0  0
  7  8  1  0  0  0  0
  7  9  1  0  0  0  0
  9 10  1  0  0  0  0
  9 11  1  0  0  0  0
  9 19  1  0  0  0  0
 11 12  1  0  0  0  0
 11 13  1  0  0  0  0
 11 14  1  0  0  0  0
 14 15  2  0  0  0  0
 14 16  1  0  0  0  0
 16 17  1  0  0  0  0
 16 18  1  0  0  0  0
 19 20  2  0  0  0  0
 19 21  1  0  0  0  0
 21 22  1  0  0  0  0
 21 23  1  0  0  0  0
 23 24  1  0  0  0  0
 23 25  1  0  0  0  0
 23 26  1  0  0  0  0
M  END
$$$$

  -OEChem-04042215573D

 26 25  0     1  0  0  0  0  0999 V2000
   -2.9090   -3.9397    0.5850 H   0  0  0  0  0  0  0  0  0  0  0  0
   -2.9146   -2.9119    0.2110 C   0  0  0  0  0  0  0  0  0  0  0  0
   -3.5198   -2.2966    0.8812 H   0  0  0  0  0  0  0  0  0  0  0  0
   -3.3626   -2.9024   -0.7855 H   0  0  0  0  0  0  0  0  0  0  0  0
   -1.4986   -2.3709    0.1474 C   0  0  0  0  0  0  0  0  0  0  0  0
   -0.5602   -3.0709    0.4925 O   0  0  0  0  0  0  0  0  0  0  0  0
   -1.2742   -1.0835   -0.2945 N   0  0  0  0  0  0  0  0  0  0  0  0
   -2.0912   -0.4991   -0.4670 H   0  0  0  0  0  0  0  0  0  0  0  0
    0.0339   -0.4129   -0.2647 C   0  0  1  0  0  0  0  0  0  0  0  0
    0.7249   -0.9248    0.4147 H   0  0  0  0  0  0  0  0  0  0  0  0
    0.6277   -0.4347   -1.6890 C   0  0  0  0  0  0  0  0  0  0  0  0
    1.1937   -1.3588   -1.8360 H   0  0  0  0  0  0  0  0  0  0  0  0
   -0.1789   -0.4224   -2.4271 H   0  0  0  0  0  0  0  0  0  0  0  0
    1.5310    0.7596   -1.9662 C   0  0  0  0  0  0  0  0  0  0  0  0
    2.6490    0.8202   -1.4911 O   0  0  0  0  0  0  0  0  0  0  0  0
    1.0788    1.8803   -2.6008 N   0  0  0  0  0  0  0  0  0  0  0  0
    1.6707    2.6984   -2.4912 H   0  0  0  0  0  0  0  0  0  0  0  0
    0.0713    2.0078   -2.6486 H   0  0  0  0  0  0  0  0  0  0  0  0
   -0.1564    1.0211    0.2770 C   0  0  0  0  0  0  0  0  0  0  0  0
   -1.0780    1.7059   -0.1563 O   0  0  0  0  0  0  0  0  0  0  0  0
    0.7047    1.5415    1.2235 N   0  0  0  0  0  0  0  0  0  0  0  0
    1.5429    1.0024    1.4298 H   0  0  0  0  0  0  0  0  0  0  0  0
    0.6407    2.9240    1.6798 C   0  0  0  0  0  0  0  0  0  0  0  0
   -0.3433    3.1421    2.1082 H   0  0  0  0  0  0  0  0  0  0  0  0
    1.3972    3.1023    2.4500 H   0  0  0  0  0  0  0  0  0  0  0  0
    0.8241    3.6109    0.8469 H   0  0  0  0  0  0  0  0  0  0  0  0
  1  2  1  0  0  0  0
  2  3  1  0  0  0  0
  2  4  1  0  0  0  0
  2  5  1  0  0  0  0
  5  6  2  0  0  0  0
  5  7  1  0  0  0  0
  7  8  1  0  0  0  0
  7  9  1  0  0  0  0
  9 10  1  0  0  0  0
  9 11  1  0  0  0  0
  9 19  1  0  0  0  0
 11 12  1  0  0  0  0
 11 13  1  0  0  0  0
 11 14  1  0  0  0  0
 14 15  2  0  0  0  0
 14 16  1  0  0  0  0
 16 17  1  0  0  0  0
 16 18  1  0  0  0  0
 19 20  2  0  0  0  0
 19 21  1  0  0  0  0
 21 22  1  0  0  0  0
 21 23  1  0  0  0  0
 23 24  1  0  0  0  0
 23 25  1  0  0  0  0
 23 26  1  0  0  0  0
M  END
$$$$

  -OEChem-04042215573D

 26 25  0     1  0  0  0  0  0999 V2000
   -2.8934   -3.9454    0.5786 H   0  0  0  0  0  0  0  0  0  0  0  0
   -2.9043   -2.9199    0.1985 C   0  0  0  0  0  0  0  0  0  0  0  0
   -3.5251   -2.3074    0.8569 H   0  0  0  0  0  0  0  0  0  0  0  0
   -3.3388   -2.9210   -0.8040 H   0  0  0  0  0  0  0  0  0  0  0  0
   -1.4930   -2.3645    0.1507 C   0  0  0  0  0  0  0  0  0  0  0  0
   -0.5509   -3.0551    0.5041 O   0  0  0  0  0  0  0  0  0  0  0  0
   -1.2776   -1.0717   -0.2804 N   0  0  0  0  0  0  0  0  0  0  0  0
   -2.0984   -0.4977   -0.4681 H   0  0  0  0  0  0  0  0  0  0  0  0
    0.0267   -0.3933   -0.2537 C   0  0  1  0  0  0  0  0  0  0  0  0
    0.7260   -0.9085    0.4145 H   0  0  0  0  0  0  0  0  0  0  0  0
    0.6068   -0.4078   -1.6848 C   0  0  0  0  0  0  0  0  0  0  0  0
    1.1715   -1.3317   -1.8392 H   0  0  0  0  0  0  0  0  0  0  0  0
   -0.2075   -0.3961   -2.4144 H   0  0  0  0  0  0  0  0  0  0  0  0
    1.5037    0.7874   -1.9823 C   0  0  0  0  0  0  0  0  0  0  0  0
    2.6989    0.7471   -1.7650 O   0  0  0  0  0  0  0  0  0  0  0  0
    1.0046    1.9763   -2.4316 N   0  0  0  0  0  0  0  0  0  0  0  0
    1.6543    2.7554   -2.3897 H   0  0  0  0  0  0  0  0  0  0  0  0
    0.0156    2.1514   -2.2618 H   0  0  0  0  0  0  0  0  0  0  0  0
   -0.1635    1.0342    0.3020 C   0  0  0  0  0  0  0  0  0  0  0  0
   -1.0687    1.7332   -0.1430 O   0  0  0  0  0  0  0  0  0  0  0  0
    0.7029    1.5496    1.2465 N   0  0  0  0  0  0  0  0  0  0  0  0
    1.5035    0.9798    1.5102 H   0  0  0  0  0  0  0  0  0  0  0  0
    0.6305    2.9215    1.7330 C   0  0  0  0  0  0  0  0  0  0  0  0
   -0.3420    3.1121    2.1989 H   0  0  0  0  0  0  0  0  0  0  0  0
    1.4108    3.0992    2.4793 H   0  0  0  0  0  0  0  0  0  0  0  0
    0.7721    3.6284    0.9090 H   0  0  0  0  0  0  0  0  0  0  0  0
  1  2  1  0  0  0  0
  2  3  1  0  0  0  0
  2  4  1  0  0  0  0
  2  5  1  0  0  0  0
  5  6  2  0  0  0  0
  5  7  1  0  0  0  0
  7  8  1  0  0  0  0
  7  9  1  0  0  0  0
  9 10  1  0  0  0  0
  9 11  1  0  0  0  0
  9 19  1  0  0  0  0
 11 12  1  0  0  0  0
 11 13  1  0  0  0  0
 11 14  1  0  0  0  0
 14 15  2  0  0  0  0
 14 16  1  0  0  0  0
 16 17  1  0  0  0  0
 16 18  1  0  0  0  0
 19 20  2  0  0  0  0
 19 21  1  0  0  0  0
 21 22  1  0  0  0  0
 21 23  1  0  0  0  0
 23 24  1  0  0  0  0
 23 25  1  0  0  0  0
 23 26  1  0  0  0  0
M  END
$$$$

  -OEChem-04042215573D

 26 25  0     1  0  0  0  0  0999 V2000
   -2.8811   -3.9518    0.5505 H   0  0  0  0  0  0  0  0  0  0  0  0
   -2.8945   -2.9238    0.1776 C   0  0  0  0  0  0  0  0  0  0  0  0
   -3.5353   -2.3222    0.8268 H   0  0  0  0  0  0  0  0  0  0  0  0
   -3.3081   -2.9217   -0.8338 H   0  0  0  0  0  0  0  0  0  0  0  0
   -1.4883   -2.3541    0.1633 C   0  0  0  0  0  0  0  0  0  0  0  0
   -0.5464   -3.0377    0.5305 O   0  0  0  0  0  0  0  0  0  0  0  0
   -1.2773   -1.0560   -0.2537 N   0  0  0  0  0  0  0  0  0  0  0  0
   -2.0984   -0.4914   -0.4665 H   0  0  0  0  0  0  0  0  0  0  0  0
    0.0242   -0.3731   -0.2272 C   0  0  1  0  0  0  0  0  0  0  0  0
    0.7284   -0.8937    0.4318 H   0  0  0  0  0  0  0  0  0  0  0  0
    0.5926   -0.3841   -1.6649 C   0  0  0  0  0  0  0  0  0  0  0  0
    1.1520   -1.3108   -1.8240 H   0  0  0  0  0  0  0  0  0  0  0  0
   -0.2300   -0.3724   -2.3853 H   0  0  0  0  0  0  0  0  0  0  0  0
    1.4876    0.8068   -1.9905 C   0  0  0  0  0  0  0  0  0  0  0  0
    2.6956    0.6902   -2.0521 O   0  0  0  0  0  0  0  0  0  0  0  0
    0.9823    2.0394   -2.2924 N   0  0  0  0  0  0  0  0  0  0  0  0
    1.6664    2.7879   -2.3425 H   0  0  0  0  0  0  0  0  0  0  0  0
    0.0394    2.2479   -1.9632 H   0  0  0  0  0  0  0  0  0  0  0  0
   -0.1645    1.0475    0.3454 C   0  0  0  0  0  0  0  0  0  0  0  0
   -1.0603    1.7588   -0.0986 O   0  0  0  0  0  0  0  0  0  0  0  0
    0.7072    1.5540    1.2901 N   0  0  0  0  0  0  0  0  0  0  0  0
    1.4772    0.9608    1.5904 H   0  0  0  0  0  0  0  0  0  0  0  0
    0.6235    2.9124    1.8125 C   0  0  0  0  0  0  0  0  0  0  0  0
   -0.3474    3.0812    2.2899 H   0  0  0  0  0  0  0  0  0  0  0  0
    1.4071    3.0789    2.5578 H   0  0  0  0  0  0  0  0  0  0  0  0
    0.7523    3.6420    1.0063 H   0  0  0  0  0  0  0  0  0  0  0  0
  1  2  1  0  0  0  0
  2  3  1  0  0  0  0
  2  4  1  0  0  0  0
  2  5  1  0  0  0  0
  5  6  2  0  0  0  0
  5  7  1  0  0  0  0
  7  8  1  0  0  0  0
  7  9  1  0  0  0  0
  9 10  1  0  0  0  0
  9 11  1  0  0  0  0
  9 19  1  0  0  0  0
 11 12  1  0  0  0  0
 11 13  1  0  0  0  0
 11 14  1  0  0  0  0
 14 15  2  0  0  0  0
 14 16  1  0  0  0  0
 16 17  1  0  0  0  0
 16 18  1  0  0  0  0
 19 20  2  0  0  0  0
 19 21  1  0  0  0  0
 21 22  1  0  0  0  0
 21 23  1  0  0  0  0
 23 24  1  0  0  0  0
 23 25  1  0  0  0  0
 23 26  1  0  0  0  0
M  END
$$$$

  -OEChem-04042215573D

 26 25  0     1  0  0  0  0  0999 V2000
   -2.8733   -3.9557    0.5296 H   0  0  0  0  0  0  0  0  0  0  0  0
   -2.8900   -2.9268    0.1593 C   0  0  0  0  0  0  0  0  0  0  0  0
   -3.5395   -2.3310    0.8052 H   0  0  0  0  0  0  0  0  0  0  0  0
   -3.2950   -2.9245   -0.8556 H   0  0  0  0  0  0  0  0  0  0  0  0
   -1.4875   -2.3483    0.1590 C   0  0  0  0  0  0  0  0  0  0  0  0
   -0.5436   -3.0301    0.5248 O   0  0  0  0  0  0  0  0  0  0  0  0
   -1.2813   -1.0428   -0.2375 N   0  0  0  0  0  0  0  0  0  0  0  0
   -2.1032   -0.4817   -0.4561 H   0  0  0  0  0  0  0  0  0  0  0  0
    0.0181   -0.3562   -0.1986 C   0  0  1  0  0  0  0  0  0  0  0  0
    0.7170   -0.8842    0.4598 H   0  0  0  0  0  0  0  0  0  0  0  0
    0.5993   -0.3652   -1.6331 C   0  0  0  0  0  0  0  0  0  0  0  0
    1.1564   -1.2943   -1.7855 H   0  0  0  0  0  0  0  0  0  0  0  0
   -0.2201   -0.3546   -2.3570 H   0  0  0  0  0  0  0  0  0  0  0  0
    1.4977    0.8208   -1.9743 C   0  0  0  0  0  0  0  0  0  0  0  0
    2.6578    0.6568   -2.2966 O   0  0  0  0  0  0  0  0  0  0  0  0
    1.0088    2.0843   -2.1520 N   0  0  0  0  0  0  0  0  0  0  0  0
    1.7006    2.8127   -2.2982 H   0  0  0  0  0  0  0  0  0  0  0  0
    0.1117    2.3144   -1.7217 H   0  0  0  0  0  0  0  0  0  0  0  0
   -0.1681    1.0551    0.3948 C   0  0  0  0  0  0  0  0  0  0  0  0
   -1.0525    1.7819   -0.0460 O   0  0  0  0  0  0  0  0  0  0  0  0
    0.7060    1.5444    1.3465 N   0  0  0  0  0  0  0  0  0  0  0  0
    1.4498    0.9300    1.6691 H   0  0  0  0  0  0  0  0  0  0  0  0
    0.6282    2.8961    1.8872 C   0  0  0  0  0  0  0  0  0  0  0  0
   -0.3432    3.0626    2.3646 H   0  0  0  0  0  0  0  0  0  0  0  0
    1.4114    3.0492    2.6359 H   0  0  0  0  0  0  0  0  0  0  0  0
    0.7622    3.6362    1.0914 H   0  0  0  0  0  0  0  0  0  0  0  0
  1  2  1  0  0  0  0
  2  3  1  0  0  0  0
  2  4  1  0  0  0  0
  2  5  1  0  0  0  0
  5  6  2  0  0  0  0
  5  7  1  0  0  0  0
  7  8  1  0  0  0  0
  7  9  1  0  0  0  0
  9 10  1  0  0  0  0
  9 11  1  0  0  0  0
  9 19  1  0  0  0  0
 11 12  1  0  0  0  0
 11 13  1  0  0  0  0
 11 14  1  0  0  0  0
 14 15  2  0  0  0  0
 14 16  1  0  0  0  0
 16 17  1  0  0  0  0
 16 18  1  0  0  0  0
 19 20  2  0  0  0  0
 19 21  1  0  0  0  0
 21 22  1  0  0  0  0
 21 23  1  0  0  0  0
 23 24  1  0  0  0  0
 23 25  1  0  0  0  0
 23 26  1  0  0  0  0
M  END
$$$$

  -OEChem-04042215573D

 26 25  0     1  0  0  0  0  0999 V2000
   -2.8760   -3.9567    0.4790 H   0  0  0  0  0  0  0  0  0  0  0  0
   -2.8890   -2.9207    0.1289 C   0  0  0  0  0  0  0  0  0  0  0  0
   -3.5512   -2.3392    0.7748 H   0  0  0  0  0  0  0  0  0  0  0  0
   -3.2765   -2.8991   -0.8927 H   0  0  0  0  0  0  0  0  0  0  0  0
   -1.4880   -2.3392    0.1640 C   0  0  0  0  0  0  0  0  0  0  0  0
   -0.5496   -3.0222    0.5418 O   0  0  0  0  0  0  0  0  0  0  0  0
   -1.2768   -1.0298   -0.2167 N   0  0  0  0  0  0  0  0  0  0  0  0
   -2.0949   -0.4692   -0.4507 H   0  0  0  0  0  0  0  0  0  0  0  0
    0.0229   -0.3446   -0.1647 C   0  0  1  0  0  0  0  0  0  0  0  0
    0.7132   -0.8787    0.4979 H   0  0  0  0  0  0  0  0  0  0  0  0
    0.6184   -0.3629   -1.5956 C   0  0  0  0  0  0  0  0  0  0  0  0
    1.1695   -1.2979   -1.7341 H   0  0  0  0  0  0  0  0  0  0  0  0
   -0.1981   -0.3562   -2.3230 H   0  0  0  0  0  0  0  0  0  0  0  0
    1.5275    0.8086   -1.9653 C   0  0  0  0  0  0  0  0  0  0  0  0
    2.5827    0.6163   -2.5366 O   0  0  0  0  0  0  0  0  0  0  0  0
    1.0929    2.1038   -2.0007 N   0  0  0  0  0  0  0  0  0  0  0  0
    1.7596    2.8125   -2.2898 H   0  0  0  0  0  0  0  0  0  0  0  0
    0.2318    2.3595   -1.5146 H   0  0  0  0  0  0  0  0  0  0  0  0
   -0.1617    1.0604    0.4431 C   0  0  0  0  0  0  0  0  0  0  0  0
   -1.0411    1.7965    0.0086 O   0  0  0  0  0  0  0  0  0  0  0  0
    0.7110    1.5361    1.4032 N   0  0  0  0  0  0  0  0  0  0  0  0
    1.4413    0.9098    1.7333 H   0  0  0  0  0  0  0  0  0  0  0  0
    0.6288    2.8773    1.9692 C   0  0  0  0  0  0  0  0  0  0  0  0
   -0.3474    3.0365    2.4392 H   0  0  0  0  0  0  0  0  0  0  0  0
    1.4037    3.0146    2.7296 H   0  0  0  0  0  0  0  0  0  0  0  0
    0.7727    3.6323    1.1892 H   0  0  0  0  0  0  0  0  0  0  0  0
  1  2  1  0  0  0  0
  2  3  1  0  0  0  0
  2  4  1  0  0  0  0
  2  5  1  0  0  0  0
  5  6  2  0  0  0  0
  5  7  1  0  0  0  0
  7  8  1  0  0  0  0
  7  9  1  0  0  0  0
  9 10  1  0  0  0  0
  9 11  1  0  0  0  0
  9 19  1  0  0  0  0
 11 12  1  0  0  0  0
 11 13  1  0  0  0  0
 11 14  1  0  0  0  0
 14 15  2  0  0  0  0
 14 16  1  0  0  0  0
 16 17  1  0  0  0  0
 16 18  1  0  0  0  0
 19 20  2  0  0  0  0
 19 21  1  0  0  0  0
 21 22  1  0  0  0  0
 21 23  1  0  0  0  0
 23 24  1  0  0  0  0
 23 25  1  0  0  0  0
 23 26  1  0  0  0  0
M  END
$$$$

  -OEChem-04042215573D

 26 25  0     1  0  0  0  0  0999 V2000
   -2.8970   -3.9400    0.4362 H   0  0  0  0  0  0  0  0  0  0  0  0
   -2.8953   -2.9001    0.0973 C   0  0  0  0  0  0  0  0  0  0  0  0
   -3.5584   -2.3185    0.7424 H   0  0  0  0  0  0  0  0  0  0  0  0
   -3.2715   -2.8639   -0.9280 H   0  0  0  0  0  0  0  0  0  0  0  0
   -1.4889   -2.3334    0.1535 C   0  0  0  0  0  0  0  0  0  0  0  0
   -0.5608   -3.0310    0.5301 O   0  0  0  0  0  0  0  0  0  0  0  0
   -1.2610   -1.0215   -0.2077 N   0  0  0  0  0  0  0  0  0  0  0  0
   -2.0716   -0.4486   -0.4381 H   0  0  0  0  0  0  0  0  0  0  0  0
    0.0440   -0.3493   -0.1273 C   0  0  1  0  0  0  0  0  0  0  0  0
    0.7215   -0.8946    0.5388 H   0  0  0  0  0  0  0  0  0  0  0  0
    0.6529   -0.3602   -1.5550 C   0  0  0  0  0  0  0  0  0  0  0  0
    1.1883   -1.3043   -1.6926 H   0  0  0  0  0  0  0  0  0  0  0  0
   -0.1620   -0.3404   -2.2839 H   0  0  0  0  0  0  0  0  0  0  0  0
    1.5859    0.7879   -1.9479 C   0  0  0  0  0  0  0  0  0  0  0  0
    2.4791    0.5957   -2.7491 O   0  0  0  0  0  0  0  0  0  0  0  0
    1.3113    2.1109   -1.7484 N   0  0  0  0  0  0  0  0  0  0  0  0
    1.7977    2.7568   -2.3627 H   0  0  0  0  0  0  0  0  0  0  0  0
    0.3970    2.3619   -1.3691 H   0  0  0  0  0  0  0  0  0  0  0  0
   -0.1549    1.0461    0.4965 C   0  0  0  0  0  0  0  0  0  0  0  0
   -1.0231    1.7876    0.0484 O   0  0  0  0  0  0  0  0  0  0  0  0
    0.6966    1.5108    1.4809 N   0  0  0  0  0  0  0  0  0  0  0  0
    1.4335    0.8889    1.8037 H   0  0  0  0  0  0  0  0  0  0  0  0
    0.6175    2.8545    2.0417 C   0  0  0  0  0  0  0  0  0  0  0  0
   -0.3688    3.0286    2.4847 H   0  0  0  0  0  0  0  0  0  0  0  0
    1.3733    2.9827    2.8225 H   0  0  0  0  0  0  0  0  0  0  0  0
    0.7932    3.6056    1.2645 H   0  0  0  0  0  0  0  0  0  0  0  0
  1  2  1  0  0  0  0
  2  3  1  0  0  0  0
  2  4  1  0  0  0  0
  2  5  1  0  0  0  0
  5  6  2  0  0  0  0
  5  7  1  0  0  0  0
  7  8  1  0  0  0  0
  7  9  1  0  0  0  0
  9 10  1  0  0  0  0
  9 11  1  0  0  0  0
  9 19  1  0  0  0  0
 11 12  1  0  0  0  0
 11 13  1  0  0  0  0
 11 14  1  0  0  0  0
 14 15  2  0  0  0  0
 14 16  1  0  0  0  0
 16 17  1  0  0  0  0
 16 18  1  0  0  0  0
 19 20  2  0  0  0  0
 19 21  1  0  0  0  0
 21 22  1  0  0  0  0
 21 23  1  0  0  0  0
 23 24  1  0  0  0  0
 23 25  1  0  0  0  0
 23 26  1  0  0  0  0
M  END
$$$$

  -OEChem-04042215573D

 26 25  0     1  0  0  0  0  0999 V2000
   -2.9115   -3.9341    0.3919 H   0  0  0  0  0  0  0  0  0  0  0  0
   -2.9024   -2.8907    0.0646 C   0  0  0  0  0  0  0  0  0  0  0  0
   -3.5796   -2.3162    0.7011 H   0  0  0  0  0  0  0  0  0  0  0  0
   -3.2557   -2.8429   -0.9683 H   0  0  0  0  0  0  0  0  0  0  0  0
   -1.4974   -2.3256    0.1580 C   0  0  0  0  0  0  0  0  0  0  0  0
   -0.5809   -3.0227    0.5629 O   0  0  0  0  0  0  0  0  0  0  0  0
   -1.2570   -1.0151   -0.2007 N   0  0  0  0  0  0  0  0  0  0  0  0
   -2.0574   -0.4442   -0.4690 H   0  0  0  0  0  0  0  0  0  0  0  0
    0.0509   -0.3502   -0.1053 C   0  0  1  0  0  0  0  0  0  0  0  0
    0.7160   -0.8975    0.5716 H   0  0  0  0  0  0  0  0  0  0  0  0
    0.6747   -0.3828   -1.5284 C   0  0  0  0  0  0  0  0  0  0  0  0
    1.1983   -1.3359   -1.6476 H   0  0  0  0  0  0  0  0  0  0  0  0
   -0.1378   -0.3659   -2.2604 H   0  0  0  0  0  0  0  0  0  0  0  0
    1.6250    0.7395   -1.9582 C   0  0  0  0  0  0  0  0  0  0  0  0
    2.3243    0.5850   -2.9400 O   0  0  0  0  0  0  0  0  0  0  0  0
    1.5269    2.0502   -1.5881 N   0  0  0  0  0  0  0  0  0  0  0  0
    1.9672    2.6980   -2.2346 H   0  0  0  0  0  0  0  0  0  0  0  0
    0.6691    2.3374   -1.1157 H   0  0  0  0  0  0  0  0  0  0  0  0
   -0.1462    1.0458    0.5151 C   0  0  0  0  0  0  0  0  0  0  0  0
   -0.9770    1.8080    0.0348 O   0  0  0  0  0  0  0  0  0  0  0  0
    0.6969    1.5051    1.5095 N   0  0  0  0  0  0  0  0  0  0  0  0
    1.4013    0.8653    1.8680 H   0  0  0  0  0  0  0  0  0  0  0  0
    0.6161    2.8470    2.0743 C   0  0  0  0  0  0  0  0  0  0  0  0
   -0.3712    3.0182    2.5162 H   0  0  0  0  0  0  0  0  0  0  0  0
    1.3706    2.9739    2.8567 H   0  0  0  0  0  0  0  0  0  0  0  0
    0.7918    3.6009    1.2998 H   0  0  0  0  0  0  0  0  0  0  0  0
  1  2  1  0  0  0  0
  2  3  1  0  0  0  0
  2  4  1  0  0  0  0
  2  5  1  0  0  0  0
  5  6  2  0  0  0  0
  5  7  1  0  0  0  0
  7  8  1  0  0  0  0
  7  9  1  0  0  0  0
  9 10  1  0  0  0  0
  9 11  1  0  0  0  0
  9 19  1  0  0  0  0
 11 12  1  0  0  0  0
 11 13  1  0  0  0  0
 11 14  1  0  0  0  0
 14 15  2  0  0  0  0
 14 16  1  0  0  0  0
 16 17  1  0  0  0  0
 16 18  1  0  0  0  0
 19 20  2  0  0  0  0
 19 21  1  0  0  0  0
 21 22  1  0  0  0  0
 21 23  1  0  0  0  0
 23 24  1  0  0  0  0
 23 25  1  0  0  0  0
 23 26  1  0  0  0  0
M  END
$$$$

  -OEChem-04042215573D

 26 25  0     1  0  0  0  0  0999 V2000
   -2.9110   -3.9198    0.4569 H   0  0  0  0  0  0  0  0  0  0  0  0
   -2.9048   -2.8835    0.1074 C   0  0  0  0  0  0  0  0  0  0  0  0
   -3.5855   -2.2975    0.7297 H   0  0  0  0  0  0  0  0  0  0  0  0
   -3.2557   -2.8593   -0.9272 H   0  0  0  0  0  0  0  0  0  0  0  0
   -1.5019   -2.3122    0.1920 C   0  0  0  0  0  0  0  0  0  0  0  0
   -0.5890   -2.9892    0.6378 O   0  0  0  0  0  0  0  0  0  0  0  0
   -1.2578   -1.0185   -0.2198 N   0  0  0  0  0  0  0  0  0  0  0  0
   -2.0545   -0.4584   -0.5206 H   0  0  0  0  0  0  0  0  0  0  0  0
    0.0522   -0.3560   -0.1552 C   0  0  1  0  0  0  0  0  0  0  0  0
    0.7400   -0.8890    0.5107 H   0  0  0  0  0  0  0  0  0  0  0  0
    0.6162   -0.3841   -1.5945 C   0  0  0  0  0  0  0  0  0  0  0  0
    0.9074   -1.4116   -1.8301 H   0  0  0  0  0  0  0  0  0  0  0  0
   -0.1842   -0.1006   -2.2845 H   0  0  0  0  0  0  0  0  0  0  0  0
    1.8019    0.5259   -1.9214 C   0  0  0  0  0  0  0  0  0  0  0  0
    2.2699    0.5280   -3.0426 O   0  0  0  0  0  0  0  0  0  0  0  0
    2.4593    1.3455   -1.0471 N   0  0  0  0  0  0  0  0  0  0  0  0
    3.1230    1.9728   -1.4930 H   0  0  0  0  0  0  0  0  0  0  0  0
    1.9531    1.6737   -0.2304 H   0  0  0  0  0  0  0  0  0  0  0  0
   -0.1494    1.0634    0.4107 C   0  0  0  0  0  0  0  0  0  0  0  0
   -1.0069    1.7939   -0.0660 O   0  0  0  0  0  0  0  0  0  0  0  0
    0.6975    1.5573    1.3877 N   0  0  0  0  0  0  0  0  0  0  0  0
    1.2987    0.8876    1.8636 H   0  0  0  0  0  0  0  0  0  0  0  0
    0.5325    2.8814    1.9781 C   0  0  0  0  0  0  0  0  0  0  0  0
   -0.4477    2.9684    2.4591 H   0  0  0  0  0  0  0  0  0  0  0  0
    1.3054    3.0587    2.7324 H   0  0  0  0  0  0  0  0  0  0  0  0
    0.6174    3.6577    1.2100 H   0  0  0  0  0  0  0  0  0  0  0  0
  1  2  1  0  0  0  0
  2  3  1  0  0  0  0
  2  4  1  0  0  0  0
  2  5  1  0  0  0  0
  5  6  2  0  0  0  0
  5  7  1  0  0  0  0
  7  8  1  0  0  0  0
  7  9  1  0  0  0  0
  9 10  1  0  0  0  0
  9 11  1  0  0  0  0
  9 19  1  0  0  0  0
 11 12  1  0  0  0  0
 11 13  1  0  0  0  0
 11 14  1  0  0  0  0
 14 15  2  0  0  0  0
 14 16  1  0  0  0  0
 16 17  1  0  0  0  0
 16 18  1  0  0  0  0
 19 20  2  0  0  0  0
 19 21  1  0  0  0  0
 21 22  1  0  0  0  0
 21 23  1  0  0  0  0
 23 24  1  0  0  0  0
 23 25  1  0  0  0  0
 23 26  1  0  0  0  0
M  END
$$$$

  -OEChem-04042215573D

 26 25  0     1  0  0  0  0  0999 V2000
   -2.9143   -3.9177    0.4634 H   0  0  0  0  0  0  0  0  0  0  0  0
   -2.9082   -2.8826    0.1105 C   0  0  0  0  0  0  0  0  0  0  0  0
   -3.5877   -2.2943    0.7319 H   0  0  0  0  0  0  0  0  0  0  0  0
   -3.2607   -2.8615   -0.9236 H   0  0  0  0  0  0  0  0  0  0  0  0
   -1.5051   -2.3111    0.1912 C   0  0  0  0  0  0  0  0  0  0  0  0
   -0.5920   -2.9847    0.6421 O   0  0  0  0  0  0  0  0  0  0  0  0
   -1.2607   -1.0198   -0.2282 N   0  0  0  0  0  0  0  0  0  0  0  0
   -2.0569   -0.4618   -0.5345 H   0  0  0  0  0  0  0  0  0  0  0  0
    0.0482   -0.3554   -0.1654 C   0  0  1  0  0  0  0  0  0  0  0  0
    0.7337   -0.8886    0.5023 H   0  0  0  0  0  0  0  0  0  0  0  0
    0.6131   -0.3874   -1.6028 C   0  0  0  0  0  0  0  0  0  0  0  0
    0.9131   -1.4125   -1.8366 H   0  0  0  0  0  0  0  0  0  0  0  0
   -0.1849   -0.1080   -2.2979 H   0  0  0  0  0  0  0  0  0  0  0  0
    1.7953    0.5320   -1.9069 C   0  0  0  0  0  0  0  0  0  0  0  0
    2.1122    0.7614   -3.0570 O   0  0  0  0  0  0  0  0  0  0  0  0
    2.6252    1.0881   -0.9742 N   0  0  0  0  0  0  0  0  0  0  0  0
    3.2781    1.7649   -1.3599 H   0  0  0  0  0  0  0  0  0  0  0  0
    2.2513    1.2492   -0.0458 H   0  0  0  0  0  0  0  0  0  0  0  0
   -0.1368    1.0709    0.3898 C   0  0  0  0  0  0  0  0  0  0  0  0
   -0.9988    1.8006   -0.0800 O   0  0  0  0  0  0  0  0  0  0  0  0
    0.7209    1.5587    1.3614 N   0  0  0  0  0  0  0  0  0  0  0  0
    1.2660    0.8727    1.8788 H   0  0  0  0  0  0  0  0  0  0  0  0
    0.5651    2.8883    1.9421 C   0  0  0  0  0  0  0  0  0  0  0  0
   -0.4093    2.9814    2.4336 H   0  0  0  0  0  0  0  0  0  0  0  0
    1.3472    3.0709    2.6854 H   0  0  0  0  0  0  0  0  0  0  0  0
    0.6423    3.6577    1.1663 H   0  0  0  0  0  0  0  0  0  0  0  0
  1  2  1  0  0  0  0
  2  3  1  0  0  0  0
  2  4  1  0  0  0  0
  2  5  1  0  0  0  0
  5  6  2  0  0  0  0
  5  7  1  0  0  0  0
  7  8  1  0  0  0  0
  7  9  1  0  0  0  0
  9 10  1  0  0  0  0
  9 11  1  0  0  0  0
  9 19  1  0  0  0  0
 11 12  1  0  0  0  0
 11 13  1  0  0  0  0
 11 14  1  0  0  0  0
 14 15  2  0  0  0  0
 14 16  1  0  0  0  0
 16 17  1  0  0  0  0
 16 18  1  0  0  0  0
 19 20  2  0  0  0  0
 19 21  1  0  0  0  0
 21 22  1  0  0  0  0
 21 23  1  0  0  0  0
 23 24  1  0  0  0  0
 23 25  1  0  0  0  0
 23 26  1  0  0  0  0
M  END
$$$$

  -OEChem-04042215573D

 26 25  0     1  0  0  0  0  0999 V2000
   -2.8646   -3.9102    0.5455 H   0  0  0  0  0  0  0  0  0  0  0  0
   -2.8801   -2.8845    0.1661 C   0  0  0  0  0  0  0  0  0  0  0  0
   -3.5230   -2.2805    0.8111 H   0  0  0  0  0  0  0  0  0  0  0  0
   -3.2924   -2.8888   -0.8459 H   0  0  0  0  0  0  0  0  0  0  0  0
   -1.4755   -2.3109    0.1504 C   0  0  0  0  0  0  0  0  0  0  0  0
   -0.5277   -2.9927    0.5100 O   0  0  0  0  0  0  0  0  0  0  0  0
   -1.2656   -1.0114   -0.2604 N   0  0  0  0  0  0  0  0  0  0  0  0
   -2.0867   -0.4385   -0.4556 H   0  0  0  0  0  0  0  0  0  0  0  0
    0.0288   -0.3210   -0.1964 C   0  0  1  0  0  0  0  0  0  0  0  0
    0.7214   -0.8423    0.4724 H   0  0  0  0  0  0  0  0  0  0  0  0
    0.6079   -0.2857   -1.6242 C   0  0  0  0  0  0  0  0  0  0  0  0
    0.9480   -1.2861   -1.9045 H   0  0  0  0  0  0  0  0  0  0  0  0
   -0.1784    0.0112   -2.3251 H   0  0  0  0  0  0  0  0  0  0  0  0
    1.7613    0.6962   -1.7830 C   0  0  0  0  0  0  0  0  0  0  0  0
    1.9831    1.2560   -2.8374 O   0  0  0  0  0  0  0  0  0  0  0  0
    2.8029    0.7292   -0.8984 N   0  0  0  0  0  0  0  0  0  0  0  0
    3.6394    1.1693   -1.2739 H   0  0  0  0  0  0  0  0  0  0  0  0
    2.9094   -0.0662   -0.2787 H   0  0  0  0  0  0  0  0  0  0  0  0
   -0.2030    1.0978    0.3741 C   0  0  0  0  0  0  0  0  0  0  0  0
   -1.1799    1.7403    0.0089 O   0  0  0  0  0  0  0  0  0  0  0  0
    0.6264    1.6232    1.3480 N   0  0  0  0  0  0  0  0  0  0  0  0
    1.4402    1.0829    1.6241 H   0  0  0  0  0  0  0  0  0  0  0  0
    0.4479    2.9570    1.9090 C   0  0  0  0  0  0  0  0  0  0  0  0
   -0.5147    3.0288    2.4261 H   0  0  0  0  0  0  0  0  0  0  0  0
    1.2437    3.1753    2.6277 H   0  0  0  0  0  0  0  0  0  0  0  0
    0.4804    3.7137    1.1177 H   0  0  0  0  0  0  0  0  0  0  0  0
  1  2  1  0  0  0  0
  2  3  1  0  0  0  0
  2  4  1  0  0  0  0
  2  5  1  0  0  0  0
  5  6  2  0  0  0  0
  5  7  1  0  0  0  0
  7  8  1  0  0  0  0
  7  9  1  0  0  0  0
  9 10  1  0  0  0  0
  9 11  1  0  0  0  0
  9 19  1  0  0  0  0
 11 12  1  0  0  0  0
 11 13  1  0  0  0  0
 11 14  1  0  0  0  0
 14 15  2  0  0  0  0
 14 16  1  0  0  0  0
 16 17  1  0  0  0  0
 16 18  1  0  0  0  0
 19 20  2  0  0  0  0
 19 21  1  0  0  0  0
 21 22  1  0  0  0  0
 21 23  1  0  0  0  0
 23 24  1  0  0  0  0
 23 25  1  0  0  0  0
 23 26  1  0  0  0  0
M  END
$$$$

  -OEChem-04042215573D

 26 25  0     1  0  0  0  0  0999 V2000
   -2.8854   -3.9129    0.5343 H   0  0  0  0  0  0  0  0  0  0  0  0
   -2.8954   -2.8832    0.1661 C   0  0  0  0  0  0  0  0  0  0  0  0
   -3.5311   -2.2814    0.8202 H   0  0  0  0  0  0  0  0  0  0  0  0
   -3.3126   -2.8746   -0.8439 H   0  0  0  0  0  0  0  0  0  0  0  0
   -1.4870   -2.3188    0.1492 C   0  0  0  0  0  0  0  0  0  0  0  0
   -0.5426   -3.0088    0.5021 O   0  0  0  0  0  0  0  0  0  0  0  0
   -1.2692   -1.0219   -0.2656 N   0  0  0  0  0  0  0  0  0  0  0  0
   -2.0873   -0.4419   -0.4525 H   0  0  0  0  0  0  0  0  0  0  0  0
    0.0290   -0.3388   -0.2025 C   0  0  1  0  0  0  0  0  0  0  0  0
    0.7118   -0.8613    0.4756 H   0  0  0  0  0  0  0  0  0  0  0  0
    0.6260   -0.3238   -1.6218 C   0  0  0  0  0  0  0  0  0  0  0  0
    0.9659   -1.3276   -1.8892 H   0  0  0  0  0  0  0  0  0  0  0  0
   -0.1481   -0.0295   -2.3375 H   0  0  0  0  0  0  0  0  0  0  0  0
    1.7836    0.6553   -1.7573 C   0  0  0  0  0  0  0  0  0  0  0  0
    1.8867    1.4111   -2.7017 O   0  0  0  0  0  0  0  0  0  0  0  0
    2.8818    0.5780   -0.9470 N   0  0  0  0  0  0  0  0  0  0  0  0
    3.6918    1.0803   -1.3019 H   0  0  0  0  0  0  0  0  0  0  0  0
    3.0261   -0.2874   -0.4375 H   0  0  0  0  0  0  0  0  0  0  0  0
   -0.1844    1.0852    0.3619 C   0  0  0  0  0  0  0  0  0  0  0  0
   -1.1673    1.7286    0.0152 O   0  0  0  0  0  0  0  0  0  0  0  0
    0.6557    1.6010    1.3319 N   0  0  0  0  0  0  0  0  0  0  0  0
    1.4896    1.0716    1.5665 H   0  0  0  0  0  0  0  0  0  0  0  0
    0.5054    2.9444    1.8786 C   0  0  0  0  0  0  0  0  0  0  0  0
   -0.4782    3.0617    2.3458 H   0  0  0  0  0  0  0  0  0  0  0  0
    1.2710    3.1323    2.6375 H   0  0  0  0  0  0  0  0  0  0  0  0
    0.6111    3.6934    1.0866 H   0  0  0  0  0  0  0  0  0  0  0  0
  1  2  1  0  0  0  0
  2  3  1  0  0  0  0
  2  4  1  0  0  0  0
  2  5  1  0  0  0  0
  5  6  2  0  0  0  0
  5  7  1  0  0  0  0
  7  8  1  0  0  0  0
  7  9  1  0  0  0  0
  9 10  1  0  0  0  0
  9 11  1  0  0  0  0
  9 19  1  0  0  0  0
 11 12  1  0  0  0  0
 11 13  1  0  0  0  0
 11 14  1  0  0  0  0
 14 15  2  0  0  0  0
 14 16  1  0  0  0  0
 16 17  1  0  0  0  0
 16 18  1  0  0  0  0
 19 20  2  0  0  0  0
 19 21  1  0  0  0  0
 21 22  1  0  0  0  0
 21 23  1  0  0  0  0
 23 24  1  0  0  0  0
 23 25  1  0  0  0  0
 23 26  1  0  0  0  0
M  END
$$$$

  -OEChem-04042215573D

 26 25  0     1  0  0  0  0  0999 V2000
   -2.9020   -3.9014    0.5505 H   0  0  0  0  0  0  0  0  0  0  0  0
   -2.9069   -2.8728    0.1794 C   0  0  0  0  0  0  0  0  0  0  0  0
   -3.5241   -2.2622    0.8430 H   0  0  0  0  0  0  0  0  0  0  0  0
   -3.3417   -2.8619   -0.8230 H   0  0  0  0  0  0  0  0  0  0  0  0
   -1.4928   -2.3244    0.1361 C   0  0  0  0  0  0  0  0  0  0  0  0
   -0.5495   -3.0256    0.4700 O   0  0  0  0  0  0  0  0  0  0  0  0
   -1.2687   -1.0293   -0.2809 N   0  0  0  0  0  0  0  0  0  0  0  0
   -2.0845   -0.4398   -0.4482 H   0  0  0  0  0  0  0  0  0  0  0  0
    0.0340   -0.3541   -0.2207 C   0  0  1  0  0  0  0  0  0  0  0  0
    0.7110   -0.8785    0.4620 H   0  0  0  0  0  0  0  0  0  0  0  0
    0.6404   -0.3513   -1.6353 C   0  0  0  0  0  0  0  0  0  0  0  0
    0.9757   -1.3580   -1.8972 H   0  0  0  0  0  0  0  0  0  0  0  0
   -0.1257   -0.0545   -2.3584 H   0  0  0  0  0  0  0  0  0  0  0  0
    1.8026    0.6230   -1.7573 C   0  0  0  0  0  0  0  0  0  0  0  0
    1.7995    1.5513   -2.5393 O   0  0  0  0  0  0  0  0  0  0  0  0
    2.9618    0.4357   -1.0583 N   0  0  0  0  0  0  0  0  0  0  0  0
    3.7454    0.9923   -1.3902 H   0  0  0  0  0  0  0  0  0  0  0  0
    3.1379   -0.4878   -0.6758 H   0  0  0  0  0  0  0  0  0  0  0  0
   -0.1670    1.0725    0.3420 C   0  0  0  0  0  0  0  0  0  0  0  0
   -1.1607    1.7125    0.0194 O   0  0  0  0  0  0  0  0  0  0  0  0
    0.6820    1.5794    1.3090 N   0  0  0  0  0  0  0  0  0  0  0  0
    1.5216    1.0504    1.5247 H   0  0  0  0  0  0  0  0  0  0  0  0
    0.5430    2.9228    1.8587 C   0  0  0  0  0  0  0  0  0  0  0  0
   -0.4371    3.0455    2.3317 H   0  0  0  0  0  0  0  0  0  0  0  0
    1.3140    3.1049    2.6135 H   0  0  0  0  0  0  0  0  0  0  0  0
    0.6488    3.6724    1.0672 H   0  0  0  0  0  0  0  0  0  0  0  0
  1  2  1  0  0  0  0
  2  3  1  0  0  0  0
  2  4  1  0  0  0  0
  2  5  1  0  0  0  0
  5  6  2  0  0  0  0
  5  7  1  0  0  0  0
  7  8  1  0  0  0  0
  7  9  1  0  0  0  0
  9 10  1  0  0  0  0
  9 11  1  0  0  0  0
  9 19  1  0  0  0  0
 11 12  1  0  0  0  0
 11 13  1  0  0  0  0
 11 14  1  0  0  0  0
 14 15  2  0  0  0  0
 14 16  1  0  0  0  0
 16 17  1  0  0  0  0
 16 18  1  0  0  0  0
 19 20  2  0  0  0  0
 19 21  1  0  0  0  0
 21 22  1  0  0  0  0
 21 23  1  0  0  0  0
 23 24  1  0  0  0  0
 23 25  1  0  0  0  0
 23 26  1  0  0  0  0
M  END
$$$$

  -OEChem-04042215573D

 26 25  0     1  0  0  0  0  0999 V2000
   -2.9105   -3.8940    0.5657 H   0  0  0  0  0  0  0  0  0  0  0  0
   -2.9136   -2.8689    0.1851 C   0  0  0  0  0  0  0  0  0  0  0  0
   -3.5215   -2.2488    0.8485 H   0  0  0  0  0  0  0  0  0  0  0  0
   -3.3568   -2.8646   -0.8137 H   0  0  0  0  0  0  0  0  0  0  0  0
   -1.4971   -2.3294    0.1245 C   0  0  0  0  0  0  0  0  0  0  0  0
   -0.5536   -3.0398    0.4379 O   0  0  0  0  0  0  0  0  0  0  0  0
   -1.2712   -1.0343   -0.2908 N   0  0  0  0  0  0  0  0  0  0  0  0
   -2.0859   -0.4374   -0.4359 H   0  0  0  0  0  0  0  0  0  0  0  0
    0.0345   -0.3650   -0.2363 C   0  0  1  0  0  0  0  0  0  0  0  0
    0.7105   -0.8927    0.4450 H   0  0  0  0  0  0  0  0  0  0  0  0
    0.6414   -0.3688   -1.6498 C   0  0  0  0  0  0  0  0  0  0  0  0
    0.9709   -1.3778   -1.9101 H   0  0  0  0  0  0  0  0  0  0  0  0
   -0.1219   -0.0695   -2.3747 H   0  0  0  0  0  0  0  0  0  0  0  0
    1.8069    0.6013   -1.7700 C   0  0  0  0  0  0  0  0  0  0  0  0
    1.7181    1.6668   -2.3445 O   0  0  0  0  0  0  0  0  0  0  0  0
    3.0252    0.3148   -1.2226 N   0  0  0  0  0  0  0  0  0  0  0  0
    3.7808    0.9246   -1.5243 H   0  0  0  0  0  0  0  0  0  0  0  0
    3.2275   -0.6529   -0.9919 H   0  0  0  0  0  0  0  0  0  0  0  0
   -0.1565    1.0610    0.3310 C   0  0  0  0  0  0  0  0  0  0  0  0
   -1.1623    1.6965    0.0367 O   0  0  0  0  0  0  0  0  0  0  0  0
    0.7027    1.5582    1.2939 N   0  0  0  0  0  0  0  0  0  0  0  0
    1.5522    1.0343    1.4814 H   0  0  0  0  0  0  0  0  0  0  0  0
    0.5802    2.9051    1.8384 C   0  0  0  0  0  0  0  0  0  0  0  0
   -0.3940    3.0372    2.3207 H   0  0  0  0  0  0  0  0  0  0  0  0
    1.3606    3.0851    2.5839 H   0  0  0  0  0  0  0  0  0  0  0  0
    0.6831    3.6495    1.0416 H   0  0  0  0  0  0  0  0  0  0  0  0
  1  2  1  0  0  0  0
  2  3  1  0  0  0  0
  2  4  1  0  0  0  0
  2  5  1  0  0  0  0
  5  6  2  0  0  0  0
  5  7  1  0  0  0  0
  7  8  1  0  0  0  0
  7  9  1  0  0  0  0
  9 10  1  0  0  0  0
  9 11  1  0  0  0  0
  9 19  1  0  0  0  0
 11 12  1  0  0  0  0
 11 13  1  0  0  0  0
 11 14  1  0  0  0  0
 14 15  2  0  0  0  0
 14 16  1  0  0  0  0
 16 17  1  0  0  0  0
 16 18  1  0  0  0  0
 19 20  2  0  0  0  0
 19 21  1  0  0  0  0
 21 22  1  0  0  0  0
 21 23  1  0  0  0  0
 23 24  1  0  0  0  0
 23 25  1  0  0  0  0
 23 26  1  0  0  0  0
M  END
$$$$

  -OEChem-04042215573D

 26 25  0     1  0  0  0  0  0999 V2000
   -2.9130   -3.8827    0.5781 H   0  0  0  0  0  0  0  0  0  0  0  0
   -2.9165   -2.8562    0.2013 C   0  0  0  0  0  0  0  0  0  0  0  0
   -3.5023   -2.2332    0.8816 H   0  0  0  0  0  0  0  0  0  0  0  0
   -3.3840   -2.8442   -0.7862 H   0  0  0  0  0  0  0  0  0  0  0  0
   -1.4973   -2.3283    0.1086 C   0  0  0  0  0  0  0  0  0  0  0  0
   -0.5531   -3.0484    0.3963 O   0  0  0  0  0  0  0  0  0  0  0  0
   -1.2699   -1.0328   -0.3046 N   0  0  0  0  0  0  0  0  0  0  0  0
   -2.0833   -0.4279   -0.4224 H   0  0  0  0  0  0  0  0  0  0  0  0
    0.0384   -0.3676   -0.2518 C   0  0  1  0  0  0  0  0  0  0  0  0
    0.7129   -0.8966    0.4300 H   0  0  0  0  0  0  0  0  0  0  0  0
    0.6463   -0.3799   -1.6655 C   0  0  0  0  0  0  0  0  0  0  0  0
    0.9668   -1.3931   -1.9207 H   0  0  0  0  0  0  0  0  0  0  0  0
   -0.1164   -0.0798   -2.3904 H   0  0  0  0  0  0  0  0  0  0  0  0
    1.8174    0.5823   -1.8013 C   0  0  0  0  0  0  0  0  0  0  0  0
    1.6839    1.7395   -2.1425 O   0  0  0  0  0  0  0  0  0  0  0  0
    3.0859    0.2016   -1.4682 N   0  0  0  0  0  0  0  0  0  0  0  0
    3.8189    0.8477   -1.7487 H   0  0  0  0  0  0  0  0  0  0  0  0
    3.2891   -0.7907   -1.4019 H   0  0  0  0  0  0  0  0  0  0  0  0
   -0.1527    1.0573    0.3200 C   0  0  0  0  0  0  0  0  0  0  0  0
   -1.1732    1.6816    0.0509 O   0  0  0  0  0  0  0  0  0  0  0  0
    0.7088    1.5502    1.2833 N   0  0  0  0  0  0  0  0  0  0  0  0
    1.5707    1.0388    1.4460 H   0  0  0  0  0  0  0  0  0  0  0  0
    0.5809    2.8910    1.8411 C   0  0  0  0  0  0  0  0  0  0  0  0
   -0.3922    3.0135    2.3283 H   0  0  0  0  0  0  0  0  0  0  0  0
    1.3630    3.0668    2.5857 H   0  0  0  0  0  0  0  0  0  0  0  0
    0.6774    3.6440    1.0516 H   0  0  0  0  0  0  0  0  0  0  0  0
  1  2  1  0  0  0  0
  2  3  1  0  0  0  0
  2  4  1  0  0  0  0
  2  5  1  0  0  0  0
  5  6  2  0  0  0  0
  5  7  1  0  0  0  0
  7  8  1  0  0  0  0
  7  9  1  0  0  0  0
  9 10  1  0  0  0  0
  9 11  1  0  0  0  0
  9 19  1  0  0  0  0
 11 12  1  0  0  0  0
 11 13  1  0  0  0  0
 11 14  1  0  0  0  0
 14 15  2  0  0  0  0
 14 16  1  0  0  0  0
 16 17  1  0  0  0  0
 16 18  1  0  0  0  0
 19 20  2  0  0  0  0
 19 21  1  0  0  0  0
 21 22  1  0  0  0  0
 21 23  1  0  0  0  0
 23 24  1  0  0  0  0
 23 25  1  0  0  0  0
 23 26  1  0  0  0  0
M  END
$$$$

  -OEChem-04042215573D

 26 25  0     1  0  0  0  0  0999 V2000
   -2.9119   -3.8754    0.5801 H   0  0  0  0  0  0  0  0  0  0  0  0
   -2.9147   -2.8486    0.2038 C   0  0  0  0  0  0  0  0  0  0  0  0
   -3.4942   -2.2244    0.8884 H   0  0  0  0  0  0  0  0  0  0  0  0
   -3.3893   -2.8348   -0.7804 H   0  0  0  0  0  0  0  0  0  0  0  0
   -1.4947   -2.3248    0.1007 C   0  0  0  0  0  0  0  0  0  0  0  0
   -0.5503   -3.0522    0.3685 O   0  0  0  0  0  0  0  0  0  0  0  0
   -1.2669   -1.0271   -0.3053 N   0  0  0  0  0  0  0  0  0  0  0  0
   -2.0790   -0.4164   -0.4012 H   0  0  0  0  0  0  0  0  0  0  0  0
    0.0431   -0.3647   -0.2503 C   0  0  1  0  0  0  0  0  0  0  0  0
    0.7176   -0.8957    0.4302 H   0  0  0  0  0  0  0  0  0  0  0  0
    0.6485   -0.3822   -1.6665 C   0  0  0  0  0  0  0  0  0  0  0  0
    0.9575   -1.4001   -1.9172 H   0  0  0  0  0  0  0  0  0  0  0  0
   -0.1167   -0.0816   -2.3882 H   0  0  0  0  0  0  0  0  0  0  0  0
    1.8263    0.5693   -1.8310 C   0  0  0  0  0  0  0  0  0  0  0  0
    1.7025    1.7735   -1.9243 O   0  0  0  0  0  0  0  0  0  0  0  0
    3.1126    0.1134   -1.7826 N   0  0  0  0  0  0  0  0  0  0  0  0
    3.8257    0.7848   -2.0547 H   0  0  0  0  0  0  0  0  0  0  0  0
    3.2816   -0.8805   -1.9014 H   0  0  0  0  0  0  0  0  0  0  0  0
   -0.1558    1.0558    0.3314 C   0  0  0  0  0  0  0  0  0  0  0  0
   -1.1879    1.6690    0.0776 O   0  0  0  0  0  0  0  0  0  0  0  0
    0.7017    1.5471    1.2994 N   0  0  0  0  0  0  0  0  0  0  0  0
    1.5815    1.0578    1.4304 H   0  0  0  0  0  0  0  0  0  0  0  0
    0.5691    2.8889    1.8537 C   0  0  0  0  0  0  0  0  0  0  0  0
   -0.4072    3.0123    2.3344 H   0  0  0  0  0  0  0  0  0  0  0  0
    1.3461    3.0663    2.6033 H   0  0  0  0  0  0  0  0  0  0  0  0
    0.6706    3.6402    1.0632 H   0  0  0  0  0  0  0  0  0  0  0  0
  1  2  1  0  0  0  0
  2  3  1  0  0  0  0
  2  4  1  0  0  0  0
  2  5  1  0  0  0  0
  5  6  2  0  0  0  0
  5  7  1  0  0  0  0
  7  8  1  0  0  0  0
  7  9  1  0  0  0  0
  9 10  1  0  0  0  0
  9 11  1  0  0  0  0
  9 19  1  0  0  0  0
 11 12  1  0  0  0  0
 11 13  1  0  0  0  0
 11 14  1  0  0  0  0
 14 15  2  0  0  0  0
 14 16  1  0  0  0  0
 16 17  1  0  0  0  0
 16 18  1  0  0  0  0
 19 20  2  0  0  0  0
 19 21  1  0  0  0  0
 21 22  1  0  0  0  0
 21 23  1  0  0  0  0
 23 24  1  0  0  0  0
 23 25  1  0  0  0  0
 23 26  1  0  0  0  0
M  END
$$$$

  -OEChem-04042215573D

 26 25  0     1  0  0  0  0  0999 V2000
   -2.9120   -3.8613    0.5784 H   0  0  0  0  0  0  0  0  0  0  0  0
   -2.9109   -2.8326    0.2075 C   0  0  0  0  0  0  0  0  0  0  0  0
   -3.4789   -2.2078    0.9011 H   0  0  0  0  0  0  0  0  0  0  0  0
   -3.3949   -2.8100   -0.7719 H   0  0  0  0  0  0  0  0  0  0  0  0
   -1.4881   -2.3186    0.0939 C   0  0  0  0  0  0  0  0  0  0  0  0
   -0.5464   -3.0544    0.3477 O   0  0  0  0  0  0  0  0  0  0  0  0
   -1.2553   -1.0198   -0.3054 N   0  0  0  0  0  0  0  0  0  0  0  0
   -2.0650   -0.4035   -0.3856 H   0  0  0  0  0  0  0  0  0  0  0  0
    0.0561   -0.3606   -0.2390 C   0  0  1  0  0  0  0  0  0  0  0  0
    0.7270   -0.8921    0.4446 H   0  0  0  0  0  0  0  0  0  0  0  0
    0.6639   -0.3824   -1.6562 C   0  0  0  0  0  0  0  0  0  0  0  0
    0.9616   -1.4061   -1.8978 H   0  0  0  0  0  0  0  0  0  0  0  0
   -0.1031   -0.0833   -2.3765 H   0  0  0  0  0  0  0  0  0  0  0  0
    1.8511    0.5546   -1.8553 C   0  0  0  0  0  0  0  0  0  0  0  0
    1.7970    1.7587   -1.7079 O   0  0  0  0  0  0  0  0  0  0  0  0
    3.0912    0.0639   -2.1478 N   0  0  0  0  0  0  0  0  0  0  0  0
    3.7864    0.7540   -2.4189 H   0  0  0  0  0  0  0  0  0  0  0  0
    3.1746   -0.8951   -2.4694 H   0  0  0  0  0  0  0  0  0  0  0  0
   -0.1601    1.0556    0.3487 C   0  0  0  0  0  0  0  0  0  0  0  0
   -1.1963    1.6605    0.0883 O   0  0  0  0  0  0  0  0  0  0  0  0
    0.6825    1.5485    1.3287 N   0  0  0  0  0  0  0  0  0  0  0  0
    1.5782    1.0834    1.4388 H   0  0  0  0  0  0  0  0  0  0  0  0
    0.5327    2.8882    1.8829 C   0  0  0  0  0  0  0  0  0  0  0  0
   -0.4524    3.0045    2.3467 H   0  0  0  0  0  0  0  0  0  0  0  0
    1.2955    3.0687    2.6462 H   0  0  0  0  0  0  0  0  0  0  0  0
    0.6435    3.6414    1.0954 H   0  0  0  0  0  0  0  0  0  0  0  0
  1  2  1  0  0  0  0
  2  3  1  0  0  0  0
  2  4  1  0  0  0  0
  2  5  1  0  0  0  0
  5  6  2  0  0  0  0
  5  7  1  0  0  0  0
  7  8  1  0  0  0  0
  7  9  1  0  0  0  0
  9 10  1  0  0  0  0
  9 11  1  0  0  0  0
  9 19  1  0  0  0  0
 11 12  1  0  0  0  0
 11 13  1  0  0  0  0
 11 14  1  0  0  0  0
 14 15  2  0  0  0  0
 14 16  1  0  0  0  0
 16 17  1  0  0  0  0
 16 18  1  0  0  0  0
 19 20  2  0  0  0  0
 19 21  1  0  0  0  0
 21 22  1  0  0  0  0
 21 23  1  0  0  0  0
 23 24  1  0  0  0  0
 23 25  1  0  0  0  0
 23 26  1  0  0  0  0
M  END
$$$$

  -OEChem-04042215573D

 26 25  0     1  0  0  0  0  0999 V2000
   -2.9127   -3.8545    0.5618 H   0  0  0  0  0  0  0  0  0  0  0  0
   -2.9070   -2.8236    0.1971 C   0  0  0  0  0  0  0  0  0  0  0  0
   -3.4790   -2.2017    0.8900 H   0  0  0  0  0  0  0  0  0  0  0  0
   -3.3835   -2.7945   -0.7858 H   0  0  0  0  0  0  0  0  0  0  0  0
   -1.4822   -2.3122    0.0972 C   0  0  0  0  0  0  0  0  0  0  0  0
   -0.5449   -3.0513    0.3568 O   0  0  0  0  0  0  0  0  0  0  0  0
   -1.2428   -1.0134   -0.2981 N   0  0  0  0  0  0  0  0  0  0  0  0
   -2.0499   -0.3938   -0.3787 H   0  0  0  0  0  0  0  0  0  0  0  0
    0.0708   -0.3585   -0.2208 C   0  0  1  0  0  0  0  0  0  0  0  0
    0.7387   -0.8902    0.4655 H   0  0  0  0  0  0  0  0  0  0  0  0
    0.6798   -0.3846   -1.6396 C   0  0  0  0  0  0  0  0  0  0  0  0
    0.9699   -1.4129   -1.8713 H   0  0  0  0  0  0  0  0  0  0  0  0
   -0.0889   -0.0887   -2.3590 H   0  0  0  0  0  0  0  0  0  0  0  0
    1.8755    0.5370   -1.8696 C   0  0  0  0  0  0  0  0  0  0  0  0
    1.9372    1.6924   -1.5003 O   0  0  0  0  0  0  0  0  0  0  0  0
    2.9960    0.0805   -2.5021 N   0  0  0  0  0  0  0  0  0  0  0  0
    3.6761    0.7879   -2.7658 H   0  0  0  0  0  0  0  0  0  0  0  0
    2.9522   -0.7988   -3.0066 H   0  0  0  0  0  0  0  0  0  0  0  0
   -0.1599    1.0554    0.3694 C   0  0  0  0  0  0  0  0  0  0  0  0
   -1.1947    1.6573    0.0949 O   0  0  0  0  0  0  0  0  0  0  0  0
    0.6684    1.5510    1.3603 N   0  0  0  0  0  0  0  0  0  0  0  0
    1.5780    1.1085    1.4499 H   0  0  0  0  0  0  0  0  0  0  0  0
    0.5062    2.8914    1.9099 C   0  0  0  0  0  0  0  0  0  0  0  0
   -0.4877    3.0076    2.3545 H   0  0  0  0  0  0  0  0  0  0  0  0
    1.2536    3.0732    2.6880 H   0  0  0  0  0  0  0  0  0  0  0  0
    0.6317    3.6436    1.1239 H   0  0  0  0  0  0  0  0  0  0  0  0
  1  2  1  0  0  0  0
  2  3  1  0  0  0  0
  2  4  1  0  0  0  0
  2  5  1  0  0  0  0
  5  6  2  0  0  0  0
  5  7  1  0  0  0  0
  7  8  1  0  0  0  0
  7  9  1  0  0  0  0
  9 10  1  0  0  0  0
  9 11  1  0  0  0  0
  9 19  1  0  0  0  0
 11 12  1  0  0  0  0
 11 13  1  0  0  0  0
 11 14  1  0  0  0  0
 14 15  2  0  0  0  0
 14 16  1  0  0  0  0
 16 17  1  0  0  0  0
 16 18  1  0  0  0  0
 19 20  2  0  0  0  0
 19 21  1  0  0  0  0
 21 22  1  0  0  0  0
 21 23  1  0  0  0  0
 23 24  1  0  0  0  0
 23 25  1  0  0  0  0
 23 26  1  0  0  0  0
M  END
$$$$

  -OEChem-04042215573D

 26 25  0     1  0  0  0  0  0999 V2000
   -2.9235   -3.8458    0.5542 H   0  0  0  0  0  0  0  0  0  0  0  0
   -2.9091   -2.8133    0.1940 C   0  0  0  0  0  0  0  0  0  0  0  0
   -3.4785   -2.1903    0.8880 H   0  0  0  0  0  0  0  0  0  0  0  0
   -3.3821   -2.7761   -0.7902 H   0  0  0  0  0  0  0  0  0  0  0  0
   -1.4804   -2.3117    0.1005 C   0  0  0  0  0  0  0  0  0  0  0  0
   -0.5490   -3.0566    0.3642 O   0  0  0  0  0  0  0  0  0  0  0  0
   -1.2321   -1.0145   -0.2944 N   0  0  0  0  0  0  0  0  0  0  0  0
   -2.0355   -0.3906   -0.3776 H   0  0  0  0  0  0  0  0  0  0  0  0
    0.0847   -0.3666   -0.2090 C   0  0  1  0  0  0  0  0  0  0  0  0
    0.7496   -0.9000    0.4790 H   0  0  0  0  0  0  0  0  0  0  0  0
    0.6945   -0.3897   -1.6288 C   0  0  0  0  0  0  0  0  0  0  0  0
    0.9804   -1.4194   -1.8595 H   0  0  0  0  0  0  0  0  0  0  0  0
   -0.0752   -0.0904   -2.3457 H   0  0  0  0  0  0  0  0  0  0  0  0
    1.8979    0.5203   -1.8724 C   0  0  0  0  0  0  0  0  0  0  0  0
    2.1018    1.5740   -1.3028 O   0  0  0  0  0  0  0  0  0  0  0  0
    2.8476    0.1813   -2.7926 N   0  0  0  0  0  0  0  0  0  0  0  0
    3.5160    0.9086   -3.0311 H   0  0  0  0  0  0  0  0  0  0  0  0
    2.6542   -0.5699   -3.4468 H   0  0  0  0  0  0  0  0  0  0  0  0
   -0.1551    1.0470    0.3796 C   0  0  0  0  0  0  0  0  0  0  0  0
   -1.1836    1.6511    0.0852 O   0  0  0  0  0  0  0  0  0  0  0  0
    0.6614    1.5451    1.3786 N   0  0  0  0  0  0  0  0  0  0  0  0
    1.5834    1.1237    1.4462 H   0  0  0  0  0  0  0  0  0  0  0  0
    0.4912    2.8875    1.9201 C   0  0  0  0  0  0  0  0  0  0  0  0
   -0.5094    3.0060    2.3491 H   0  0  0  0  0  0  0  0  0  0  0  0
    1.2268    3.0722    2.7086 H   0  0  0  0  0  0  0  0  0  0  0  0
    0.6288    3.6366    1.1331 H   0  0  0  0  0  0  0  0  0  0  0  0
  1  2  1  0  0  0  0
  2  3  1  0  0  0  0
  2  4  1  0  0  0  0
  2  5  1  0  0  0  0
  5  6  2  0  0  0  0
  5  7  1  0  0  0  0
  7  8  1  0  0  0  0
  7  9  1  0  0  0  0
  9 10  1  0  0  0  0
  9 11  1  0  0  0  0
  9 19  1  0  0  0  0
 11 12  1  0  0  0  0
 11 13  1  0  0  0  0
 11 14  1  0  0  0  0
 14 15  2  0  0  0  0
 14 16  1  0  0  0  0
 16 17  1  0  0  0  0
 16 18  1  0  0  0  0
 19 20  2  0  0  0  0
 19 21  1  0  0  0  0
 21 22  1  0  0  0  0
 21 23  1  0  0  0  0
 23 24  1  0  0  0  0
 23 25  1  0  0  0  0
 23 26  1  0  0  0  0
M  END
$$$$

  -OEChem-04042215573D

 26 25  0     1  0  0  0  0  0999 V2000
   -2.9350   -3.8399    0.5633 H   0  0  0  0  0  0  0  0  0  0  0  0
   -2.9147   -2.8088    0.1992 C   0  0  0  0  0  0  0  0  0  0  0  0
   -3.4801   -2.1800    0.8912 H   0  0  0  0  0  0  0  0  0  0  0  0
   -3.3880   -2.7725   -0.7849 H   0  0  0  0  0  0  0  0  0  0  0  0
   -1.4831   -2.3158    0.1033 C   0  0  0  0  0  0  0  0  0  0  0  0
   -0.5565   -3.0652    0.3699 O   0  0  0  0  0  0  0  0  0  0  0  0
   -1.2278   -1.0207   -0.2946 N   0  0  0  0  0  0  0  0  0  0  0  0
   -2.0282   -0.3930   -0.3782 H   0  0  0  0  0  0  0  0  0  0  0  0
    0.0923   -0.3793   -0.2080 C   0  0  1  0  0  0  0  0  0  0  0  0
    0.7581   -0.9138    0.4784 H   0  0  0  0  0  0  0  0  0  0  0  0
    0.6964   -0.3960   -1.6302 C   0  0  0  0  0  0  0  0  0  0  0  0
    0.9797   -1.4245   -1.8694 H   0  0  0  0  0  0  0  0  0  0  0  0
   -0.0765   -0.0897   -2.3407 H   0  0  0  0  0  0  0  0  0  0  0  0
    1.9035    0.5087   -1.8747 C   0  0  0  0  0  0  0  0  0  0  0  0
    2.2585    1.4097   -1.1397 O   0  0  0  0  0  0  0  0  0  0  0  0
    2.6683    0.3538   -2.9947 N   0  0  0  0  0  0  0  0  0  0  0  0
    3.3356    1.0962   -3.1850 H   0  0  0  0  0  0  0  0  0  0  0  0
    2.3261   -0.2325   -3.7487 H   0  0  0  0  0  0  0  0  0  0  0  0
   -0.1479    1.0364    0.3771 C   0  0  0  0  0  0  0  0  0  0  0  0
   -1.1670    1.6480    0.0650 O   0  0  0  0  0  0  0  0  0  0  0  0
    0.6641    1.5372    1.3779 N   0  0  0  0  0  0  0  0  0  0  0  0
    1.5936    1.1281    1.4281 H   0  0  0  0  0  0  0  0  0  0  0  0
    0.4930    2.8816    1.9139 C   0  0  0  0  0  0  0  0  0  0  0  0
   -0.5102    3.0036    2.3354 H   0  0  0  0  0  0  0  0  0  0  0  0
    1.2233    3.0667    2.7074 H   0  0  0  0  0  0  0  0  0  0  0  0
    0.6385    3.6282    1.1260 H   0  0  0  0  0  0  0  0  0  0  0  0
  1  2  1  0  0  0  0
  2  3  1  0  0  0  0
  2  4  1  0  0  0  0
  2  5  1  0  0  0  0
  5  6  2  0  0  0  0
  5  7  1  0  0  0  0
  7  8  1  0  0  0  0
  7  9  1  0  0  0  0
  9 10  1  0  0  0  0
  9 11  1  0  0  0  0
  9 19  1  0  0  0  0
 11 12  1  0  0  0  0
 11 13  1  0  0  0  0
 11 14  1  0  0  0  0
 14 15  2  0  0  0  0
 14 16  1  0  0  0  0
 16 17  1  0  0  0  0
 16 18  1  0  0  0  0
 19 20  2  0  0  0  0
 19 21  1  0  0  0  0
 21 22  1  0  0  0  0
 21 23  1  0  0  0  0
 23 24  1  0  0  0  0
 23 25  1  0  0  0  0
 23 26  1  0  0  0  0
M  END
$$$$

  -OEChem-04042215573D

 26 25  0     1  0  0  0  0  0999 V2000
   -2.9457   -3.8430    0.5832 H   0  0  0  0  0  0  0  0  0  0  0  0
   -2.9226   -2.8149    0.2111 C   0  0  0  0  0  0  0  0  0  0  0  0
   -3.4862   -2.1796    0.8988 H   0  0  0  0  0  0  0  0  0  0  0  0
   -3.3967   -2.7849   -0.7728 H   0  0  0  0  0  0  0  0  0  0  0  0
   -1.4896   -2.3267    0.1100 C   0  0  0  0  0  0  0  0  0  0  0  0
   -0.5651   -3.0789    0.3755 O   0  0  0  0  0  0  0  0  0  0  0  0
   -1.2318   -1.0336   -0.2928 N   0  0  0  0  0  0  0  0  0  0  0  0
   -2.0312   -0.4046   -0.3741 H   0  0  0  0  0  0  0  0  0  0  0  0
    0.0899   -0.3944   -0.2146 C   0  0  1  0  0  0  0  0  0  0  0  0
    0.7615   -0.9302    0.4655 H   0  0  0  0  0  0  0  0  0  0  0  0
    0.6835   -0.3999   -1.6403 C   0  0  0  0  0  0  0  0  0  0  0  0
    0.9686   -1.4244   -1.8944 H   0  0  0  0  0  0  0  0  0  0  0  0
   -0.0945   -0.0857   -2.3416 H   0  0  0  0  0  0  0  0  0  0  0  0
    1.8885    0.5100   -1.8724 C   0  0  0  0  0  0  0  0  0  0  0  0
    2.3907    1.2150   -1.0172 O   0  0  0  0  0  0  0  0  0  0  0  0
    2.4774    0.5860   -3.1017 N   0  0  0  0  0  0  0  0  0  0  0  0
    3.1564    1.3315   -3.2273 H   0  0  0  0  0  0  0  0  0  0  0  0
    2.0000    0.1879   -3.9036 H   0  0  0  0  0  0  0  0  0  0  0  0
   -0.1419    1.0241    0.3669 C   0  0  0  0  0  0  0  0  0  0  0  0
   -1.1497    1.6458    0.0393 O   0  0  0  0  0  0  0  0  0  0  0  0
    0.6747    1.5293    1.3614 N   0  0  0  0  0  0  0  0  0  0  0  0
    1.6057    1.1201    1.4019 H   0  0  0  0  0  0  0  0  0  0  0  0
    0.5118    2.8786    1.8879 C   0  0  0  0  0  0  0  0  0  0  0  0
   -0.4905    3.0099    2.3091 H   0  0  0  0  0  0  0  0  0  0  0  0
    1.2434    3.0649    2.6799 H   0  0  0  0  0  0  0  0  0  0  0  0
    0.6615    3.6187    1.0949 H   0  0  0  0  0  0  0  0  0  0  0  0
  1  2  1  0  0  0  0
  2  3  1  0  0  0  0
  2  4  1  0  0  0  0
  2  5  1  0  0  0  0
  5  6  2  0  0  0  0
  5  7  1  0  0  0  0
  7  8  1  0  0  0  0
  7  9  1  0  0  0  0
  9 10  1  0  0  0  0
  9 11  1  0  0  0  0
  9 19  1  0  0  0  0
 11 12  1  0  0  0  0
 11 13  1  0  0  0  0
 11 14  1  0  0  0  0
 14 15  2  0  0  0  0
 14 16  1  0  0  0  0
 16 17  1  0  0  0  0
 16 18  1  0  0  0  0
 19 20  2  0  0  0  0
 19 21  1  0  0  0  0
 21 22  1  0  0  0  0
 21 23  1  0  0  0  0
 23 24  1  0  0  0  0
 23 25  1  0  0  0  0
 23 26  1  0  0  0  0
M  END
$$$$

  -OEChem-04042215573D

 26 25  0     1  0  0  0  0  0999 V2000
   -2.9478   -3.8595    0.6036 H   0  0  0  0  0  0  0  0  0  0  0  0
   -2.9293   -2.8332    0.2265 C   0  0  0  0  0  0  0  0  0  0  0  0
   -3.4932   -2.1963    0.9124 H   0  0  0  0  0  0  0  0  0  0  0  0
   -3.4059   -2.8095   -0.7563 H   0  0  0  0  0  0  0  0  0  0  0  0
   -1.4980   -2.3411    0.1192 C   0  0  0  0  0  0  0  0  0  0  0  0
   -0.5710   -3.0885    0.3889 O   0  0  0  0  0  0  0  0  0  0  0  0
   -1.2455   -1.0496   -0.2926 N   0  0  0  0  0  0  0  0  0  0  0  0
   -2.0474   -0.4255   -0.3828 H   0  0  0  0  0  0  0  0  0  0  0  0
    0.0751   -0.4069   -0.2270 C   0  0  1  0  0  0  0  0  0  0  0  0
    0.7523   -0.9414    0.4489 H   0  0  0  0  0  0  0  0  0  0  0  0
    0.6640   -0.4055   -1.6528 C   0  0  0  0  0  0  0  0  0  0  0  0
    0.9595   -1.4246   -1.9164 H   0  0  0  0  0  0  0  0  0  0  0  0
   -0.1158   -0.0910   -2.3519 H   0  0  0  0  0  0  0  0  0  0  0  0
    1.8615    0.5188   -1.8568 C   0  0  0  0  0  0  0  0  0  0  0  0
    2.4975    1.0043   -0.9385 O   0  0  0  0  0  0  0  0  0  0  0  0
    2.2835    0.8605   -3.1092 N   0  0  0  0  0  0  0  0  0  0  0  0
    2.9674    1.6100   -3.1617 H   0  0  0  0  0  0  0  0  0  0  0  0
    1.6845    0.6587   -3.9029 H   0  0  0  0  0  0  0  0  0  0  0  0
   -0.1409    1.0160    0.3465 C   0  0  0  0  0  0  0  0  0  0  0  0
   -1.1351    1.6516    0.0060 O   0  0  0  0  0  0  0  0  0  0  0  0
    0.6889    1.5226    1.3285 N   0  0  0  0  0  0  0  0  0  0  0  0
    1.6138    1.0977    1.3704 H   0  0  0  0  0  0  0  0  0  0  0  0
    0.5465    2.8785    1.8440 C   0  0  0  0  0  0  0  0  0  0  0  0
   -0.4505    3.0246    2.2727 H   0  0  0  0  0  0  0  0  0  0  0  0
    1.2871    3.0631    2.6280 H   0  0  0  0  0  0  0  0  0  0  0  0
    0.6971    3.6103    1.0435 H   0  0  0  0  0  0  0  0  0  0  0  0
  1  2  1  0  0  0  0
  2  3  1  0  0  0  0
  2  4  1  0  0  0  0
  2  5  1  0  0  0  0
  5  6  2  0  0  0  0
  5  7  1  0  0  0  0
  7  8  1  0  0  0  0
  7  9  1  0  0  0  0
  9 10  1  0  0  0  0
  9 11  1  0  0  0  0
  9 19  1  0  0  0  0
 11 12  1  0  0  0  0
 11 13  1  0  0  0  0
 11 14  1  0  0  0  0
 14 15  2  0  0  0  0
 14 16  1  0  0  0  0
 16 17  1  0  0  0  0
 16 18  1  0  0  0  0
 19 20  2  0  0  0  0
 19 21  1  0  0  0  0
 21 22  1  0  0  0  0
 21 23  1  0  0  0  0
 23 24  1  0  0  0  0
 23 25  1  0  0  0  0
 23 26  1  0  0  0  0
M  END
$$$$

  -OEChem-04042215573D

 26 25  0     1  0  0  0  0  0999 V2000
   -2.9450   -3.8824    0.6221 H   0  0  0  0  0  0  0  0  0  0  0  0
   -2.9328   -2.8598    0.2344 C   0  0  0  0  0  0  0  0  0  0  0  0
   -3.5080   -2.2209    0.9088 H   0  0  0  0  0  0  0  0  0  0  0  0
   -3.4013   -2.8511   -0.7526 H   0  0  0  0  0  0  0  0  0  0  0  0
   -1.5055   -2.3553    0.1334 C   0  0  0  0  0  0  0  0  0  0  0  0
   -0.5748   -3.0905    0.4224 O   0  0  0  0  0  0  0  0  0  0  0  0
   -1.2627   -1.0662   -0.2919 N   0  0  0  0  0  0  0  0  0  0  0  0
   -2.0700   -0.4526   -0.4000 H   0  0  0  0  0  0  0  0  0  0  0  0
    0.0538   -0.4143   -0.2422 C   0  0  1  0  0  0  0  0  0  0  0  0
    0.7356   -0.9432    0.4335 H   0  0  0  0  0  0  0  0  0  0  0  0
    0.6449   -0.4165   -1.6652 C   0  0  0  0  0  0  0  0  0  0  0  0
    0.9594   -1.4305   -1.9266 H   0  0  0  0  0  0  0  0  0  0  0  0
   -0.1328   -0.1137   -2.3714 H   0  0  0  0  0  0  0  0  0  0  0  0
    1.8302    0.5284   -1.8350 C   0  0  0  0  0  0  0  0  0  0  0  0
    2.5880    0.7944   -0.9184 O   0  0  0  0  0  0  0  0  0  0  0  0
    2.0849    1.1539   -3.0214 N   0  0  0  0  0  0  0  0  0  0  0  0
    2.7717    1.9020   -2.9921 H   0  0  0  0  0  0  0  0  0  0  0  0
    1.3713    1.1461   -3.7426 H   0  0  0  0  0  0  0  0  0  0  0  0
   -0.1425    1.0149    0.3171 C   0  0  0  0  0  0  0  0  0  0  0  0
   -1.1216    1.6657   -0.0358 O   0  0  0  0  0  0  0  0  0  0  0  0
    0.7064    1.5217    1.2818 N   0  0  0  0  0  0  0  0  0  0  0  0
    1.6168    1.0675    1.3417 H   0  0  0  0  0  0  0  0  0  0  0  0
    0.5910    2.8825    1.7904 C   0  0  0  0  0  0  0  0  0  0  0  0
   -0.3957    3.0433    2.2372 H   0  0  0  0  0  0  0  0  0  0  0  0
    1.3491    3.0625    2.5587 H   0  0  0  0  0  0  0  0  0  0  0  0
    0.7352    3.6073    0.9824 H   0  0  0  0  0  0  0  0  0  0  0  0
  1  2  1  0  0  0  0
  2  3  1  0  0  0  0
  2  4  1  0  0  0  0
  2  5  1  0  0  0  0
  5  6  2  0  0  0  0
  5  7  1  0  0  0  0
  7  8  1  0  0  0  0
  7  9  1  0  0  0  0
  9 10  1  0  0  0  0
  9 11  1  0  0  0  0
  9 19  1  0  0  0  0
 11 12  1  0  0  0  0
 11 13  1  0  0  0  0
 11 14  1  0  0  0  0
 14 15  2  0  0  0  0
 14 16  1  0  0  0  0
 16 17  1  0  0  0  0
 16 18  1  0  0  0  0
 19 20  2  0  0  0  0
 19 21  1  0  0  0  0
 21 22  1  0  0  0  0
 21 23  1  0  0  0  0
 23 24  1  0  0  0  0
 23 25  1  0  0  0  0
 23 26  1  0  0  0  0
M  END
$$$$

  -OEChem-04042215573D

 26 25  0     1  0  0  0  0  0999 V2000
   -2.9401   -3.9113    0.6164 H   0  0  0  0  0  0  0  0  0  0  0  0
   -2.9334   -2.8852    0.2381 C   0  0  0  0  0  0  0  0  0  0  0  0
   -3.5096   -2.2549    0.9200 H   0  0  0  0  0  0  0  0  0  0  0  0
   -3.4047   -2.8697   -0.7476 H   0  0  0  0  0  0  0  0  0  0  0  0
   -1.5087   -2.3731    0.1387 C   0  0  0  0  0  0  0  0  0  0  0  0
   -0.5753   -3.0969    0.4463 O   0  0  0  0  0  0  0  0  0  0  0  0
   -1.2738   -1.0863   -0.2985 N   0  0  0  0  0  0  0  0  0  0  0  0
   -2.0863   -0.4852   -0.4317 H   0  0  0  0  0  0  0  0  0  0  0  0
    0.0372   -0.4233   -0.2590 C   0  0  1  0  0  0  0  0  0  0  0  0
    0.7210   -0.9466    0.4197 H   0  0  0  0  0  0  0  0  0  0  0  0
    0.6335   -0.4325   -1.6777 C   0  0  0  0  0  0  0  0  0  0  0  0
    0.9696   -1.4417   -1.9306 H   0  0  0  0  0  0  0  0  0  0  0  0
   -0.1392   -0.1458   -2.3960 H   0  0  0  0  0  0  0  0  0  0  0  0
    1.8040    0.5333   -1.8138 C   0  0  0  0  0  0  0  0  0  0  0  0
    2.6781    0.5957   -0.9675 O   0  0  0  0  0  0  0  0  0  0  0  0
    1.8773    1.4471   -2.8254 N   0  0  0  0  0  0  0  0  0  0  0  0
    2.5637    2.1862   -2.7035 H   0  0  0  0  0  0  0  0  0  0  0  0
    1.0495    1.6148   -3.3882 H   0  0  0  0  0  0  0  0  0  0  0  0
   -0.1417    1.0124    0.2843 C   0  0  0  0  0  0  0  0  0  0  0  0
   -1.0943    1.6833   -0.1001 O   0  0  0  0  0  0  0  0  0  0  0  0
    0.7208    1.5224    1.2352 N   0  0  0  0  0  0  0  0  0  0  0  0
    1.6041    1.0263    1.3463 H   0  0  0  0  0  0  0  0  0  0  0  0
    0.6386    2.8951    1.7178 C   0  0  0  0  0  0  0  0  0  0  0  0
   -0.3441    3.0884    2.1607 H   0  0  0  0  0  0  0  0  0  0  0  0
    1.4002    3.0714    2.4833 H   0  0  0  0  0  0  0  0  0  0  0  0
    0.8011    3.6003    0.8960 H   0  0  0  0  0  0  0  0  0  0  0  0
  1  2  1  0  0  0  0
  2  3  1  0  0  0  0
  2  4  1  0  0  0  0
  2  5  1  0  0  0  0
  5  6  2  0  0  0  0
  5  7  1  0  0  0  0
  7  8  1  0  0  0  0
  7  9  1  0  0  0  0
  9 10  1  0  0  0  0
  9 11  1  0  0  0  0
  9 19  1  0  0  0  0
 11 12  1  0  0  0  0
 11 13  1  0  0  0  0
 11 14  1  0  0  0  0
 14 15  2  0  0  0  0
 14 16  1  0  0  0  0
 16 17  1  0  0  0  0
 16 18  1  0  0  0  0
 19 20  2  0  0  0  0
 19 21  1  0  0  0  0
 21 22  1  0  0  0  0
 21 23  1  0  0  0  0
 23 24  1  0  0  0  0
 23 25  1  0  0  0  0
 23 26  1  0  0  0  0
M  END
$$$$

  -OEChem-04042215573D

 26 25  0     1  0  0  0  0  0999 V2000
   -2.9205   -3.9419    0.5942 H   0  0  0  0  0  0  0  0  0  0  0  0
   -2.9252   -2.9149    0.2182 C   0  0  0  0  0  0  0  0  0  0  0  0
   -3.5262   -2.2972    0.8901 H   0  0  0  0  0  0  0  0  0  0  0  0
   -3.3773   -2.9061   -0.7765 H   0  0  0  0  0  0  0  0  0  0  0  0
   -1.5079   -2.3776    0.1481 C   0  0  0  0  0  0  0  0  0  0  0  0
   -0.5705   -3.0812    0.4880 O   0  0  0  0  0  0  0  0  0  0  0  0
   -1.2824   -1.0914   -0.2971 N   0  0  0  0  0  0  0  0  0  0  0  0
   -2.0993   -0.5070   -0.4690 H   0  0  0  0  0  0  0  0  0  0  0  0
    0.0239   -0.4183   -0.2665 C   0  0  1  0  0  0  0  0  0  0  0  0
    0.7142   -0.9366    0.4095 H   0  0  0  0  0  0  0  0  0  0  0  0
    0.6149   -0.4337   -1.6863 C   0  0  0  0  0  0  0  0  0  0  0  0
    0.9637   -1.4404   -1.9323 H   0  0  0  0  0  0  0  0  0  0  0  0
   -0.1574   -0.1599   -2.4100 H   0  0  0  0  0  0  0  0  0  0  0  0
    1.7734    0.5457   -1.8139 C   0  0  0  0  0  0  0  0  0  0  0  0
    2.7676    0.4379   -1.1204 O   0  0  0  0  0  0  0  0  0  0  0  0
    1.6835    1.6779   -2.5711 N   0  0  0  0  0  0  0  0  0  0  0  0
    2.3907    2.3834   -2.3864 H   0  0  0  0  0  0  0  0  0  0  0  0
    0.7630    1.9645   -2.8909 H   0  0  0  0  0  0  0  0  0  0  0  0
   -0.1432    1.0205    0.2666 C   0  0  0  0  0  0  0  0  0  0  0  0
   -1.0609    1.7143   -0.1581 O   0  0  0  0  0  0  0  0  0  0  0  0
    0.7308    1.5308    1.2068 N   0  0  0  0  0  0  0  0  0  0  0  0
    1.5720    0.9868    1.3912 H   0  0  0  0  0  0  0  0  0  0  0  0
    0.6853    2.9137    1.6634 C   0  0  0  0  0  0  0  0  0  0  0  0
   -0.2899    3.1391    2.1075 H   0  0  0  0  0  0  0  0  0  0  0  0
    1.4559    3.0864    2.4207 H   0  0  0  0  0  0  0  0  0  0  0  0
    0.8599    3.5989    0.8275 H   0  0  0  0  0  0  0  0  0  0  0  0
  1  2  1  0  0  0  0
  2  3  1  0  0  0  0
  2  4  1  0  0  0  0
  2  5  1  0  0  0  0
  5  6  2  0  0  0  0
  5  7  1  0  0  0  0
  7  8  1  0  0  0  0
  7  9  1  0  0  0  0
  9 10  1  0  0  0  0
  9 11  1  0  0  0  0
  9 19  1  0  0  0  0
 11 12  1  0  0  0  0
 11 13  1  0  0  0  0
 11 14  1  0  0  0  0
 14 15  2  0  0  0  0
 14 16  1  0  0  0  0
 16 17  1  0  0  0  0
 16 18  1  0  0  0  0
 19 20  2  0  0  0  0
 19 21  1  0  0  0  0
 21 22  1  0  0  0  0
 21 23  1  0  0  0  0
 23 24  1  0  0  0  0
 23 25  1  0  0  0  0
 23 26  1  0  0  0  0
M  END
$$$$

  -OEChem-04042215573D

 26 25  0     1  0  0  0  0  0999 V2000
   -2.9004   -3.9570    0.5693 H   0  0  0  0  0  0  0  0  0  0  0  0
   -2.9106   -2.9300    0.1937 C   0  0  0  0  0  0  0  0  0  0  0  0
   -3.5362   -2.3213    0.8510 H   0  0  0  0  0  0  0  0  0  0  0  0
   -3.3387   -2.9277   -0.8116 H   0  0  0  0  0  0  0  0  0  0  0  0
   -1.5000   -2.3723    0.1578 C   0  0  0  0  0  0  0  0  0  0  0  0
   -0.5614   -3.0596    0.5259 O   0  0  0  0  0  0  0  0  0  0  0  0
   -1.2824   -1.0843   -0.2860 N   0  0  0  0  0  0  0  0  0  0  0  0
   -2.1021   -0.5164   -0.4943 H   0  0  0  0  0  0  0  0  0  0  0  0
    0.0193   -0.4024   -0.2605 C   0  0  1  0  0  0  0  0  0  0  0  0
    0.7194   -0.9198    0.4059 H   0  0  0  0  0  0  0  0  0  0  0  0
    0.5911   -0.4169   -1.6883 C   0  0  0  0  0  0  0  0  0  0  0  0
    0.9419   -1.4228   -1.9358 H   0  0  0  0  0  0  0  0  0  0  0  0
   -0.1900   -0.1493   -2.4050 H   0  0  0  0  0  0  0  0  0  0  0  0
    1.7417    0.5675   -1.8360 C   0  0  0  0  0  0  0  0  0  0  0  0
    2.8400    0.3297   -1.3719 O   0  0  0  0  0  0  0  0  0  0  0  0
    1.5552    1.8188   -2.3492 N   0  0  0  0  0  0  0  0  0  0  0  0
    2.3097    2.4755   -2.1739 H   0  0  0  0  0  0  0  0  0  0  0  0
    0.5998    2.1627   -2.4101 H   0  0  0  0  0  0  0  0  0  0  0  0
   -0.1454    1.0353    0.2741 C   0  0  0  0  0  0  0  0  0  0  0  0
   -1.0269    1.7505   -0.1898 O   0  0  0  0  0  0  0  0  0  0  0  0
    0.7337    1.5463    1.2095 N   0  0  0  0  0  0  0  0  0  0  0  0
    1.5265    0.9644    1.4726 H   0  0  0  0  0  0  0  0  0  0  0  0
    0.6959    2.9277    1.6722 C   0  0  0  0  0  0  0  0  0  0  0  0
   -0.2748    3.1535    2.1260 H   0  0  0  0  0  0  0  0  0  0  0  0
    1.4742    3.0953    2.4230 H   0  0  0  0  0  0  0  0  0  0  0  0
    0.8649    3.6167    0.8380 H   0  0  0  0  0  0  0  0  0  0  0  0
  1  2  1  0  0  0  0
  2  3  1  0  0  0  0
  2  4  1  0  0  0  0
  2  5  1  0  0  0  0
  5  6  2  0  0  0  0
  5  7  1  0  0  0  0
  7  8  1  0  0  0  0
  7  9  1  0  0  0  0
  9 10  1  0  0  0  0
  9 11  1  0  0  0  0
  9 19  1  0  0  0  0
 11 12  1  0  0  0  0
 11 13  1  0  0  0  0
 11 14  1  0  0  0  0
 14 15  2  0  0  0  0
 14 16  1  0  0  0  0
 16 17  1  0  0  0  0
 16 18  1  0  0  0  0
 19 20  2  0  0  0  0
 19 21  1  0  0  0  0
 21 22  1  0  0  0  0
 21 23  1  0  0  0  0
 23 24  1  0  0  0  0
 23 25  1  0  0  0  0
 23 26  1  0  0  0  0
M  END
$$$$

  -OEChem-04042215573D

 26 25  0     1  0  0  0  0  0999 V2000
   -2.8844   -3.9642    0.5514 H   0  0  0  0  0  0  0  0  0  0  0  0
   -2.8995   -2.9374    0.1752 C   0  0  0  0  0  0  0  0  0  0  0  0
   -3.5422   -2.3350    0.8217 H   0  0  0  0  0  0  0  0  0  0  0  0
   -3.3115   -2.9398   -0.8368 H   0  0  0  0  0  0  0  0  0  0  0  0
   -1.4945   -2.3648    0.1621 C   0  0  0  0  0  0  0  0  0  0  0  0
   -0.5549   -3.0415    0.5471 O   0  0  0  0  0  0  0  0  0  0  0  0
   -1.2832   -1.0716   -0.2705 N   0  0  0  0  0  0  0  0  0  0  0  0
   -2.1034   -0.5145   -0.5043 H   0  0  0  0  0  0  0  0  0  0  0  0
    0.0154   -0.3841   -0.2412 C   0  0  1  0  0  0  0  0  0  0  0  0
    0.7205   -0.9050    0.4169 H   0  0  0  0  0  0  0  0  0  0  0  0
    0.5770   -0.3895   -1.6750 C   0  0  0  0  0  0  0  0  0  0  0  0
    0.9240   -1.3952   -1.9293 H   0  0  0  0  0  0  0  0  0  0  0  0
   -0.2103   -0.1200   -2.3843 H   0  0  0  0  0  0  0  0  0  0  0  0
    1.7252    0.5954   -1.8437 C   0  0  0  0  0  0  0  0  0  0  0  0
    2.8784    0.2671   -1.6464 O   0  0  0  0  0  0  0  0  0  0  0  0
    1.5099    1.9021   -2.1780 N   0  0  0  0  0  0  0  0  0  0  0  0
    2.3102    2.5186   -2.0753 H   0  0  0  0  0  0  0  0  0  0  0  0
    0.5699    2.2734   -2.0508 H   0  0  0  0  0  0  0  0  0  0  0  0
   -0.1538    1.0475    0.3067 C   0  0  0  0  0  0  0  0  0  0  0  0
   -1.0102    1.7787   -0.1780 O   0  0  0  0  0  0  0  0  0  0  0  0
    0.7253    1.5525    1.2456 N   0  0  0  0  0  0  0  0  0  0  0  0
    1.4739    0.9429    1.5672 H   0  0  0  0  0  0  0  0  0  0  0  0
    0.6831    2.9273    1.7281 C   0  0  0  0  0  0  0  0  0  0  0  0
   -0.2791    3.1360    2.2076 H   0  0  0  0  0  0  0  0  0  0  0  0
    1.4776    3.0942    2.4619 H   0  0  0  0  0  0  0  0  0  0  0  0
    0.8248    3.6292    0.8997 H   0  0  0  0  0  0  0  0  0  0  0  0
  1  2  1  0  0  0  0
  2  3  1  0  0  0  0
  2  4  1  0  0  0  0
  2  5  1  0  0  0  0
  5  6  2  0  0  0  0
  5  7  1  0  0  0  0
  7  8  1  0  0  0  0
  7  9  1  0  0  0  0
  9 10  1  0  0  0  0
  9 11  1  0  0  0  0
  9 19  1  0  0  0  0
 11 12  1  0  0  0  0
 11 13  1  0  0  0  0
 11 14  1  0  0  0  0
 14 15  2  0  0  0  0
 14 16  1  0  0  0  0
 16 17  1  0  0  0  0
 16 18  1  0  0  0  0
 19 20  2  0  0  0  0
 19 21  1  0  0  0  0
 21 22  1  0  0  0  0
 21 23  1  0  0  0  0
 23 24  1  0  0  0  0
 23 25  1  0  0  0  0
 23 26  1  0  0  0  0
M  END
$$$$

  -OEChem-04042215573D

 26 25  0     1  0  0  0  0  0999 V2000
   -2.8780   -3.9713    0.5120 H   0  0  0  0  0  0  0  0  0  0  0  0
   -2.8931   -2.9404    0.1470 C   0  0  0  0  0  0  0  0  0  0  0  0
   -3.5557   -2.3503    0.7848 H   0  0  0  0  0  0  0  0  0  0  0  0
   -3.2817   -2.9346   -0.8743 H   0  0  0  0  0  0  0  0  0  0  0  0
   -1.4928   -2.3562    0.1727 C   0  0  0  0  0  0  0  0  0  0  0  0
   -0.5571   -3.0276    0.5760 O   0  0  0  0  0  0  0  0  0  0  0  0
   -1.2819   -1.0583   -0.2460 N   0  0  0  0  0  0  0  0  0  0  0  0
   -2.1002   -0.5080   -0.5013 H   0  0  0  0  0  0  0  0  0  0  0  0
    0.0150   -0.3679   -0.2086 C   0  0  1  0  0  0  0  0  0  0  0  0
    0.7192   -0.8940    0.4461 H   0  0  0  0  0  0  0  0  0  0  0  0
    0.5745   -0.3723   -1.6450 C   0  0  0  0  0  0  0  0  0  0  0  0
    0.9162   -1.3802   -1.8984 H   0  0  0  0  0  0  0  0  0  0  0  0
   -0.2167   -0.1030   -2.3503 H   0  0  0  0  0  0  0  0  0  0  0  0
    1.7239    0.6089   -1.8382 C   0  0  0  0  0  0  0  0  0  0  0  0
    2.8765    0.2327   -1.9180 O   0  0  0  0  0  0  0  0  0  0  0  0
    1.5075    1.9446   -2.0291 N   0  0  0  0  0  0  0  0  0  0  0  0
    2.3318    2.5375   -2.0232 H   0  0  0  0  0  0  0  0  0  0  0  0
    0.6012    2.3277   -1.7614 H   0  0  0  0  0  0  0  0  0  0  0  0
   -0.1552    1.0576    0.3532 C   0  0  0  0  0  0  0  0  0  0  0  0
   -0.9943    1.8021   -0.1409 O   0  0  0  0  0  0  0  0  0  0  0  0
    0.7230    1.5541    1.2976 N   0  0  0  0  0  0  0  0  0  0  0  0
    1.4421    0.9277    1.6522 H   0  0  0  0  0  0  0  0  0  0  0  0
    0.6720    2.9211    1.8013 C   0  0  0  0  0  0  0  0  0  0  0  0
   -0.2930    3.1171    2.2805 H   0  0  0  0  0  0  0  0  0  0  0  0
    1.4630    3.0813    2.5403 H   0  0  0  0  0  0  0  0  0  0  0  0
    0.8126    3.6371    0.9848 H   0  0  0  0  0  0  0  0  0  0  0  0
  1  2  1  0  0  0  0
  2  3  1  0  0  0  0
  2  4  1  0  0  0  0
  2  5  1  0  0  0  0
  5  6  2  0  0  0  0
  5  7  1  0  0  0  0
  7  8  1  0  0  0  0
  7  9  1  0  0  0  0
  9 10  1  0  0  0  0
  9 11  1  0  0  0  0
  9 19  1  0  0  0  0
 11 12  1  0  0  0  0
 11 13  1  0  0  0  0
 11 14  1  0  0  0  0
 14 15  2  0  0  0  0
 14 16  1  0  0  0  0
 16 17  1  0  0  0  0
 16 18  1  0  0  0  0
 19 20  2  0  0  0  0
 19 21  1  0  0  0  0
 21 22  1  0  0  0  0
 21 23  1  0  0  0  0
 23 24  1  0  0  0  0
 23 25  1  0  0  0  0
 23 26  1  0  0  0  0
M  END
$$$$

  -OEChem-04042215573D

 26 25  0     1  0  0  0  0  0999 V2000
   -2.8795   -3.9670    0.4795 H   0  0  0  0  0  0  0  0  0  0  0  0
   -2.8908   -2.9323    0.1253 C   0  0  0  0  0  0  0  0  0  0  0  0
   -3.5646   -2.3501    0.7586 H   0  0  0  0  0  0  0  0  0  0  0  0
   -3.2629   -2.9162   -0.9020 H   0  0  0  0  0  0  0  0  0  0  0  0
   -1.4926   -2.3458    0.1798 C   0  0  0  0  0  0  0  0  0  0  0  0
   -0.5631   -3.0160    0.5994 O   0  0  0  0  0  0  0  0  0  0  0  0
   -1.2768   -1.0450   -0.2264 N   0  0  0  0  0  0  0  0  0  0  0  0
   -2.0892   -0.4978   -0.5061 H   0  0  0  0  0  0  0  0  0  0  0  0
    0.0210   -0.3579   -0.1757 C   0  0  1  0  0  0  0  0  0  0  0  0
    0.7192   -0.8889    0.4814 H   0  0  0  0  0  0  0  0  0  0  0  0
    0.5894   -0.3680   -1.6109 C   0  0  0  0  0  0  0  0  0  0  0  0
    0.9220   -1.3806   -1.8578 H   0  0  0  0  0  0  0  0  0  0  0  0
   -0.2001   -0.0968   -2.3174 H   0  0  0  0  0  0  0  0  0  0  0  0
    1.7462    0.6021   -1.8264 C   0  0  0  0  0  0  0  0  0  0  0  0
    2.8432    0.2114   -2.1734 O   0  0  0  0  0  0  0  0  0  0  0  0
    1.5579    1.9547   -1.8802 N   0  0  0  0  0  0  0  0  0  0  0  0
    2.3814    2.5344   -2.0090 H   0  0  0  0  0  0  0  0  0  0  0  0
    0.6861    2.3521   -1.5298 H   0  0  0  0  0  0  0  0  0  0  0  0
   -0.1532    1.0619    0.3979 C   0  0  0  0  0  0  0  0  0  0  0  0
   -0.9807    1.8166   -0.0996 O   0  0  0  0  0  0  0  0  0  0  0  0
    0.7197    1.5478    1.3529 N   0  0  0  0  0  0  0  0  0  0  0  0
    1.4139    0.9069    1.7300 H   0  0  0  0  0  0  0  0  0  0  0  0
    0.6538    2.9032    1.8859 C   0  0  0  0  0  0  0  0  0  0  0  0
   -0.3188    3.0836    2.3556 H   0  0  0  0  0  0  0  0  0  0  0  0
    1.4333    3.0507    2.6396 H   0  0  0  0  0  0  0  0  0  0  0  0
    0.8019    3.6379    1.0876 H   0  0  0  0  0  0  0  0  0  0  0  0
  1  2  1  0  0  0  0
  2  3  1  0  0  0  0
  2  4  1  0  0  0  0
  2  5  1  0  0  0  0
  5  6  2  0  0  0  0
  5  7  1  0  0  0  0
  7  8  1  0  0  0  0
  7  9  1  0  0  0  0
  9 10  1  0  0  0  0
  9 11  1  0  0  0  0
  9 19  1  0  0  0  0
 11 12  1  0  0  0  0
 11 13  1  0  0  0  0
 11 14  1  0  0  0  0
 14 15  2  0  0  0  0
 14 16  1  0  0  0  0
 16 17  1  0  0  0  0
 16 18  1  0  0  0  0
 19 20  2  0  0  0  0
 19 21  1  0  0  0  0
 21 22  1  0  0  0  0
 21 23  1  0  0  0  0
 23 24  1  0  0  0  0
 23 25  1  0  0  0  0
 23 26  1  0  0  0  0
M  END
$$$$

  -OEChem-04042215573D

 26 25  0     1  0  0  0  0  0999 V2000
   -2.9015   -3.9523    0.4390 H   0  0  0  0  0  0  0  0  0  0  0  0
   -2.8994   -2.9142    0.0948 C   0  0  0  0  0  0  0  0  0  0  0  0
   -3.5743   -2.3322    0.7271 H   0  0  0  0  0  0  0  0  0  0  0  0
   -3.2602   -2.8848   -0.9362 H   0  0  0  0  0  0  0  0  0  0  0  0
   -1.4962   -2.3421    0.1689 C   0  0  0  0  0  0  0  0  0  0  0  0
   -0.5759   -3.0286    0.5826 O   0  0  0  0  0  0  0  0  0  0  0  0
   -1.2633   -1.0376   -0.2161 N   0  0  0  0  0  0  0  0  0  0  0  0
   -2.0685   -0.4749   -0.4860 H   0  0  0  0  0  0  0  0  0  0  0  0
    0.0395   -0.3624   -0.1309 C   0  0  1  0  0  0  0  0  0  0  0  0
    0.7214   -0.9040    0.5344 H   0  0  0  0  0  0  0  0  0  0  0  0
    0.6280   -0.3668   -1.5605 C   0  0  0  0  0  0  0  0  0  0  0  0
    0.9458   -1.3844   -1.8066 H   0  0  0  0  0  0  0  0  0  0  0  0
   -0.1538   -0.0832   -2.2705 H   0  0  0  0  0  0  0  0  0  0  0  0
    1.8019    0.5820   -1.7896 C   0  0  0  0  0  0  0  0  0  0  0  0
    2.7925    0.2133   -2.3889 O   0  0  0  0  0  0  0  0  0  0  0  0
    1.7070    1.9356   -1.6312 N   0  0  0  0  0  0  0  0  0  0  0  0
    2.3976    2.4890   -2.1295 H   0  0  0  0  0  0  0  0  0  0  0  0
    0.7939    2.3341   -1.4131 H   0  0  0  0  0  0  0  0  0  0  0  0
   -0.1512    1.0487    0.4593 C   0  0  0  0  0  0  0  0  0  0  0  0
   -0.9736    1.8048   -0.0451 O   0  0  0  0  0  0  0  0  0  0  0  0
    0.6961    1.5247    1.4422 N   0  0  0  0  0  0  0  0  0  0  0  0
    1.4015    0.8903    1.8080 H   0  0  0  0  0  0  0  0  0  0  0  0
    0.6323    2.8821    1.9703 C   0  0  0  0  0  0  0  0  0  0  0  0
   -0.3517    3.0772    2.4095 H   0  0  0  0  0  0  0  0  0  0  0  0
    1.3903    3.0208    2.7472 H   0  0  0  0  0  0  0  0  0  0  0  0
    0.8154    3.6124    1.1753 H   0  0  0  0  0  0  0  0  0  0  0  0
  1  2  1  0  0  0  0
  2  3  1  0  0  0  0
  2  4  1  0  0  0  0
  2  5  1  0  0  0  0
  5  6  2  0  0  0  0
  5  7  1  0  0  0  0
  7  8  1  0  0  0  0
  7  9  1  0  0  0  0
  9 10  1  0  0  0  0
  9 11  1  0  0  0  0
  9 19  1  0  0  0  0
 11 12  1  0  0  0  0
 11 13  1  0  0  0  0
 11 14  1  0  0  0  0
 14 15  2  0  0  0  0
 14 16  1  0  0  0  0
 16 17  1  0  0  0  0
 16 18  1  0  0  0  0
 19 20  2  0  0  0  0
 19 21  1  0  0  0  0
 21 22  1  0  0  0  0
 21 23  1  0  0  0  0
 23 24  1  0  0  0  0
 23 25  1  0  0  0  0
 23 26  1  0  0  0  0
M  END
$$$$

  -OEChem-04042215573D

 26 25  0     1  0  0  0  0  0999 V2000
   -2.9188   -3.9446    0.3994 H   0  0  0  0  0  0  0  0  0  0  0  0
   -2.9061   -2.9037    0.0640 C   0  0  0  0  0  0  0  0  0  0  0  0
   -3.5944   -2.3250    0.6848 H   0  0  0  0  0  0  0  0  0  0  0  0
   -3.2427   -2.8654   -0.9749 H   0  0  0  0  0  0  0  0  0  0  0  0
   -1.5038   -2.3351    0.1760 C   0  0  0  0  0  0  0  0  0  0  0  0
   -0.5966   -3.0227    0.6162 O   0  0  0  0  0  0  0  0  0  0  0  0
   -1.2565   -1.0322   -0.2053 N   0  0  0  0  0  0  0  0  0  0  0  0
   -2.0511   -0.4691   -0.5043 H   0  0  0  0  0  0  0  0  0  0  0  0
    0.0500   -0.3663   -0.1040 C   0  0  1  0  0  0  0  0  0  0  0  0
    0.7198   -0.9113    0.5707 H   0  0  0  0  0  0  0  0  0  0  0  0
    0.6526   -0.3901   -1.5298 C   0  0  0  0  0  0  0  0  0  0  0  0
    0.9573   -1.4153   -1.7606 H   0  0  0  0  0  0  0  0  0  0  0  0
   -0.1247   -0.1070   -2.2452 H   0  0  0  0  0  0  0  0  0  0  0  0
    1.8403    0.5354   -1.7919 C   0  0  0  0  0  0  0  0  0  0  0  0
    2.6862    0.2284   -2.6084 O   0  0  0  0  0  0  0  0  0  0  0  0
    1.8600    1.8612   -1.4647 N   0  0  0  0  0  0  0  0  0  0  0  0
    2.4998    2.4245   -2.0170 H   0  0  0  0  0  0  0  0  0  0  0  0
    0.9893    2.2772   -1.1352 H   0  0  0  0  0  0  0  0  0  0  0  0
   -0.1419    1.0446    0.4848 C   0  0  0  0  0  0  0  0  0  0  0  0
   -0.9348    1.8142   -0.0439 O   0  0  0  0  0  0  0  0  0  0  0  0
    0.6936    1.5170    1.4797 N   0  0  0  0  0  0  0  0  0  0  0  0
    1.3725    0.8713    1.8751 H   0  0  0  0  0  0  0  0  0  0  0  0
    0.6222    2.8720    2.0138 C   0  0  0  0  0  0  0  0  0  0  0  0
   -0.3670    3.0637    2.4429 H   0  0  0  0  0  0  0  0  0  0  0  0
    1.3714    3.0081    2.7999 H   0  0  0  0  0  0  0  0  0  0  0  0
    0.8133    3.6068    1.2248 H   0  0  0  0  0  0  0  0  0  0  0  0
  1  2  1  0  0  0  0
  2  3  1  0  0  0  0
  2  4  1  0  0  0  0
  2  5  1  0  0  0  0
  5  6  2  0  0  0  0
  5  7  1  0  0  0  0
  7  8  1  0  0  0  0
  7  9  1  0  0  0  0
  9 10  1  0  0  0  0
  9 11  1  0  0  0  0
  9 19  1  0  0  0  0
 11 12  1  0  0  0  0
 11 13  1  0  0  0  0
 11 14  1  0  0  0  0
 14 15  2  0  0  0  0
 14 16  1  0  0  0  0
 16 17  1  0  0  0  0
 16 18  1  0  0  0  0
 19 20  2  0  0  0  0
 19 21  1  0  0  0  0
 21 22  1  0  0  0  0
 21 23  1  0  0  0  0
 23 24  1  0  0  0  0
 23 25  1  0  0  0  0
 23 26  1  0  0  0  0
M  END
$$$$

  -OEChem-04042215573D

 26 25  0     1  0  0  0  0  0999 V2000
   -2.9322   -3.9167    0.4300 H   0  0  0  0  0  0  0  0  0  0  0  0
   -2.9139   -2.8796    0.0834 C   0  0  0  0  0  0  0  0  0  0  0  0
   -3.5945   -2.2893    0.7018 H   0  0  0  0  0  0  0  0  0  0  0  0
   -3.2558   -2.8490   -0.9540 H   0  0  0  0  0  0  0  0  0  0  0  0
   -1.5066   -2.3213    0.1819 C   0  0  0  0  0  0  0  0  0  0  0  0
   -0.6028   -3.0104    0.6270 O   0  0  0  0  0  0  0  0  0  0  0  0
   -1.2505   -1.0245   -0.2130 N   0  0  0  0  0  0  0  0  0  0  0  0
   -2.0409   -0.4575   -0.5171 H   0  0  0  0  0  0  0  0  0  0  0  0
    0.0619   -0.3692   -0.1230 C   0  0  1  0  0  0  0  0  0  0  0  0
    0.7313   -0.9096    0.5553 H   0  0  0  0  0  0  0  0  0  0  0  0
    0.6567   -0.4094   -1.5523 C   0  0  0  0  0  0  0  0  0  0  0  0
    0.9439   -1.4410   -1.7759 H   0  0  0  0  0  0  0  0  0  0  0  0
   -0.1273   -0.1238   -2.2596 H   0  0  0  0  0  0  0  0  0  0  0  0
    1.8546    0.4904   -1.8644 C   0  0  0  0  0  0  0  0  0  0  0  0
    2.5129    0.2908   -2.8659 O   0  0  0  0  0  0  0  0  0  0  0  0
    2.1512    1.6756   -1.2534 N   0  0  0  0  0  0  0  0  0  0  0  0
    2.7867    2.2645   -1.7842 H   0  0  0  0  0  0  0  0  0  0  0  0
    1.4169    2.1197   -0.7069 H   0  0  0  0  0  0  0  0  0  0  0  0
   -0.1380    1.0452    0.4544 C   0  0  0  0  0  0  0  0  0  0  0  0
   -0.9538    1.7999   -0.0575 O   0  0  0  0  0  0  0  0  0  0  0  0
    0.6937    1.5303    1.4470 N   0  0  0  0  0  0  0  0  0  0  0  0
    1.3525    0.8801    1.8694 H   0  0  0  0  0  0  0  0  0  0  0  0
    0.5581    2.8622    2.0262 C   0  0  0  0  0  0  0  0  0  0  0  0
   -0.4226    2.9750    2.5005 H   0  0  0  0  0  0  0  0  0  0  0  0
    1.3300    3.0247    2.7847 H   0  0  0  0  0  0  0  0  0  0  0  0
    0.6670    3.6315    1.2545 H   0  0  0  0  0  0  0  0  0  0  0  0
  1  2  1  0  0  0  0
  2  3  1  0  0  0  0
  2  4  1  0  0  0  0
  2  5  1  0  0  0  0
  5  6  2  0  0  0  0
  5  7  1  0  0  0  0
  7  8  1  0  0  0  0
  7  9  1  0  0  0  0
  9 10  1  0  0  0  0
  9 11  1  0  0  0  0
  9 19  1  0  0  0  0
 11 12  1  0  0  0  0
 11 13  1  0  0  0  0
 11 14  1  0  0  0  0
 14 15  2  0  0  0  0
 14 16  1  0  0  0  0
 16 17  1  0  0  0  0
 16 18  1  0  0  0  0
 19 20  2  0  0  0  0
 19 21  1  0  0  0  0
 21 22  1  0  0  0  0
 21 23  1  0  0  0  0
 23 24  1  0  0  0  0
 23 25  1  0  0  0  0
 23 26  1  0  0  0  0
M  END
$$$$
