
  -OEChem-03222214023D

 26 25  0     1  0  0  0  0  0999 V2000
   -2.7073   -3.6680   -0.2258 H   0  0  0  0  0  0  0  0  0  0  0  0
   -2.6799   -2.6381   -0.5937 C   0  0  0  0  0  0  0  0  0  0  0  0
   -3.4257   -2.0513   -0.0521 H   0  0  0  0  0  0  0  0  0  0  0  0
   -2.9284   -2.6396   -1.6578 H   0  0  0  0  0  0  0  0  0  0  0  0
   -1.2995   -2.0452   -0.3824 C   0  0  0  0  0  0  0  0  0  0  0  0
   -0.4369   -2.6975    0.1769 O   0  0  0  0  0  0  0  0  0  0  0  0
   -1.0246   -0.7669   -0.8311 N   0  0  0  0  0  0  0  0  0  0  0  0
   -1.7551   -0.3042   -1.3652 H   0  0  0  0  0  0  0  0  0  0  0  0
    0.3038   -0.1295   -0.7611 C   0  0  1  0  0  0  0  0  0  0  0  0
    1.0270   -0.7379   -1.3176 H   0  0  0  0  0  0  0  0  0  0  0  0
    0.1590    1.2444   -1.4462 C   0  0  0  0  0  0  0  0  0  0  0  0
   -0.1773    1.0896   -2.4751 H   0  0  0  0  0  0  0  0  0  0  0  0
   -0.6075    1.8241   -0.9243 H   0  0  0  0  0  0  0  0  0  0  0  0
    1.4179    2.1104   -1.5070 C   0  0  0  0  0  0  0  0  0  0  0  0
    1.3599    3.2036   -2.0352 O   0  0  0  0  0  0  0  0  0  0  0  0
    2.6738    1.6974   -1.1660 N   0  0  0  0  0  0  0  0  0  0  0  0
    3.3809    2.4257   -1.1641 H   0  0  0  0  0  0  0  0  0  0  0  0
    2.7563    0.9310   -0.4940 H   0  0  0  0  0  0  0  0  0  0  0  0
    0.8332   -0.0059    0.6885 C   0  0  0  0  0  0  0  0  0  0  0  0
    2.0316   -0.1287    0.9073 O   0  0  0  0  0  0  0  0  0  0  0  0
    0.0016    0.4376    1.7001 N   0  0  0  0  0  0  0  0  0  0  0  0
   -0.9933    0.4448    1.4996 H   0  0  0  0  0  0  0  0  0  0  0  0
    0.4385    0.5735    3.0843 C   0  0  0  0  0  0  0  0  0  0  0  0
    1.2708    1.2815    3.1565 H   0  0  0  0  0  0  0  0  0  0  0  0
   -0.3824    0.9441    3.7056 H   0  0  0  0  0  0  0  0  0  0  0  0
    0.7637   -0.3947    3.4796 H   0  0  0  0  0  0  0  0  0  0  0  0
  1  2  1  0  0  0  0
  2  3  1  0  0  0  0
  2  4  1  0  0  0  0
  2  5  1  0  0  0  0
  5  6  2  0  0  0  0
  5  7  1  0  0  0  0
  7  8  1  0  0  0  0
  7  9  1  0  0  0  0
  9 10  1  0  0  0  0
  9 11  1  0  0  0  0
  9 19  1  0  0  0  0
 11 12  1  0  0  0  0
 11 13  1  0  0  0  0
 11 14  1  0  0  0  0
 14 15  2  0  0  0  0
 14 16  1  0  0  0  0
 16 17  1  0  0  0  0
 16 18  1  0  0  0  0
 19 20  2  0  0  0  0
 19 21  1  0  0  0  0
 21 22  1  0  0  0  0
 21 23  1  0  0  0  0
 23 24  1  0  0  0  0
 23 25  1  0  0  0  0
 23 26  1  0  0  0  0
M  END
$$$$

  -OEChem-03222214023D

 26 25  0     1  0  0  0  0  0999 V2000
   -2.7084   -3.6827   -0.2335 H   0  0  0  0  0  0  0  0  0  0  0  0
   -2.6925   -2.6490   -0.5912 C   0  0  0  0  0  0  0  0  0  0  0  0
   -3.4293   -2.0712   -0.0282 H   0  0  0  0  0  0  0  0  0  0  0  0
   -2.9627   -2.6405   -1.6500 H   0  0  0  0  0  0  0  0  0  0  0  0
   -1.3097   -2.0532   -0.4021 C   0  0  0  0  0  0  0  0  0  0  0  0
   -0.4351   -2.7049    0.1392 O   0  0  0  0  0  0  0  0  0  0  0  0
   -1.0443   -0.7725   -0.8487 N   0  0  0  0  0  0  0  0  0  0  0  0
   -1.7869   -0.3019   -1.3588 H   0  0  0  0  0  0  0  0  0  0  0  0
    0.2814   -0.1298   -0.7818 C   0  0  1  0  0  0  0  0  0  0  0  0
    0.9975   -0.7456   -1.3392 H   0  0  0  0  0  0  0  0  0  0  0  0
    0.1460    1.2369   -1.4801 C   0  0  0  0  0  0  0  0  0  0  0  0
   -0.1801    1.0782   -2.5115 H   0  0  0  0  0  0  0  0  0  0  0  0
   -0.6216    1.8255   -0.9692 H   0  0  0  0  0  0  0  0  0  0  0  0
    1.4176    2.0836   -1.5285 C   0  0  0  0  0  0  0  0  0  0  0  0
    1.3423    3.2642   -1.8070 O   0  0  0  0  0  0  0  0  0  0  0  0
    2.6822    1.5987   -1.3568 N   0  0  0  0  0  0  0  0  0  0  0  0
    3.3940    2.3190   -1.2817 H   0  0  0  0  0  0  0  0  0  0  0  0
    2.7765    0.7715   -0.7640 H   0  0  0  0  0  0  0  0  0  0  0  0
    0.8357    0.0027    0.6561 C   0  0  0  0  0  0  0  0  0  0  0  0
    2.0402   -0.1126    0.8433 O   0  0  0  0  0  0  0  0  0  0  0  0
    0.0248    0.4451    1.6844 N   0  0  0  0  0  0  0  0  0  0  0  0
   -0.9743    0.4536    1.5070 H   0  0  0  0  0  0  0  0  0  0  0  0
    0.4965    0.6011    3.0548 C   0  0  0  0  0  0  0  0  0  0  0  0
    1.3234    1.3179    3.0972 H   0  0  0  0  0  0  0  0  0  0  0  0
   -0.3116    0.9709    3.6933 H   0  0  0  0  0  0  0  0  0  0  0  0
    0.8419   -0.3592    3.4520 H   0  0  0  0  0  0  0  0  0  0  0  0
  1  2  1  0  0  0  0
  2  3  1  0  0  0  0
  2  4  1  0  0  0  0
  2  5  1  0  0  0  0
  5  6  2  0  0  0  0
  5  7  1  0  0  0  0
  7  8  1  0  0  0  0
  7  9  1  0  0  0  0
  9 10  1  0  0  0  0
  9 11  1  0  0  0  0
  9 19  1  0  0  0  0
 11 12  1  0  0  0  0
 11 13  1  0  0  0  0
 11 14  1  0  0  0  0
 14 15  2  0  0  0  0
 14 16  1  0  0  0  0
 16 17  1  0  0  0  0
 16 18  1  0  0  0  0
 19 20  2  0  0  0  0
 19 21  1  0  0  0  0
 21 22  1  0  0  0  0
 21 23  1  0  0  0  0
 23 24  1  0  0  0  0
 23 25  1  0  0  0  0
 23 26  1  0  0  0  0
M  END
$$$$

  -OEChem-03222214023D

 26 25  0     1  0  0  0  0  0999 V2000
   -2.7049   -3.6948   -0.2334 H   0  0  0  0  0  0  0  0  0  0  0  0
   -2.6976   -2.6613   -0.5916 C   0  0  0  0  0  0  0  0  0  0  0  0
   -3.4248   -2.0846   -0.0150 H   0  0  0  0  0  0  0  0  0  0  0  0
   -2.9881   -2.6536   -1.6449 H   0  0  0  0  0  0  0  0  0  0  0  0
   -1.3128   -2.0629   -0.4295 C   0  0  0  0  0  0  0  0  0  0  0  0
   -0.4229   -2.7165    0.0840 O   0  0  0  0  0  0  0  0  0  0  0  0
   -1.0624   -0.7767   -0.8681 N   0  0  0  0  0  0  0  0  0  0  0  0
   -1.8217   -0.2959   -1.3425 H   0  0  0  0  0  0  0  0  0  0  0  0
    0.2573   -0.1231   -0.8048 C   0  0  1  0  0  0  0  0  0  0  0  0
    0.9689   -0.7385   -1.3683 H   0  0  0  0  0  0  0  0  0  0  0  0
    0.1184    1.2383   -1.5095 C   0  0  0  0  0  0  0  0  0  0  0  0
   -0.2005    1.0762   -2.5423 H   0  0  0  0  0  0  0  0  0  0  0  0
   -0.6530    1.8277   -1.0054 H   0  0  0  0  0  0  0  0  0  0  0  0
    1.3959    2.0750   -1.5465 C   0  0  0  0  0  0  0  0  0  0  0  0
    1.3277    3.2885   -1.5552 O   0  0  0  0  0  0  0  0  0  0  0  0
    2.6569    1.5521   -1.5471 N   0  0  0  0  0  0  0  0  0  0  0  0
    3.3800    2.2487   -1.3945 H   0  0  0  0  0  0  0  0  0  0  0  0
    2.7652    0.6565   -1.0702 H   0  0  0  0  0  0  0  0  0  0  0  0
    0.8389    0.0140    0.6204 C   0  0  0  0  0  0  0  0  0  0  0  0
    2.0486   -0.0937    0.7762 O   0  0  0  0  0  0  0  0  0  0  0  0
    0.0477    0.4469    1.6676 N   0  0  0  0  0  0  0  0  0  0  0  0
   -0.9543    0.4682    1.5098 H   0  0  0  0  0  0  0  0  0  0  0  0
    0.5531    0.6330    3.0219 C   0  0  0  0  0  0  0  0  0  0  0  0
    1.3691    1.3633    3.0303 H   0  0  0  0  0  0  0  0  0  0  0  0
   -0.2436    1.0005    3.6756 H   0  0  0  0  0  0  0  0  0  0  0  0
    0.9243   -0.3150    3.4254 H   0  0  0  0  0  0  0  0  0  0  0  0
  1  2  1  0  0  0  0
  2  3  1  0  0  0  0
  2  4  1  0  0  0  0
  2  5  1  0  0  0  0
  5  6  2  0  0  0  0
  5  7  1  0  0  0  0
  7  8  1  0  0  0  0
  7  9  1  0  0  0  0
  9 10  1  0  0  0  0
  9 11  1  0  0  0  0
  9 19  1  0  0  0  0
 11 12  1  0  0  0  0
 11 13  1  0  0  0  0
 11 14  1  0  0  0  0
 14 15  2  0  0  0  0
 14 16  1  0  0  0  0
 16 17  1  0  0  0  0
 16 18  1  0  0  0  0
 19 20  2  0  0  0  0
 19 21  1  0  0  0  0
 21 22  1  0  0  0  0
 21 23  1  0  0  0  0
 23 24  1  0  0  0  0
 23 25  1  0  0  0  0
 23 26  1  0  0  0  0
M  END
$$$$

  -OEChem-03222214023D

 26 25  0     1  0  0  0  0  0999 V2000
   -2.6765   -3.7081   -0.2231 H   0  0  0  0  0  0  0  0  0  0  0  0
   -2.6841   -2.6744   -0.5808 C   0  0  0  0  0  0  0  0  0  0  0  0
   -3.3954   -2.1010    0.0182 H   0  0  0  0  0  0  0  0  0  0  0  0
   -3.0064   -2.6666   -1.6248 H   0  0  0  0  0  0  0  0  0  0  0  0
   -1.2972   -2.0707   -0.4607 C   0  0  0  0  0  0  0  0  0  0  0  0
   -0.3841   -2.7287    0.0043 O   0  0  0  0  0  0  0  0  0  0  0  0
   -1.0691   -0.7764   -0.8878 N   0  0  0  0  0  0  0  0  0  0  0  0
   -1.8516   -0.2837   -1.3093 H   0  0  0  0  0  0  0  0  0  0  0  0
    0.2403   -0.1038   -0.8208 C   0  0  1  0  0  0  0  0  0  0  0  0
    0.9559   -0.7100   -1.3884 H   0  0  0  0  0  0  0  0  0  0  0  0
    0.0903    1.2583   -1.5190 C   0  0  0  0  0  0  0  0  0  0  0  0
   -0.2215    1.1037   -2.5552 H   0  0  0  0  0  0  0  0  0  0  0  0
   -0.6867    1.8411   -1.0153 H   0  0  0  0  0  0  0  0  0  0  0  0
    1.3715    2.0878   -1.5330 C   0  0  0  0  0  0  0  0  0  0  0  0
    1.3397    3.2718   -1.2602 O   0  0  0  0  0  0  0  0  0  0  0  0
    2.6059    1.5656   -1.7922 N   0  0  0  0  0  0  0  0  0  0  0  0
    3.3656    2.1964   -1.5534 H   0  0  0  0  0  0  0  0  0  0  0  0
    2.7304    0.5807   -1.5725 H   0  0  0  0  0  0  0  0  0  0  0  0
    0.8330    0.0344    0.5991 C   0  0  0  0  0  0  0  0  0  0  0  0
    2.0443   -0.0664    0.7422 O   0  0  0  0  0  0  0  0  0  0  0  0
    0.0466    0.4488    1.6576 N   0  0  0  0  0  0  0  0  0  0  0  0
   -0.9547    0.4963    1.5026 H   0  0  0  0  0  0  0  0  0  0  0  0
    0.5663    0.6559    3.0034 C   0  0  0  0  0  0  0  0  0  0  0  0
    1.3659    1.4043    2.9947 H   0  0  0  0  0  0  0  0  0  0  0  0
   -0.2291    1.0104    3.6659 H   0  0  0  0  0  0  0  0  0  0  0  0
    0.9644   -0.2807    3.4080 H   0  0  0  0  0  0  0  0  0  0  0  0
  1  2  1  0  0  0  0
  2  3  1  0  0  0  0
  2  4  1  0  0  0  0
  2  5  1  0  0  0  0
  5  6  2  0  0  0  0
  5  7  1  0  0  0  0
  7  8  1  0  0  0  0
  7  9  1  0  0  0  0
  9 10  1  0  0  0  0
  9 11  1  0  0  0  0
  9 19  1  0  0  0  0
 11 12  1  0  0  0  0
 11 13  1  0  0  0  0
 11 14  1  0  0  0  0
 14 15  2  0  0  0  0
 14 16  1  0  0  0  0
 16 17  1  0  0  0  0
 16 18  1  0  0  0  0
 19 20  2  0  0  0  0
 19 21  1  0  0  0  0
 21 22  1  0  0  0  0
 21 23  1  0  0  0  0
 23 24  1  0  0  0  0
 23 25  1  0  0  0  0
 23 26  1  0  0  0  0
M  END
$$$$

  -OEChem-03222214023D

 26 25  0     1  0  0  0  0  0999 V2000
   -2.6520   -3.7200   -0.2291 H   0  0  0  0  0  0  0  0  0  0  0  0
   -2.6695   -2.6846   -0.5816 C   0  0  0  0  0  0  0  0  0  0  0  0
   -3.3701   -2.1156    0.0342 H   0  0  0  0  0  0  0  0  0  0  0  0
   -3.0125   -2.6732   -1.6189 H   0  0  0  0  0  0  0  0  0  0  0  0
   -1.2820   -2.0778   -0.4859 C   0  0  0  0  0  0  0  0  0  0  0  0
   -0.3549   -2.7415   -0.0586 O   0  0  0  0  0  0  0  0  0  0  0  0
   -1.0683   -0.7766   -0.8988 N   0  0  0  0  0  0  0  0  0  0  0  0
   -1.8674   -0.2715   -1.2709 H   0  0  0  0  0  0  0  0  0  0  0  0
    0.2336   -0.0905   -0.8215 C   0  0  1  0  0  0  0  0  0  0  0  0
    0.9584   -0.6838   -1.3912 H   0  0  0  0  0  0  0  0  0  0  0  0
    0.0703    1.2754   -1.5080 C   0  0  0  0  0  0  0  0  0  0  0  0
   -0.2367    1.1312   -2.5470 H   0  0  0  0  0  0  0  0  0  0  0  0
   -0.7112    1.8502   -1.0017 H   0  0  0  0  0  0  0  0  0  0  0  0
    1.3525    2.1000   -1.4985 C   0  0  0  0  0  0  0  0  0  0  0  0
    1.3838    3.1890   -0.9598 O   0  0  0  0  0  0  0  0  0  0  0  0
    2.5208    1.6614   -2.0520 N   0  0  0  0  0  0  0  0  0  0  0  0
    3.3360    2.1956   -1.7636 H   0  0  0  0  0  0  0  0  0  0  0  0
    2.6250    0.6606   -2.1813 H   0  0  0  0  0  0  0  0  0  0  0  0
    0.8260    0.0416    0.5996 C   0  0  0  0  0  0  0  0  0  0  0  0
    2.0364   -0.0600    0.7460 O   0  0  0  0  0  0  0  0  0  0  0  0
    0.0360    0.4377    1.6624 N   0  0  0  0  0  0  0  0  0  0  0  0
   -0.9611    0.5239    1.4990 H   0  0  0  0  0  0  0  0  0  0  0  0
    0.5615    0.6783    3.0000 C   0  0  0  0  0  0  0  0  0  0  0  0
    1.3327    1.4556    2.9742 H   0  0  0  0  0  0  0  0  0  0  0  0
   -0.2394    1.0095    3.6678 H   0  0  0  0  0  0  0  0  0  0  0  0
    0.9980   -0.2386    3.4096 H   0  0  0  0  0  0  0  0  0  0  0  0
  1  2  1  0  0  0  0
  2  3  1  0  0  0  0
  2  4  1  0  0  0  0
  2  5  1  0  0  0  0
  5  6  2  0  0  0  0
  5  7  1  0  0  0  0
  7  8  1  0  0  0  0
  7  9  1  0  0  0  0
  9 10  1  0  0  0  0
  9 11  1  0  0  0  0
  9 19  1  0  0  0  0
 11 12  1  0  0  0  0
 11 13  1  0  0  0  0
 11 14  1  0  0  0  0
 14 15  2  0  0  0  0
 14 16  1  0  0  0  0
 16 17  1  0  0  0  0
 16 18  1  0  0  0  0
 19 20  2  0  0  0  0
 19 21  1  0  0  0  0
 21 22  1  0  0  0  0
 21 23  1  0  0  0  0
 23 24  1  0  0  0  0
 23 25  1  0  0  0  0
 23 26  1  0  0  0  0
M  END
$$$$

  -OEChem-03222214023D

 26 25  0     1  0  0  0  0  0999 V2000
   -2.6342   -3.7210   -0.2214 H   0  0  0  0  0  0  0  0  0  0  0  0
   -2.6565   -2.6841   -0.5687 C   0  0  0  0  0  0  0  0  0  0  0  0
   -3.3394   -2.1156    0.0672 H   0  0  0  0  0  0  0  0  0  0  0  0
   -3.0255   -2.6666   -1.5970 H   0  0  0  0  0  0  0  0  0  0  0  0
   -1.2649   -2.0825   -0.5054 C   0  0  0  0  0  0  0  0  0  0  0  0
   -0.3279   -2.7555   -0.1162 O   0  0  0  0  0  0  0  0  0  0  0  0
   -1.0608   -0.7770   -0.9093 N   0  0  0  0  0  0  0  0  0  0  0  0
   -1.8741   -0.2610   -1.2322 H   0  0  0  0  0  0  0  0  0  0  0  0
    0.2352   -0.0809   -0.8245 C   0  0  1  0  0  0  0  0  0  0  0  0
    0.9693   -0.6620   -1.3951 H   0  0  0  0  0  0  0  0  0  0  0  0
    0.0550    1.2843   -1.5078 C   0  0  0  0  0  0  0  0  0  0  0  0
   -0.2519    1.1415   -2.5470 H   0  0  0  0  0  0  0  0  0  0  0  0
   -0.7316    1.8497   -0.9997 H   0  0  0  0  0  0  0  0  0  0  0  0
    1.3292    2.1180   -1.4900 C   0  0  0  0  0  0  0  0  0  0  0  0
    1.4437    3.0628   -0.7343 O   0  0  0  0  0  0  0  0  0  0  0  0
    2.4113    1.8205   -2.2673 N   0  0  0  0  0  0  0  0  0  0  0  0
    3.2694    2.2839   -1.9799 H   0  0  0  0  0  0  0  0  0  0  0  0
    2.4683    0.8865   -2.6584 H   0  0  0  0  0  0  0  0  0  0  0  0
    0.8217    0.0459    0.6002 C   0  0  0  0  0  0  0  0  0  0  0  0
    2.0282   -0.0800    0.7579 O   0  0  0  0  0  0  0  0  0  0  0  0
    0.0252    0.4287    1.6636 N   0  0  0  0  0  0  0  0  0  0  0  0
   -0.9627    0.5674    1.4846 H   0  0  0  0  0  0  0  0  0  0  0  0
    0.5484    0.6809    3.0000 C   0  0  0  0  0  0  0  0  0  0  0  0
    1.2990    1.4780    2.9727 H   0  0  0  0  0  0  0  0  0  0  0  0
   -0.2586    0.9894    3.6711 H   0  0  0  0  0  0  0  0  0  0  0  0
    1.0103   -0.2249    3.4067 H   0  0  0  0  0  0  0  0  0  0  0  0
  1  2  1  0  0  0  0
  2  3  1  0  0  0  0
  2  4  1  0  0  0  0
  2  5  1  0  0  0  0
  5  6  2  0  0  0  0
  5  7  1  0  0  0  0
  7  8  1  0  0  0  0
  7  9  1  0  0  0  0
  9 10  1  0  0  0  0
  9 11  1  0  0  0  0
  9 19  1  0  0  0  0
 11 12  1  0  0  0  0
 11 13  1  0  0  0  0
 11 14  1  0  0  0  0
 14 15  2  0  0  0  0
 14 16  1  0  0  0  0
 16 17  1  0  0  0  0
 16 18  1  0  0  0  0
 19 20  2  0  0  0  0
 19 21  1  0  0  0  0
 21 22  1  0  0  0  0
 21 23  1  0  0  0  0
 23 24  1  0  0  0  0
 23 25  1  0  0  0  0
 23 26  1  0  0  0  0
M  END
$$$$

  -OEChem-03222214023D

 26 25  0     1  0  0  0  0  0999 V2000
   -2.6114   -3.7234   -0.2146 H   0  0  0  0  0  0  0  0  0  0  0  0
   -2.6424   -2.6844   -0.5554 C   0  0  0  0  0  0  0  0  0  0  0  0
   -3.3128   -2.1205    0.0974 H   0  0  0  0  0  0  0  0  0  0  0  0
   -3.0318   -2.6617   -1.5761 H   0  0  0  0  0  0  0  0  0  0  0  0
   -1.2502   -2.0821   -0.5163 C   0  0  0  0  0  0  0  0  0  0  0  0
   -0.3047   -2.7608   -0.1593 O   0  0  0  0  0  0  0  0  0  0  0  0
   -1.0550   -0.7728   -0.9130 N   0  0  0  0  0  0  0  0  0  0  0  0
   -1.8779   -0.2499   -1.1972 H   0  0  0  0  0  0  0  0  0  0  0  0
    0.2376   -0.0700   -0.8214 C   0  0  1  0  0  0  0  0  0  0  0  0
    0.9792   -0.6428   -1.3912 H   0  0  0  0  0  0  0  0  0  0  0  0
    0.0455    1.2933   -1.5078 C   0  0  0  0  0  0  0  0  0  0  0  0
   -0.2624    1.1449   -2.5460 H   0  0  0  0  0  0  0  0  0  0  0  0
   -0.7458    1.8527   -1.0007 H   0  0  0  0  0  0  0  0  0  0  0  0
    1.3074    2.1451   -1.4915 C   0  0  0  0  0  0  0  0  0  0  0  0
    1.5331    2.9138   -0.5783 O   0  0  0  0  0  0  0  0  0  0  0  0
    2.2788    2.0290   -2.4435 N   0  0  0  0  0  0  0  0  0  0  0  0
    3.1700    2.4456   -2.1868 H   0  0  0  0  0  0  0  0  0  0  0  0
    2.2712    1.2054   -3.0350 H   0  0  0  0  0  0  0  0  0  0  0  0
    0.8159    0.0489    0.6080 C   0  0  0  0  0  0  0  0  0  0  0  0
    2.0153   -0.1174    0.7818 O   0  0  0  0  0  0  0  0  0  0  0  0
    0.0110    0.4205    1.6696 N   0  0  0  0  0  0  0  0  0  0  0  0
   -0.9643    0.6131    1.4736 H   0  0  0  0  0  0  0  0  0  0  0  0
    0.5297    0.6701    3.0080 C   0  0  0  0  0  0  0  0  0  0  0  0
    1.2777    1.4699    2.9846 H   0  0  0  0  0  0  0  0  0  0  0  0
   -0.2802    0.9734    3.6781 H   0  0  0  0  0  0  0  0  0  0  0  0
    0.9937   -0.2354    3.4130 H   0  0  0  0  0  0  0  0  0  0  0  0
  1  2  1  0  0  0  0
  2  3  1  0  0  0  0
  2  4  1  0  0  0  0
  2  5  1  0  0  0  0
  5  6  2  0  0  0  0
  5  7  1  0  0  0  0
  7  8  1  0  0  0  0
  7  9  1  0  0  0  0
  9 10  1  0  0  0  0
  9 11  1  0  0  0  0
  9 19  1  0  0  0  0
 11 12  1  0  0  0  0
 11 13  1  0  0  0  0
 11 14  1  0  0  0  0
 14 15  2  0  0  0  0
 14 16  1  0  0  0  0
 16 17  1  0  0  0  0
 16 18  1  0  0  0  0
 19 20  2  0  0  0  0
 19 21  1  0  0  0  0
 21 22  1  0  0  0  0
 21 23  1  0  0  0  0
 23 24  1  0  0  0  0
 23 25  1  0  0  0  0
 23 26  1  0  0  0  0
M  END
$$$$

  -OEChem-03222214023D

 26 25  0     1  0  0  0  0  0999 V2000
   -2.5974   -3.7117   -0.2037 H   0  0  0  0  0  0  0  0  0  0  0  0
   -2.6265   -2.6710   -0.5393 C   0  0  0  0  0  0  0  0  0  0  0  0
   -3.2864   -2.1070    0.1240 H   0  0  0  0  0  0  0  0  0  0  0  0
   -3.0273   -2.6410   -1.5553 H   0  0  0  0  0  0  0  0  0  0  0  0
   -1.2309   -2.0760   -0.5135 C   0  0  0  0  0  0  0  0  0  0  0  0
   -0.2859   -2.7611   -0.1681 O   0  0  0  0  0  0  0  0  0  0  0  0
   -1.0353   -0.7662   -0.9085 N   0  0  0  0  0  0  0  0  0  0  0  0
   -1.8614   -0.2391   -1.1745 H   0  0  0  0  0  0  0  0  0  0  0  0
    0.2559   -0.0609   -0.8092 C   0  0  1  0  0  0  0  0  0  0  0  0
    1.0057   -0.6294   -1.3723 H   0  0  0  0  0  0  0  0  0  0  0  0
    0.0521    1.2971   -1.5079 C   0  0  0  0  0  0  0  0  0  0  0  0
   -0.2568    1.1313   -2.5431 H   0  0  0  0  0  0  0  0  0  0  0  0
   -0.7471    1.8501   -1.0066 H   0  0  0  0  0  0  0  0  0  0  0  0
    1.2926    2.1819   -1.5065 C   0  0  0  0  0  0  0  0  0  0  0  0
    1.6575    2.7692   -0.5084 O   0  0  0  0  0  0  0  0  0  0  0  0
    2.1139    2.2801   -2.5927 N   0  0  0  0  0  0  0  0  0  0  0  0
    3.0269    2.6829   -2.3981 H   0  0  0  0  0  0  0  0  0  0  0  0
    2.0212    1.5908   -3.3306 H   0  0  0  0  0  0  0  0  0  0  0  0
    0.8157    0.0524    0.6286 C   0  0  0  0  0  0  0  0  0  0  0  0
    2.0024   -0.1652    0.8301 O   0  0  0  0  0  0  0  0  0  0  0  0
   -0.0041    0.4195    1.6808 N   0  0  0  0  0  0  0  0  0  0  0  0
   -0.9694    0.6415    1.4679 H   0  0  0  0  0  0  0  0  0  0  0  0
    0.4934    0.6335    3.0334 C   0  0  0  0  0  0  0  0  0  0  0  0
    1.2504    1.4252    3.0404 H   0  0  0  0  0  0  0  0  0  0  0  0
   -0.3248    0.9302    3.6961 H   0  0  0  0  0  0  0  0  0  0  0  0
    0.9409   -0.2860    3.4256 H   0  0  0  0  0  0  0  0  0  0  0  0
  1  2  1  0  0  0  0
  2  3  1  0  0  0  0
  2  4  1  0  0  0  0
  2  5  1  0  0  0  0
  5  6  2  0  0  0  0
  5  7  1  0  0  0  0
  7  8  1  0  0  0  0
  7  9  1  0  0  0  0
  9 10  1  0  0  0  0
  9 11  1  0  0  0  0
  9 19  1  0  0  0  0
 11 12  1  0  0  0  0
 11 13  1  0  0  0  0
 11 14  1  0  0  0  0
 14 15  2  0  0  0  0
 14 16  1  0  0  0  0
 16 17  1  0  0  0  0
 16 18  1  0  0  0  0
 19 20  2  0  0  0  0
 19 21  1  0  0  0  0
 21 22  1  0  0  0  0
 21 23  1  0  0  0  0
 23 24  1  0  0  0  0
 23 25  1  0  0  0  0
 23 26  1  0  0  0  0
M  END
$$$$

  -OEChem-03222214023D

 26 25  0     1  0  0  0  0  0999 V2000
   -2.5872   -3.6879   -0.1819 H   0  0  0  0  0  0  0  0  0  0  0  0
   -2.6092   -2.6482   -0.5209 C   0  0  0  0  0  0  0  0  0  0  0  0
   -3.2652   -2.0777    0.1406 H   0  0  0  0  0  0  0  0  0  0  0  0
   -3.0099   -2.6189   -1.5370 H   0  0  0  0  0  0  0  0  0  0  0  0
   -1.2096   -2.0627   -0.4963 C   0  0  0  0  0  0  0  0  0  0  0  0
   -0.2703   -2.7548   -0.1503 O   0  0  0  0  0  0  0  0  0  0  0  0
   -1.0057   -0.7557   -0.8968 N   0  0  0  0  0  0  0  0  0  0  0  0
   -1.8290   -0.2263   -1.1659 H   0  0  0  0  0  0  0  0  0  0  0  0
    0.2872   -0.0526   -0.7919 C   0  0  1  0  0  0  0  0  0  0  0  0
    1.0447   -0.6215   -1.3443 H   0  0  0  0  0  0  0  0  0  0  0  0
    0.0761    1.2993   -1.5066 C   0  0  0  0  0  0  0  0  0  0  0  0
   -0.2330    1.1116   -2.5381 H   0  0  0  0  0  0  0  0  0  0  0  0
   -0.7305    1.8478   -1.0127 H   0  0  0  0  0  0  0  0  0  0  0  0
    1.2956    2.2156   -1.5268 C   0  0  0  0  0  0  0  0  0  0  0  0
    1.8258    2.6255   -0.5157 O   0  0  0  0  0  0  0  0  0  0  0  0
    1.9188    2.5552   -2.6933 N   0  0  0  0  0  0  0  0  0  0  0  0
    2.8426    2.9645   -2.5797 H   0  0  0  0  0  0  0  0  0  0  0  0
    1.7060    2.0237   -3.5302 H   0  0  0  0  0  0  0  0  0  0  0  0
    0.8237    0.0600    0.6562 C   0  0  0  0  0  0  0  0  0  0  0  0
    1.9921   -0.2130    0.8930 O   0  0  0  0  0  0  0  0  0  0  0  0
   -0.0142    0.4317    1.6931 N   0  0  0  0  0  0  0  0  0  0  0  0
   -0.9748    0.6570    1.4642 H   0  0  0  0  0  0  0  0  0  0  0  0
    0.4432    0.5738    3.0692 C   0  0  0  0  0  0  0  0  0  0  0  0
    1.2359    1.3269    3.1319 H   0  0  0  0  0  0  0  0  0  0  0  0
   -0.3835    0.8866    3.7138 H   0  0  0  0  0  0  0  0  0  0  0  0
    0.8321   -0.3793    3.4425 H   0  0  0  0  0  0  0  0  0  0  0  0
  1  2  1  0  0  0  0
  2  3  1  0  0  0  0
  2  4  1  0  0  0  0
  2  5  1  0  0  0  0
  5  6  2  0  0  0  0
  5  7  1  0  0  0  0
  7  8  1  0  0  0  0
  7  9  1  0  0  0  0
  9 10  1  0  0  0  0
  9 11  1  0  0  0  0
  9 19  1  0  0  0  0
 11 12  1  0  0  0  0
 11 13  1  0  0  0  0
 11 14  1  0  0  0  0
 14 15  2  0  0  0  0
 14 16  1  0  0  0  0
 16 17  1  0  0  0  0
 16 18  1  0  0  0  0
 19 20  2  0  0  0  0
 19 21  1  0  0  0  0
 21 22  1  0  0  0  0
 21 23  1  0  0  0  0
 23 24  1  0  0  0  0
 23 25  1  0  0  0  0
 23 26  1  0  0  0  0
M  END
$$$$

  -OEChem-03222214023D

 26 25  0     1  0  0  0  0  0999 V2000
   -2.5922   -3.6524   -0.1329 H   0  0  0  0  0  0  0  0  0  0  0  0
   -2.5990   -2.6202   -0.4952 C   0  0  0  0  0  0  0  0  0  0  0  0
   -3.2491   -2.0264    0.1515 H   0  0  0  0  0  0  0  0  0  0  0  0
   -2.9962   -2.6078   -1.5130 H   0  0  0  0  0  0  0  0  0  0  0  0
   -1.1915   -2.0535   -0.4792 C   0  0  0  0  0  0  0  0  0  0  0  0
   -0.2620   -2.7556   -0.1271 O   0  0  0  0  0  0  0  0  0  0  0  0
   -0.9716   -0.7520   -0.8901 N   0  0  0  0  0  0  0  0  0  0  0  0
   -1.7884   -0.2165   -1.1664 H   0  0  0  0  0  0  0  0  0  0  0  0
    0.3277   -0.0595   -0.7816 C   0  0  1  0  0  0  0  0  0  0  0  0
    1.0895   -0.6311   -1.3254 H   0  0  0  0  0  0  0  0  0  0  0  0
    0.1170    1.2929   -1.4999 C   0  0  0  0  0  0  0  0  0  0  0  0
   -0.1918    1.0948   -2.5296 H   0  0  0  0  0  0  0  0  0  0  0  0
   -0.6929    1.8386   -1.0088 H   0  0  0  0  0  0  0  0  0  0  0  0
    1.3248    2.2269   -1.5383 C   0  0  0  0  0  0  0  0  0  0  0  0
    2.0323    2.4549   -0.5812 O   0  0  0  0  0  0  0  0  0  0  0  0
    1.7096    2.8430   -2.6945 N   0  0  0  0  0  0  0  0  0  0  0  0
    2.6291    3.2760   -2.6656 H   0  0  0  0  0  0  0  0  0  0  0  0
    1.3373    2.5082   -3.5761 H   0  0  0  0  0  0  0  0  0  0  0  0
    0.8384    0.0523    0.6772 C   0  0  0  0  0  0  0  0  0  0  0  0
    1.9852   -0.2715    0.9522 O   0  0  0  0  0  0  0  0  0  0  0  0
   -0.0194    0.4374    1.6934 N   0  0  0  0  0  0  0  0  0  0  0  0
   -0.9736    0.6659    1.4425 H   0  0  0  0  0  0  0  0  0  0  0  0
    0.3896    0.5187    3.0895 C   0  0  0  0  0  0  0  0  0  0  0  0
    1.2212    1.2223    3.2030 H   0  0  0  0  0  0  0  0  0  0  0  0
   -0.4430    0.8645    3.7093 H   0  0  0  0  0  0  0  0  0  0  0  0
    0.7075   -0.4646    3.4523 H   0  0  0  0  0  0  0  0  0  0  0  0
  1  2  1  0  0  0  0
  2  3  1  0  0  0  0
  2  4  1  0  0  0  0
  2  5  1  0  0  0  0
  5  6  2  0  0  0  0
  5  7  1  0  0  0  0
  7  8  1  0  0  0  0
  7  9  1  0  0  0  0
  9 10  1  0  0  0  0
  9 11  1  0  0  0  0
  9 19  1  0  0  0  0
 11 12  1  0  0  0  0
 11 13  1  0  0  0  0
 11 14  1  0  0  0  0
 14 15  2  0  0  0  0
 14 16  1  0  0  0  0
 16 17  1  0  0  0  0
 16 18  1  0  0  0  0
 19 20  2  0  0  0  0
 19 21  1  0  0  0  0
 21 22  1  0  0  0  0
 21 23  1  0  0  0  0
 23 24  1  0  0  0  0
 23 25  1  0  0  0  0
 23 26  1  0  0  0  0
M  END
$$$$

  -OEChem-03222214023D

 26 25  0     1  0  0  0  0  0999 V2000
   -2.6119   -3.6333   -0.1522 H   0  0  0  0  0  0  0  0  0  0  0  0
   -2.6019   -2.5982   -0.5064 C   0  0  0  0  0  0  0  0  0  0  0  0
   -3.2713   -2.0059    0.1218 H   0  0  0  0  0  0  0  0  0  0  0  0
   -2.9636   -2.5766   -1.5373 H   0  0  0  0  0  0  0  0  0  0  0  0
   -1.1932   -2.0382   -0.4375 C   0  0  0  0  0  0  0  0  0  0  0  0
   -0.2856   -2.7382   -0.0296 O   0  0  0  0  0  0  0  0  0  0  0  0
   -0.9495   -0.7464   -0.8656 N   0  0  0  0  0  0  0  0  0  0  0  0
   -1.7466   -0.2215   -1.2105 H   0  0  0  0  0  0  0  0  0  0  0  0
    0.3589   -0.0685   -0.7668 C   0  0  1  0  0  0  0  0  0  0  0  0
    1.1184   -0.6472   -1.3063 H   0  0  0  0  0  0  0  0  0  0  0  0
    0.1484    1.2840   -1.4879 C   0  0  0  0  0  0  0  0  0  0  0  0
   -0.1680    1.0793   -2.5141 H   0  0  0  0  0  0  0  0  0  0  0  0
   -0.6567    1.8323   -0.9918 H   0  0  0  0  0  0  0  0  0  0  0  0
    1.3531    2.2219   -1.5505 C   0  0  0  0  0  0  0  0  0  0  0  0
    2.2285    2.2749   -0.7155 O   0  0  0  0  0  0  0  0  0  0  0  0
    1.5137    3.0877   -2.5942 N   0  0  0  0  0  0  0  0  0  0  0  0
    2.4209    3.5442   -2.6429 H   0  0  0  0  0  0  0  0  0  0  0  0
    0.9672    2.9533   -3.4374 H   0  0  0  0  0  0  0  0  0  0  0  0
    0.8597    0.0527    0.6959 C   0  0  0  0  0  0  0  0  0  0  0  0
    1.9933   -0.2964    0.9930 O   0  0  0  0  0  0  0  0  0  0  0  0
   -0.0046    0.4609    1.6978 N   0  0  0  0  0  0  0  0  0  0  0  0
   -0.9673    0.6403    1.4396 H   0  0  0  0  0  0  0  0  0  0  0  0
    0.3710    0.4878    3.1055 C   0  0  0  0  0  0  0  0  0  0  0  0
    1.2295    1.1504    3.2587 H   0  0  0  0  0  0  0  0  0  0  0  0
   -0.4609    0.8546    3.7139 H   0  0  0  0  0  0  0  0  0  0  0  0
    0.6361   -0.5177    3.4492 H   0  0  0  0  0  0  0  0  0  0  0  0
  1  2  1  0  0  0  0
  2  3  1  0  0  0  0
  2  4  1  0  0  0  0
  2  5  1  0  0  0  0
  5  6  2  0  0  0  0
  5  7  1  0  0  0  0
  7  8  1  0  0  0  0
  7  9  1  0  0  0  0
  9 10  1  0  0  0  0
  9 11  1  0  0  0  0
  9 19  1  0  0  0  0
 11 12  1  0  0  0  0
 11 13  1  0  0  0  0
 11 14  1  0  0  0  0
 14 15  2  0  0  0  0
 14 16  1  0  0  0  0
 16 17  1  0  0  0  0
 16 18  1  0  0  0  0
 19 20  2  0  0  0  0
 19 21  1  0  0  0  0
 21 22  1  0  0  0  0
 21 23  1  0  0  0  0
 23 24  1  0  0  0  0
 23 25  1  0  0  0  0
 23 26  1  0  0  0  0
M  END
$$$$

  -OEChem-03222214023D

 26 25  0     1  0  0  0  0  0999 V2000
   -2.6251   -3.6247   -0.1558 H   0  0  0  0  0  0  0  0  0  0  0  0
   -2.6068   -2.5915   -0.5152 C   0  0  0  0  0  0  0  0  0  0  0  0
   -3.2984   -1.9982    0.0875 H   0  0  0  0  0  0  0  0  0  0  0  0
   -2.9344   -2.5771   -1.5573 H   0  0  0  0  0  0  0  0  0  0  0  0
   -1.2028   -2.0264   -0.4029 C   0  0  0  0  0  0  0  0  0  0  0  0
   -0.3137   -2.7139    0.0623 O   0  0  0  0  0  0  0  0  0  0  0  0
   -0.9448   -0.7425   -0.8473 N   0  0  0  0  0  0  0  0  0  0  0  0
   -1.7207   -0.2397   -1.2658 H   0  0  0  0  0  0  0  0  0  0  0  0
    0.3715   -0.0762   -0.7642 C   0  0  1  0  0  0  0  0  0  0  0  0
    1.1246   -0.6592   -1.3079 H   0  0  0  0  0  0  0  0  0  0  0  0
    0.1616    1.2830   -1.4732 C   0  0  0  0  0  0  0  0  0  0  0  0
   -0.1682    1.0894   -2.4971 H   0  0  0  0  0  0  0  0  0  0  0  0
   -0.6323    1.8328   -0.9609 H   0  0  0  0  0  0  0  0  0  0  0  0
    1.3722    2.2122   -1.5506 C   0  0  0  0  0  0  0  0  0  0  0  0
    2.3829    2.0913   -0.8951 O   0  0  0  0  0  0  0  0  0  0  0  0
    1.3724    3.2842   -2.3962 N   0  0  0  0  0  0  0  0  0  0  0  0
    2.2657    3.7581   -2.5016 H   0  0  0  0  0  0  0  0  0  0  0  0
    0.6741    3.3415   -3.1286 H   0  0  0  0  0  0  0  0  0  0  0  0
    0.8752    0.0537    0.6972 C   0  0  0  0  0  0  0  0  0  0  0  0
    2.0054   -0.2977    1.0032 O   0  0  0  0  0  0  0  0  0  0  0  0
    0.0111    0.4807    1.6916 N   0  0  0  0  0  0  0  0  0  0  0  0
   -0.9586    0.6154    1.4316 H   0  0  0  0  0  0  0  0  0  0  0  0
    0.3695    0.4741    3.1044 C   0  0  0  0  0  0  0  0  0  0  0  0
    1.2490    1.1029    3.2787 H   0  0  0  0  0  0  0  0  0  0  0  0
   -0.4568    0.8624    3.7070 H   0  0  0  0  0  0  0  0  0  0  0  0
    0.5946   -0.5449    3.4366 H   0  0  0  0  0  0  0  0  0  0  0  0
  1  2  1  0  0  0  0
  2  3  1  0  0  0  0
  2  4  1  0  0  0  0
  2  5  1  0  0  0  0
  5  6  2  0  0  0  0
  5  7  1  0  0  0  0
  7  8  1  0  0  0  0
  7  9  1  0  0  0  0
  9 10  1  0  0  0  0
  9 11  1  0  0  0  0
  9 19  1  0  0  0  0
 11 12  1  0  0  0  0
 11 13  1  0  0  0  0
 11 14  1  0  0  0  0
 14 15  2  0  0  0  0
 14 16  1  0  0  0  0
 16 17  1  0  0  0  0
 16 18  1  0  0  0  0
 19 20  2  0  0  0  0
 19 21  1  0  0  0  0
 21 22  1  0  0  0  0
 21 23  1  0  0  0  0
 23 24  1  0  0  0  0
 23 25  1  0  0  0  0
 23 26  1  0  0  0  0
M  END
$$$$

  -OEChem-03222214023D

 26 25  0     1  0  0  0  0  0999 V2000
   -2.6423   -3.6243   -0.1649 H   0  0  0  0  0  0  0  0  0  0  0  0
   -2.6135   -2.5983   -0.5435 C   0  0  0  0  0  0  0  0  0  0  0  0
   -3.3364   -1.9981    0.0139 H   0  0  0  0  0  0  0  0  0  0  0  0
   -2.8918   -2.6070   -1.6000 H   0  0  0  0  0  0  0  0  0  0  0  0
   -1.2204   -2.0208   -0.3771 C   0  0  0  0  0  0  0  0  0  0  0  0
   -0.3490   -2.6924    0.1414 O   0  0  0  0  0  0  0  0  0  0  0  0
   -0.9544   -0.7421   -0.8309 N   0  0  0  0  0  0  0  0  0  0  0  0
   -1.7069   -0.2694   -1.3211 H   0  0  0  0  0  0  0  0  0  0  0  0
    0.3673   -0.0846   -0.7621 C   0  0  1  0  0  0  0  0  0  0  0  0
    1.1142   -0.6670   -1.3149 H   0  0  0  0  0  0  0  0  0  0  0  0
    0.1541    1.2829   -1.4524 C   0  0  0  0  0  0  0  0  0  0  0  0
   -0.1917    1.1071   -2.4743 H   0  0  0  0  0  0  0  0  0  0  0  0
   -0.6271    1.8320   -0.9200 H   0  0  0  0  0  0  0  0  0  0  0  0
    1.3747    2.1971   -1.5352 C   0  0  0  0  0  0  0  0  0  0  0  0
    2.4727    1.9223   -1.1048 O   0  0  0  0  0  0  0  0  0  0  0  0
    1.2859    3.4227   -2.1310 N   0  0  0  0  0  0  0  0  0  0  0  0
    2.1679    3.9060   -2.2802 H   0  0  0  0  0  0  0  0  0  0  0  0
    0.4741    3.6498   -2.6940 H   0  0  0  0  0  0  0  0  0  0  0  0
    0.8825    0.0504    0.6953 C   0  0  0  0  0  0  0  0  0  0  0  0
    2.0209   -0.2778    0.9957 O   0  0  0  0  0  0  0  0  0  0  0  0
    0.0253    0.4895    1.6905 N   0  0  0  0  0  0  0  0  0  0  0  0
   -0.9525    0.5792    1.4410 H   0  0  0  0  0  0  0  0  0  0  0  0
    0.3931    0.4873    3.1010 C   0  0  0  0  0  0  0  0  0  0  0  0
    1.2897    1.0949    3.2637 H   0  0  0  0  0  0  0  0  0  0  0  0
   -0.4185    0.9031    3.7055 H   0  0  0  0  0  0  0  0  0  0  0  0
    0.5939   -0.5342    3.4411 H   0  0  0  0  0  0  0  0  0  0  0  0
  1  2  1  0  0  0  0
  2  3  1  0  0  0  0
  2  4  1  0  0  0  0
  2  5  1  0  0  0  0
  5  6  2  0  0  0  0
  5  7  1  0  0  0  0
  7  8  1  0  0  0  0
  7  9  1  0  0  0  0
  9 10  1  0  0  0  0
  9 11  1  0  0  0  0
  9 19  1  0  0  0  0
 11 12  1  0  0  0  0
 11 13  1  0  0  0  0
 11 14  1  0  0  0  0
 14 15  2  0  0  0  0
 14 16  1  0  0  0  0
 16 17  1  0  0  0  0
 16 18  1  0  0  0  0
 19 20  2  0  0  0  0
 19 21  1  0  0  0  0
 21 22  1  0  0  0  0
 21 23  1  0  0  0  0
 23 24  1  0  0  0  0
 23 25  1  0  0  0  0
 23 26  1  0  0  0  0
M  END
$$$$

  -OEChem-03222214023D

 26 25  0     1  0  0  0  0  0999 V2000
   -2.6622   -3.6431   -0.1501 H   0  0  0  0  0  0  0  0  0  0  0  0
   -2.6262   -2.6318   -0.5654 C   0  0  0  0  0  0  0  0  0  0  0  0
   -3.3912   -2.0237   -0.0769 H   0  0  0  0  0  0  0  0  0  0  0  0
   -2.8390   -2.6849   -1.6358 H   0  0  0  0  0  0  0  0  0  0  0  0
   -1.2551   -2.0231   -0.3376 C   0  0  0  0  0  0  0  0  0  0  0  0
   -0.4097   -2.6547    0.2673 O   0  0  0  0  0  0  0  0  0  0  0  0
   -0.9839   -0.7577   -0.8247 N   0  0  0  0  0  0  0  0  0  0  0  0
   -1.7007   -0.3432   -1.4120 H   0  0  0  0  0  0  0  0  0  0  0  0
    0.3449   -0.1117   -0.7875 C   0  0  1  0  0  0  0  0  0  0  0  0
    1.0791   -0.7078   -1.3433 H   0  0  0  0  0  0  0  0  0  0  0  0
    0.1379    1.2546   -1.4795 C   0  0  0  0  0  0  0  0  0  0  0  0
   -0.2257    1.0871   -2.4965 H   0  0  0  0  0  0  0  0  0  0  0  0
   -0.6260    1.8159   -0.9352 H   0  0  0  0  0  0  0  0  0  0  0  0
    1.3802    2.1363   -1.5808 C   0  0  0  0  0  0  0  0  0  0  0  0
    2.5110    1.7368   -1.4070 O   0  0  0  0  0  0  0  0  0  0  0  0
    1.2764    3.4651   -1.8782 N   0  0  0  0  0  0  0  0  0  0  0  0
    2.1281    4.0066   -1.7554 H   0  0  0  0  0  0  0  0  0  0  0  0
    0.3717    3.9181   -1.8181 H   0  0  0  0  0  0  0  0  0  0  0  0
    0.8811    0.0521    0.6594 C   0  0  0  0  0  0  0  0  0  0  0  0
    2.0410   -0.2086    0.9411 O   0  0  0  0  0  0  0  0  0  0  0  0
    0.0383    0.5218    1.6528 N   0  0  0  0  0  0  0  0  0  0  0  0
   -0.9502    0.5325    1.4290 H   0  0  0  0  0  0  0  0  0  0  0  0
    0.4350    0.5709    3.0550 C   0  0  0  0  0  0  0  0  0  0  0  0
    1.3318    1.1874    3.1789 H   0  0  0  0  0  0  0  0  0  0  0  0
   -0.3660    1.0048    3.6607 H   0  0  0  0  0  0  0  0  0  0  0  0
    0.6475   -0.4369    3.4275 H   0  0  0  0  0  0  0  0  0  0  0  0
  1  2  1  0  0  0  0
  2  3  1  0  0  0  0
  2  4  1  0  0  0  0
  2  5  1  0  0  0  0
  5  6  2  0  0  0  0
  5  7  1  0  0  0  0
  7  8  1  0  0  0  0
  7  9  1  0  0  0  0
  9 10  1  0  0  0  0
  9 11  1  0  0  0  0
  9 19  1  0  0  0  0
 11 12  1  0  0  0  0
 11 13  1  0  0  0  0
 11 14  1  0  0  0  0
 14 15  2  0  0  0  0
 14 16  1  0  0  0  0
 16 17  1  0  0  0  0
 16 18  1  0  0  0  0
 19 20  2  0  0  0  0
 19 21  1  0  0  0  0
 21 22  1  0  0  0  0
 21 23  1  0  0  0  0
 23 24  1  0  0  0  0
 23 25  1  0  0  0  0
 23 26  1  0  0  0  0
M  END
$$$$

  -OEChem-03222214023D

 26 25  0     1  0  0  0  0  0999 V2000
   -2.6328   -3.6892   -0.1837 H   0  0  0  0  0  0  0  0  0  0  0  0
   -2.6220   -2.6699   -0.5806 C   0  0  0  0  0  0  0  0  0  0  0  0
   -3.4051   -2.0915   -0.0848 H   0  0  0  0  0  0  0  0  0  0  0  0
   -2.8292   -2.7100   -1.6527 H   0  0  0  0  0  0  0  0  0  0  0  0
   -1.2681   -2.0294   -0.3356 C   0  0  0  0  0  0  0  0  0  0  0  0
   -0.4198   -2.6371    0.2898 O   0  0  0  0  0  0  0  0  0  0  0  0
   -1.0152   -0.7612   -0.8260 N   0  0  0  0  0  0  0  0  0  0  0  0
   -1.7279   -0.3708   -1.4347 H   0  0  0  0  0  0  0  0  0  0  0  0
    0.3092   -0.1054   -0.8019 C   0  0  1  0  0  0  0  0  0  0  0  0
    1.0398   -0.6963   -1.3683 H   0  0  0  0  0  0  0  0  0  0  0  0
    0.1030    1.2686   -1.4748 C   0  0  0  0  0  0  0  0  0  0  0  0
   -0.2666    1.1214   -2.4927 H   0  0  0  0  0  0  0  0  0  0  0  0
   -0.6523    1.8299   -0.9187 H   0  0  0  0  0  0  0  0  0  0  0  0
    1.3643    2.1234   -1.5630 C   0  0  0  0  0  0  0  0  0  0  0  0
    2.4772    1.6506   -1.6583 O   0  0  0  0  0  0  0  0  0  0  0  0
    1.3092    3.4871   -1.5189 N   0  0  0  0  0  0  0  0  0  0  0  0
    2.2055    3.9477   -1.3831 H   0  0  0  0  0  0  0  0  0  0  0  0
    0.4594    3.9323   -1.1918 H   0  0  0  0  0  0  0  0  0  0  0  0
    0.8626    0.0632    0.6375 C   0  0  0  0  0  0  0  0  0  0  0  0
    2.0453   -0.1104    0.8885 O   0  0  0  0  0  0  0  0  0  0  0  0
    0.0267    0.5266    1.6395 N   0  0  0  0  0  0  0  0  0  0  0  0
   -0.9667    0.4812    1.4420 H   0  0  0  0  0  0  0  0  0  0  0  0
    0.4544    0.6238    3.0300 C   0  0  0  0  0  0  0  0  0  0  0  0
    1.3250    1.2822    3.1187 H   0  0  0  0  0  0  0  0  0  0  0  0
   -0.3510    1.0344    3.6461 H   0  0  0  0  0  0  0  0  0  0  0  0
    0.7213   -0.3651    3.4177 H   0  0  0  0  0  0  0  0  0  0  0  0
  1  2  1  0  0  0  0
  2  3  1  0  0  0  0
  2  4  1  0  0  0  0
  2  5  1  0  0  0  0
  5  6  2  0  0  0  0
  5  7  1  0  0  0  0
  7  8  1  0  0  0  0
  7  9  1  0  0  0  0
  9 10  1  0  0  0  0
  9 11  1  0  0  0  0
  9 19  1  0  0  0  0
 11 12  1  0  0  0  0
 11 13  1  0  0  0  0
 11 14  1  0  0  0  0
 14 15  2  0  0  0  0
 14 16  1  0  0  0  0
 16 17  1  0  0  0  0
 16 18  1  0  0  0  0
 19 20  2  0  0  0  0
 19 21  1  0  0  0  0
 21 22  1  0  0  0  0
 21 23  1  0  0  0  0
 23 24  1  0  0  0  0
 23 25  1  0  0  0  0
 23 26  1  0  0  0  0
M  END
$$$$

  -OEChem-03222214023D

 26 25  0     1  0  0  0  0  0999 V2000
   -2.6023   -3.7225   -0.2006 H   0  0  0  0  0  0  0  0  0  0  0  0
   -2.6115   -2.7020   -0.5946 C   0  0  0  0  0  0  0  0  0  0  0  0
   -3.4087   -2.1414   -0.1009 H   0  0  0  0  0  0  0  0  0  0  0  0
   -2.8131   -2.7435   -1.6677 H   0  0  0  0  0  0  0  0  0  0  0  0
   -1.2728   -2.0332   -0.3423 C   0  0  0  0  0  0  0  0  0  0  0  0
   -0.4172   -2.6189    0.2945 O   0  0  0  0  0  0  0  0  0  0  0  0
   -1.0421   -0.7609   -0.8323 N   0  0  0  0  0  0  0  0  0  0  0  0
   -1.7571   -0.3879   -1.4498 H   0  0  0  0  0  0  0  0  0  0  0  0
    0.2741   -0.0898   -0.8172 C   0  0  1  0  0  0  0  0  0  0  0  0
    1.0041   -0.6748   -1.3909 H   0  0  0  0  0  0  0  0  0  0  0  0
    0.0646    1.2861   -1.4800 C   0  0  0  0  0  0  0  0  0  0  0  0
   -0.3023    1.1491   -2.5006 H   0  0  0  0  0  0  0  0  0  0  0  0
   -0.6894    1.8489   -0.9238 H   0  0  0  0  0  0  0  0  0  0  0  0
    1.3412    2.1176   -1.5525 C   0  0  0  0  0  0  0  0  0  0  0  0
    2.3985    1.6405   -1.9111 O   0  0  0  0  0  0  0  0  0  0  0  0
    1.3861    3.4159   -1.1326 N   0  0  0  0  0  0  0  0  0  0  0  0
    2.3257    3.7777   -0.9909 H   0  0  0  0  0  0  0  0  0  0  0  0
    0.6296    3.7578   -0.5510 H   0  0  0  0  0  0  0  0  0  0  0  0
    0.8425    0.0849    0.6149 C   0  0  0  0  0  0  0  0  0  0  0  0
    2.0421    0.0040    0.8313 O   0  0  0  0  0  0  0  0  0  0  0  0
    0.0119    0.5369    1.6263 N   0  0  0  0  0  0  0  0  0  0  0  0
   -0.9824    0.4277    1.4580 H   0  0  0  0  0  0  0  0  0  0  0  0
    0.4683    0.6831    3.0035 C   0  0  0  0  0  0  0  0  0  0  0  0
    1.3098    1.3819    3.0578 H   0  0  0  0  0  0  0  0  0  0  0  0
   -0.3399    1.0700    3.6310 H   0  0  0  0  0  0  0  0  0  0  0  0
    0.7884   -0.2843    3.4047 H   0  0  0  0  0  0  0  0  0  0  0  0
  1  2  1  0  0  0  0
  2  3  1  0  0  0  0
  2  4  1  0  0  0  0
  2  5  1  0  0  0  0
  5  6  2  0  0  0  0
  5  7  1  0  0  0  0
  7  8  1  0  0  0  0
  7  9  1  0  0  0  0
  9 10  1  0  0  0  0
  9 11  1  0  0  0  0
  9 19  1  0  0  0  0
 11 12  1  0  0  0  0
 11 13  1  0  0  0  0
 11 14  1  0  0  0  0
 14 15  2  0  0  0  0
 14 16  1  0  0  0  0
 16 17  1  0  0  0  0
 16 18  1  0  0  0  0
 19 20  2  0  0  0  0
 19 21  1  0  0  0  0
 21 22  1  0  0  0  0
 21 23  1  0  0  0  0
 23 24  1  0  0  0  0
 23 25  1  0  0  0  0
 23 26  1  0  0  0  0
M  END
$$$$

  -OEChem-03222214023D

 26 25  0     1  0  0  0  0  0999 V2000
   -2.5647   -3.7440   -0.2200 H   0  0  0  0  0  0  0  0  0  0  0  0
   -2.5949   -2.7199   -0.6035 C   0  0  0  0  0  0  0  0  0  0  0  0
   -3.3999   -2.1792   -0.1002 H   0  0  0  0  0  0  0  0  0  0  0  0
   -2.8017   -2.7541   -1.6757 H   0  0  0  0  0  0  0  0  0  0  0  0
   -1.2673   -2.0297   -0.3513 C   0  0  0  0  0  0  0  0  0  0  0  0
   -0.4034   -2.5991    0.2895 O   0  0  0  0  0  0  0  0  0  0  0  0
   -1.0573   -0.7521   -0.8367 N   0  0  0  0  0  0  0  0  0  0  0  0
   -1.7763   -0.3901   -1.4562 H   0  0  0  0  0  0  0  0  0  0  0  0
    0.2498   -0.0648   -0.8240 C   0  0  1  0  0  0  0  0  0  0  0  0
    0.9824   -0.6414   -1.4028 H   0  0  0  0  0  0  0  0  0  0  0  0
    0.0340    1.3112   -1.4810 C   0  0  0  0  0  0  0  0  0  0  0  0
   -0.3266    1.1783   -2.5044 H   0  0  0  0  0  0  0  0  0  0  0  0
   -0.7226    1.8740   -0.9282 H   0  0  0  0  0  0  0  0  0  0  0  0
    1.3177    2.1305   -1.5382 C   0  0  0  0  0  0  0  0  0  0  0  0
    2.2934    1.7266   -2.1384 O   0  0  0  0  0  0  0  0  0  0  0  0
    1.4929    3.2641   -0.7984 N   0  0  0  0  0  0  0  0  0  0  0  0
    2.4674    3.5326   -0.6877 H   0  0  0  0  0  0  0  0  0  0  0  0
    0.8553    3.4196   -0.0257 H   0  0  0  0  0  0  0  0  0  0  0  0
    0.8261    0.1123    0.6039 C   0  0  0  0  0  0  0  0  0  0  0  0
    2.0327    0.0998    0.7959 O   0  0  0  0  0  0  0  0  0  0  0  0
   -0.0037    0.5494    1.6223 N   0  0  0  0  0  0  0  0  0  0  0  0
   -0.9956    0.3979    1.4709 H   0  0  0  0  0  0  0  0  0  0  0  0
    0.4662    0.7185    2.9925 C   0  0  0  0  0  0  0  0  0  0  0  0
    1.2876    1.4417    3.0318 H   0  0  0  0  0  0  0  0  0  0  0  0
   -0.3448    1.0863    3.6282 H   0  0  0  0  0  0  0  0  0  0  0  0
    0.8193   -0.2366    3.3957 H   0  0  0  0  0  0  0  0  0  0  0  0
  1  2  1  0  0  0  0
  2  3  1  0  0  0  0
  2  4  1  0  0  0  0
  2  5  1  0  0  0  0
  5  6  2  0  0  0  0
  5  7  1  0  0  0  0
  7  8  1  0  0  0  0
  7  9  1  0  0  0  0
  9 10  1  0  0  0  0
  9 11  1  0  0  0  0
  9 19  1  0  0  0  0
 11 12  1  0  0  0  0
 11 13  1  0  0  0  0
 11 14  1  0  0  0  0
 14 15  2  0  0  0  0
 14 16  1  0  0  0  0
 16 17  1  0  0  0  0
 16 18  1  0  0  0  0
 19 20  2  0  0  0  0
 19 21  1  0  0  0  0
 21 22  1  0  0  0  0
 21 23  1  0  0  0  0
 23 24  1  0  0  0  0
 23 25  1  0  0  0  0
 23 26  1  0  0  0  0
M  END
$$$$

  -OEChem-03222214023D

 26 25  0     1  0  0  0  0  0999 V2000
   -2.5773   -3.7337   -0.2147 H   0  0  0  0  0  0  0  0  0  0  0  0
   -2.5920   -2.7224   -0.6318 C   0  0  0  0  0  0  0  0  0  0  0  0
   -3.4153   -2.1664   -0.1770 H   0  0  0  0  0  0  0  0  0  0  0  0
   -2.7577   -2.7911   -1.7097 H   0  0  0  0  0  0  0  0  0  0  0  0
   -1.2744   -2.0234   -0.3525 C   0  0  0  0  0  0  0  0  0  0  0  0
   -0.4146   -2.5902    0.2963 O   0  0  0  0  0  0  0  0  0  0  0  0
   -1.0663   -0.7414   -0.8265 N   0  0  0  0  0  0  0  0  0  0  0  0
   -1.7795   -0.3814   -1.4543 H   0  0  0  0  0  0  0  0  0  0  0  0
    0.2397   -0.0530   -0.8062 C   0  0  1  0  0  0  0  0  0  0  0  0
    0.9719   -0.6265   -1.3884 H   0  0  0  0  0  0  0  0  0  0  0  0
    0.0267    1.3244   -1.4597 C   0  0  0  0  0  0  0  0  0  0  0  0
   -0.3306    1.1945   -2.4849 H   0  0  0  0  0  0  0  0  0  0  0  0
   -0.7306    1.8887   -0.9092 H   0  0  0  0  0  0  0  0  0  0  0  0
    1.3116    2.1415   -1.5065 C   0  0  0  0  0  0  0  0  0  0  0  0
    2.1848    1.8789   -2.3095 O   0  0  0  0  0  0  0  0  0  0  0  0
    1.6044    3.1024   -0.5824 N   0  0  0  0  0  0  0  0  0  0  0  0
    2.5914    3.3442   -0.5522 H   0  0  0  0  0  0  0  0  0  0  0  0
    1.0945    3.0637    0.2938 H   0  0  0  0  0  0  0  0  0  0  0  0
    0.8189    0.1146    0.6208 C   0  0  0  0  0  0  0  0  0  0  0  0
    2.0279    0.1323    0.7988 O   0  0  0  0  0  0  0  0  0  0  0  0
   -0.0075    0.5430    1.6450 N   0  0  0  0  0  0  0  0  0  0  0  0
   -0.9984    0.3739    1.5031 H   0  0  0  0  0  0  0  0  0  0  0  0
    0.4717    0.7173    3.0113 C   0  0  0  0  0  0  0  0  0  0  0  0
    1.2741    1.4618    3.0457 H   0  0  0  0  0  0  0  0  0  0  0  0
   -0.3422    1.0600    3.6573 H   0  0  0  0  0  0  0  0  0  0  0  0
    0.8540   -0.2301    3.4061 H   0  0  0  0  0  0  0  0  0  0  0  0
  1  2  1  0  0  0  0
  2  3  1  0  0  0  0
  2  4  1  0  0  0  0
  2  5  1  0  0  0  0
  5  6  2  0  0  0  0
  5  7  1  0  0  0  0
  7  8  1  0  0  0  0
  7  9  1  0  0  0  0
  9 10  1  0  0  0  0
  9 11  1  0  0  0  0
  9 19  1  0  0  0  0
 11 12  1  0  0  0  0
 11 13  1  0  0  0  0
 11 14  1  0  0  0  0
 14 15  2  0  0  0  0
 14 16  1  0  0  0  0
 16 17  1  0  0  0  0
 16 18  1  0  0  0  0
 19 20  2  0  0  0  0
 19 21  1  0  0  0  0
 21 22  1  0  0  0  0
 21 23  1  0  0  0  0
 23 24  1  0  0  0  0
 23 25  1  0  0  0  0
 23 26  1  0  0  0  0
M  END
$$$$

  -OEChem-03222214023D

 26 25  0     1  0  0  0  0  0999 V2000
   -2.5728   -3.7404   -0.2635 H   0  0  0  0  0  0  0  0  0  0  0  0
   -2.6006   -2.7089   -0.6267 C   0  0  0  0  0  0  0  0  0  0  0  0
   -3.4055   -2.1773   -0.1135 H   0  0  0  0  0  0  0  0  0  0  0  0
   -2.8060   -2.7217   -1.6999 H   0  0  0  0  0  0  0  0  0  0  0  0
   -1.2725   -2.0253   -0.3590 C   0  0  0  0  0  0  0  0  0  0  0  0
   -0.4095   -2.6056    0.2739 O   0  0  0  0  0  0  0  0  0  0  0  0
   -1.0561   -0.7411   -0.8233 N   0  0  0  0  0  0  0  0  0  0  0  0
   -1.7718   -0.3639   -1.4381 H   0  0  0  0  0  0  0  0  0  0  0  0
    0.2522   -0.0581   -0.7896 C   0  0  1  0  0  0  0  0  0  0  0  0
    0.9854   -0.6345   -1.3674 H   0  0  0  0  0  0  0  0  0  0  0  0
    0.0530    1.3205   -1.4451 C   0  0  0  0  0  0  0  0  0  0  0  0
   -0.2993    1.1899   -2.4722 H   0  0  0  0  0  0  0  0  0  0  0  0
   -0.7062    1.8880   -0.9007 H   0  0  0  0  0  0  0  0  0  0  0  0
    1.3367    2.1419   -1.4841 C   0  0  0  0  0  0  0  0  0  0  0  0
    2.0903    2.0659   -2.4343 O   0  0  0  0  0  0  0  0  0  0  0  0
    1.7286    2.9554   -0.4602 N   0  0  0  0  0  0  0  0  0  0  0  0
    2.7034    3.2361   -0.5221 H   0  0  0  0  0  0  0  0  0  0  0  0
    1.3592    2.7296    0.4586 H   0  0  0  0  0  0  0  0  0  0  0  0
    0.8183    0.0963    0.6432 C   0  0  0  0  0  0  0  0  0  0  0  0
    2.0264    0.1215    0.8279 O   0  0  0  0  0  0  0  0  0  0  0  0
   -0.0150    0.5204    1.6632 N   0  0  0  0  0  0  0  0  0  0  0  0
   -1.0067    0.3671    1.5077 H   0  0  0  0  0  0  0  0  0  0  0  0
    0.4489    0.6800    3.0366 C   0  0  0  0  0  0  0  0  0  0  0  0
    1.2570    1.4172    3.0874 H   0  0  0  0  0  0  0  0  0  0  0  0
   -0.3704    1.0246    3.6749 H   0  0  0  0  0  0  0  0  0  0  0  0
    0.8179   -0.2738    3.4285 H   0  0  0  0  0  0  0  0  0  0  0  0
  1  2  1  0  0  0  0
  2  3  1  0  0  0  0
  2  4  1  0  0  0  0
  2  5  1  0  0  0  0
  5  6  2  0  0  0  0
  5  7  1  0  0  0  0
  7  8  1  0  0  0  0
  7  9  1  0  0  0  0
  9 10  1  0  0  0  0
  9 11  1  0  0  0  0
  9 19  1  0  0  0  0
 11 12  1  0  0  0  0
 11 13  1  0  0  0  0
 11 14  1  0  0  0  0
 14 15  2  0  0  0  0
 14 16  1  0  0  0  0
 16 17  1  0  0  0  0
 16 18  1  0  0  0  0
 19 20  2  0  0  0  0
 19 21  1  0  0  0  0
 21 22  1  0  0  0  0
 21 23  1  0  0  0  0
 23 24  1  0  0  0  0
 23 25  1  0  0  0  0
 23 26  1  0  0  0  0
M  END
$$$$

  -OEChem-03222214023D

 26 25  0     1  0  0  0  0  0999 V2000
   -2.6114   -3.7212   -0.2629 H   0  0  0  0  0  0  0  0  0  0  0  0
   -2.6209   -2.6902   -0.6282 C   0  0  0  0  0  0  0  0  0  0  0  0
   -3.4134   -2.1419   -0.1133 H   0  0  0  0  0  0  0  0  0  0  0  0
   -2.8307   -2.7008   -1.7006 H   0  0  0  0  0  0  0  0  0  0  0  0
   -1.2791   -2.0316   -0.3668 C   0  0  0  0  0  0  0  0  0  0  0  0
   -0.4189   -2.6310    0.2519 O   0  0  0  0  0  0  0  0  0  0  0  0
   -1.0462   -0.7462   -0.8195 N   0  0  0  0  0  0  0  0  0  0  0  0
   -1.7633   -0.3465   -1.4186 H   0  0  0  0  0  0  0  0  0  0  0  0
    0.2681   -0.0757   -0.7734 C   0  0  1  0  0  0  0  0  0  0  0  0
    0.9987   -0.6589   -1.3474 H   0  0  0  0  0  0  0  0  0  0  0  0
    0.0865    1.3052   -1.4322 C   0  0  0  0  0  0  0  0  0  0  0  0
   -0.2654    1.1724   -2.4594 H   0  0  0  0  0  0  0  0  0  0  0  0
   -0.6722    1.8772   -0.8915 H   0  0  0  0  0  0  0  0  0  0  0  0
    1.3663    2.1363   -1.4721 C   0  0  0  0  0  0  0  0  0  0  0  0
    1.9789    2.2737   -2.5128 O   0  0  0  0  0  0  0  0  0  0  0  0
    1.8651    2.8009   -0.3892 N   0  0  0  0  0  0  0  0  0  0  0  0
    2.8055    3.1561   -0.5357 H   0  0  0  0  0  0  0  0  0  0  0  0
    1.6564    2.3879    0.5170 H   0  0  0  0  0  0  0  0  0  0  0  0
    0.8215    0.0593    0.6661 C   0  0  0  0  0  0  0  0  0  0  0  0
    2.0286    0.0875    0.8583 O   0  0  0  0  0  0  0  0  0  0  0  0
   -0.0156    0.4810    1.6833 N   0  0  0  0  0  0  0  0  0  0  0  0
   -1.0080    0.3427    1.5191 H   0  0  0  0  0  0  0  0  0  0  0  0
    0.4390    0.6428    3.0595 C   0  0  0  0  0  0  0  0  0  0  0  0
    1.2386    1.3886    3.1168 H   0  0  0  0  0  0  0  0  0  0  0  0
   -0.3878    0.9772    3.6933 H   0  0  0  0  0  0  0  0  0  0  0  0
    0.8159   -0.3077    3.4520 H   0  0  0  0  0  0  0  0  0  0  0  0
  1  2  1  0  0  0  0
  2  3  1  0  0  0  0
  2  4  1  0  0  0  0
  2  5  1  0  0  0  0
  5  6  2  0  0  0  0
  5  7  1  0  0  0  0
  7  8  1  0  0  0  0
  7  9  1  0  0  0  0
  9 10  1  0  0  0  0
  9 11  1  0  0  0  0
  9 19  1  0  0  0  0
 11 12  1  0  0  0  0
 11 13  1  0  0  0  0
 11 14  1  0  0  0  0
 14 15  2  0  0  0  0
 14 16  1  0  0  0  0
 16 17  1  0  0  0  0
 16 18  1  0  0  0  0
 19 20  2  0  0  0  0
 19 21  1  0  0  0  0
 21 22  1  0  0  0  0
 21 23  1  0  0  0  0
 23 24  1  0  0  0  0
 23 25  1  0  0  0  0
 23 26  1  0  0  0  0
M  END
$$$$

  -OEChem-03222214023D

 26 25  0     1  0  0  0  0  0999 V2000
   -2.6478   -3.7048   -0.2662 H   0  0  0  0  0  0  0  0  0  0  0  0
   -2.6416   -2.6727   -0.6286 C   0  0  0  0  0  0  0  0  0  0  0  0
   -3.4236   -2.1132   -0.1097 H   0  0  0  0  0  0  0  0  0  0  0  0
   -2.8549   -2.6773   -1.7004 H   0  0  0  0  0  0  0  0  0  0  0  0
   -1.2886   -2.0366   -0.3695 C   0  0  0  0  0  0  0  0  0  0  0  0
   -0.4307   -2.6574    0.2313 O   0  0  0  0  0  0  0  0  0  0  0  0
   -1.0370   -0.7522   -0.8152 N   0  0  0  0  0  0  0  0  0  0  0  0
   -1.7543   -0.3304   -1.3988 H   0  0  0  0  0  0  0  0  0  0  0  0
    0.2846   -0.0971   -0.7594 C   0  0  1  0  0  0  0  0  0  0  0  0
    1.0124   -0.6891   -1.3277 H   0  0  0  0  0  0  0  0  0  0  0  0
    0.1194    1.2838   -1.4258 C   0  0  0  0  0  0  0  0  0  0  0  0
   -0.2340    1.1438   -2.4516 H   0  0  0  0  0  0  0  0  0  0  0  0
   -0.6388    1.8590   -0.8879 H   0  0  0  0  0  0  0  0  0  0  0  0
    1.3910    2.1310   -1.4762 C   0  0  0  0  0  0  0  0  0  0  0  0
    1.8414    2.4877   -2.5474 O   0  0  0  0  0  0  0  0  0  0  0  0
    2.0283    2.6297   -0.3772 N   0  0  0  0  0  0  0  0  0  0  0  0
    2.9246    3.0572   -0.5898 H   0  0  0  0  0  0  0  0  0  0  0  0
    1.9685    2.0593    0.4664 H   0  0  0  0  0  0  0  0  0  0  0  0
    0.8239    0.0218    0.6863 C   0  0  0  0  0  0  0  0  0  0  0  0
    2.0301    0.0256    0.8895 O   0  0  0  0  0  0  0  0  0  0  0  0
   -0.0152    0.4468    1.7000 N   0  0  0  0  0  0  0  0  0  0  0  0
   -1.0100    0.3504    1.5222 H   0  0  0  0  0  0  0  0  0  0  0  0
    0.4299    0.6082    3.0793 C   0  0  0  0  0  0  0  0  0  0  0  0
    1.2263    1.3571    3.1418 H   0  0  0  0  0  0  0  0  0  0  0  0
   -0.4019    0.9386    3.7088 H   0  0  0  0  0  0  0  0  0  0  0  0
    0.8077   -0.3417    3.4726 H   0  0  0  0  0  0  0  0  0  0  0  0
  1  2  1  0  0  0  0
  2  3  1  0  0  0  0
  2  4  1  0  0  0  0
  2  5  1  0  0  0  0
  5  6  2  0  0  0  0
  5  7  1  0  0  0  0
  7  8  1  0  0  0  0
  7  9  1  0  0  0  0
  9 10  1  0  0  0  0
  9 11  1  0  0  0  0
  9 19  1  0  0  0  0
 11 12  1  0  0  0  0
 11 13  1  0  0  0  0
 11 14  1  0  0  0  0
 14 15  2  0  0  0  0
 14 16  1  0  0  0  0
 16 17  1  0  0  0  0
 16 18  1  0  0  0  0
 19 20  2  0  0  0  0
 19 21  1  0  0  0  0
 21 22  1  0  0  0  0
 21 23  1  0  0  0  0
 23 24  1  0  0  0  0
 23 25  1  0  0  0  0
 23 26  1  0  0  0  0
M  END
$$$$

  -OEChem-03222214023D

 26 25  0     1  0  0  0  0  0999 V2000
   -2.6888   -3.6806   -0.2547 H   0  0  0  0  0  0  0  0  0  0  0  0
   -2.6637   -2.6511   -0.6234 C   0  0  0  0  0  0  0  0  0  0  0  0
   -3.4325   -2.0732   -0.1048 H   0  0  0  0  0  0  0  0  0  0  0  0
   -2.8813   -2.6575   -1.6943 H   0  0  0  0  0  0  0  0  0  0  0  0
   -1.2969   -2.0410   -0.3746 C   0  0  0  0  0  0  0  0  0  0  0  0
   -0.4442   -2.6809    0.2135 O   0  0  0  0  0  0  0  0  0  0  0  0
   -1.0261   -0.7593   -0.8165 N   0  0  0  0  0  0  0  0  0  0  0  0
   -1.7436   -0.3165   -1.3843 H   0  0  0  0  0  0  0  0  0  0  0  0
    0.3024   -0.1195   -0.7509 C   0  0  1  0  0  0  0  0  0  0  0  0
    1.0274   -0.7218   -1.3117 H   0  0  0  0  0  0  0  0  0  0  0  0
    0.1503    1.2578   -1.4314 C   0  0  0  0  0  0  0  0  0  0  0  0
   -0.2003    1.1053   -2.4564 H   0  0  0  0  0  0  0  0  0  0  0  0
   -0.6111    1.8359   -0.9012 H   0  0  0  0  0  0  0  0  0  0  0  0
    1.4107    2.1239   -1.4955 C   0  0  0  0  0  0  0  0  0  0  0  0
    1.6946    2.6921   -2.5321 O   0  0  0  0  0  0  0  0  0  0  0  0
    2.1974    2.4503   -0.4292 N   0  0  0  0  0  0  0  0  0  0  0  0
    3.0534    2.9363   -0.6779 H   0  0  0  0  0  0  0  0  0  0  0  0
    2.2336    1.7769    0.3383 H   0  0  0  0  0  0  0  0  0  0  0  0
    0.8291   -0.0108    0.7001 C   0  0  0  0  0  0  0  0  0  0  0  0
    2.0329   -0.0576    0.9157 O   0  0  0  0  0  0  0  0  0  0  0  0
   -0.0102    0.4211    1.7104 N   0  0  0  0  0  0  0  0  0  0  0  0
   -1.0057    0.3659    1.5199 H   0  0  0  0  0  0  0  0  0  0  0  0
    0.4273    0.5756    3.0925 C   0  0  0  0  0  0  0  0  0  0  0  0
    1.2354    1.3115    3.1599 H   0  0  0  0  0  0  0  0  0  0  0  0
   -0.4035    0.9200    3.7157 H   0  0  0  0  0  0  0  0  0  0  0  0
    0.7863   -0.3799    3.4893 H   0  0  0  0  0  0  0  0  0  0  0  0
  1  2  1  0  0  0  0
  2  3  1  0  0  0  0
  2  4  1  0  0  0  0
  2  5  1  0  0  0  0
  5  6  2  0  0  0  0
  5  7  1  0  0  0  0
  7  8  1  0  0  0  0
  7  9  1  0  0  0  0
  9 10  1  0  0  0  0
  9 11  1  0  0  0  0
  9 19  1  0  0  0  0
 11 12  1  0  0  0  0
 11 13  1  0  0  0  0
 11 14  1  0  0  0  0
 14 15  2  0  0  0  0
 14 16  1  0  0  0  0
 16 17  1  0  0  0  0
 16 18  1  0  0  0  0
 19 20  2  0  0  0  0
 19 21  1  0  0  0  0
 21 22  1  0  0  0  0
 21 23  1  0  0  0  0
 23 24  1  0  0  0  0
 23 25  1  0  0  0  0
 23 26  1  0  0  0  0
M  END
$$$$

  -OEChem-03222214023D

 26 25  0     1  0  0  0  0  0999 V2000
   -2.7054   -3.6668   -0.2444 H   0  0  0  0  0  0  0  0  0  0  0  0
   -2.6742   -2.6359   -0.6089 C   0  0  0  0  0  0  0  0  0  0  0  0
   -3.4287   -2.0521   -0.0762 H   0  0  0  0  0  0  0  0  0  0  0  0
   -2.9074   -2.6353   -1.6765 H   0  0  0  0  0  0  0  0  0  0  0  0
   -1.2974   -2.0420   -0.3766 C   0  0  0  0  0  0  0  0  0  0  0  0
   -0.4427   -2.6957    0.1930 O   0  0  0  0  0  0  0  0  0  0  0  0
   -1.0169   -0.7626   -0.8193 N   0  0  0  0  0  0  0  0  0  0  0  0
   -1.7394   -0.3037   -1.3676 H   0  0  0  0  0  0  0  0  0  0  0  0
    0.3144   -0.1292   -0.7463 C   0  0  1  0  0  0  0  0  0  0  0  0
    1.0398   -0.7387   -1.2984 H   0  0  0  0  0  0  0  0  0  0  0  0
    0.1684    1.2419   -1.4428 C   0  0  0  0  0  0  0  0  0  0  0  0
   -0.1773    1.0752   -2.4672 H   0  0  0  0  0  0  0  0  0  0  0  0
   -0.5984    1.8214   -0.9218 H   0  0  0  0  0  0  0  0  0  0  0  0
    1.4151    2.1281   -1.5202 C   0  0  0  0  0  0  0  0  0  0  0  0
    1.5391    2.8911   -2.4585 O   0  0  0  0  0  0  0  0  0  0  0  0
    2.3856    2.2393   -0.5672 N   0  0  0  0  0  0  0  0  0  0  0  0
    3.2076    2.7686   -0.8408 H   0  0  0  0  0  0  0  0  0  0  0  0
    2.4837    1.4869    0.1180 H   0  0  0  0  0  0  0  0  0  0  0  0
    0.8298   -0.0205    0.7089 C   0  0  0  0  0  0  0  0  0  0  0  0
    2.0268   -0.1344    0.9395 O   0  0  0  0  0  0  0  0  0  0  0  0
   -0.0110    0.4175    1.7152 N   0  0  0  0  0  0  0  0  0  0  0  0
   -1.0047    0.4136    1.5083 H   0  0  0  0  0  0  0  0  0  0  0  0
    0.4149    0.5494    3.1031 C   0  0  0  0  0  0  0  0  0  0  0  0
    1.2420    1.2624    3.1844 H   0  0  0  0  0  0  0  0  0  0  0  0
   -0.4130    0.9121    3.7196 H   0  0  0  0  0  0  0  0  0  0  0  0
    0.7436   -0.4186    3.4962 H   0  0  0  0  0  0  0  0  0  0  0  0
  1  2  1  0  0  0  0
  2  3  1  0  0  0  0
  2  4  1  0  0  0  0
  2  5  1  0  0  0  0
  5  6  2  0  0  0  0
  5  7  1  0  0  0  0
  7  8  1  0  0  0  0
  7  9  1  0  0  0  0
  9 10  1  0  0  0  0
  9 11  1  0  0  0  0
  9 19  1  0  0  0  0
 11 12  1  0  0  0  0
 11 13  1  0  0  0  0
 11 14  1  0  0  0  0
 14 15  2  0  0  0  0
 14 16  1  0  0  0  0
 16 17  1  0  0  0  0
 16 18  1  0  0  0  0
 19 20  2  0  0  0  0
 19 21  1  0  0  0  0
 21 22  1  0  0  0  0
 21 23  1  0  0  0  0
 23 24  1  0  0  0  0
 23 25  1  0  0  0  0
 23 26  1  0  0  0  0
M  END
$$$$

  -OEChem-03222214023D

 26 25  0     1  0  0  0  0  0999 V2000
   -2.7013   -3.6604   -0.2270 H   0  0  0  0  0  0  0  0  0  0  0  0
   -2.6701   -2.6298   -0.5922 C   0  0  0  0  0  0  0  0  0  0  0  0
   -3.4197   -2.0438   -0.0552 H   0  0  0  0  0  0  0  0  0  0  0  0
   -2.9104   -2.6287   -1.6582 H   0  0  0  0  0  0  0  0  0  0  0  0
   -1.2908   -2.0384   -0.3686 C   0  0  0  0  0  0  0  0  0  0  0  0
   -0.4359   -2.6902    0.2026 O   0  0  0  0  0  0  0  0  0  0  0  0
   -1.0099   -0.7620   -0.8196 N   0  0  0  0  0  0  0  0  0  0  0  0
   -1.7325   -0.3070   -1.3708 H   0  0  0  0  0  0  0  0  0  0  0  0
    0.3206   -0.1266   -0.7505 C   0  0  1  0  0  0  0  0  0  0  0  0
    1.0492   -0.7296   -1.3059 H   0  0  0  0  0  0  0  0  0  0  0  0
    0.1633    1.2504   -1.4309 C   0  0  0  0  0  0  0  0  0  0  0  0
   -0.1843    1.0928   -2.4559 H   0  0  0  0  0  0  0  0  0  0  0  0
   -0.6036    1.8216   -0.9009 H   0  0  0  0  0  0  0  0  0  0  0  0
    1.4066    2.1396   -1.5094 C   0  0  0  0  0  0  0  0  0  0  0  0
    1.4001    3.0932   -2.2634 O   0  0  0  0  0  0  0  0  0  0  0  0
    2.6164    1.8768   -0.9346 N   0  0  0  0  0  0  0  0  0  0  0  0
    3.3272    2.5969   -1.0152 H   0  0  0  0  0  0  0  0  0  0  0  0
    2.6848    1.1693   -0.1994 H   0  0  0  0  0  0  0  0  0  0  0  0
    0.8314   -0.0094    0.7075 C   0  0  0  0  0  0  0  0  0  0  0  0
    2.0239   -0.1400    0.9515 O   0  0  0  0  0  0  0  0  0  0  0  0
   -0.0150    0.4338    1.7069 N   0  0  0  0  0  0  0  0  0  0  0  0
   -1.0067    0.4327    1.4913 H   0  0  0  0  0  0  0  0  0  0  0  0
    0.3963    0.5463    3.1009 C   0  0  0  0  0  0  0  0  0  0  0  0
    1.2319    1.2473    3.1997 H   0  0  0  0  0  0  0  0  0  0  0  0
   -0.4342    0.9136    3.7113 H   0  0  0  0  0  0  0  0  0  0  0  0
    0.7070   -0.4301    3.4879 H   0  0  0  0  0  0  0  0  0  0  0  0
  1  2  1  0  0  0  0
  2  3  1  0  0  0  0
  2  4  1  0  0  0  0
  2  5  1  0  0  0  0
  5  6  2  0  0  0  0
  5  7  1  0  0  0  0
  7  8  1  0  0  0  0
  7  9  1  0  0  0  0
  9 10  1  0  0  0  0
  9 11  1  0  0  0  0
  9 19  1  0  0  0  0
 11 12  1  0  0  0  0
 11 13  1  0  0  0  0
 11 14  1  0  0  0  0
 14 15  2  0  0  0  0
 14 16  1  0  0  0  0
 16 17  1  0  0  0  0
 16 18  1  0  0  0  0
 19 20  2  0  0  0  0
 19 21  1  0  0  0  0
 21 22  1  0  0  0  0
 21 23  1  0  0  0  0
 23 24  1  0  0  0  0
 23 25  1  0  0  0  0
 23 26  1  0  0  0  0
M  END
$$$$

  -OEChem-03222214023D

 26 25  0     1  0  0  0  0  0999 V2000
   -2.7116   -3.7006   -0.2492 H   0  0  0  0  0  0  0  0  0  0  0  0
   -2.7018   -2.6666   -0.6060 C   0  0  0  0  0  0  0  0  0  0  0  0
   -3.4510   -2.0964   -0.0514 H   0  0  0  0  0  0  0  0  0  0  0  0
   -2.9599   -2.6605   -1.6678 H   0  0  0  0  0  0  0  0  0  0  0  0
   -1.3274   -2.0571   -0.4010 C   0  0  0  0  0  0  0  0  0  0  0  0
   -0.4535   -2.6982    0.1539 O   0  0  0  0  0  0  0  0  0  0  0  0
   -1.0689   -0.7745   -0.8459 N   0  0  0  0  0  0  0  0  0  0  0  0
   -1.8097   -0.3135   -1.3671 H   0  0  0  0  0  0  0  0  0  0  0  0
    0.2555   -0.1289   -0.7851 C   0  0  1  0  0  0  0  0  0  0  0  0
    0.9580   -0.7526   -1.3511 H   0  0  0  0  0  0  0  0  0  0  0  0
    0.1301    1.2406   -1.4792 C   0  0  0  0  0  0  0  0  0  0  0  0
   -0.4224    1.1182   -2.4147 H   0  0  0  0  0  0  0  0  0  0  0  0
   -0.4361    1.9239   -0.8400 H   0  0  0  0  0  0  0  0  0  0  0  0
    1.4577    1.9077   -1.8365 C   0  0  0  0  0  0  0  0  0  0  0  0
    1.4552    2.9909   -2.3877 O   0  0  0  0  0  0  0  0  0  0  0  0
    2.6915    1.3837   -1.5766 N   0  0  0  0  0  0  0  0  0  0  0  0
    3.4607    2.0347   -1.7012 H   0  0  0  0  0  0  0  0  0  0  0  0
    2.7555    0.6965   -0.8218 H   0  0  0  0  0  0  0  0  0  0  0  0
    0.8332    0.0090    0.6422 C   0  0  0  0  0  0  0  0  0  0  0  0
    2.0441   -0.0694    0.8059 O   0  0  0  0  0  0  0  0  0  0  0  0
    0.0350    0.4508    1.6807 N   0  0  0  0  0  0  0  0  0  0  0  0
   -0.9676    0.4260    1.5255 H   0  0  0  0  0  0  0  0  0  0  0  0
    0.5301    0.6271    3.0403 C   0  0  0  0  0  0  0  0  0  0  0  0
    1.3506    1.3522    3.0591 H   0  0  0  0  0  0  0  0  0  0  0  0
   -0.2695    0.9965    3.6896 H   0  0  0  0  0  0  0  0  0  0  0  0
    0.8920   -0.3253    3.4418 H   0  0  0  0  0  0  0  0  0  0  0  0
  1  2  1  0  0  0  0
  2  3  1  0  0  0  0
  2  4  1  0  0  0  0
  2  5  1  0  0  0  0
  5  6  2  0  0  0  0
  5  7  1  0  0  0  0
  7  8  1  0  0  0  0
  7  9  1  0  0  0  0
  9 10  1  0  0  0  0
  9 11  1  0  0  0  0
  9 19  1  0  0  0  0
 11 12  1  0  0  0  0
 11 13  1  0  0  0  0
 11 14  1  0  0  0  0
 14 15  2  0  0  0  0
 14 16  1  0  0  0  0
 16 17  1  0  0  0  0
 16 18  1  0  0  0  0
 19 20  2  0  0  0  0
 19 21  1  0  0  0  0
 21 22  1  0  0  0  0
 21 23  1  0  0  0  0
 23 24  1  0  0  0  0
 23 25  1  0  0  0  0
 23 26  1  0  0  0  0
M  END
$$$$

  -OEChem-03222214023D

 26 25  0     1  0  0  0  0  0999 V2000
   -2.7138   -3.7069   -0.2282 H   0  0  0  0  0  0  0  0  0  0  0  0
   -2.7131   -2.6747   -0.5904 C   0  0  0  0  0  0  0  0  0  0  0  0
   -3.4455   -2.1008   -0.0176 H   0  0  0  0  0  0  0  0  0  0  0  0
   -3.0014   -2.6732   -1.6443 H   0  0  0  0  0  0  0  0  0  0  0  0
   -1.3328   -2.0660   -0.4272 C   0  0  0  0  0  0  0  0  0  0  0  0
   -0.4398   -2.7114    0.0913 O   0  0  0  0  0  0  0  0  0  0  0  0
   -1.0894   -0.7783   -0.8660 N   0  0  0  0  0  0  0  0  0  0  0  0
   -1.8502   -0.3023   -1.3431 H   0  0  0  0  0  0  0  0  0  0  0  0
    0.2298   -0.1232   -0.8094 C   0  0  1  0  0  0  0  0  0  0  0  0
    0.9256   -0.7519   -1.3782 H   0  0  0  0  0  0  0  0  0  0  0  0
    0.1069    1.2392   -1.5158 C   0  0  0  0  0  0  0  0  0  0  0  0
   -0.4391    1.1104   -2.4540 H   0  0  0  0  0  0  0  0  0  0  0  0
   -0.4626    1.9281   -0.8851 H   0  0  0  0  0  0  0  0  0  0  0  0
    1.4415    1.8960   -1.8656 C   0  0  0  0  0  0  0  0  0  0  0  0
    1.4737    3.0719   -2.1710 O   0  0  0  0  0  0  0  0  0  0  0  0
    2.6579    1.2838   -1.7634 N   0  0  0  0  0  0  0  0  0  0  0  0
    3.4426    1.9258   -1.8225 H   0  0  0  0  0  0  0  0  0  0  0  0
    2.7221    0.5227   -1.0848 H   0  0  0  0  0  0  0  0  0  0  0  0
    0.8319    0.0189    0.6055 C   0  0  0  0  0  0  0  0  0  0  0  0
    2.0462   -0.0613    0.7399 O   0  0  0  0  0  0  0  0  0  0  0  0
    0.0525    0.4528    1.6612 N   0  0  0  0  0  0  0  0  0  0  0  0
   -0.9528    0.4387    1.5232 H   0  0  0  0  0  0  0  0  0  0  0  0
    0.5748    0.6361    3.0094 C   0  0  0  0  0  0  0  0  0  0  0  0
    1.3907    1.3666    3.0088 H   0  0  0  0  0  0  0  0  0  0  0  0
   -0.2134    1.0024    3.6740 H   0  0  0  0  0  0  0  0  0  0  0  0
    0.9511   -0.3128    3.4060 H   0  0  0  0  0  0  0  0  0  0  0  0
  1  2  1  0  0  0  0
  2  3  1  0  0  0  0
  2  4  1  0  0  0  0
  2  5  1  0  0  0  0
  5  6  2  0  0  0  0
  5  7  1  0  0  0  0
  7  8  1  0  0  0  0
  7  9  1  0  0  0  0
  9 10  1  0  0  0  0
  9 11  1  0  0  0  0
  9 19  1  0  0  0  0
 11 12  1  0  0  0  0
 11 13  1  0  0  0  0
 11 14  1  0  0  0  0
 14 15  2  0  0  0  0
 14 16  1  0  0  0  0
 16 17  1  0  0  0  0
 16 18  1  0  0  0  0
 19 20  2  0  0  0  0
 19 21  1  0  0  0  0
 21 22  1  0  0  0  0
 21 23  1  0  0  0  0
 23 24  1  0  0  0  0
 23 25  1  0  0  0  0
 23 26  1  0  0  0  0
M  END
$$$$

  -OEChem-03222214023D

 26 25  0     1  0  0  0  0  0999 V2000
   -2.7061   -3.7212   -0.2389 H   0  0  0  0  0  0  0  0  0  0  0  0
   -2.7159   -2.6887   -0.6000 C   0  0  0  0  0  0  0  0  0  0  0  0
   -3.4448   -2.1201   -0.0177 H   0  0  0  0  0  0  0  0  0  0  0  0
   -3.0165   -2.6874   -1.6506 H   0  0  0  0  0  0  0  0  0  0  0  0
   -1.3374   -2.0724   -0.4527 C   0  0  0  0  0  0  0  0  0  0  0  0
   -0.4301   -2.7177    0.0406 O   0  0  0  0  0  0  0  0  0  0  0  0
   -1.1104   -0.7781   -0.8796 N   0  0  0  0  0  0  0  0  0  0  0  0
   -1.8861   -0.2950   -1.3245 H   0  0  0  0  0  0  0  0  0  0  0  0
    0.2018   -0.1103   -0.8226 C   0  0  1  0  0  0  0  0  0  0  0  0
    0.8937   -0.7383   -1.3963 H   0  0  0  0  0  0  0  0  0  0  0  0
    0.0721    1.2484   -1.5322 C   0  0  0  0  0  0  0  0  0  0  0  0
   -0.4669    1.1144   -2.4736 H   0  0  0  0  0  0  0  0  0  0  0  0
   -0.5062    1.9344   -0.9063 H   0  0  0  0  0  0  0  0  0  0  0  0
    1.4083    1.9060   -1.8726 C   0  0  0  0  0  0  0  0  0  0  0  0
    1.4962    3.1174   -1.9145 O   0  0  0  0  0  0  0  0  0  0  0  0
    2.5917    1.2334   -1.9799 N   0  0  0  0  0  0  0  0  0  0  0  0
    3.3995    1.8492   -1.9713 H   0  0  0  0  0  0  0  0  0  0  0  0
    2.6604    0.3726   -1.4390 H   0  0  0  0  0  0  0  0  0  0  0  0
    0.8276    0.0345    0.5801 C   0  0  0  0  0  0  0  0  0  0  0  0
    2.0446   -0.0429    0.6863 O   0  0  0  0  0  0  0  0  0  0  0  0
    0.0667    0.4554    1.6541 N   0  0  0  0  0  0  0  0  0  0  0  0
   -0.9409    0.4511    1.5350 H   0  0  0  0  0  0  0  0  0  0  0  0
    0.6194    0.6581    2.9873 C   0  0  0  0  0  0  0  0  0  0  0  0
    1.4221    1.4026    2.9603 H   0  0  0  0  0  0  0  0  0  0  0  0
   -0.1581    1.0156    3.6690 H   0  0  0  0  0  0  0  0  0  0  0  0
    1.0225   -0.2809    3.3810 H   0  0  0  0  0  0  0  0  0  0  0  0
  1  2  1  0  0  0  0
  2  3  1  0  0  0  0
  2  4  1  0  0  0  0
  2  5  1  0  0  0  0
  5  6  2  0  0  0  0
  5  7  1  0  0  0  0
  7  8  1  0  0  0  0
  7  9  1  0  0  0  0
  9 10  1  0  0  0  0
  9 11  1  0  0  0  0
  9 19  1  0  0  0  0
 11 12  1  0  0  0  0
 11 13  1  0  0  0  0
 11 14  1  0  0  0  0
 14 15  2  0  0  0  0
 14 16  1  0  0  0  0
 16 17  1  0  0  0  0
 16 18  1  0  0  0  0
 19 20  2  0  0  0  0
 19 21  1  0  0  0  0
 21 22  1  0  0  0  0
 21 23  1  0  0  0  0
 23 24  1  0  0  0  0
 23 25  1  0  0  0  0
 23 26  1  0  0  0  0
M  END
$$$$

  -OEChem-03222214023D

 26 25  0     1  0  0  0  0  0999 V2000
   -2.6681   -3.7301   -0.2432 H   0  0  0  0  0  0  0  0  0  0  0  0
   -2.6881   -2.6936   -0.5923 C   0  0  0  0  0  0  0  0  0  0  0  0
   -3.4000   -2.1317    0.0169 H   0  0  0  0  0  0  0  0  0  0  0  0
   -3.0187   -2.6809   -1.6338 H   0  0  0  0  0  0  0  0  0  0  0  0
   -1.3061   -2.0782   -0.4778 C   0  0  0  0  0  0  0  0  0  0  0  0
   -0.3821   -2.7325   -0.0296 O   0  0  0  0  0  0  0  0  0  0  0  0
   -1.0937   -0.7769   -0.8907 N   0  0  0  0  0  0  0  0  0  0  0  0
   -1.8889   -0.2780   -1.2797 H   0  0  0  0  0  0  0  0  0  0  0  0
    0.2078   -0.0907   -0.8134 C   0  0  1  0  0  0  0  0  0  0  0  0
    0.9170   -0.7015   -1.3835 H   0  0  0  0  0  0  0  0  0  0  0  0
    0.0633    1.2747   -1.5041 C   0  0  0  0  0  0  0  0  0  0  0  0
   -0.4646    1.1517   -2.4532 H   0  0  0  0  0  0  0  0  0  0  0  0
   -0.5263    1.9474   -0.8738 H   0  0  0  0  0  0  0  0  0  0  0  0
    1.4041    1.9340   -1.8127 C   0  0  0  0  0  0  0  0  0  0  0  0
    1.5780    3.1129   -1.5749 O   0  0  0  0  0  0  0  0  0  0  0  0
    2.4746    1.2673   -2.3372 N   0  0  0  0  0  0  0  0  0  0  0  0
    3.3471    1.7847   -2.2741 H   0  0  0  0  0  0  0  0  0  0  0  0
    2.5050    0.2619   -2.2041 H   0  0  0  0  0  0  0  0  0  0  0  0
    0.8183    0.0521    0.5966 C   0  0  0  0  0  0  0  0  0  0  0  0
    2.0326   -0.0251    0.7211 O   0  0  0  0  0  0  0  0  0  0  0  0
    0.0411    0.4536    1.6670 N   0  0  0  0  0  0  0  0  0  0  0  0
   -0.9634    0.4788    1.5292 H   0  0  0  0  0  0  0  0  0  0  0  0
    0.5795    0.6691    3.0042 C   0  0  0  0  0  0  0  0  0  0  0  0
    1.3707    1.4261    2.9819 H   0  0  0  0  0  0  0  0  0  0  0  0
   -0.2091    1.0160    3.6787 H   0  0  0  0  0  0  0  0  0  0  0  0
    0.9943   -0.2623    3.4037 H   0  0  0  0  0  0  0  0  0  0  0  0
  1  2  1  0  0  0  0
  2  3  1  0  0  0  0
  2  4  1  0  0  0  0
  2  5  1  0  0  0  0
  5  6  2  0  0  0  0
  5  7  1  0  0  0  0
  7  8  1  0  0  0  0
  7  9  1  0  0  0  0
  9 10  1  0  0  0  0
  9 11  1  0  0  0  0
  9 19  1  0  0  0  0
 11 12  1  0  0  0  0
 11 13  1  0  0  0  0
 11 14  1  0  0  0  0
 14 15  2  0  0  0  0
 14 16  1  0  0  0  0
 16 17  1  0  0  0  0
 16 18  1  0  0  0  0
 19 20  2  0  0  0  0
 19 21  1  0  0  0  0
 21 22  1  0  0  0  0
 21 23  1  0  0  0  0
 23 24  1  0  0  0  0
 23 25  1  0  0  0  0
 23 26  1  0  0  0  0
M  END
$$$$

  -OEChem-03222214023D

 26 25  0     1  0  0  0  0  0999 V2000
   -2.6391   -3.7214   -0.2120 H   0  0  0  0  0  0  0  0  0  0  0  0
   -2.6655   -2.6857   -0.5631 C   0  0  0  0  0  0  0  0  0  0  0  0
   -3.3564   -2.1194    0.0659 H   0  0  0  0  0  0  0  0  0  0  0  0
   -3.0267   -2.6737   -1.5942 H   0  0  0  0  0  0  0  0  0  0  0  0
   -1.2779   -2.0763   -0.4911 C   0  0  0  0  0  0  0  0  0  0  0  0
   -0.3415   -2.7399   -0.0847 O   0  0  0  0  0  0  0  0  0  0  0  0
   -1.0749   -0.7721   -0.8997 N   0  0  0  0  0  0  0  0  0  0  0  0
   -1.8857   -0.2608   -1.2367 H   0  0  0  0  0  0  0  0  0  0  0  0
    0.2207   -0.0751   -0.8150 C   0  0  1  0  0  0  0  0  0  0  0  0
    0.9446   -0.6720   -1.3816 H   0  0  0  0  0  0  0  0  0  0  0  0
    0.0611    1.2901   -1.5016 C   0  0  0  0  0  0  0  0  0  0  0  0
   -0.4637    1.1686   -2.4526 H   0  0  0  0  0  0  0  0  0  0  0  0
   -0.5335    1.9581   -0.8712 H   0  0  0  0  0  0  0  0  0  0  0  0
    1.4031    1.9477   -1.7971 C   0  0  0  0  0  0  0  0  0  0  0  0
    1.6828    3.0298   -1.3208 O   0  0  0  0  0  0  0  0  0  0  0  0
    2.3398    1.3869   -2.6180 N   0  0  0  0  0  0  0  0  0  0  0  0
    3.2585    1.8182   -2.5593 H   0  0  0  0  0  0  0  0  0  0  0  0
    2.2762    0.3919   -2.8032 H   0  0  0  0  0  0  0  0  0  0  0  0
    0.8157    0.0640    0.6027 C   0  0  0  0  0  0  0  0  0  0  0  0
    2.0254   -0.0335    0.7508 O   0  0  0  0  0  0  0  0  0  0  0  0
    0.0220    0.4538    1.6657 N   0  0  0  0  0  0  0  0  0  0  0  0
   -0.9786    0.4993    1.5088 H   0  0  0  0  0  0  0  0  0  0  0  0
    0.5393    0.6529    3.0133 C   0  0  0  0  0  0  0  0  0  0  0  0
    1.3297    1.4111    3.0122 H   0  0  0  0  0  0  0  0  0  0  0  0
   -0.2602    0.9902    3.6798 H   0  0  0  0  0  0  0  0  0  0  0  0
    0.9490   -0.2832    3.4070 H   0  0  0  0  0  0  0  0  0  0  0  0
  1  2  1  0  0  0  0
  2  3  1  0  0  0  0
  2  4  1  0  0  0  0
  2  5  1  0  0  0  0
  5  6  2  0  0  0  0
  5  7  1  0  0  0  0
  7  8  1  0  0  0  0
  7  9  1  0  0  0  0
  9 10  1  0  0  0  0
  9 11  1  0  0  0  0
  9 19  1  0  0  0  0
 11 12  1  0  0  0  0
 11 13  1  0  0  0  0
 11 14  1  0  0  0  0
 14 15  2  0  0  0  0
 14 16  1  0  0  0  0
 16 17  1  0  0  0  0
 16 18  1  0  0  0  0
 19 20  2  0  0  0  0
 19 21  1  0  0  0  0
 21 22  1  0  0  0  0
 21 23  1  0  0  0  0
 23 24  1  0  0  0  0
 23 25  1  0  0  0  0
 23 26  1  0  0  0  0
M  END
$$$$

  -OEChem-03222214023D

 26 25  0     1  0  0  0  0  0999 V2000
   -2.6215   -3.7240   -0.2155 H   0  0  0  0  0  0  0  0  0  0  0  0
   -2.6526   -2.6858   -0.5587 C   0  0  0  0  0  0  0  0  0  0  0  0
   -3.3365   -2.1247    0.0825 H   0  0  0  0  0  0  0  0  0  0  0  0
   -3.0260   -2.6668   -1.5854 H   0  0  0  0  0  0  0  0  0  0  0  0
   -1.2646   -2.0754   -0.4994 C   0  0  0  0  0  0  0  0  0  0  0  0
   -0.3226   -2.7431   -0.1135 O   0  0  0  0  0  0  0  0  0  0  0  0
   -1.0685   -0.7686   -0.9033 N   0  0  0  0  0  0  0  0  0  0  0  0
   -1.8873   -0.2531   -1.2126 H   0  0  0  0  0  0  0  0  0  0  0  0
    0.2238   -0.0648   -0.8175 C   0  0  1  0  0  0  0  0  0  0  0  0
    0.9545   -0.6496   -1.3886 H   0  0  0  0  0  0  0  0  0  0  0  0
    0.0454    1.3006   -1.4995 C   0  0  0  0  0  0  0  0  0  0  0  0
   -0.4865    1.1792   -2.4466 H   0  0  0  0  0  0  0  0  0  0  0  0
   -0.5491    1.9624   -0.8628 H   0  0  0  0  0  0  0  0  0  0  0  0
    1.3810    1.9677   -1.7964 C   0  0  0  0  0  0  0  0  0  0  0  0
    1.7781    2.9006   -1.1276 O   0  0  0  0  0  0  0  0  0  0  0  0
    2.1963    1.5531   -2.8106 N   0  0  0  0  0  0  0  0  0  0  0  0
    3.1429    1.9216   -2.7700 H   0  0  0  0  0  0  0  0  0  0  0  0
    2.0390    0.6338   -3.2086 H   0  0  0  0  0  0  0  0  0  0  0  0
    0.8155    0.0699    0.6031 C   0  0  0  0  0  0  0  0  0  0  0  0
    2.0203   -0.0610    0.7638 O   0  0  0  0  0  0  0  0  0  0  0  0
    0.0179    0.4508    1.6669 N   0  0  0  0  0  0  0  0  0  0  0  0
   -0.9780    0.5368    1.4990 H   0  0  0  0  0  0  0  0  0  0  0  0
    0.5325    0.6505    3.0157 C   0  0  0  0  0  0  0  0  0  0  0  0
    1.3168    1.4149    3.0166 H   0  0  0  0  0  0  0  0  0  0  0  0
   -0.2700    0.9792    3.6826 H   0  0  0  0  0  0  0  0  0  0  0  0
    0.9497   -0.2829    3.4080 H   0  0  0  0  0  0  0  0  0  0  0  0
  1  2  1  0  0  0  0
  2  3  1  0  0  0  0
  2  4  1  0  0  0  0
  2  5  1  0  0  0  0
  5  6  2  0  0  0  0
  5  7  1  0  0  0  0
  7  8  1  0  0  0  0
  7  9  1  0  0  0  0
  9 10  1  0  0  0  0
  9 11  1  0  0  0  0
  9 19  1  0  0  0  0
 11 12  1  0  0  0  0
 11 13  1  0  0  0  0
 11 14  1  0  0  0  0
 14 15  2  0  0  0  0
 14 16  1  0  0  0  0
 16 17  1  0  0  0  0
 16 18  1  0  0  0  0
 19 20  2  0  0  0  0
 19 21  1  0  0  0  0
 21 22  1  0  0  0  0
 21 23  1  0  0  0  0
 23 24  1  0  0  0  0
 23 25  1  0  0  0  0
 23 26  1  0  0  0  0
M  END
$$$$

  -OEChem-03222214023D

 26 25  0     1  0  0  0  0  0999 V2000
   -2.5958   -3.7161   -0.1953 H   0  0  0  0  0  0  0  0  0  0  0  0
   -2.6326   -2.6780   -0.5386 C   0  0  0  0  0  0  0  0  0  0  0  0
   -3.3067   -2.1171    0.1130 H   0  0  0  0  0  0  0  0  0  0  0  0
   -3.0222   -2.6598   -1.5593 H   0  0  0  0  0  0  0  0  0  0  0  0
   -1.2441   -2.0674   -0.5012 C   0  0  0  0  0  0  0  0  0  0  0  0
   -0.2962   -2.7369   -0.1341 O   0  0  0  0  0  0  0  0  0  0  0  0
   -1.0565   -0.7591   -0.9049 N   0  0  0  0  0  0  0  0  0  0  0  0
   -1.8827   -0.2423   -1.1907 H   0  0  0  0  0  0  0  0  0  0  0  0
    0.2320   -0.0475   -0.8193 C   0  0  1  0  0  0  0  0  0  0  0  0
    0.9704   -0.6228   -1.3911 H   0  0  0  0  0  0  0  0  0  0  0  0
    0.0331    1.3145   -1.5051 C   0  0  0  0  0  0  0  0  0  0  0  0
   -0.5052    1.1832   -2.4474 H   0  0  0  0  0  0  0  0  0  0  0  0
   -0.5653    1.9708   -0.8666 H   0  0  0  0  0  0  0  0  0  0  0  0
    1.3557    2.0025   -1.8108 C   0  0  0  0  0  0  0  0  0  0  0  0
    1.8773    2.7531   -1.0119 O   0  0  0  0  0  0  0  0  0  0  0  0
    2.0503    1.7648   -2.9623 N   0  0  0  0  0  0  0  0  0  0  0  0
    3.0147    2.0866   -2.9516 H   0  0  0  0  0  0  0  0  0  0  0  0
    1.8008    0.9551   -3.5193 H   0  0  0  0  0  0  0  0  0  0  0  0
    0.8162    0.0854    0.6055 C   0  0  0  0  0  0  0  0  0  0  0  0
    2.0124   -0.0901    0.7862 O   0  0  0  0  0  0  0  0  0  0  0  0
    0.0099    0.4592    1.6656 N   0  0  0  0  0  0  0  0  0  0  0  0
   -0.9811    0.5711    1.4854 H   0  0  0  0  0  0  0  0  0  0  0  0
    0.5099    0.6228    3.0246 C   0  0  0  0  0  0  0  0  0  0  0  0
    1.3059    1.3747    3.0505 H   0  0  0  0  0  0  0  0  0  0  0  0
   -0.2958    0.9501    3.6883 H   0  0  0  0  0  0  0  0  0  0  0  0
    0.9078   -0.3249    3.4023 H   0  0  0  0  0  0  0  0  0  0  0  0
  1  2  1  0  0  0  0
  2  3  1  0  0  0  0
  2  4  1  0  0  0  0
  2  5  1  0  0  0  0
  5  6  2  0  0  0  0
  5  7  1  0  0  0  0
  7  8  1  0  0  0  0
  7  9  1  0  0  0  0
  9 10  1  0  0  0  0
  9 11  1  0  0  0  0
  9 19  1  0  0  0  0
 11 12  1  0  0  0  0
 11 13  1  0  0  0  0
 11 14  1  0  0  0  0
 14 15  2  0  0  0  0
 14 16  1  0  0  0  0
 16 17  1  0  0  0  0
 16 18  1  0  0  0  0
 19 20  2  0  0  0  0
 19 21  1  0  0  0  0
 21 22  1  0  0  0  0
 21 23  1  0  0  0  0
 23 24  1  0  0  0  0
 23 25  1  0  0  0  0
 23 26  1  0  0  0  0
M  END
$$$$

  -OEChem-03222214023D

 26 25  0     1  0  0  0  0  0999 V2000
   -2.5754   -3.7008   -0.1738 H   0  0  0  0  0  0  0  0  0  0  0  0
   -2.6115   -2.6640   -0.5207 C   0  0  0  0  0  0  0  0  0  0  0  0
   -3.2795   -2.0985    0.1332 H   0  0  0  0  0  0  0  0  0  0  0  0
   -3.0076   -2.6485   -1.5389 H   0  0  0  0  0  0  0  0  0  0  0  0
   -1.2211   -2.0568   -0.4948 C   0  0  0  0  0  0  0  0  0  0  0  0
   -0.2723   -2.7295   -0.1364 O   0  0  0  0  0  0  0  0  0  0  0  0
   -1.0360   -0.7488   -0.9008 N   0  0  0  0  0  0  0  0  0  0  0  0
   -1.8658   -0.2315   -1.1742 H   0  0  0  0  0  0  0  0  0  0  0  0
    0.2504   -0.0322   -0.8131 C   0  0  1  0  0  0  0  0  0  0  0  0
    0.9970   -0.6003   -1.3815 H   0  0  0  0  0  0  0  0  0  0  0  0
    0.0342    1.3259   -1.5064 C   0  0  0  0  0  0  0  0  0  0  0  0
   -0.5083    1.1803   -2.4442 H   0  0  0  0  0  0  0  0  0  0  0  0
   -0.5709    1.9767   -0.8691 H   0  0  0  0  0  0  0  0  0  0  0  0
    1.3399    2.0418   -1.8248 C   0  0  0  0  0  0  0  0  0  0  0  0
    1.9960    2.5920   -0.9655 O   0  0  0  0  0  0  0  0  0  0  0  0
    1.8918    2.0175   -3.0736 N   0  0  0  0  0  0  0  0  0  0  0  0
    2.8649    2.3091   -3.1161 H   0  0  0  0  0  0  0  0  0  0  0  0
    1.5415    1.3442   -3.7458 H   0  0  0  0  0  0  0  0  0  0  0  0
    0.8198    0.0998    0.6191 C   0  0  0  0  0  0  0  0  0  0  0  0
    2.0030   -0.1257    0.8270 O   0  0  0  0  0  0  0  0  0  0  0  0
    0.0006    0.4704    1.6712 N   0  0  0  0  0  0  0  0  0  0  0  0
   -0.9857    0.5966    1.4766 H   0  0  0  0  0  0  0  0  0  0  0  0
    0.4761    0.5830    3.0444 C   0  0  0  0  0  0  0  0  0  0  0  0
    1.2937    1.3091    3.1074 H   0  0  0  0  0  0  0  0  0  0  0  0
   -0.3333    0.9169    3.7004 H   0  0  0  0  0  0  0  0  0  0  0  0
    0.8378   -0.3863    3.4037 H   0  0  0  0  0  0  0  0  0  0  0  0
  1  2  1  0  0  0  0
  2  3  1  0  0  0  0
  2  4  1  0  0  0  0
  2  5  1  0  0  0  0
  5  6  2  0  0  0  0
  5  7  1  0  0  0  0
  7  8  1  0  0  0  0
  7  9  1  0  0  0  0
  9 10  1  0  0  0  0
  9 11  1  0  0  0  0
  9 19  1  0  0  0  0
 11 12  1  0  0  0  0
 11 13  1  0  0  0  0
 11 14  1  0  0  0  0
 14 15  2  0  0  0  0
 14 16  1  0  0  0  0
 16 17  1  0  0  0  0
 16 18  1  0  0  0  0
 19 20  2  0  0  0  0
 19 21  1  0  0  0  0
 21 22  1  0  0  0  0
 21 23  1  0  0  0  0
 23 24  1  0  0  0  0
 23 25  1  0  0  0  0
 23 26  1  0  0  0  0
M  END
$$$$

  -OEChem-03222214023D

 26 25  0     1  0  0  0  0  0999 V2000
   -2.5655   -3.6751   -0.1271 H   0  0  0  0  0  0  0  0  0  0  0  0
   -2.5951   -2.6451   -0.4944 C   0  0  0  0  0  0  0  0  0  0  0  0
   -3.2549   -2.0613    0.1517 H   0  0  0  0  0  0  0  0  0  0  0  0
   -2.9962   -2.6465   -1.5106 H   0  0  0  0  0  0  0  0  0  0  0  0
   -1.1994   -2.0497   -0.4865 C   0  0  0  0  0  0  0  0  0  0  0  0
   -0.2539   -2.7310   -0.1364 O   0  0  0  0  0  0  0  0  0  0  0  0
   -1.0077   -0.7437   -0.8970 N   0  0  0  0  0  0  0  0  0  0  0  0
   -1.8372   -0.2211   -1.1607 H   0  0  0  0  0  0  0  0  0  0  0  0
    0.2815   -0.0309   -0.8051 C   0  0  1  0  0  0  0  0  0  0  0  0
    1.0337   -0.5966   -1.3684 H   0  0  0  0  0  0  0  0  0  0  0  0
    0.0584    1.3279   -1.4999 C   0  0  0  0  0  0  0  0  0  0  0  0
   -0.4876    1.1722   -2.4340 H   0  0  0  0  0  0  0  0  0  0  0  0
   -0.5507    1.9741   -0.8621 H   0  0  0  0  0  0  0  0  0  0  0  0
    1.3498    2.0670   -1.8309 C   0  0  0  0  0  0  0  0  0  0  0  0
    2.1475    2.4034   -0.9824 O   0  0  0  0  0  0  0  0  0  0  0  0
    1.7285    2.3118   -3.1200 N   0  0  0  0  0  0  0  0  0  0  0  0
    2.6974    2.5976   -3.2357 H   0  0  0  0  0  0  0  0  0  0  0  0
    1.2559    1.8203   -3.8703 H   0  0  0  0  0  0  0  0  0  0  0  0
    0.8300    0.0966    0.6369 C   0  0  0  0  0  0  0  0  0  0  0  0
    1.9968   -0.1750    0.8791 O   0  0  0  0  0  0  0  0  0  0  0  0
   -0.0088    0.4709    1.6726 N   0  0  0  0  0  0  0  0  0  0  0  0
   -0.9873    0.6146    1.4536 H   0  0  0  0  0  0  0  0  0  0  0  0
    0.4269    0.5402    3.0616 C   0  0  0  0  0  0  0  0  0  0  0  0
    1.2683    1.2337    3.1640 H   0  0  0  0  0  0  0  0  0  0  0  0
   -0.3902    0.8925    3.6983 H   0  0  0  0  0  0  0  0  0  0  0  0
    0.7405   -0.4483    3.4135 H   0  0  0  0  0  0  0  0  0  0  0  0
  1  2  1  0  0  0  0
  2  3  1  0  0  0  0
  2  4  1  0  0  0  0
  2  5  1  0  0  0  0
  5  6  2  0  0  0  0
  5  7  1  0  0  0  0
  7  8  1  0  0  0  0
  7  9  1  0  0  0  0
  9 10  1  0  0  0  0
  9 11  1  0  0  0  0
  9 19  1  0  0  0  0
 11 12  1  0  0  0  0
 11 13  1  0  0  0  0
 11 14  1  0  0  0  0
 14 15  2  0  0  0  0
 14 16  1  0  0  0  0
 16 17  1  0  0  0  0
 16 18  1  0  0  0  0
 19 20  2  0  0  0  0
 19 21  1  0  0  0  0
 21 22  1  0  0  0  0
 21 23  1  0  0  0  0
 23 24  1  0  0  0  0
 23 25  1  0  0  0  0
 23 26  1  0  0  0  0
M  END
$$$$

  -OEChem-03222214023D

 26 25  0     1  0  0  0  0  0999 V2000
   -2.5835   -3.6635   -0.1489 H   0  0  0  0  0  0  0  0  0  0  0  0
   -2.5965   -2.6295   -0.5058 C   0  0  0  0  0  0  0  0  0  0  0  0
   -3.2745   -2.0494    0.1246 H   0  0  0  0  0  0  0  0  0  0  0  0
   -2.9642   -2.6185   -1.5346 H   0  0  0  0  0  0  0  0  0  0  0  0
   -1.1992   -2.0406   -0.4467 C   0  0  0  0  0  0  0  0  0  0  0  0
   -0.2743   -2.7201   -0.0430 O   0  0  0  0  0  0  0  0  0  0  0  0
   -0.9845   -0.7432   -0.8727 N   0  0  0  0  0  0  0  0  0  0  0  0
   -1.7957   -0.2295   -1.2019 H   0  0  0  0  0  0  0  0  0  0  0  0
    0.3130   -0.0434   -0.7858 C   0  0  1  0  0  0  0  0  0  0  0  0
    1.0652   -0.6164   -1.3416 H   0  0  0  0  0  0  0  0  0  0  0  0
    0.0932    1.3145   -1.4880 C   0  0  0  0  0  0  0  0  0  0  0  0
   -0.4555    1.1482   -2.4186 H   0  0  0  0  0  0  0  0  0  0  0  0
   -0.5153    1.9636   -0.8529 H   0  0  0  0  0  0  0  0  0  0  0  0
    1.3761    2.0623   -1.8393 C   0  0  0  0  0  0  0  0  0  0  0  0
    2.3087    2.1875   -1.0764 O   0  0  0  0  0  0  0  0  0  0  0  0
    1.5674    2.6068   -3.0772 N   0  0  0  0  0  0  0  0  0  0  0  0
    2.5177    2.9090   -3.2759 H   0  0  0  0  0  0  0  0  0  0  0  0
    0.9517    2.3374   -3.8362 H   0  0  0  0  0  0  0  0  0  0  0  0
    0.8465    0.0915    0.6625 C   0  0  0  0  0  0  0  0  0  0  0  0
    2.0021   -0.2028    0.9305 O   0  0  0  0  0  0  0  0  0  0  0  0
   -0.0028    0.4863    1.6823 N   0  0  0  0  0  0  0  0  0  0  0  0
   -0.9824    0.6010    1.4514 H   0  0  0  0  0  0  0  0  0  0  0  0
    0.4037    0.5185    3.0816 C   0  0  0  0  0  0  0  0  0  0  0  0
    1.2616    1.1861    3.2154 H   0  0  0  0  0  0  0  0  0  0  0  0
   -0.4170    0.8825    3.7069 H   0  0  0  0  0  0  0  0  0  0  0  0
    0.6823   -0.4846    3.4216 H   0  0  0  0  0  0  0  0  0  0  0  0
  1  2  1  0  0  0  0
  2  3  1  0  0  0  0
  2  4  1  0  0  0  0
  2  5  1  0  0  0  0
  5  6  2  0  0  0  0
  5  7  1  0  0  0  0
  7  8  1  0  0  0  0
  7  9  1  0  0  0  0
  9 10  1  0  0  0  0
  9 11  1  0  0  0  0
  9 19  1  0  0  0  0
 11 12  1  0  0  0  0
 11 13  1  0  0  0  0
 11 14  1  0  0  0  0
 14 15  2  0  0  0  0
 14 16  1  0  0  0  0
 16 17  1  0  0  0  0
 16 18  1  0  0  0  0
 19 20  2  0  0  0  0
 19 21  1  0  0  0  0
 21 22  1  0  0  0  0
 21 23  1  0  0  0  0
 23 24  1  0  0  0  0
 23 25  1  0  0  0  0
 23 26  1  0  0  0  0
M  END
$$$$

  -OEChem-03222214023D

 26 25  0     1  0  0  0  0  0999 V2000
   -2.6061   -3.6520   -0.1519 H   0  0  0  0  0  0  0  0  0  0  0  0
   -2.6037   -2.6197   -0.5137 C   0  0  0  0  0  0  0  0  0  0  0  0
   -3.2982   -2.0338    0.0929 H   0  0  0  0  0  0  0  0  0  0  0  0
   -2.9395   -2.6121   -1.5533 H   0  0  0  0  0  0  0  0  0  0  0  0
   -1.2064   -2.0364   -0.4141 C   0  0  0  0  0  0  0  0  0  0  0  0
   -0.3037   -2.7099    0.0456 O   0  0  0  0  0  0  0  0  0  0  0  0
   -0.9707   -0.7479   -0.8566 N   0  0  0  0  0  0  0  0  0  0  0  0
   -1.7596   -0.2503   -1.2567 H   0  0  0  0  0  0  0  0  0  0  0  0
    0.3360   -0.0633   -0.7789 C   0  0  1  0  0  0  0  0  0  0  0  0
    1.0849   -0.6433   -1.3321 H   0  0  0  0  0  0  0  0  0  0  0  0
    0.1234    1.2991   -1.4774 C   0  0  0  0  0  0  0  0  0  0  0  0
   -0.4309    1.1351   -2.4051 H   0  0  0  0  0  0  0  0  0  0  0  0
   -0.4775    1.9508   -0.8378 H   0  0  0  0  0  0  0  0  0  0  0  0
    1.4043    2.0436   -1.8452 C   0  0  0  0  0  0  0  0  0  0  0  0
    2.4428    1.9573   -1.2283 O   0  0  0  0  0  0  0  0  0  0  0  0
    1.4482    2.8782   -2.9255 N   0  0  0  0  0  0  0  0  0  0  0  0
    2.3735    3.2069   -3.1891 H   0  0  0  0  0  0  0  0  0  0  0  0
    0.7015    2.8497   -3.6103 H   0  0  0  0  0  0  0  0  0  0  0  0
    0.8612    0.0783    0.6728 C   0  0  0  0  0  0  0  0  0  0  0  0
    2.0119   -0.2184    0.9573 O   0  0  0  0  0  0  0  0  0  0  0  0
    0.0057    0.4943    1.6791 N   0  0  0  0  0  0  0  0  0  0  0  0
   -0.9749    0.5801    1.4395 H   0  0  0  0  0  0  0  0  0  0  0  0
    0.3923    0.5128    3.0845 C   0  0  0  0  0  0  0  0  0  0  0  0
    1.2634    1.1597    3.2330 H   0  0  0  0  0  0  0  0  0  0  0  0
   -0.4287    0.8942    3.6986 H   0  0  0  0  0  0  0  0  0  0  0  0
    0.6425   -0.4974    3.4255 H   0  0  0  0  0  0  0  0  0  0  0  0
  1  2  1  0  0  0  0
  2  3  1  0  0  0  0
  2  4  1  0  0  0  0
  2  5  1  0  0  0  0
  5  6  2  0  0  0  0
  5  7  1  0  0  0  0
  7  8  1  0  0  0  0
  7  9  1  0  0  0  0
  9 10  1  0  0  0  0
  9 11  1  0  0  0  0
  9 19  1  0  0  0  0
 11 12  1  0  0  0  0
 11 13  1  0  0  0  0
 11 14  1  0  0  0  0
 14 15  2  0  0  0  0
 14 16  1  0  0  0  0
 16 17  1  0  0  0  0
 16 18  1  0  0  0  0
 19 20  2  0  0  0  0
 19 21  1  0  0  0  0
 21 22  1  0  0  0  0
 21 23  1  0  0  0  0
 23 24  1  0  0  0  0
 23 25  1  0  0  0  0
 23 26  1  0  0  0  0
M  END
$$$$

  -OEChem-03222214023D

 26 25  0     1  0  0  0  0  0999 V2000
   -2.6265   -3.6553   -0.1713 H   0  0  0  0  0  0  0  0  0  0  0  0
   -2.6141   -2.6273   -0.5449 C   0  0  0  0  0  0  0  0  0  0  0  0
   -3.3422   -2.0400    0.0196 H   0  0  0  0  0  0  0  0  0  0  0  0
   -2.8988   -2.6349   -1.5998 H   0  0  0  0  0  0  0  0  0  0  0  0
   -1.2278   -2.0313   -0.3839 C   0  0  0  0  0  0  0  0  0  0  0  0
   -0.3460   -2.6903    0.1336 O   0  0  0  0  0  0  0  0  0  0  0  0
   -0.9787   -0.7495   -0.8381 N   0  0  0  0  0  0  0  0  0  0  0  0
   -1.7416   -0.2800   -1.3153 H   0  0  0  0  0  0  0  0  0  0  0  0
    0.3364   -0.0786   -0.7732 C   0  0  1  0  0  0  0  0  0  0  0  0
    1.0767   -0.6652   -1.3315 H   0  0  0  0  0  0  0  0  0  0  0  0
    0.1320    1.2914   -1.4595 C   0  0  0  0  0  0  0  0  0  0  0  0
   -0.4330    1.1417   -2.3829 H   0  0  0  0  0  0  0  0  0  0  0  0
   -0.4543    1.9443   -0.8075 H   0  0  0  0  0  0  0  0  0  0  0  0
    1.4163    2.0241   -1.8396 C   0  0  0  0  0  0  0  0  0  0  0  0
    2.5164    1.7407   -1.4194 O   0  0  0  0  0  0  0  0  0  0  0  0
    1.3875    3.0870   -2.6970 N   0  0  0  0  0  0  0  0  0  0  0  0
    2.2917    3.4340   -3.0058 H   0  0  0  0  0  0  0  0  0  0  0  0
    0.5498    3.2818   -3.2334 H   0  0  0  0  0  0  0  0  0  0  0  0
    0.8697    0.0682    0.6756 C   0  0  0  0  0  0  0  0  0  0  0  0
    2.0268   -0.2052    0.9573 O   0  0  0  0  0  0  0  0  0  0  0  0
    0.0197    0.5017    1.6794 N   0  0  0  0  0  0  0  0  0  0  0  0
   -0.9649    0.5568    1.4465 H   0  0  0  0  0  0  0  0  0  0  0  0
    0.4108    0.5291    3.0833 C   0  0  0  0  0  0  0  0  0  0  0  0
    1.2914    1.1651    3.2235 H   0  0  0  0  0  0  0  0  0  0  0  0
   -0.4028    0.9285    3.6959 H   0  0  0  0  0  0  0  0  0  0  0  0
    0.6471   -0.4814    3.4331 H   0  0  0  0  0  0  0  0  0  0  0  0
  1  2  1  0  0  0  0
  2  3  1  0  0  0  0
  2  4  1  0  0  0  0
  2  5  1  0  0  0  0
  5  6  2  0  0  0  0
  5  7  1  0  0  0  0
  7  8  1  0  0  0  0
  7  9  1  0  0  0  0
  9 10  1  0  0  0  0
  9 11  1  0  0  0  0
  9 19  1  0  0  0  0
 11 12  1  0  0  0  0
 11 13  1  0  0  0  0
 11 14  1  0  0  0  0
 14 15  2  0  0  0  0
 14 16  1  0  0  0  0
 16 17  1  0  0  0  0
 16 18  1  0  0  0  0
 19 20  2  0  0  0  0
 19 21  1  0  0  0  0
 21 22  1  0  0  0  0
 21 23  1  0  0  0  0
 23 24  1  0  0  0  0
 23 25  1  0  0  0  0
 23 26  1  0  0  0  0
M  END
$$$$

  -OEChem-03222214023D

 26 25  0     1  0  0  0  0  0999 V2000
   -2.6434   -3.6848   -0.1777 H   0  0  0  0  0  0  0  0  0  0  0  0
   -2.6320   -2.6606   -0.5616 C   0  0  0  0  0  0  0  0  0  0  0  0
   -3.3931   -2.0799   -0.0353 H   0  0  0  0  0  0  0  0  0  0  0  0
   -2.8709   -2.6841   -1.6275 H   0  0  0  0  0  0  0  0  0  0  0  0
   -1.2638   -2.0394   -0.3484 C   0  0  0  0  0  0  0  0  0  0  0  0
   -0.4055   -2.6650    0.2447 O   0  0  0  0  0  0  0  0  0  0  0  0
   -1.0086   -0.7687   -0.8306 N   0  0  0  0  0  0  0  0  0  0  0  0
   -1.7395   -0.3482   -1.3956 H   0  0  0  0  0  0  0  0  0  0  0  0
    0.3141   -0.1106   -0.7933 C   0  0  1  0  0  0  0  0  0  0  0  0
    1.0408   -0.7130   -1.3527 H   0  0  0  0  0  0  0  0  0  0  0  0
    0.1246    1.2596   -1.4823 C   0  0  0  0  0  0  0  0  0  0  0  0
   -0.4531    1.1204   -2.3996 H   0  0  0  0  0  0  0  0  0  0  0  0
   -0.4418    1.9243   -0.8248 H   0  0  0  0  0  0  0  0  0  0  0  0
    1.4208    1.9606   -1.8815 C   0  0  0  0  0  0  0  0  0  0  0  0
    2.5291    1.5084   -1.6915 O   0  0  0  0  0  0  0  0  0  0  0  0
    1.3961    3.1879   -2.4794 N   0  0  0  0  0  0  0  0  0  0  0  0
    2.2952    3.6585   -2.5409 H   0  0  0  0  0  0  0  0  0  0  0  0
    0.5395    3.7295   -2.4609 H   0  0  0  0  0  0  0  0  0  0  0  0
    0.8658    0.0580    0.6463 C   0  0  0  0  0  0  0  0  0  0  0  0
    2.0421   -0.1439    0.9066 O   0  0  0  0  0  0  0  0  0  0  0  0
    0.0285    0.5185    1.6486 N   0  0  0  0  0  0  0  0  0  0  0  0
   -0.9638    0.5007    1.4423 H   0  0  0  0  0  0  0  0  0  0  0  0
    0.4489    0.6035    3.0421 C   0  0  0  0  0  0  0  0  0  0  0  0
    1.3239    1.2551    3.1398 H   0  0  0  0  0  0  0  0  0  0  0  0
   -0.3567    1.0158    3.6568 H   0  0  0  0  0  0  0  0  0  0  0  0
    0.7060   -0.3900    3.4243 H   0  0  0  0  0  0  0  0  0  0  0  0
  1  2  1  0  0  0  0
  2  3  1  0  0  0  0
  2  4  1  0  0  0  0
  2  5  1  0  0  0  0
  5  6  2  0  0  0  0
  5  7  1  0  0  0  0
  7  8  1  0  0  0  0
  7  9  1  0  0  0  0
  9 10  1  0  0  0  0
  9 11  1  0  0  0  0
  9 19  1  0  0  0  0
 11 12  1  0  0  0  0
 11 13  1  0  0  0  0
 11 14  1  0  0  0  0
 14 15  2  0  0  0  0
 14 16  1  0  0  0  0
 16 17  1  0  0  0  0
 16 18  1  0  0  0  0
 19 20  2  0  0  0  0
 19 21  1  0  0  0  0
 21 22  1  0  0  0  0
 21 23  1  0  0  0  0
 23 24  1  0  0  0  0
 23 25  1  0  0  0  0
 23 26  1  0  0  0  0
M  END
$$$$

  -OEChem-03222214023D

 26 25  0     1  0  0  0  0  0999 V2000
   -2.6344   -3.7115   -0.2059 H   0  0  0  0  0  0  0  0  0  0  0  0
   -2.6329   -2.6874   -0.5904 C   0  0  0  0  0  0  0  0  0  0  0  0
   -3.4166   -2.1203   -0.0827 H   0  0  0  0  0  0  0  0  0  0  0  0
   -2.8465   -2.7159   -1.6616 H   0  0  0  0  0  0  0  0  0  0  0  0
   -1.2818   -2.0410   -0.3461 C   0  0  0  0  0  0  0  0  0  0  0  0
   -0.4282   -2.6470    0.2740 O   0  0  0  0  0  0  0  0  0  0  0  0
   -1.0376   -0.7673   -0.8255 N   0  0  0  0  0  0  0  0  0  0  0  0
   -1.7560   -0.3710   -1.4236 H   0  0  0  0  0  0  0  0  0  0  0  0
    0.2838   -0.1066   -0.7965 C   0  0  1  0  0  0  0  0  0  0  0  0
    1.0028   -0.7082   -1.3670 H   0  0  0  0  0  0  0  0  0  0  0  0
    0.0992    1.2726   -1.4658 C   0  0  0  0  0  0  0  0  0  0  0  0
   -0.4849    1.1548   -2.3819 H   0  0  0  0  0  0  0  0  0  0  0  0
   -0.4563    1.9323   -0.7942 H   0  0  0  0  0  0  0  0  0  0  0  0
    1.4059    1.9572   -1.8596 C   0  0  0  0  0  0  0  0  0  0  0  0
    2.4745    1.3861   -1.9200 O   0  0  0  0  0  0  0  0  0  0  0  0
    1.4407    3.2866   -2.1684 N   0  0  0  0  0  0  0  0  0  0  0  0
    2.3725    3.6883   -2.2310 H   0  0  0  0  0  0  0  0  0  0  0  0
    0.6558    3.8712   -1.9047 H   0  0  0  0  0  0  0  0  0  0  0  0
    0.8535    0.0594    0.6358 C   0  0  0  0  0  0  0  0  0  0  0  0
    2.0475   -0.0636    0.8623 O   0  0  0  0  0  0  0  0  0  0  0  0
    0.0267    0.5141    1.6492 N   0  0  0  0  0  0  0  0  0  0  0  0
   -0.9692    0.4485    1.4701 H   0  0  0  0  0  0  0  0  0  0  0  0
    0.4778    0.6405    3.0300 C   0  0  0  0  0  0  0  0  0  0  0  0
    1.3285    1.3273    3.0947 H   0  0  0  0  0  0  0  0  0  0  0  0
   -0.3283    1.0323    3.6575 H   0  0  0  0  0  0  0  0  0  0  0  0
    0.7831   -0.3350    3.4231 H   0  0  0  0  0  0  0  0  0  0  0  0
  1  2  1  0  0  0  0
  2  3  1  0  0  0  0
  2  4  1  0  0  0  0
  2  5  1  0  0  0  0
  5  6  2  0  0  0  0
  5  7  1  0  0  0  0
  7  8  1  0  0  0  0
  7  9  1  0  0  0  0
  9 10  1  0  0  0  0
  9 11  1  0  0  0  0
  9 19  1  0  0  0  0
 11 12  1  0  0  0  0
 11 13  1  0  0  0  0
 11 14  1  0  0  0  0
 14 15  2  0  0  0  0
 14 16  1  0  0  0  0
 16 17  1  0  0  0  0
 16 18  1  0  0  0  0
 19 20  2  0  0  0  0
 19 21  1  0  0  0  0
 21 22  1  0  0  0  0
 21 23  1  0  0  0  0
 23 24  1  0  0  0  0
 23 25  1  0  0  0  0
 23 26  1  0  0  0  0
M  END
$$$$

  -OEChem-03222214023D

 26 25  0     1  0  0  0  0  0999 V2000
   -2.6355   -3.7202   -0.1837 H   0  0  0  0  0  0  0  0  0  0  0  0
   -2.6293   -2.7139   -0.6124 C   0  0  0  0  0  0  0  0  0  0  0  0
   -3.4348   -2.1334   -0.1567 H   0  0  0  0  0  0  0  0  0  0  0  0
   -2.8061   -2.7905   -1.6879 H   0  0  0  0  0  0  0  0  0  0  0  0
   -1.2926   -2.0446   -0.3526 C   0  0  0  0  0  0  0  0  0  0  0  0
   -0.4358   -2.6342    0.2790 O   0  0  0  0  0  0  0  0  0  0  0  0
   -1.0654   -0.7652   -0.8250 N   0  0  0  0  0  0  0  0  0  0  0  0
   -1.7823   -0.3832   -1.4343 H   0  0  0  0  0  0  0  0  0  0  0  0
    0.2509   -0.0950   -0.8027 C   0  0  1  0  0  0  0  0  0  0  0  0
    0.9647   -0.6934   -1.3830 H   0  0  0  0  0  0  0  0  0  0  0  0
    0.0686    1.2900   -1.4575 C   0  0  0  0  0  0  0  0  0  0  0  0
   -0.5165    1.1872   -2.3748 H   0  0  0  0  0  0  0  0  0  0  0  0
   -0.4816    1.9473   -0.7792 H   0  0  0  0  0  0  0  0  0  0  0  0
    1.3878    1.9555   -1.8411 C   0  0  0  0  0  0  0  0  0  0  0  0
    2.3772    1.3262   -2.1564 O   0  0  0  0  0  0  0  0  0  0  0  0
    1.5350    3.3129   -1.8270 N   0  0  0  0  0  0  0  0  0  0  0  0
    2.4973    3.6355   -1.8860 H   0  0  0  0  0  0  0  0  0  0  0  0
    0.8518    3.8677   -1.3240 H   0  0  0  0  0  0  0  0  0  0  0  0
    0.8392    0.0677    0.6212 C   0  0  0  0  0  0  0  0  0  0  0  0
    2.0457    0.0297    0.8097 O   0  0  0  0  0  0  0  0  0  0  0  0
    0.0216    0.5094    1.6476 N   0  0  0  0  0  0  0  0  0  0  0  0
   -0.9743    0.3869    1.4987 H   0  0  0  0  0  0  0  0  0  0  0  0
    0.5019    0.6774    3.0141 C   0  0  0  0  0  0  0  0  0  0  0  0
    1.3189    1.4058    3.0472 H   0  0  0  0  0  0  0  0  0  0  0  0
   -0.3058    1.0381    3.6579 H   0  0  0  0  0  0  0  0  0  0  0  0
    0.8647   -0.2765    3.4117 H   0  0  0  0  0  0  0  0  0  0  0  0
  1  2  1  0  0  0  0
  2  3  1  0  0  0  0
  2  4  1  0  0  0  0
  2  5  1  0  0  0  0
  5  6  2  0  0  0  0
  5  7  1  0  0  0  0
  7  8  1  0  0  0  0
  7  9  1  0  0  0  0
  9 10  1  0  0  0  0
  9 11  1  0  0  0  0
  9 19  1  0  0  0  0
 11 12  1  0  0  0  0
 11 13  1  0  0  0  0
 11 14  1  0  0  0  0
 14 15  2  0  0  0  0
 14 16  1  0  0  0  0
 16 17  1  0  0  0  0
 16 18  1  0  0  0  0
 19 20  2  0  0  0  0
 19 21  1  0  0  0  0
 21 22  1  0  0  0  0
 21 23  1  0  0  0  0
 23 24  1  0  0  0  0
 23 25  1  0  0  0  0
 23 26  1  0  0  0  0
M  END
$$$$

  -OEChem-03222214023D

 26 25  0     1  0  0  0  0  0999 V2000
   -2.5913   -3.7586   -0.2326 H   0  0  0  0  0  0  0  0  0  0  0  0
   -2.6145   -2.7400   -0.6306 C   0  0  0  0  0  0  0  0  0  0  0  0
   -3.4309   -2.1939   -0.1522 H   0  0  0  0  0  0  0  0  0  0  0  0
   -2.7977   -2.7888   -1.7067 H   0  0  0  0  0  0  0  0  0  0  0  0
   -1.2939   -2.0438   -0.3589 C   0  0  0  0  0  0  0  0  0  0  0  0
   -0.4337   -2.6113    0.2888 O   0  0  0  0  0  0  0  0  0  0  0  0
   -1.0881   -0.7603   -0.8293 N   0  0  0  0  0  0  0  0  0  0  0  0
   -1.8044   -0.3965   -1.4507 H   0  0  0  0  0  0  0  0  0  0  0  0
    0.2197   -0.0751   -0.8126 C   0  0  1  0  0  0  0  0  0  0  0  0
    0.9340   -0.6664   -1.3996 H   0  0  0  0  0  0  0  0  0  0  0  0
    0.0297    1.3101   -1.4596 C   0  0  0  0  0  0  0  0  0  0  0  0
   -0.5516    1.2119   -2.3799 H   0  0  0  0  0  0  0  0  0  0  0  0
   -0.5226    1.9670   -0.7825 H   0  0  0  0  0  0  0  0  0  0  0  0
    1.3586    1.9592   -1.8321 C   0  0  0  0  0  0  0  0  0  0  0  0
    2.2420    1.3408   -2.3922 O   0  0  0  0  0  0  0  0  0  0  0  0
    1.6677    3.2366   -1.4635 N   0  0  0  0  0  0  0  0  0  0  0  0
    2.6577    3.4585   -1.5282 H   0  0  0  0  0  0  0  0  0  0  0  0
    1.1157    3.6621   -0.7272 H   0  0  0  0  0  0  0  0  0  0  0  0
    0.8232    0.0947    0.6030 C   0  0  0  0  0  0  0  0  0  0  0  0
    2.0349    0.1216    0.7598 O   0  0  0  0  0  0  0  0  0  0  0  0
    0.0134    0.5257    1.6395 N   0  0  0  0  0  0  0  0  0  0  0  0
   -0.9801    0.3606    1.5153 H   0  0  0  0  0  0  0  0  0  0  0  0
    0.5175    0.7258    2.9930 C   0  0  0  0  0  0  0  0  0  0  0  0
    1.3151    1.4765    2.9987 H   0  0  0  0  0  0  0  0  0  0  0  0
   -0.2861    1.0739    3.6488 H   0  0  0  0  0  0  0  0  0  0  0  0
    0.9143   -0.2123    3.3955 H   0  0  0  0  0  0  0  0  0  0  0  0
  1  2  1  0  0  0  0
  2  3  1  0  0  0  0
  2  4  1  0  0  0  0
  2  5  1  0  0  0  0
  5  6  2  0  0  0  0
  5  7  1  0  0  0  0
  7  8  1  0  0  0  0
  7  9  1  0  0  0  0
  9 10  1  0  0  0  0
  9 11  1  0  0  0  0
  9 19  1  0  0  0  0
 11 12  1  0  0  0  0
 11 13  1  0  0  0  0
 11 14  1  0  0  0  0
 14 15  2  0  0  0  0
 14 16  1  0  0  0  0
 16 17  1  0  0  0  0
 16 18  1  0  0  0  0
 19 20  2  0  0  0  0
 19 21  1  0  0  0  0
 21 22  1  0  0  0  0
 21 23  1  0  0  0  0
 23 24  1  0  0  0  0
 23 25  1  0  0  0  0
 23 26  1  0  0  0  0
M  END
$$$$

  -OEChem-03222214023D

 26 25  0     1  0  0  0  0  0999 V2000
   -2.5677   -3.7617   -0.2294 H   0  0  0  0  0  0  0  0  0  0  0  0
   -2.5964   -2.7495   -0.6432 C   0  0  0  0  0  0  0  0  0  0  0  0
   -3.4230   -2.2043   -0.1814 H   0  0  0  0  0  0  0  0  0  0  0  0
   -2.7683   -2.8164   -1.7203 H   0  0  0  0  0  0  0  0  0  0  0  0
   -1.2853   -2.0362   -0.3694 C   0  0  0  0  0  0  0  0  0  0  0  0
   -0.4154   -2.5943    0.2739 O   0  0  0  0  0  0  0  0  0  0  0  0
   -1.0975   -0.7469   -0.8312 N   0  0  0  0  0  0  0  0  0  0  0  0
   -1.8188   -0.3892   -1.4507 H   0  0  0  0  0  0  0  0  0  0  0  0
    0.2017   -0.0463   -0.8145 C   0  0  1  0  0  0  0  0  0  0  0  0
    0.9195   -0.6270   -1.4078 H   0  0  0  0  0  0  0  0  0  0  0  0
    0.0019    1.3382   -1.4557 C   0  0  0  0  0  0  0  0  0  0  0  0
   -0.5753    1.2407   -2.3789 H   0  0  0  0  0  0  0  0  0  0  0  0
   -0.5533    1.9944   -0.7804 H   0  0  0  0  0  0  0  0  0  0  0  0
    1.3359    1.9796   -1.8164 C   0  0  0  0  0  0  0  0  0  0  0  0
    2.0995    1.4466   -2.5977 O   0  0  0  0  0  0  0  0  0  0  0  0
    1.8129    3.0791   -1.1638 N   0  0  0  0  0  0  0  0  0  0  0  0
    2.8144    3.2140   -1.2736 H   0  0  0  0  0  0  0  0  0  0  0  0
    1.3929    3.2987   -0.2671 H   0  0  0  0  0  0  0  0  0  0  0  0
    0.8132    0.1232    0.5973 C   0  0  0  0  0  0  0  0  0  0  0  0
    2.0258    0.1968    0.7353 O   0  0  0  0  0  0  0  0  0  0  0  0
    0.0056    0.5378    1.6418 N   0  0  0  0  0  0  0  0  0  0  0  0
   -0.9845    0.3445    1.5297 H   0  0  0  0  0  0  0  0  0  0  0  0
    0.5186    0.7472    2.9907 C   0  0  0  0  0  0  0  0  0  0  0  0
    1.2904    1.5242    2.9926 H   0  0  0  0  0  0  0  0  0  0  0  0
   -0.2890    1.0639    3.6577 H   0  0  0  0  0  0  0  0  0  0  0  0
    0.9513   -0.1793    3.3829 H   0  0  0  0  0  0  0  0  0  0  0  0
  1  2  1  0  0  0  0
  2  3  1  0  0  0  0
  2  4  1  0  0  0  0
  2  5  1  0  0  0  0
  5  6  2  0  0  0  0
  5  7  1  0  0  0  0
  7  8  1  0  0  0  0
  7  9  1  0  0  0  0
  9 10  1  0  0  0  0
  9 11  1  0  0  0  0
  9 19  1  0  0  0  0
 11 12  1  0  0  0  0
 11 13  1  0  0  0  0
 11 14  1  0  0  0  0
 14 15  2  0  0  0  0
 14 16  1  0  0  0  0
 16 17  1  0  0  0  0
 16 18  1  0  0  0  0
 19 20  2  0  0  0  0
 19 21  1  0  0  0  0
 21 22  1  0  0  0  0
 21 23  1  0  0  0  0
 23 24  1  0  0  0  0
 23 25  1  0  0  0  0
 23 26  1  0  0  0  0
M  END
$$$$

  -OEChem-03222214023D

 26 25  0     1  0  0  0  0  0999 V2000
   -2.5502   -3.7628   -0.2549 H   0  0  0  0  0  0  0  0  0  0  0  0
   -2.5861   -2.7452   -0.6548 C   0  0  0  0  0  0  0  0  0  0  0  0
   -3.4157   -2.2117   -0.1849 H   0  0  0  0  0  0  0  0  0  0  0  0
   -2.7591   -2.7990   -1.7324 H   0  0  0  0  0  0  0  0  0  0  0  0
   -1.2789   -2.0275   -0.3735 C   0  0  0  0  0  0  0  0  0  0  0  0
   -0.4063   -2.5864    0.2657 O   0  0  0  0  0  0  0  0  0  0  0  0
   -1.0945   -0.7347   -0.8267 N   0  0  0  0  0  0  0  0  0  0  0  0
   -1.8151   -0.3754   -1.4462 H   0  0  0  0  0  0  0  0  0  0  0  0
    0.2021   -0.0301   -0.8026 C   0  0  1  0  0  0  0  0  0  0  0  0
    0.9235   -0.6034   -1.3992 H   0  0  0  0  0  0  0  0  0  0  0  0
    0.0009    1.3552   -1.4397 C   0  0  0  0  0  0  0  0  0  0  0  0
   -0.5729    1.2598   -2.3653 H   0  0  0  0  0  0  0  0  0  0  0  0
   -0.5569    2.0111   -0.7661 H   0  0  0  0  0  0  0  0  0  0  0  0
    1.3367    1.9964   -1.7906 C   0  0  0  0  0  0  0  0  0  0  0  0
    1.9744    1.6168   -2.7533 O   0  0  0  0  0  0  0  0  0  0  0  0
    1.9545    2.8941   -0.9698 N   0  0  0  0  0  0  0  0  0  0  0  0
    2.9440    3.0068   -1.1717 H   0  0  0  0  0  0  0  0  0  0  0  0
    1.6705    2.8769    0.0050 H   0  0  0  0  0  0  0  0  0  0  0  0
    0.8086    0.1314    0.6123 C   0  0  0  0  0  0  0  0  0  0  0  0
    2.0203    0.2229    0.7496 O   0  0  0  0  0  0  0  0  0  0  0  0
   -0.0019    0.5362    1.6581 N   0  0  0  0  0  0  0  0  0  0  0  0
   -0.9919    0.3436    1.5421 H   0  0  0  0  0  0  0  0  0  0  0  0
    0.5060    0.7418    3.0095 C   0  0  0  0  0  0  0  0  0  0  0  0
    1.2696    1.5266    3.0186 H   0  0  0  0  0  0  0  0  0  0  0  0
   -0.3062    1.0456    3.6767 H   0  0  0  0  0  0  0  0  0  0  0  0
    0.9469   -0.1829    3.3972 H   0  0  0  0  0  0  0  0  0  0  0  0
  1  2  1  0  0  0  0
  2  3  1  0  0  0  0
  2  4  1  0  0  0  0
  2  5  1  0  0  0  0
  5  6  2  0  0  0  0
  5  7  1  0  0  0  0
  7  8  1  0  0  0  0
  7  9  1  0  0  0  0
  9 10  1  0  0  0  0
  9 11  1  0  0  0  0
  9 19  1  0  0  0  0
 11 12  1  0  0  0  0
 11 13  1  0  0  0  0
 11 14  1  0  0  0  0
 14 15  2  0  0  0  0
 14 16  1  0  0  0  0
 16 17  1  0  0  0  0
 16 18  1  0  0  0  0
 19 20  2  0  0  0  0
 19 21  1  0  0  0  0
 21 22  1  0  0  0  0
 21 23  1  0  0  0  0
 23 24  1  0  0  0  0
 23 25  1  0  0  0  0
 23 26  1  0  0  0  0
M  END
$$$$

  -OEChem-03222214023D

 26 25  0     1  0  0  0  0  0999 V2000
   -2.5502   -3.7613   -0.2865 H   0  0  0  0  0  0  0  0  0  0  0  0
   -2.5900   -2.7316   -0.6536 C   0  0  0  0  0  0  0  0  0  0  0  0
   -3.4062   -2.2095   -0.1485 H   0  0  0  0  0  0  0  0  0  0  0  0
   -2.7877   -2.7511   -1.7281 H   0  0  0  0  0  0  0  0  0  0  0  0
   -1.2733   -2.0283   -0.3796 C   0  0  0  0  0  0  0  0  0  0  0  0
   -0.3962   -2.6022    0.2401 O   0  0  0  0  0  0  0  0  0  0  0  0
   -1.0808   -0.7334   -0.8236 N   0  0  0  0  0  0  0  0  0  0  0  0
   -1.8069   -0.3557   -1.4259 H   0  0  0  0  0  0  0  0  0  0  0  0
    0.2178   -0.0329   -0.7875 C   0  0  1  0  0  0  0  0  0  0  0  0
    0.9423   -0.6047   -1.3813 H   0  0  0  0  0  0  0  0  0  0  0  0
    0.0249    1.3548   -1.4221 C   0  0  0  0  0  0  0  0  0  0  0  0
   -0.5479    1.2617   -2.3490 H   0  0  0  0  0  0  0  0  0  0  0  0
   -0.5341    2.0099   -0.7485 H   0  0  0  0  0  0  0  0  0  0  0  0
    1.3591    2.0054   -1.7672 C   0  0  0  0  0  0  0  0  0  0  0  0
    1.8677    1.8322   -2.8576 O   0  0  0  0  0  0  0  0  0  0  0  0
    2.0989    2.7054   -0.8596 N   0  0  0  0  0  0  0  0  0  0  0  0
    3.0559    2.8628   -1.1616 H   0  0  0  0  0  0  0  0  0  0  0  0
    1.9541    2.4473    0.1145 H   0  0  0  0  0  0  0  0  0  0  0  0
    0.8081    0.1139    0.6355 C   0  0  0  0  0  0  0  0  0  0  0  0
    2.0185    0.2062    0.7861 O   0  0  0  0  0  0  0  0  0  0  0  0
   -0.0123    0.5126    1.6755 N   0  0  0  0  0  0  0  0  0  0  0  0
   -1.0038    0.3361    1.5457 H   0  0  0  0  0  0  0  0  0  0  0  0
    0.4807    0.7225    3.0320 C   0  0  0  0  0  0  0  0  0  0  0  0
    1.2465    1.5051    3.0471 H   0  0  0  0  0  0  0  0  0  0  0  0
   -0.3383    1.0319    3.6883 H   0  0  0  0  0  0  0  0  0  0  0  0
    0.9140   -0.2020    3.4282 H   0  0  0  0  0  0  0  0  0  0  0  0
  1  2  1  0  0  0  0
  2  3  1  0  0  0  0
  2  4  1  0  0  0  0
  2  5  1  0  0  0  0
  5  6  2  0  0  0  0
  5  7  1  0  0  0  0
  7  8  1  0  0  0  0
  7  9  1  0  0  0  0
  9 10  1  0  0  0  0
  9 11  1  0  0  0  0
  9 19  1  0  0  0  0
 11 12  1  0  0  0  0
 11 13  1  0  0  0  0
 11 14  1  0  0  0  0
 14 15  2  0  0  0  0
 14 16  1  0  0  0  0
 16 17  1  0  0  0  0
 16 18  1  0  0  0  0
 19 20  2  0  0  0  0
 19 21  1  0  0  0  0
 21 22  1  0  0  0  0
 21 23  1  0  0  0  0
 23 24  1  0  0  0  0
 23 25  1  0  0  0  0
 23 26  1  0  0  0  0
M  END
$$$$

  -OEChem-03222214023D

 26 25  0     1  0  0  0  0  0999 V2000
   -2.5728   -3.7473   -0.2985 H   0  0  0  0  0  0  0  0  0  0  0  0
   -2.6043   -2.7119   -0.6497 C   0  0  0  0  0  0  0  0  0  0  0  0
   -3.4093   -2.1883   -0.1288 H   0  0  0  0  0  0  0  0  0  0  0  0
   -2.8120   -2.7124   -1.7225 H   0  0  0  0  0  0  0  0  0  0  0  0
   -1.2772   -2.0287   -0.3778 C   0  0  0  0  0  0  0  0  0  0  0  0
   -0.4033   -2.6190    0.2309 O   0  0  0  0  0  0  0  0  0  0  0  0
   -1.0673   -0.7356   -0.8184 N   0  0  0  0  0  0  0  0  0  0  0  0
   -1.7924   -0.3408   -1.4111 H   0  0  0  0  0  0  0  0  0  0  0  0
    0.2379   -0.0490   -0.7715 C   0  0  1  0  0  0  0  0  0  0  0  0
    0.9613   -0.6296   -1.3576 H   0  0  0  0  0  0  0  0  0  0  0  0
    0.0604    1.3377   -1.4149 C   0  0  0  0  0  0  0  0  0  0  0  0
   -0.5121    1.2410   -2.3419 H   0  0  0  0  0  0  0  0  0  0  0  0
   -0.4991    1.9966   -0.7455 H   0  0  0  0  0  0  0  0  0  0  0  0
    1.3923    1.9965   -1.7604 C   0  0  0  0  0  0  0  0  0  0  0  0
    1.7712    2.0509   -2.9143 O   0  0  0  0  0  0  0  0  0  0  0  0
    2.2369    2.5216   -0.8266 N   0  0  0  0  0  0  0  0  0  0  0  0
    3.1588    2.7391   -1.1927 H   0  0  0  0  0  0  0  0  0  0  0  0
    2.1886    2.0955    0.0996 H   0  0  0  0  0  0  0  0  0  0  0  0
    0.8117    0.0860    0.6596 C   0  0  0  0  0  0  0  0  0  0  0  0
    2.0224    0.1501    0.8257 O   0  0  0  0  0  0  0  0  0  0  0  0
   -0.0143    0.4897    1.6927 N   0  0  0  0  0  0  0  0  0  0  0  0
   -1.0082    0.3435    1.5468 H   0  0  0  0  0  0  0  0  0  0  0  0
    0.4640    0.6860    3.0562 C   0  0  0  0  0  0  0  0  0  0  0  0
    1.2370    1.4613    3.0855 H   0  0  0  0  0  0  0  0  0  0  0  0
   -0.3602    0.9986    3.7044 H   0  0  0  0  0  0  0  0  0  0  0  0
    0.8835   -0.2450    3.4521 H   0  0  0  0  0  0  0  0  0  0  0  0
  1  2  1  0  0  0  0
  2  3  1  0  0  0  0
  2  4  1  0  0  0  0
  2  5  1  0  0  0  0
  5  6  2  0  0  0  0
  5  7  1  0  0  0  0
  7  8  1  0  0  0  0
  7  9  1  0  0  0  0
  9 10  1  0  0  0  0
  9 11  1  0  0  0  0
  9 19  1  0  0  0  0
 11 12  1  0  0  0  0
 11 13  1  0  0  0  0
 11 14  1  0  0  0  0
 14 15  2  0  0  0  0
 14 16  1  0  0  0  0
 16 17  1  0  0  0  0
 16 18  1  0  0  0  0
 19 20  2  0  0  0  0
 19 21  1  0  0  0  0
 21 22  1  0  0  0  0
 21 23  1  0  0  0  0
 23 24  1  0  0  0  0
 23 25  1  0  0  0  0
 23 26  1  0  0  0  0
M  END
$$$$

  -OEChem-03222214023D

 26 25  0     1  0  0  0  0  0999 V2000
   -2.6171   -3.7263   -0.2867 H   0  0  0  0  0  0  0  0  0  0  0  0
   -2.6306   -2.6897   -0.6362 C   0  0  0  0  0  0  0  0  0  0  0  0
   -3.4177   -2.1494   -0.1048 H   0  0  0  0  0  0  0  0  0  0  0  0
   -2.8516   -2.6839   -1.7065 H   0  0  0  0  0  0  0  0  0  0  0  0
   -1.2861   -2.0347   -0.3787 C   0  0  0  0  0  0  0  0  0  0  0  0
   -0.4177   -2.6441    0.2188 O   0  0  0  0  0  0  0  0  0  0  0  0
   -1.0537   -0.7453   -0.8196 N   0  0  0  0  0  0  0  0  0  0  0  0
   -1.7779   -0.3300   -1.3993 H   0  0  0  0  0  0  0  0  0  0  0  0
    0.2596   -0.0749   -0.7621 C   0  0  1  0  0  0  0  0  0  0  0  0
    0.9815   -0.6689   -1.3361 H   0  0  0  0  0  0  0  0  0  0  0  0
    0.1010    1.3064   -1.4252 C   0  0  0  0  0  0  0  0  0  0  0  0
   -0.4661    1.1990   -2.3545 H   0  0  0  0  0  0  0  0  0  0  0  0
   -0.4611    1.9742   -0.7670 H   0  0  0  0  0  0  0  0  0  0  0  0
    1.4307    1.9719   -1.7729 C   0  0  0  0  0  0  0  0  0  0  0  0
    1.6881    2.2576   -2.9263 O   0  0  0  0  0  0  0  0  0  0  0  0
    2.3616    2.3456   -0.8481 N   0  0  0  0  0  0  0  0  0  0  0  0
    3.2524    2.6278   -1.2451 H   0  0  0  0  0  0  0  0  0  0  0  0
    2.3723    1.8157    0.0258 H   0  0  0  0  0  0  0  0  0  0  0  0
    0.8185    0.0547    0.6750 C   0  0  0  0  0  0  0  0  0  0  0  0
    2.0290    0.0686    0.8560 O   0  0  0  0  0  0  0  0  0  0  0  0
   -0.0092    0.4702    1.7018 N   0  0  0  0  0  0  0  0  0  0  0  0
   -1.0060    0.3656    1.5405 H   0  0  0  0  0  0  0  0  0  0  0  0
    0.4580    0.6446    3.0719 C   0  0  0  0  0  0  0  0  0  0  0  0
    1.2479    1.4019    3.1156 H   0  0  0  0  0  0  0  0  0  0  0  0
   -0.3658    0.9708    3.7139 H   0  0  0  0  0  0  0  0  0  0  0  0
    0.8523   -0.2988    3.4643 H   0  0  0  0  0  0  0  0  0  0  0  0
  1  2  1  0  0  0  0
  2  3  1  0  0  0  0
  2  4  1  0  0  0  0
  2  5  1  0  0  0  0
  5  6  2  0  0  0  0
  5  7  1  0  0  0  0
  7  8  1  0  0  0  0
  7  9  1  0  0  0  0
  9 10  1  0  0  0  0
  9 11  1  0  0  0  0
  9 19  1  0  0  0  0
 11 12  1  0  0  0  0
 11 13  1  0  0  0  0
 11 14  1  0  0  0  0
 14 15  2  0  0  0  0
 14 16  1  0  0  0  0
 16 17  1  0  0  0  0
 16 18  1  0  0  0  0
 19 20  2  0  0  0  0
 19 21  1  0  0  0  0
 21 22  1  0  0  0  0
 21 23  1  0  0  0  0
 23 24  1  0  0  0  0
 23 25  1  0  0  0  0
 23 26  1  0  0  0  0
M  END
$$$$

  -OEChem-03222214023D

 26 25  0     1  0  0  0  0  0999 V2000
   -2.6547   -3.7059   -0.2681 H   0  0  0  0  0  0  0  0  0  0  0  0
   -2.6524   -2.6710   -0.6225 C   0  0  0  0  0  0  0  0  0  0  0  0
   -3.4245   -2.1140   -0.0863 H   0  0  0  0  0  0  0  0  0  0  0  0
   -2.8834   -2.6668   -1.6905 H   0  0  0  0  0  0  0  0  0  0  0  0
   -1.2938   -2.0400   -0.3814 C   0  0  0  0  0  0  0  0  0  0  0  0
   -0.4272   -2.6671    0.2003 O   0  0  0  0  0  0  0  0  0  0  0  0
   -1.0441   -0.7545   -0.8238 N   0  0  0  0  0  0  0  0  0  0  0  0
   -1.7705   -0.3201   -1.3867 H   0  0  0  0  0  0  0  0  0  0  0  0
    0.2757   -0.0980   -0.7598 C   0  0  1  0  0  0  0  0  0  0  0  0
    0.9947   -0.7027   -1.3260 H   0  0  0  0  0  0  0  0  0  0  0  0
    0.1278    1.2781   -1.4391 C   0  0  0  0  0  0  0  0  0  0  0  0
   -0.4377    1.1606   -2.3682 H   0  0  0  0  0  0  0  0  0  0  0  0
   -0.4367    1.9508   -0.7882 H   0  0  0  0  0  0  0  0  0  0  0  0
    1.4516    1.9540   -1.7946 C   0  0  0  0  0  0  0  0  0  0  0  0
    1.5924    2.4713   -2.8857 O   0  0  0  0  0  0  0  0  0  0  0  0
    2.4856    2.1385   -0.9233 N   0  0  0  0  0  0  0  0  0  0  0  0
    3.3475    2.4776   -1.3389 H   0  0  0  0  0  0  0  0  0  0  0  0
    2.5392    1.5213   -0.1096 H   0  0  0  0  0  0  0  0  0  0  0  0
    0.8252    0.0285    0.6814 C   0  0  0  0  0  0  0  0  0  0  0  0
    2.0330   -0.0179    0.8761 O   0  0  0  0  0  0  0  0  0  0  0  0
   -0.0017    0.4552    1.7041 N   0  0  0  0  0  0  0  0  0  0  0  0
   -0.9998    0.3971    1.5288 H   0  0  0  0  0  0  0  0  0  0  0  0
    0.4573    0.6169    3.0784 C   0  0  0  0  0  0  0  0  0  0  0  0
    1.2652    1.3543    3.1298 H   0  0  0  0  0  0  0  0  0  0  0  0
   -0.3639    0.9629    3.7133 H   0  0  0  0  0  0  0  0  0  0  0  0
    0.8243   -0.3362    3.4737 H   0  0  0  0  0  0  0  0  0  0  0  0
  1  2  1  0  0  0  0
  2  3  1  0  0  0  0
  2  4  1  0  0  0  0
  2  5  1  0  0  0  0
  5  6  2  0  0  0  0
  5  7  1  0  0  0  0
  7  8  1  0  0  0  0
  7  9  1  0  0  0  0
  9 10  1  0  0  0  0
  9 11  1  0  0  0  0
  9 19  1  0  0  0  0
 11 12  1  0  0  0  0
 11 13  1  0  0  0  0
 11 14  1  0  0  0  0
 14 15  2  0  0  0  0
 14 16  1  0  0  0  0
 16 17  1  0  0  0  0
 16 18  1  0  0  0  0
 19 20  2  0  0  0  0
 19 21  1  0  0  0  0
 21 22  1  0  0  0  0
 21 23  1  0  0  0  0
 23 24  1  0  0  0  0
 23 25  1  0  0  0  0
 23 26  1  0  0  0  0
M  END
$$$$

  -OEChem-03222214023D

 26 25  0     1  0  0  0  0  0999 V2000
   -2.6764   -3.6922   -0.2479 H   0  0  0  0  0  0  0  0  0  0  0  0
   -2.6671   -2.6577   -0.6033 C   0  0  0  0  0  0  0  0  0  0  0  0
   -3.4229   -2.0906   -0.0547 H   0  0  0  0  0  0  0  0  0  0  0  0
   -2.9159   -2.6511   -1.6672 H   0  0  0  0  0  0  0  0  0  0  0  0
   -1.2965   -2.0441   -0.3855 C   0  0  0  0  0  0  0  0  0  0  0  0
   -0.4281   -2.6828    0.1805 O   0  0  0  0  0  0  0  0  0  0  0  0
   -1.0374   -0.7614   -0.8310 N   0  0  0  0  0  0  0  0  0  0  0  0
   -1.7698   -0.3109   -1.3731 H   0  0  0  0  0  0  0  0  0  0  0  0
    0.2855   -0.1114   -0.7629 C   0  0  1  0  0  0  0  0  0  0  0  0
    1.0036   -0.7229   -1.3229 H   0  0  0  0  0  0  0  0  0  0  0  0
    0.1416    1.2592   -1.4552 C   0  0  0  0  0  0  0  0  0  0  0  0
   -0.4190    1.1310   -2.3857 H   0  0  0  0  0  0  0  0  0  0  0  0
   -0.4278    1.9348   -0.8113 H   0  0  0  0  0  0  0  0  0  0  0  0
    1.4572    1.9482   -1.8181 C   0  0  0  0  0  0  0  0  0  0  0  0
    1.5009    2.6842   -2.7849 O   0  0  0  0  0  0  0  0  0  0  0  0
    2.6022    1.8919   -1.0774 N   0  0  0  0  0  0  0  0  0  0  0  0
    3.4342    2.3097   -1.4815 H   0  0  0  0  0  0  0  0  0  0  0  0
    2.6840    1.2083   -0.3210 H   0  0  0  0  0  0  0  0  0  0  0  0
    0.8292    0.0178    0.6801 C   0  0  0  0  0  0  0  0  0  0  0  0
    2.0324   -0.0793    0.8854 O   0  0  0  0  0  0  0  0  0  0  0  0
    0.0029    0.4528    1.6996 N   0  0  0  0  0  0  0  0  0  0  0  0
   -0.9944    0.4347    1.5125 H   0  0  0  0  0  0  0  0  0  0  0  0
    0.4538    0.5968    3.0783 C   0  0  0  0  0  0  0  0  0  0  0  0
    1.2776    1.3158    3.1403 H   0  0  0  0  0  0  0  0  0  0  0  0
   -0.3648    0.9575    3.7083 H   0  0  0  0  0  0  0  0  0  0  0  0
    0.7959   -0.3666    3.4710 H   0  0  0  0  0  0  0  0  0  0  0  0
  1  2  1  0  0  0  0
  2  3  1  0  0  0  0
  2  4  1  0  0  0  0
  2  5  1  0  0  0  0
  5  6  2  0  0  0  0
  5  7  1  0  0  0  0
  7  8  1  0  0  0  0
  7  9  1  0  0  0  0
  9 10  1  0  0  0  0
  9 11  1  0  0  0  0
  9 19  1  0  0  0  0
 11 12  1  0  0  0  0
 11 13  1  0  0  0  0
 11 14  1  0  0  0  0
 14 15  2  0  0  0  0
 14 16  1  0  0  0  0
 16 17  1  0  0  0  0
 16 18  1  0  0  0  0
 19 20  2  0  0  0  0
 19 21  1  0  0  0  0
 21 22  1  0  0  0  0
 21 23  1  0  0  0  0
 23 24  1  0  0  0  0
 23 25  1  0  0  0  0
 23 26  1  0  0  0  0
M  END
$$$$

  -OEChem-03222214023D

 26 25  0     1  0  0  0  0  0999 V2000
   -2.6913   -3.6927   -0.2431 H   0  0  0  0  0  0  0  0  0  0  0  0
   -2.6807   -2.6588   -0.6002 C   0  0  0  0  0  0  0  0  0  0  0  0
   -3.4351   -2.0894   -0.0519 H   0  0  0  0  0  0  0  0  0  0  0  0
   -2.9306   -2.6536   -1.6640 H   0  0  0  0  0  0  0  0  0  0  0  0
   -1.3090   -2.0469   -0.3849 C   0  0  0  0  0  0  0  0  0  0  0  0
   -0.4415   -2.6849    0.1834 O   0  0  0  0  0  0  0  0  0  0  0  0
   -1.0472   -0.7662   -0.8342 N   0  0  0  0  0  0  0  0  0  0  0  0
   -1.7802   -0.3134   -1.3735 H   0  0  0  0  0  0  0  0  0  0  0  0
    0.2780   -0.1209   -0.7724 C   0  0  1  0  0  0  0  0  0  0  0  0
    0.9898   -0.7354   -1.3372 H   0  0  0  0  0  0  0  0  0  0  0  0
    0.1428    1.2547   -1.4548 C   0  0  0  0  0  0  0  0  0  0  0  0
   -0.4184    1.1357   -2.3859 H   0  0  0  0  0  0  0  0  0  0  0  0
   -0.4210    1.9306   -0.8061 H   0  0  0  0  0  0  0  0  0  0  0  0
    1.4623    1.9350   -1.8193 C   0  0  0  0  0  0  0  0  0  0  0  0
    1.4563    2.8733   -2.5922 O   0  0  0  0  0  0  0  0  0  0  0  0
    2.6965    1.5382   -1.3907 N   0  0  0  0  0  0  0  0  0  0  0  0
    3.4597    2.1787   -1.5851 H   0  0  0  0  0  0  0  0  0  0  0  0
    2.7552    0.9198   -0.5777 H   0  0  0  0  0  0  0  0  0  0  0  0
    0.8316    0.0115    0.6672 C   0  0  0  0  0  0  0  0  0  0  0  0
    2.0376   -0.0686    0.8622 O   0  0  0  0  0  0  0  0  0  0  0  0
    0.0121    0.4524    1.6898 N   0  0  0  0  0  0  0  0  0  0  0  0
   -0.9868    0.4191    1.5134 H   0  0  0  0  0  0  0  0  0  0  0  0
    0.4739    0.6072    3.0640 C   0  0  0  0  0  0  0  0  0  0  0  0
    1.2961    1.3287    3.1143 H   0  0  0  0  0  0  0  0  0  0  0  0
   -0.3405    0.9700    3.6983 H   0  0  0  0  0  0  0  0  0  0  0  0
    0.8219   -0.3525    3.4604 H   0  0  0  0  0  0  0  0  0  0  0  0
  1  2  1  0  0  0  0
  2  3  1  0  0  0  0
  2  4  1  0  0  0  0
  2  5  1  0  0  0  0
  5  6  2  0  0  0  0
  5  7  1  0  0  0  0
  7  8  1  0  0  0  0
  7  9  1  0  0  0  0
  9 10  1  0  0  0  0
  9 11  1  0  0  0  0
  9 19  1  0  0  0  0
 11 12  1  0  0  0  0
 11 13  1  0  0  0  0
 11 14  1  0  0  0  0
 14 15  2  0  0  0  0
 14 16  1  0  0  0  0
 16 17  1  0  0  0  0
 16 18  1  0  0  0  0
 19 20  2  0  0  0  0
 19 21  1  0  0  0  0
 21 22  1  0  0  0  0
 21 23  1  0  0  0  0
 23 24  1  0  0  0  0
 23 25  1  0  0  0  0
 23 26  1  0  0  0  0
M  END
$$$$

  -OEChem-03222214023D

 26 25  0     1  0  0  0  0  0999 V2000
   -2.7314   -3.7280   -0.2484 H   0  0  0  0  0  0  0  0  0  0  0  0
   -2.7349   -2.6963   -0.6119 C   0  0  0  0  0  0  0  0  0  0  0  0
   -3.4841   -2.1296   -0.0541 H   0  0  0  0  0  0  0  0  0  0  0  0
   -3.0029   -2.6988   -1.6712 H   0  0  0  0  0  0  0  0  0  0  0  0
   -1.3649   -2.0723   -0.4233 C   0  0  0  0  0  0  0  0  0  0  0  0
   -0.4737   -2.7066    0.1120 O   0  0  0  0  0  0  0  0  0  0  0  0
   -1.1296   -0.7813   -0.8558 N   0  0  0  0  0  0  0  0  0  0  0  0
   -1.8849   -0.3191   -1.3547 H   0  0  0  0  0  0  0  0  0  0  0  0
    0.1893   -0.1250   -0.8066 C   0  0  1  0  0  0  0  0  0  0  0  0
    0.8667   -0.7697   -1.3799 H   0  0  0  0  0  0  0  0  0  0  0  0
    0.0889    1.2401   -1.5159 C   0  0  0  0  0  0  0  0  0  0  0  0
   -0.6574    1.1849   -2.3128 H   0  0  0  0  0  0  0  0  0  0  0  0
   -0.2353    2.0063   -0.8060 H   0  0  0  0  0  0  0  0  0  0  0  0
    1.3926    1.6936   -2.1692 C   0  0  0  0  0  0  0  0  0  0  0  0
    1.4352    2.7542   -2.7611 O   0  0  0  0  0  0  0  0  0  0  0  0
    2.6024    1.0937   -1.9636 N   0  0  0  0  0  0  0  0  0  0  0  0
    3.3996    1.6665   -2.2231 H   0  0  0  0  0  0  0  0  0  0  0  0
    2.6852    0.5021   -1.1335 H   0  0  0  0  0  0  0  0  0  0  0  0
    0.8226    0.0184    0.5934 C   0  0  0  0  0  0  0  0  0  0  0  0
    2.0431   -0.0134    0.6890 O   0  0  0  0  0  0  0  0  0  0  0  0
    0.0649    0.4492    1.6662 N   0  0  0  0  0  0  0  0  0  0  0  0
   -0.9433    0.4002    1.5603 H   0  0  0  0  0  0  0  0  0  0  0  0
    0.6218    0.6568    2.9971 C   0  0  0  0  0  0  0  0  0  0  0  0
    1.4216    1.4043    2.9663 H   0  0  0  0  0  0  0  0  0  0  0  0
   -0.1547    1.0130    3.6808 H   0  0  0  0  0  0  0  0  0  0  0  0
    1.0298   -0.2799    3.3913 H   0  0  0  0  0  0  0  0  0  0  0  0
  1  2  1  0  0  0  0
  2  3  1  0  0  0  0
  2  4  1  0  0  0  0
  2  5  1  0  0  0  0
  5  6  2  0  0  0  0
  5  7  1  0  0  0  0
  7  8  1  0  0  0  0
  7  9  1  0  0  0  0
  9 10  1  0  0  0  0
  9 11  1  0  0  0  0
  9 19  1  0  0  0  0
 11 12  1  0  0  0  0
 11 13  1  0  0  0  0
 11 14  1  0  0  0  0
 14 15  2  0  0  0  0
 14 16  1  0  0  0  0
 16 17  1  0  0  0  0
 16 18  1  0  0  0  0
 19 20  2  0  0  0  0
 19 21  1  0  0  0  0
 21 22  1  0  0  0  0
 21 23  1  0  0  0  0
 23 24  1  0  0  0  0
 23 25  1  0  0  0  0
 23 26  1  0  0  0  0
M  END
$$$$

  -OEChem-03222214023D

 26 25  0     1  0  0  0  0  0999 V2000
   -2.7381   -3.7372   -0.2420 H   0  0  0  0  0  0  0  0  0  0  0  0
   -2.7500   -2.7052   -0.6047 C   0  0  0  0  0  0  0  0  0  0  0  0
   -3.4876   -2.1394   -0.0306 H   0  0  0  0  0  0  0  0  0  0  0  0
   -3.0408   -2.7076   -1.6580 H   0  0  0  0  0  0  0  0  0  0  0  0
   -1.3763   -2.0806   -0.4457 C   0  0  0  0  0  0  0  0  0  0  0  0
   -0.4699   -2.7190    0.0585 O   0  0  0  0  0  0  0  0  0  0  0  0
   -1.1533   -0.7849   -0.8706 N   0  0  0  0  0  0  0  0  0  0  0  0
   -1.9255   -0.3103   -1.3302 H   0  0  0  0  0  0  0  0  0  0  0  0
    0.1606   -0.1191   -0.8235 C   0  0  1  0  0  0  0  0  0  0  0  0
    0.8311   -0.7684   -1.3987 H   0  0  0  0  0  0  0  0  0  0  0  0
    0.0576    1.2403   -1.5425 C   0  0  0  0  0  0  0  0  0  0  0  0
   -0.6836    1.1746   -2.3430 H   0  0  0  0  0  0  0  0  0  0  0  0
   -0.2773    2.0078   -0.8385 H   0  0  0  0  0  0  0  0  0  0  0  0
    1.3607    1.7007   -2.1941 C   0  0  0  0  0  0  0  0  0  0  0  0
    1.4819    2.8561   -2.5508 O   0  0  0  0  0  0  0  0  0  0  0  0
    2.5303    0.9964   -2.1527 N   0  0  0  0  0  0  0  0  0  0  0  0
    3.3473    1.5648   -2.3552 H   0  0  0  0  0  0  0  0  0  0  0  0
    2.6116    0.3123   -1.3993 H   0  0  0  0  0  0  0  0  0  0  0  0
    0.8159    0.0289    0.5636 C   0  0  0  0  0  0  0  0  0  0  0  0
    2.0376   -0.0113    0.6327 O   0  0  0  0  0  0  0  0  0  0  0  0
    0.0775    0.4520    1.6524 N   0  0  0  0  0  0  0  0  0  0  0  0
   -0.9327    0.4139    1.5635 H   0  0  0  0  0  0  0  0  0  0  0  0
    0.6613    0.6608    2.9713 C   0  0  0  0  0  0  0  0  0  0  0  0
    1.4595    1.4093    2.9235 H   0  0  0  0  0  0  0  0  0  0  0  0
   -0.1014    1.0161    3.6707 H   0  0  0  0  0  0  0  0  0  0  0  0
    1.0784   -0.2753    3.3572 H   0  0  0  0  0  0  0  0  0  0  0  0
  1  2  1  0  0  0  0
  2  3  1  0  0  0  0
  2  4  1  0  0  0  0
  2  5  1  0  0  0  0
  5  6  2  0  0  0  0
  5  7  1  0  0  0  0
  7  8  1  0  0  0  0
  7  9  1  0  0  0  0
  9 10  1  0  0  0  0
  9 11  1  0  0  0  0
  9 19  1  0  0  0  0
 11 12  1  0  0  0  0
 11 13  1  0  0  0  0
 11 14  1  0  0  0  0
 14 15  2  0  0  0  0
 14 16  1  0  0  0  0
 16 17  1  0  0  0  0
 16 18  1  0  0  0  0
 19 20  2  0  0  0  0
 19 21  1  0  0  0  0
 21 22  1  0  0  0  0
 21 23  1  0  0  0  0
 23 24  1  0  0  0  0
 23 25  1  0  0  0  0
 23 26  1  0  0  0  0
M  END
$$$$

  -OEChem-03222214023D

 26 25  0     1  0  0  0  0  0999 V2000
   -2.7041   -3.7422   -0.2496 H   0  0  0  0  0  0  0  0  0  0  0  0
   -2.7263   -2.7048   -0.5960 C   0  0  0  0  0  0  0  0  0  0  0  0
   -3.4468   -2.1483    0.0082 H   0  0  0  0  0  0  0  0  0  0  0  0
   -3.0480   -2.6907   -1.6403 H   0  0  0  0  0  0  0  0  0  0  0  0
   -1.3484   -2.0823   -0.4673 C   0  0  0  0  0  0  0  0  0  0  0  0
   -0.4272   -2.7271    0.0003 O   0  0  0  0  0  0  0  0  0  0  0  0
   -1.1380   -0.7807   -0.8799 N   0  0  0  0  0  0  0  0  0  0  0  0
   -1.9280   -0.2927   -1.2929 H   0  0  0  0  0  0  0  0  0  0  0  0
    0.1657   -0.0965   -0.8146 C   0  0  1  0  0  0  0  0  0  0  0  0
    0.8501   -0.7351   -1.3829 H   0  0  0  0  0  0  0  0  0  0  0  0
    0.0468    1.2653   -1.5249 C   0  0  0  0  0  0  0  0  0  0  0  0
   -0.6852    1.1923   -2.3331 H   0  0  0  0  0  0  0  0  0  0  0  0
   -0.3104    2.0211   -0.8191 H   0  0  0  0  0  0  0  0  0  0  0  0
    1.3459    1.7552   -2.1623 C   0  0  0  0  0  0  0  0  0  0  0  0
    1.5612    2.9472   -2.2596 O   0  0  0  0  0  0  0  0  0  0  0  0
    2.3950    0.9513   -2.5084 N   0  0  0  0  0  0  0  0  0  0  0  0
    3.2580    1.4637   -2.6680 H   0  0  0  0  0  0  0  0  0  0  0  0
    2.4594    0.0559   -2.0326 H   0  0  0  0  0  0  0  0  0  0  0  0
    0.8074    0.0525    0.5782 C   0  0  0  0  0  0  0  0  0  0  0  0
    2.0266    0.0043    0.6642 O   0  0  0  0  0  0  0  0  0  0  0  0
    0.0547    0.4582    1.6642 N   0  0  0  0  0  0  0  0  0  0  0  0
   -0.9543    0.4313    1.5614 H   0  0  0  0  0  0  0  0  0  0  0  0
    0.6239    0.6584    2.9909 C   0  0  0  0  0  0  0  0  0  0  0  0
    1.4243    1.4051    2.9567 H   0  0  0  0  0  0  0  0  0  0  0  0
   -0.1458    1.0116    3.6839 H   0  0  0  0  0  0  0  0  0  0  0  0
    1.0347   -0.2808    3.3759 H   0  0  0  0  0  0  0  0  0  0  0  0
  1  2  1  0  0  0  0
  2  3  1  0  0  0  0
  2  4  1  0  0  0  0
  2  5  1  0  0  0  0
  5  6  2  0  0  0  0
  5  7  1  0  0  0  0
  7  8  1  0  0  0  0
  7  9  1  0  0  0  0
  9 10  1  0  0  0  0
  9 11  1  0  0  0  0
  9 19  1  0  0  0  0
 11 12  1  0  0  0  0
 11 13  1  0  0  0  0
 11 14  1  0  0  0  0
 14 15  2  0  0  0  0
 14 16  1  0  0  0  0
 16 17  1  0  0  0  0
 16 18  1  0  0  0  0
 19 20  2  0  0  0  0
 19 21  1  0  0  0  0
 21 22  1  0  0  0  0
 21 23  1  0  0  0  0
 23 24  1  0  0  0  0
 23 25  1  0  0  0  0
 23 26  1  0  0  0  0
M  END
$$$$

  -OEChem-03222214023D

 26 25  0     1  0  0  0  0  0999 V2000
   -2.6605   -3.7301   -0.2350 H   0  0  0  0  0  0  0  0  0  0  0  0
   -2.6825   -2.6919   -0.5790 C   0  0  0  0  0  0  0  0  0  0  0  0
   -3.3863   -2.1319    0.0413 H   0  0  0  0  0  0  0  0  0  0  0  0
   -3.0252   -2.6733   -1.6164 H   0  0  0  0  0  0  0  0  0  0  0  0
   -1.2979   -2.0795   -0.4780 C   0  0  0  0  0  0  0  0  0  0  0  0
   -0.3689   -2.7389   -0.0483 O   0  0  0  0  0  0  0  0  0  0  0  0
   -1.0888   -0.7752   -0.8830 N   0  0  0  0  0  0  0  0  0  0  0  0
   -1.8924   -0.2673   -1.2420 H   0  0  0  0  0  0  0  0  0  0  0  0
    0.2089   -0.0819   -0.7930 C   0  0  1  0  0  0  0  0  0  0  0  0
    0.9229   -0.6974   -1.3506 H   0  0  0  0  0  0  0  0  0  0  0  0
    0.0767    1.2888   -1.4822 C   0  0  0  0  0  0  0  0  0  0  0  0
   -0.6475    1.2262   -2.2983 H   0  0  0  0  0  0  0  0  0  0  0  0
   -0.2875    2.0343   -0.7685 H   0  0  0  0  0  0  0  0  0  0  0  0
    1.3867    1.7745   -2.0926 C   0  0  0  0  0  0  0  0  0  0  0  0
    1.7511    2.9233   -1.9388 O   0  0  0  0  0  0  0  0  0  0  0  0
    2.1668    1.0078   -2.9118 N   0  0  0  0  0  0  0  0  0  0  0  0
    3.0858    1.3976   -3.1035 H   0  0  0  0  0  0  0  0  0  0  0  0
    2.0571    0.0005   -2.8749 H   0  0  0  0  0  0  0  0  0  0  0  0
    0.8085    0.0576    0.6214 C   0  0  0  0  0  0  0  0  0  0  0  0
    2.0216   -0.0035    0.7586 O   0  0  0  0  0  0  0  0  0  0  0  0
    0.0173    0.4499    1.6855 N   0  0  0  0  0  0  0  0  0  0  0  0
   -0.9867    0.4486    1.5422 H   0  0  0  0  0  0  0  0  0  0  0  0
    0.5397    0.6540    3.0307 C   0  0  0  0  0  0  0  0  0  0  0  0
    1.3264    1.4159    3.0247 H   0  0  0  0  0  0  0  0  0  0  0  0
   -0.2582    0.9891    3.7002 H   0  0  0  0  0  0  0  0  0  0  0  0
    0.9556   -0.2792    3.4248 H   0  0  0  0  0  0  0  0  0  0  0  0
  1  2  1  0  0  0  0
  2  3  1  0  0  0  0
  2  4  1  0  0  0  0
  2  5  1  0  0  0  0
  5  6  2  0  0  0  0
  5  7  1  0  0  0  0
  7  8  1  0  0  0  0
  7  9  1  0  0  0  0
  9 10  1  0  0  0  0
  9 11  1  0  0  0  0
  9 19  1  0  0  0  0
 11 12  1  0  0  0  0
 11 13  1  0  0  0  0
 11 14  1  0  0  0  0
 14 15  2  0  0  0  0
 14 16  1  0  0  0  0
 16 17  1  0  0  0  0
 16 18  1  0  0  0  0
 19 20  2  0  0  0  0
 19 21  1  0  0  0  0
 21 22  1  0  0  0  0
 21 23  1  0  0  0  0
 23 24  1  0  0  0  0
 23 25  1  0  0  0  0
 23 26  1  0  0  0  0
M  END
$$$$

  -OEChem-03222214023D

 26 25  0     1  0  0  0  0  0999 V2000
   -2.6394   -3.7313   -0.2331 H   0  0  0  0  0  0  0  0  0  0  0  0
   -2.6695   -2.6914   -0.5712 C   0  0  0  0  0  0  0  0  0  0  0  0
   -3.3627   -2.1356    0.0648 H   0  0  0  0  0  0  0  0  0  0  0  0
   -3.0312   -2.6681   -1.6021 H   0  0  0  0  0  0  0  0  0  0  0  0
   -1.2840   -2.0772   -0.4925 C   0  0  0  0  0  0  0  0  0  0  0  0
   -0.3450   -2.7401   -0.0914 O   0  0  0  0  0  0  0  0  0  0  0  0
   -1.0857   -0.7694   -0.8923 N   0  0  0  0  0  0  0  0  0  0  0  0
   -1.9011   -0.2555   -1.2134 H   0  0  0  0  0  0  0  0  0  0  0  0
    0.2076   -0.0672   -0.8026 C   0  0  1  0  0  0  0  0  0  0  0  0
    0.9295   -0.6683   -1.3674 H   0  0  0  0  0  0  0  0  0  0  0  0
    0.0559    1.3040   -1.4853 C   0  0  0  0  0  0  0  0  0  0  0  0
   -0.6726    1.2421   -2.2978 H   0  0  0  0  0  0  0  0  0  0  0  0
   -0.3079    2.0457   -0.7678 H   0  0  0  0  0  0  0  0  0  0  0  0
    1.3658    1.7873   -2.0929 C   0  0  0  0  0  0  0  0  0  0  0  0
    1.8767    2.8290   -1.7336 O   0  0  0  0  0  0  0  0  0  0  0  0
    2.0010    1.1209   -3.1025 N   0  0  0  0  0  0  0  0  0  0  0  0
    2.9487    1.4375   -3.2902 H   0  0  0  0  0  0  0  0  0  0  0  0
    1.7594    0.1501   -3.2680 H   0  0  0  0  0  0  0  0  0  0  0  0
    0.8075    0.0687    0.6128 C   0  0  0  0  0  0  0  0  0  0  0  0
    2.0180   -0.0158    0.7579 O   0  0  0  0  0  0  0  0  0  0  0  0
    0.0154    0.4502    1.6804 N   0  0  0  0  0  0  0  0  0  0  0  0
   -0.9872    0.4758    1.5313 H   0  0  0  0  0  0  0  0  0  0  0  0
    0.5385    0.6486    3.0264 C   0  0  0  0  0  0  0  0  0  0  0  0
    1.3233    1.4126    3.0236 H   0  0  0  0  0  0  0  0  0  0  0  0
   -0.2595    0.9777    3.6986 H   0  0  0  0  0  0  0  0  0  0  0  0
    0.9578   -0.2854    3.4151 H   0  0  0  0  0  0  0  0  0  0  0  0
  1  2  1  0  0  0  0
  2  3  1  0  0  0  0
  2  4  1  0  0  0  0
  2  5  1  0  0  0  0
  5  6  2  0  0  0  0
  5  7  1  0  0  0  0
  7  8  1  0  0  0  0
  7  9  1  0  0  0  0
  9 10  1  0  0  0  0
  9 11  1  0  0  0  0
  9 19  1  0  0  0  0
 11 12  1  0  0  0  0
 11 13  1  0  0  0  0
 11 14  1  0  0  0  0
 14 15  2  0  0  0  0
 14 16  1  0  0  0  0
 16 17  1  0  0  0  0
 16 18  1  0  0  0  0
 19 20  2  0  0  0  0
 19 21  1  0  0  0  0
 21 22  1  0  0  0  0
 21 23  1  0  0  0  0
 23 24  1  0  0  0  0
 23 25  1  0  0  0  0
 23 26  1  0  0  0  0
M  END
$$$$

  -OEChem-03222214023D

 26 25  0     1  0  0  0  0  0999 V2000
   -2.6113   -3.7192   -0.2016 H   0  0  0  0  0  0  0  0  0  0  0  0
   -2.6484   -2.6812   -0.5446 C   0  0  0  0  0  0  0  0  0  0  0  0
   -3.3257   -2.1213    0.1046 H   0  0  0  0  0  0  0  0  0  0  0  0
   -3.0344   -2.6631   -1.5667 H   0  0  0  0  0  0  0  0  0  0  0  0
   -1.2611   -2.0681   -0.5020 C   0  0  0  0  0  0  0  0  0  0  0  0
   -0.3120   -2.7340   -0.1313 O   0  0  0  0  0  0  0  0  0  0  0  0
   -1.0757   -0.7582   -0.9007 N   0  0  0  0  0  0  0  0  0  0  0  0
   -1.9030   -0.2418   -1.1850 H   0  0  0  0  0  0  0  0  0  0  0  0
    0.2123   -0.0454   -0.8149 C   0  0  1  0  0  0  0  0  0  0  0  0
    0.9423   -0.6327   -1.3852 H   0  0  0  0  0  0  0  0  0  0  0  0
    0.0365    1.3239   -1.4954 C   0  0  0  0  0  0  0  0  0  0  0  0
   -0.6989    1.2565   -2.3012 H   0  0  0  0  0  0  0  0  0  0  0  0
   -0.3274    2.0619   -0.7744 H   0  0  0  0  0  0  0  0  0  0  0  0
    1.3387    1.8171   -2.1087 C   0  0  0  0  0  0  0  0  0  0  0  0
    1.9873    2.7025   -1.5900 O   0  0  0  0  0  0  0  0  0  0  0  0
    1.8450    1.2898   -3.2626 N   0  0  0  0  0  0  0  0  0  0  0  0
    2.8088    1.5442   -3.4621 H   0  0  0  0  0  0  0  0  0  0  0  0
    1.4863    0.3980   -3.5857 H   0  0  0  0  0  0  0  0  0  0  0  0
    0.8083    0.0884    0.6037 C   0  0  0  0  0  0  0  0  0  0  0  0
    2.0137   -0.0309    0.7648 O   0  0  0  0  0  0  0  0  0  0  0  0
    0.0093    0.4597    1.6704 N   0  0  0  0  0  0  0  0  0  0  0  0
   -0.9908    0.5040    1.5113 H   0  0  0  0  0  0  0  0  0  0  0  0
    0.5196    0.6182    3.0265 C   0  0  0  0  0  0  0  0  0  0  0  0
    1.3187    1.3670    3.0502 H   0  0  0  0  0  0  0  0  0  0  0  0
   -0.2801    0.9473    3.6968 H   0  0  0  0  0  0  0  0  0  0  0  0
    0.9163   -0.3324    3.3985 H   0  0  0  0  0  0  0  0  0  0  0  0
  1  2  1  0  0  0  0
  2  3  1  0  0  0  0
  2  4  1  0  0  0  0
  2  5  1  0  0  0  0
  5  6  2  0  0  0  0
  5  7  1  0  0  0  0
  7  8  1  0  0  0  0
  7  9  1  0  0  0  0
  9 10  1  0  0  0  0
  9 11  1  0  0  0  0
  9 19  1  0  0  0  0
 11 12  1  0  0  0  0
 11 13  1  0  0  0  0
 11 14  1  0  0  0  0
 14 15  2  0  0  0  0
 14 16  1  0  0  0  0
 16 17  1  0  0  0  0
 16 18  1  0  0  0  0
 19 20  2  0  0  0  0
 19 21  1  0  0  0  0
 21 22  1  0  0  0  0
 21 23  1  0  0  0  0
 23 24  1  0  0  0  0
 23 25  1  0  0  0  0
 23 26  1  0  0  0  0
M  END
$$$$

  -OEChem-03222214023D

 26 25  0     1  0  0  0  0  0999 V2000
   -2.5860   -3.7115   -0.1842 H   0  0  0  0  0  0  0  0  0  0  0  0
   -2.6297   -2.6744   -0.5293 C   0  0  0  0  0  0  0  0  0  0  0  0
   -3.3025   -2.1153    0.1252 H   0  0  0  0  0  0  0  0  0  0  0  0
   -3.0252   -2.6601   -1.5478 H   0  0  0  0  0  0  0  0  0  0  0  0
   -1.2439   -2.0569   -0.5011 C   0  0  0  0  0  0  0  0  0  0  0  0
   -0.2902   -2.7218   -0.1411 O   0  0  0  0  0  0  0  0  0  0  0  0
   -1.0665   -0.7457   -0.9000 N   0  0  0  0  0  0  0  0  0  0  0  0
   -1.8994   -0.2306   -1.1689 H   0  0  0  0  0  0  0  0  0  0  0  0
    0.2186   -0.0257   -0.8177 C   0  0  1  0  0  0  0  0  0  0  0  0
    0.9534   -0.6032   -1.3924 H   0  0  0  0  0  0  0  0  0  0  0  0
    0.0237    1.3429   -1.4966 C   0  0  0  0  0  0  0  0  0  0  0  0
   -0.7197    1.2690   -2.2944 H   0  0  0  0  0  0  0  0  0  0  0  0
   -0.3397    2.0773   -0.7719 H   0  0  0  0  0  0  0  0  0  0  0  0
    1.3146    1.8533   -2.1194 C   0  0  0  0  0  0  0  0  0  0  0  0
    2.0941    2.5425   -1.4953 O   0  0  0  0  0  0  0  0  0  0  0  0
    1.6954    1.5087   -3.3848 N   0  0  0  0  0  0  0  0  0  0  0  0
    2.6657    1.7128   -3.6097 H   0  0  0  0  0  0  0  0  0  0  0  0
    1.2292    0.7302   -3.8370 H   0  0  0  0  0  0  0  0  0  0  0  0
    0.8108    0.1059    0.6036 C   0  0  0  0  0  0  0  0  0  0  0  0
    2.0095   -0.0504    0.7810 O   0  0  0  0  0  0  0  0  0  0  0  0
    0.0054    0.4704    1.6681 N   0  0  0  0  0  0  0  0  0  0  0  0
   -0.9922    0.5281    1.4994 H   0  0  0  0  0  0  0  0  0  0  0  0
    0.5024    0.5896    3.0330 C   0  0  0  0  0  0  0  0  0  0  0  0
    1.3139    1.3235    3.0822 H   0  0  0  0  0  0  0  0  0  0  0  0
   -0.2993    0.9173    3.7013 H   0  0  0  0  0  0  0  0  0  0  0  0
    0.8784   -0.3757    3.3880 H   0  0  0  0  0  0  0  0  0  0  0  0
  1  2  1  0  0  0  0
  2  3  1  0  0  0  0
  2  4  1  0  0  0  0
  2  5  1  0  0  0  0
  5  6  2  0  0  0  0
  5  7  1  0  0  0  0
  7  8  1  0  0  0  0
  7  9  1  0  0  0  0
  9 10  1  0  0  0  0
  9 11  1  0  0  0  0
  9 19  1  0  0  0  0
 11 12  1  0  0  0  0
 11 13  1  0  0  0  0
 11 14  1  0  0  0  0
 14 15  2  0  0  0  0
 14 16  1  0  0  0  0
 16 17  1  0  0  0  0
 16 18  1  0  0  0  0
 19 20  2  0  0  0  0
 19 21  1  0  0  0  0
 21 22  1  0  0  0  0
 21 23  1  0  0  0  0
 23 24  1  0  0  0  0
 23 25  1  0  0  0  0
 23 26  1  0  0  0  0
M  END
$$$$

  -OEChem-03222214023D

 26 25  0     1  0  0  0  0  0999 V2000
   -2.5713   -3.6985   -0.1717 H   0  0  0  0  0  0  0  0  0  0  0  0
   -2.6116   -2.6619   -0.5191 C   0  0  0  0  0  0  0  0  0  0  0  0
   -3.2855   -2.1000    0.1320 H   0  0  0  0  0  0  0  0  0  0  0  0
   -3.0040   -2.6489   -1.5387 H   0  0  0  0  0  0  0  0  0  0  0  0
   -1.2247   -2.0471   -0.4877 C   0  0  0  0  0  0  0  0  0  0  0  0
   -0.2748   -2.7127   -0.1198 O   0  0  0  0  0  0  0  0  0  0  0  0
   -1.0454   -0.7376   -0.8916 N   0  0  0  0  0  0  0  0  0  0  0  0
   -1.8765   -0.2266   -1.1723 H   0  0  0  0  0  0  0  0  0  0  0  0
    0.2398   -0.0166   -0.8121 C   0  0  1  0  0  0  0  0  0  0  0  0
    0.9796   -0.5869   -1.3877 H   0  0  0  0  0  0  0  0  0  0  0  0
    0.0294    1.3530   -1.4882 C   0  0  0  0  0  0  0  0  0  0  0  0
   -0.7236    1.2737   -2.2765 H   0  0  0  0  0  0  0  0  0  0  0  0
   -0.3322    2.0832   -0.7585 H   0  0  0  0  0  0  0  0  0  0  0  0
    1.3071    1.8828   -2.1239 C   0  0  0  0  0  0  0  0  0  0  0  0
    2.2112    2.3473   -1.4628 O   0  0  0  0  0  0  0  0  0  0  0  0
    1.5450    1.7766   -3.4645 N   0  0  0  0  0  0  0  0  0  0  0  0
    2.5077    1.9456   -3.7445 H   0  0  0  0  0  0  0  0  0  0  0  0
    0.9622    1.1568   -4.0159 H   0  0  0  0  0  0  0  0  0  0  0  0
    0.8195    0.1137    0.6156 C   0  0  0  0  0  0  0  0  0  0  0  0
    2.0092   -0.0767    0.8173 O   0  0  0  0  0  0  0  0  0  0  0  0
    0.0012    0.4789    1.6704 N   0  0  0  0  0  0  0  0  0  0  0  0
   -0.9934    0.5404    1.4865 H   0  0  0  0  0  0  0  0  0  0  0  0
    0.4735    0.5610    3.0470 C   0  0  0  0  0  0  0  0  0  0  0  0
    1.2984    1.2771    3.1269 H   0  0  0  0  0  0  0  0  0  0  0  0
   -0.3349    0.8918    3.7058 H   0  0  0  0  0  0  0  0  0  0  0  0
    0.8236   -0.4185    3.3897 H   0  0  0  0  0  0  0  0  0  0  0  0
  1  2  1  0  0  0  0
  2  3  1  0  0  0  0
  2  4  1  0  0  0  0
  2  5  1  0  0  0  0
  5  6  2  0  0  0  0
  5  7  1  0  0  0  0
  7  8  1  0  0  0  0
  7  9  1  0  0  0  0
  9 10  1  0  0  0  0
  9 11  1  0  0  0  0
  9 19  1  0  0  0  0
 11 12  1  0  0  0  0
 11 13  1  0  0  0  0
 11 14  1  0  0  0  0
 14 15  2  0  0  0  0
 14 16  1  0  0  0  0
 16 17  1  0  0  0  0
 16 18  1  0  0  0  0
 19 20  2  0  0  0  0
 19 21  1  0  0  0  0
 21 22  1  0  0  0  0
 21 23  1  0  0  0  0
 23 24  1  0  0  0  0
 23 25  1  0  0  0  0
 23 26  1  0  0  0  0
M  END
$$$$

  -OEChem-03222214023D

 26 25  0     1  0  0  0  0  0999 V2000
   -2.5709   -3.6854   -0.1560 H   0  0  0  0  0  0  0  0  0  0  0  0
   -2.6027   -2.6515   -0.5118 C   0  0  0  0  0  0  0  0  0  0  0  0
   -3.2806   -2.0812    0.1278 H   0  0  0  0  0  0  0  0  0  0  0  0
   -2.9836   -2.6444   -1.5359 H   0  0  0  0  0  0  0  0  0  0  0  0
   -1.2131   -2.0432   -0.4704 C   0  0  0  0  0  0  0  0  0  0  0  0
   -0.2718   -2.7105   -0.0845 O   0  0  0  0  0  0  0  0  0  0  0  0
   -1.0241   -0.7374   -0.8821 N   0  0  0  0  0  0  0  0  0  0  0  0
   -1.8485   -0.2296   -1.1870 H   0  0  0  0  0  0  0  0  0  0  0  0
    0.2646   -0.0208   -0.8025 C   0  0  1  0  0  0  0  0  0  0  0  0
    1.0083   -0.5900   -1.3743 H   0  0  0  0  0  0  0  0  0  0  0  0
    0.0511    1.3507   -1.4784 C   0  0  0  0  0  0  0  0  0  0  0  0
   -0.7059    1.2656   -2.2620 H   0  0  0  0  0  0  0  0  0  0  0  0
   -0.3111    2.0792   -0.7475 H   0  0  0  0  0  0  0  0  0  0  0  0
    1.3197    1.8944   -2.1239 C   0  0  0  0  0  0  0  0  0  0  0  0
    2.3297    2.1198   -1.4932 O   0  0  0  0  0  0  0  0  0  0  0  0
    1.4185    2.0820   -3.4732 N   0  0  0  0  0  0  0  0  0  0  0  0
    2.3612    2.2405   -3.8197 H   0  0  0  0  0  0  0  0  0  0  0  0
    0.7186    1.6708   -4.0803 H   0  0  0  0  0  0  0  0  0  0  0  0
    0.8290    0.1103    0.6327 C   0  0  0  0  0  0  0  0  0  0  0  0
    2.0100   -0.1042    0.8597 O   0  0  0  0  0  0  0  0  0  0  0  0
   -0.0028    0.4832    1.6748 N   0  0  0  0  0  0  0  0  0  0  0  0
   -0.9946    0.5417    1.4758 H   0  0  0  0  0  0  0  0  0  0  0  0
    0.4448    0.5402    3.0609 C   0  0  0  0  0  0  0  0  0  0  0  0
    1.2839    1.2364    3.1643 H   0  0  0  0  0  0  0  0  0  0  0  0
   -0.3681    0.8825    3.7080 H   0  0  0  0  0  0  0  0  0  0  0  0
    0.7658   -0.4506    3.3991 H   0  0  0  0  0  0  0  0  0  0  0  0
  1  2  1  0  0  0  0
  2  3  1  0  0  0  0
  2  4  1  0  0  0  0
  2  5  1  0  0  0  0
  5  6  2  0  0  0  0
  5  7  1  0  0  0  0
  7  8  1  0  0  0  0
  7  9  1  0  0  0  0
  9 10  1  0  0  0  0
  9 11  1  0  0  0  0
  9 19  1  0  0  0  0
 11 12  1  0  0  0  0
 11 13  1  0  0  0  0
 11 14  1  0  0  0  0
 14 15  2  0  0  0  0
 14 16  1  0  0  0  0
 16 17  1  0  0  0  0
 16 18  1  0  0  0  0
 19 20  2  0  0  0  0
 19 21  1  0  0  0  0
 21 22  1  0  0  0  0
 21 23  1  0  0  0  0
 23 24  1  0  0  0  0
 23 25  1  0  0  0  0
 23 26  1  0  0  0  0
M  END
$$$$

  -OEChem-03222214023D

 26 25  0     1  0  0  0  0  0999 V2000
   -2.5866   -3.6839   -0.1719 H   0  0  0  0  0  0  0  0  0  0  0  0
   -2.6063   -2.6496   -0.5279 C   0  0  0  0  0  0  0  0  0  0  0  0
   -3.3091   -2.0809    0.0857 H   0  0  0  0  0  0  0  0  0  0  0  0
   -2.9480   -2.6426   -1.5657 H   0  0  0  0  0  0  0  0  0  0  0  0
   -1.2201   -2.0394   -0.4328 C   0  0  0  0  0  0  0  0  0  0  0  0
   -0.2993   -2.6997    0.0099 O   0  0  0  0  0  0  0  0  0  0  0  0
   -1.0124   -0.7409   -0.8593 N   0  0  0  0  0  0  0  0  0  0  0  0
   -1.8162   -0.2483   -1.2352 H   0  0  0  0  0  0  0  0  0  0  0  0
    0.2845   -0.0371   -0.7880 C   0  0  1  0  0  0  0  0  0  0  0  0
    1.0255   -0.6147   -1.3550 H   0  0  0  0  0  0  0  0  0  0  0  0
    0.0797    1.3357   -1.4678 C   0  0  0  0  0  0  0  0  0  0  0  0
   -0.6808    1.2473   -2.2475 H   0  0  0  0  0  0  0  0  0  0  0  0
   -0.2773    2.0683   -0.7389 H   0  0  0  0  0  0  0  0  0  0  0  0
    1.3433    1.8779   -2.1279 C   0  0  0  0  0  0  0  0  0  0  0  0
    2.4318    1.8612   -1.5962 O   0  0  0  0  0  0  0  0  0  0  0  0
    1.3254    2.3921   -3.3934 N   0  0  0  0  0  0  0  0  0  0  0  0
    2.2371    2.5642   -3.8094 H   0  0  0  0  0  0  0  0  0  0  0  0
    0.5161    2.2369   -3.9835 H   0  0  0  0  0  0  0  0  0  0  0  0
    0.8407    0.0997    0.6509 C   0  0  0  0  0  0  0  0  0  0  0  0
    2.0182   -0.1172    0.8935 O   0  0  0  0  0  0  0  0  0  0  0  0
    0.0026    0.4911    1.6813 N   0  0  0  0  0  0  0  0  0  0  0  0
   -0.9888    0.5286    1.4751 H   0  0  0  0  0  0  0  0  0  0  0  0
    0.4346    0.5382    3.0727 C   0  0  0  0  0  0  0  0  0  0  0  0
    1.2838    1.2202    3.1869 H   0  0  0  0  0  0  0  0  0  0  0  0
   -0.3798    0.8927    3.7114 H   0  0  0  0  0  0  0  0  0  0  0  0
    0.7355   -0.4584    3.4130 H   0  0  0  0  0  0  0  0  0  0  0  0
  1  2  1  0  0  0  0
  2  3  1  0  0  0  0
  2  4  1  0  0  0  0
  2  5  1  0  0  0  0
  5  6  2  0  0  0  0
  5  7  1  0  0  0  0
  7  8  1  0  0  0  0
  7  9  1  0  0  0  0
  9 10  1  0  0  0  0
  9 11  1  0  0  0  0
  9 19  1  0  0  0  0
 11 12  1  0  0  0  0
 11 13  1  0  0  0  0
 11 14  1  0  0  0  0
 14 15  2  0  0  0  0
 14 16  1  0  0  0  0
 16 17  1  0  0  0  0
 16 18  1  0  0  0  0
 19 20  2  0  0  0  0
 19 21  1  0  0  0  0
 21 22  1  0  0  0  0
 21 23  1  0  0  0  0
 23 24  1  0  0  0  0
 23 25  1  0  0  0  0
 23 26  1  0  0  0  0
M  END
$$$$

  -OEChem-03222214023D

 26 25  0     1  0  0  0  0  0999 V2000
   -2.6079   -3.6872   -0.1910 H   0  0  0  0  0  0  0  0  0  0  0  0
   -2.6167   -2.6536   -0.5490 C   0  0  0  0  0  0  0  0  0  0  0  0
   -3.3420   -2.0849    0.0378 H   0  0  0  0  0  0  0  0  0  0  0  0
   -2.9210   -2.6490   -1.5985 H   0  0  0  0  0  0  0  0  0  0  0  0
   -1.2361   -2.0408   -0.4042 C   0  0  0  0  0  0  0  0  0  0  0  0
   -0.3376   -2.6899    0.0973 O   0  0  0  0  0  0  0  0  0  0  0  0
   -1.0120   -0.7493   -0.8435 N   0  0  0  0  0  0  0  0  0  0  0  0
   -1.7905   -0.2798   -1.2947 H   0  0  0  0  0  0  0  0  0  0  0  0
    0.2931   -0.0591   -0.7802 C   0  0  1  0  0  0  0  0  0  0  0  0
    1.0279   -0.6466   -1.3452 H   0  0  0  0  0  0  0  0  0  0  0  0
    0.1018    1.3181   -1.4573 C   0  0  0  0  0  0  0  0  0  0  0  0
   -0.6619    1.2356   -2.2346 H   0  0  0  0  0  0  0  0  0  0  0  0
   -0.2462    2.0523   -0.7258 H   0  0  0  0  0  0  0  0  0  0  0  0
    1.3624    1.8555   -2.1286 C   0  0  0  0  0  0  0  0  0  0  0  0
    2.4869    1.6093   -1.7504 O   0  0  0  0  0  0  0  0  0  0  0  0
    1.2886    2.6685   -3.2237 N   0  0  0  0  0  0  0  0  0  0  0  0
    2.1697    2.8670   -3.6904 H   0  0  0  0  0  0  0  0  0  0  0  0
    0.4089    2.7753   -3.7156 H   0  0  0  0  0  0  0  0  0  0  0  0
    0.8479    0.0836    0.6595 C   0  0  0  0  0  0  0  0  0  0  0  0
    2.0292   -0.1073    0.9045 O   0  0  0  0  0  0  0  0  0  0  0  0
    0.0091    0.4932    1.6824 N   0  0  0  0  0  0  0  0  0  0  0  0
   -0.9836    0.4977    1.4787 H   0  0  0  0  0  0  0  0  0  0  0  0
    0.4399    0.5540    3.0739 C   0  0  0  0  0  0  0  0  0  0  0  0
    1.2913    1.2344    3.1824 H   0  0  0  0  0  0  0  0  0  0  0  0
   -0.3742    0.9181    3.7076 H   0  0  0  0  0  0  0  0  0  0  0  0
    0.7372   -0.4400    3.4248 H   0  0  0  0  0  0  0  0  0  0  0  0
  1  2  1  0  0  0  0
  2  3  1  0  0  0  0
  2  4  1  0  0  0  0
  2  5  1  0  0  0  0
  5  6  2  0  0  0  0
  5  7  1  0  0  0  0
  7  8  1  0  0  0  0
  7  9  1  0  0  0  0
  9 10  1  0  0  0  0
  9 11  1  0  0  0  0
  9 19  1  0  0  0  0
 11 12  1  0  0  0  0
 11 13  1  0  0  0  0
 11 14  1  0  0  0  0
 14 15  2  0  0  0  0
 14 16  1  0  0  0  0
 16 17  1  0  0  0  0
 16 18  1  0  0  0  0
 19 20  2  0  0  0  0
 19 21  1  0  0  0  0
 21 22  1  0  0  0  0
 21 23  1  0  0  0  0
 23 24  1  0  0  0  0
 23 25  1  0  0  0  0
 23 26  1  0  0  0  0
M  END
$$$$

  -OEChem-03222214023D

 26 25  0     1  0  0  0  0  0999 V2000
   -2.6391   -3.7201   -0.1867 H   0  0  0  0  0  0  0  0  0  0  0  0
   -2.6411   -2.6963   -0.5723 C   0  0  0  0  0  0  0  0  0  0  0  0
   -3.4139   -2.1263   -0.0509 H   0  0  0  0  0  0  0  0  0  0  0  0
   -2.8737   -2.7252   -1.6395 H   0  0  0  0  0  0  0  0  0  0  0  0
   -1.2838   -2.0542   -0.3526 C   0  0  0  0  0  0  0  0  0  0  0  0
   -0.4176   -2.6666    0.2431 O   0  0  0  0  0  0  0  0  0  0  0  0
   -1.0470   -0.7767   -0.8258 N   0  0  0  0  0  0  0  0  0  0  0  0
   -1.7819   -0.3644   -1.3918 H   0  0  0  0  0  0  0  0  0  0  0  0
    0.2709   -0.1085   -0.7928 C   0  0  1  0  0  0  0  0  0  0  0  0
    0.9858   -0.7208   -1.3570 H   0  0  0  0  0  0  0  0  0  0  0  0
    0.1027    1.2686   -1.4777 C   0  0  0  0  0  0  0  0  0  0  0  0
   -0.6712    1.1981   -2.2458 H   0  0  0  0  0  0  0  0  0  0  0  0
   -0.2211    2.0136   -0.7461 H   0  0  0  0  0  0  0  0  0  0  0  0
    1.3621    1.7767   -2.1752 C   0  0  0  0  0  0  0  0  0  0  0  0
    2.4720    1.3217   -1.9989 O   0  0  0  0  0  0  0  0  0  0  0  0
    1.3068    2.8365   -3.0345 N   0  0  0  0  0  0  0  0  0  0  0  0
    2.2080    3.2282   -3.2955 H   0  0  0  0  0  0  0  0  0  0  0  0
    0.4797    3.4225   -3.0397 H   0  0  0  0  0  0  0  0  0  0  0  0
    0.8470    0.0583    0.6358 C   0  0  0  0  0  0  0  0  0  0  0  0
    2.0415   -0.0706    0.8563 O   0  0  0  0  0  0  0  0  0  0  0  0
    0.0241    0.5062    1.6553 N   0  0  0  0  0  0  0  0  0  0  0  0
   -0.9730    0.4578    1.4774 H   0  0  0  0  0  0  0  0  0  0  0  0
    0.4821    0.6341    3.0333 C   0  0  0  0  0  0  0  0  0  0  0  0
    1.3314    1.3230    3.0926 H   0  0  0  0  0  0  0  0  0  0  0  0
   -0.3212    1.0240    3.6654 H   0  0  0  0  0  0  0  0  0  0  0  0
    0.7921   -0.3408    3.4243 H   0  0  0  0  0  0  0  0  0  0  0  0
  1  2  1  0  0  0  0
  2  3  1  0  0  0  0
  2  4  1  0  0  0  0
  2  5  1  0  0  0  0
  5  6  2  0  0  0  0
  5  7  1  0  0  0  0
  7  8  1  0  0  0  0
  7  9  1  0  0  0  0
  9 10  1  0  0  0  0
  9 11  1  0  0  0  0
  9 19  1  0  0  0  0
 11 12  1  0  0  0  0
 11 13  1  0  0  0  0
 11 14  1  0  0  0  0
 14 15  2  0  0  0  0
 14 16  1  0  0  0  0
 16 17  1  0  0  0  0
 16 18  1  0  0  0  0
 19 20  2  0  0  0  0
 19 21  1  0  0  0  0
 21 22  1  0  0  0  0
 21 23  1  0  0  0  0
 23 24  1  0  0  0  0
 23 25  1  0  0  0  0
 23 26  1  0  0  0  0
M  END
$$$$

  -OEChem-03222214023D

 26 25  0     1  0  0  0  0  0999 V2000
   -2.6394   -3.7331   -0.2130 H   0  0  0  0  0  0  0  0  0  0  0  0
   -2.6439   -2.7105   -0.6015 C   0  0  0  0  0  0  0  0  0  0  0  0
   -3.4341   -2.1474   -0.0995 H   0  0  0  0  0  0  0  0  0  0  0  0
   -2.8526   -2.7446   -1.6736 H   0  0  0  0  0  0  0  0  0  0  0  0
   -1.2985   -2.0532   -0.3540 C   0  0  0  0  0  0  0  0  0  0  0  0
   -0.4378   -2.6551    0.2606 O   0  0  0  0  0  0  0  0  0  0  0  0
   -1.0671   -0.7724   -0.8202 N   0  0  0  0  0  0  0  0  0  0  0  0
   -1.7932   -0.3724   -1.4064 H   0  0  0  0  0  0  0  0  0  0  0  0
    0.2503   -0.1038   -0.7893 C   0  0  1  0  0  0  0  0  0  0  0  0
    0.9576   -0.7191   -1.3598 H   0  0  0  0  0  0  0  0  0  0  0  0
    0.0909    1.2798   -1.4620 C   0  0  0  0  0  0  0  0  0  0  0  0
   -0.6838    1.2231   -2.2304 H   0  0  0  0  0  0  0  0  0  0  0  0
   -0.2273    2.0191   -0.7220 H   0  0  0  0  0  0  0  0  0  0  0  0
    1.3538    1.7849   -2.1571 C   0  0  0  0  0  0  0  0  0  0  0  0
    2.4027    1.1760   -2.1965 O   0  0  0  0  0  0  0  0  0  0  0  0
    1.3704    2.9986   -2.7823 N   0  0  0  0  0  0  0  0  0  0  0  0
    2.2935    3.3335   -3.0456 H   0  0  0  0  0  0  0  0  0  0  0  0
    0.6309    3.6621   -2.5815 H   0  0  0  0  0  0  0  0  0  0  0  0
    0.8397    0.0570    0.6339 C   0  0  0  0  0  0  0  0  0  0  0  0
    2.0446   -0.0050    0.8264 O   0  0  0  0  0  0  0  0  0  0  0  0
    0.0247    0.4984    1.6625 N   0  0  0  0  0  0  0  0  0  0  0  0
   -0.9731    0.4025    1.5080 H   0  0  0  0  0  0  0  0  0  0  0  0
    0.5052    0.6561    3.0300 C   0  0  0  0  0  0  0  0  0  0  0  0
    1.3337    1.3714    3.0662 H   0  0  0  0  0  0  0  0  0  0  0  0
   -0.2976    1.0284    3.6735 H   0  0  0  0  0  0  0  0  0  0  0  0
    0.8530   -0.3041    3.4254 H   0  0  0  0  0  0  0  0  0  0  0  0
  1  2  1  0  0  0  0
  2  3  1  0  0  0  0
  2  4  1  0  0  0  0
  2  5  1  0  0  0  0
  5  6  2  0  0  0  0
  5  7  1  0  0  0  0
  7  8  1  0  0  0  0
  7  9  1  0  0  0  0
  9 10  1  0  0  0  0
  9 11  1  0  0  0  0
  9 19  1  0  0  0  0
 11 12  1  0  0  0  0
 11 13  1  0  0  0  0
 11 14  1  0  0  0  0
 14 15  2  0  0  0  0
 14 16  1  0  0  0  0
 16 17  1  0  0  0  0
 16 18  1  0  0  0  0
 19 20  2  0  0  0  0
 19 21  1  0  0  0  0
 21 22  1  0  0  0  0
 21 23  1  0  0  0  0
 23 24  1  0  0  0  0
 23 25  1  0  0  0  0
 23 26  1  0  0  0  0
M  END
$$$$

  -OEChem-03222214023D

 26 25  0     1  0  0  0  0  0999 V2000
   -2.6247   -3.7604   -0.2673 H   0  0  0  0  0  0  0  0  0  0  0  0
   -2.6436   -2.7301   -0.6340 C   0  0  0  0  0  0  0  0  0  0  0  0
   -3.4528   -2.1931   -0.1334 H   0  0  0  0  0  0  0  0  0  0  0  0
   -2.8347   -2.7455   -1.7098 H   0  0  0  0  0  0  0  0  0  0  0  0
   -1.3160   -2.0520   -0.3511 C   0  0  0  0  0  0  0  0  0  0  0  0
   -0.4650   -2.6369    0.2931 O   0  0  0  0  0  0  0  0  0  0  0  0
   -1.0914   -0.7689   -0.8141 N   0  0  0  0  0  0  0  0  0  0  0  0
   -1.8035   -0.3899   -1.4308 H   0  0  0  0  0  0  0  0  0  0  0  0
    0.2256   -0.1002   -0.7866 C   0  0  1  0  0  0  0  0  0  0  0  0
    0.9250   -0.7190   -1.3624 H   0  0  0  0  0  0  0  0  0  0  0  0
    0.0722    1.2882   -1.4494 C   0  0  0  0  0  0  0  0  0  0  0  0
   -0.7040    1.2437   -2.2172 H   0  0  0  0  0  0  0  0  0  0  0  0
   -0.2411    2.0229   -0.7028 H   0  0  0  0  0  0  0  0  0  0  0  0
    1.3395    1.7855   -2.1422 C   0  0  0  0  0  0  0  0  0  0  0  0
    2.2872    1.0757   -2.4122 O   0  0  0  0  0  0  0  0  0  0  0  0
    1.4811    3.0980   -2.4903 N   0  0  0  0  0  0  0  0  0  0  0  0
    2.4253    3.3697   -2.7511 H   0  0  0  0  0  0  0  0  0  0  0  0
    0.8619    3.7802   -2.0672 H   0  0  0  0  0  0  0  0  0  0  0  0
    0.8322    0.0603    0.6283 C   0  0  0  0  0  0  0  0  0  0  0  0
    2.0436    0.0548    0.7891 O   0  0  0  0  0  0  0  0  0  0  0  0
    0.0286    0.4996    1.6665 N   0  0  0  0  0  0  0  0  0  0  0  0
   -0.9688    0.3676    1.5362 H   0  0  0  0  0  0  0  0  0  0  0  0
    0.5320    0.6888    3.0217 C   0  0  0  0  0  0  0  0  0  0  0  0
    1.3421    1.4256    3.0313 H   0  0  0  0  0  0  0  0  0  0  0  0
   -0.2674    1.0494    3.6758 H   0  0  0  0  0  0  0  0  0  0  0  0
    0.9114   -0.2567    3.4235 H   0  0  0  0  0  0  0  0  0  0  0  0
  1  2  1  0  0  0  0
  2  3  1  0  0  0  0
  2  4  1  0  0  0  0
  2  5  1  0  0  0  0
  5  6  2  0  0  0  0
  5  7  1  0  0  0  0
  7  8  1  0  0  0  0
  7  9  1  0  0  0  0
  9 10  1  0  0  0  0
  9 11  1  0  0  0  0
  9 19  1  0  0  0  0
 11 12  1  0  0  0  0
 11 13  1  0  0  0  0
 11 14  1  0  0  0  0
 14 15  2  0  0  0  0
 14 16  1  0  0  0  0
 16 17  1  0  0  0  0
 16 18  1  0  0  0  0
 19 20  2  0  0  0  0
 19 21  1  0  0  0  0
 21 22  1  0  0  0  0
 21 23  1  0  0  0  0
 23 24  1  0  0  0  0
 23 25  1  0  0  0  0
 23 26  1  0  0  0  0
M  END
$$$$

  -OEChem-03222214023D

 26 25  0     1  0  0  0  0  0999 V2000
   -2.6036   -3.7769   -0.2800 H   0  0  0  0  0  0  0  0  0  0  0  0
   -2.6349   -2.7461   -0.6450 C   0  0  0  0  0  0  0  0  0  0  0  0
   -3.4506   -2.2196   -0.1438 H   0  0  0  0  0  0  0  0  0  0  0  0
   -2.8258   -2.7621   -1.7208 H   0  0  0  0  0  0  0  0  0  0  0  0
   -1.3160   -2.0517   -0.3604 C   0  0  0  0  0  0  0  0  0  0  0  0
   -0.4585   -2.6256    0.2857 O   0  0  0  0  0  0  0  0  0  0  0  0
   -1.1081   -0.7634   -0.8164 N   0  0  0  0  0  0  0  0  0  0  0  0
   -1.8215   -0.3932   -1.4372 H   0  0  0  0  0  0  0  0  0  0  0  0
    0.2024   -0.0830   -0.7903 C   0  0  1  0  0  0  0  0  0  0  0  0
    0.9020   -0.6980   -1.3703 H   0  0  0  0  0  0  0  0  0  0  0  0
    0.0481    1.3070   -1.4467 C   0  0  0  0  0  0  0  0  0  0  0  0
   -0.7237    1.2676   -2.2191 H   0  0  0  0  0  0  0  0  0  0  0  0
   -0.2681    2.0398   -0.6994 H   0  0  0  0  0  0  0  0  0  0  0  0
    1.3242    1.7929   -2.1299 C   0  0  0  0  0  0  0  0  0  0  0  0
    2.1416    1.0422   -2.6248 O   0  0  0  0  0  0  0  0  0  0  0  0
    1.6366    3.1204   -2.1904 N   0  0  0  0  0  0  0  0  0  0  0  0
    2.5978    3.3151   -2.4578 H   0  0  0  0  0  0  0  0  0  0  0  0
    1.1596    3.7524   -1.5574 H   0  0  0  0  0  0  0  0  0  0  0  0
    0.8204    0.0771    0.6186 C   0  0  0  0  0  0  0  0  0  0  0  0
    2.0345    0.1224    0.7539 O   0  0  0  0  0  0  0  0  0  0  0  0
    0.0230    0.5034    1.6666 N   0  0  0  0  0  0  0  0  0  0  0  0
   -0.9722    0.3409    1.5532 H   0  0  0  0  0  0  0  0  0  0  0  0
    0.5423    0.7046    3.0141 C   0  0  0  0  0  0  0  0  0  0  0  0
    1.3389    1.4561    3.0111 H   0  0  0  0  0  0  0  0  0  0  0  0
   -0.2543    1.0521    3.6786 H   0  0  0  0  0  0  0  0  0  0  0  0
    0.9441   -0.2331    3.4126 H   0  0  0  0  0  0  0  0  0  0  0  0
  1  2  1  0  0  0  0
  2  3  1  0  0  0  0
  2  4  1  0  0  0  0
  2  5  1  0  0  0  0
  5  6  2  0  0  0  0
  5  7  1  0  0  0  0
  7  8  1  0  0  0  0
  7  9  1  0  0  0  0
  9 10  1  0  0  0  0
  9 11  1  0  0  0  0
  9 19  1  0  0  0  0
 11 12  1  0  0  0  0
 11 13  1  0  0  0  0
 11 14  1  0  0  0  0
 14 15  2  0  0  0  0
 14 16  1  0  0  0  0
 16 17  1  0  0  0  0
 16 18  1  0  0  0  0
 19 20  2  0  0  0  0
 19 21  1  0  0  0  0
 21 22  1  0  0  0  0
 21 23  1  0  0  0  0
 23 24  1  0  0  0  0
 23 25  1  0  0  0  0
 23 26  1  0  0  0  0
M  END
$$$$

  -OEChem-03222214023D

 26 25  0     1  0  0  0  0  0999 V2000
   -2.5926   -3.7762   -0.2525 H   0  0  0  0  0  0  0  0  0  0  0  0
   -2.6191   -2.7630   -0.6640 C   0  0  0  0  0  0  0  0  0  0  0  0
   -3.4538   -2.2220   -0.2119 H   0  0  0  0  0  0  0  0  0  0  0  0
   -2.7760   -2.8273   -1.7434 H   0  0  0  0  0  0  0  0  0  0  0  0
   -1.3142   -2.0466   -0.3704 C   0  0  0  0  0  0  0  0  0  0  0  0
   -0.4495   -2.6058    0.2793 O   0  0  0  0  0  0  0  0  0  0  0  0
   -1.1275   -0.7524   -0.8184 N   0  0  0  0  0  0  0  0  0  0  0  0
   -1.8424   -0.3953   -1.4452 H   0  0  0  0  0  0  0  0  0  0  0  0
    0.1750   -0.0579   -0.7980 C   0  0  1  0  0  0  0  0  0  0  0  0
    0.8750   -0.6612   -1.3897 H   0  0  0  0  0  0  0  0  0  0  0  0
    0.0089    1.3344   -1.4418 C   0  0  0  0  0  0  0  0  0  0  0  0
   -0.7626    1.2988   -2.2149 H   0  0  0  0  0  0  0  0  0  0  0  0
   -0.3078    2.0644   -0.6920 H   0  0  0  0  0  0  0  0  0  0  0  0
    1.2908    1.8076   -2.1191 C   0  0  0  0  0  0  0  0  0  0  0  0
    1.9531    1.0804   -2.8338 O   0  0  0  0  0  0  0  0  0  0  0  0
    1.8245    3.0381   -1.8677 N   0  0  0  0  0  0  0  0  0  0  0  0
    2.7970    3.1330   -2.1477 H   0  0  0  0  0  0  0  0  0  0  0  0
    1.5041    3.5266   -1.0388 H   0  0  0  0  0  0  0  0  0  0  0  0
    0.8101    0.1020    0.6022 C   0  0  0  0  0  0  0  0  0  0  0  0
    2.0248    0.1930    0.7101 O   0  0  0  0  0  0  0  0  0  0  0  0
    0.0216    0.5127    1.6626 N   0  0  0  0  0  0  0  0  0  0  0  0
   -0.9699    0.3162    1.5699 H   0  0  0  0  0  0  0  0  0  0  0  0
    0.5602    0.7346    2.9992 C   0  0  0  0  0  0  0  0  0  0  0  0
    1.3197    1.5233    2.9821 H   0  0  0  0  0  0  0  0  0  0  0  0
   -0.2376    1.0414    3.6821 H   0  0  0  0  0  0  0  0  0  0  0  0
    1.0151   -0.1839    3.3849 H   0  0  0  0  0  0  0  0  0  0  0  0
  1  2  1  0  0  0  0
  2  3  1  0  0  0  0
  2  4  1  0  0  0  0
  2  5  1  0  0  0  0
  5  6  2  0  0  0  0
  5  7  1  0  0  0  0
  7  8  1  0  0  0  0
  7  9  1  0  0  0  0
  9 10  1  0  0  0  0
  9 11  1  0  0  0  0
  9 19  1  0  0  0  0
 11 12  1  0  0  0  0
 11 13  1  0  0  0  0
 11 14  1  0  0  0  0
 14 15  2  0  0  0  0
 14 16  1  0  0  0  0
 16 17  1  0  0  0  0
 16 18  1  0  0  0  0
 19 20  2  0  0  0  0
 19 21  1  0  0  0  0
 21 22  1  0  0  0  0
 21 23  1  0  0  0  0
 23 24  1  0  0  0  0
 23 25  1  0  0  0  0
 23 26  1  0  0  0  0
M  END
$$$$

  -OEChem-03222214023D

 26 25  0     1  0  0  0  0  0999 V2000
   -2.5467   -3.7911   -0.2825 H   0  0  0  0  0  0  0  0  0  0  0  0
   -2.5930   -2.7735   -0.6809 C   0  0  0  0  0  0  0  0  0  0  0  0
   -3.4345   -2.2524   -0.2181 H   0  0  0  0  0  0  0  0  0  0  0  0
   -2.7548   -2.8275   -1.7602 H   0  0  0  0  0  0  0  0  0  0  0  0
   -1.2993   -2.0375   -0.3857 C   0  0  0  0  0  0  0  0  0  0  0  0
   -0.4219   -2.5864    0.2560 O   0  0  0  0  0  0  0  0  0  0  0  0
   -1.1355   -0.7368   -0.8233 N   0  0  0  0  0  0  0  0  0  0  0  0
   -1.8565   -0.3877   -1.4481 H   0  0  0  0  0  0  0  0  0  0  0  0
    0.1558   -0.0232   -0.8034 C   0  0  1  0  0  0  0  0  0  0  0  0
    0.8605   -0.6097   -1.4068 H   0  0  0  0  0  0  0  0  0  0  0  0
   -0.0269    1.3703   -1.4340 C   0  0  0  0  0  0  0  0  0  0  0  0
   -0.7962    1.3346   -2.2095 H   0  0  0  0  0  0  0  0  0  0  0  0
   -0.3474    2.0978   -0.6833 H   0  0  0  0  0  0  0  0  0  0  0  0
    1.2595    1.8375   -2.1016 C   0  0  0  0  0  0  0  0  0  0  0  0
    1.7646    1.2079   -3.0112 O   0  0  0  0  0  0  0  0  0  0  0  0
    2.0162    2.8445   -1.5778 N   0  0  0  0  0  0  0  0  0  0  0  0
    2.9776    2.8445   -1.9072 H   0  0  0  0  0  0  0  0  0  0  0  0
    1.8436    3.0819   -0.6061 H   0  0  0  0  0  0  0  0  0  0  0  0
    0.8009    0.1370    0.5919 C   0  0  0  0  0  0  0  0  0  0  0  0
    2.0134    0.2732    0.6811 O   0  0  0  0  0  0  0  0  0  0  0  0
    0.0166    0.5280    1.6623 N   0  0  0  0  0  0  0  0  0  0  0  0
   -0.9716    0.3102    1.5812 H   0  0  0  0  0  0  0  0  0  0  0  0
    0.5653    0.7646    2.9924 C   0  0  0  0  0  0  0  0  0  0  0  0
    1.3012    1.5752    2.9669 H   0  0  0  0  0  0  0  0  0  0  0  0
   -0.2324    1.0472    3.6859 H   0  0  0  0  0  0  0  0  0  0  0  0
    1.0517   -0.1405    3.3716 H   0  0  0  0  0  0  0  0  0  0  0  0
  1  2  1  0  0  0  0
  2  3  1  0  0  0  0
  2  4  1  0  0  0  0
  2  5  1  0  0  0  0
  5  6  2  0  0  0  0
  5  7  1  0  0  0  0
  7  8  1  0  0  0  0
  7  9  1  0  0  0  0
  9 10  1  0  0  0  0
  9 11  1  0  0  0  0
  9 19  1  0  0  0  0
 11 12  1  0  0  0  0
 11 13  1  0  0  0  0
 11 14  1  0  0  0  0
 14 15  2  0  0  0  0
 14 16  1  0  0  0  0
 16 17  1  0  0  0  0
 16 18  1  0  0  0  0
 19 20  2  0  0  0  0
 19 21  1  0  0  0  0
 21 22  1  0  0  0  0
 21 23  1  0  0  0  0
 23 24  1  0  0  0  0
 23 25  1  0  0  0  0
 23 26  1  0  0  0  0
M  END
$$$$

  -OEChem-03222214023D

 26 25  0     1  0  0  0  0  0999 V2000
   -2.5020   -3.8003   -0.3255 H   0  0  0  0  0  0  0  0  0  0  0  0
   -2.5707   -2.7705   -0.6881 C   0  0  0  0  0  0  0  0  0  0  0  0
   -3.4059   -2.2758   -0.1865 H   0  0  0  0  0  0  0  0  0  0  0  0
   -2.7601   -2.7906   -1.7641 H   0  0  0  0  0  0  0  0  0  0  0  0
   -1.2780   -2.0289   -0.4013 C   0  0  0  0  0  0  0  0  0  0  0  0
   -0.3858   -2.5807    0.2172 O   0  0  0  0  0  0  0  0  0  0  0  0
   -1.1264   -0.7222   -0.8254 N   0  0  0  0  0  0  0  0  0  0  0  0
   -1.8600   -0.3629   -1.4298 H   0  0  0  0  0  0  0  0  0  0  0  0
    0.1578    0.0036   -0.7977 C   0  0  1  0  0  0  0  0  0  0  0  0
    0.8693   -0.5685   -1.4075 H   0  0  0  0  0  0  0  0  0  0  0  0
   -0.0304    1.4000   -1.4163 C   0  0  0  0  0  0  0  0  0  0  0  0
   -0.7978    1.3679   -2.1944 H   0  0  0  0  0  0  0  0  0  0  0  0
   -0.3523    2.1240   -0.6626 H   0  0  0  0  0  0  0  0  0  0  0  0
    1.2612    1.8674   -2.0716 C   0  0  0  0  0  0  0  0  0  0  0  0
    1.6217    1.4065   -3.1375 O   0  0  0  0  0  0  0  0  0  0  0  0
    2.1866    2.6051   -1.3940 N   0  0  0  0  0  0  0  0  0  0  0  0
    3.1093    2.5767   -1.8178 H   0  0  0  0  0  0  0  0  0  0  0  0
    2.1356    2.5456   -0.3793 H   0  0  0  0  0  0  0  0  0  0  0  0
    0.7969    0.1537    0.6019 C   0  0  0  0  0  0  0  0  0  0  0  0
    2.0062    0.3196    0.6928 O   0  0  0  0  0  0  0  0  0  0  0  0
    0.0050    0.5248    1.6734 N   0  0  0  0  0  0  0  0  0  0  0  0
   -0.9821    0.3034    1.5869 H   0  0  0  0  0  0  0  0  0  0  0  0
    0.5450    0.7719    3.0052 C   0  0  0  0  0  0  0  0  0  0  0  0
    1.2824    1.5810    2.9783 H   0  0  0  0  0  0  0  0  0  0  0  0
   -0.2571    1.0623    3.6901 H   0  0  0  0  0  0  0  0  0  0  0  0
    1.0267   -0.1308    3.3956 H   0  0  0  0  0  0  0  0  0  0  0  0
  1  2  1  0  0  0  0
  2  3  1  0  0  0  0
  2  4  1  0  0  0  0
  2  5  1  0  0  0  0
  5  6  2  0  0  0  0
  5  7  1  0  0  0  0
  7  8  1  0  0  0  0
  7  9  1  0  0  0  0
  9 10  1  0  0  0  0
  9 11  1  0  0  0  0
  9 19  1  0  0  0  0
 11 12  1  0  0  0  0
 11 13  1  0  0  0  0
 11 14  1  0  0  0  0
 14 15  2  0  0  0  0
 14 16  1  0  0  0  0
 16 17  1  0  0  0  0
 16 18  1  0  0  0  0
 19 20  2  0  0  0  0
 19 21  1  0  0  0  0
 21 22  1  0  0  0  0
 21 23  1  0  0  0  0
 23 24  1  0  0  0  0
 23 25  1  0  0  0  0
 23 26  1  0  0  0  0
M  END
$$$$

  -OEChem-03222214023D

 26 25  0     1  0  0  0  0  0999 V2000
   -2.5233   -3.7780   -0.3164 H   0  0  0  0  0  0  0  0  0  0  0  0
   -2.5742   -2.7523   -0.6931 C   0  0  0  0  0  0  0  0  0  0  0  0
   -3.4089   -2.2406   -0.2082 H   0  0  0  0  0  0  0  0  0  0  0  0
   -2.7504   -2.7837   -1.7711 H   0  0  0  0  0  0  0  0  0  0  0  0
   -1.2757   -2.0237   -0.4006 C   0  0  0  0  0  0  0  0  0  0  0  0
   -0.3878   -2.5870    0.2140 O   0  0  0  0  0  0  0  0  0  0  0  0
   -1.1114   -0.7169   -0.8196 N   0  0  0  0  0  0  0  0  0  0  0  0
   -1.8415   -0.3471   -1.4221 H   0  0  0  0  0  0  0  0  0  0  0  0
    0.1767    0.0007   -0.7806 C   0  0  1  0  0  0  0  0  0  0  0  0
    0.8894   -0.5725   -1.3873 H   0  0  0  0  0  0  0  0  0  0  0  0
   -0.0011    1.3975   -1.4009 C   0  0  0  0  0  0  0  0  0  0  0  0
   -0.7670    1.3697   -2.1807 H   0  0  0  0  0  0  0  0  0  0  0  0
   -0.3215    2.1229   -0.6479 H   0  0  0  0  0  0  0  0  0  0  0  0
    1.2950    1.8647   -2.0485 C   0  0  0  0  0  0  0  0  0  0  0  0
    1.5300    1.6192   -3.2159 O   0  0  0  0  0  0  0  0  0  0  0  0
    2.3234    2.3906   -1.3232 N   0  0  0  0  0  0  0  0  0  0  0  0
    3.2088    2.3983   -1.8205 H   0  0  0  0  0  0  0  0  0  0  0  0
    2.3405    2.1319   -0.3360 H   0  0  0  0  0  0  0  0  0  0  0  0
    0.8008    0.1392    0.6275 C   0  0  0  0  0  0  0  0  0  0  0  0
    2.0115    0.2897    0.7321 O   0  0  0  0  0  0  0  0  0  0  0  0
    0.0013    0.5100    1.6933 N   0  0  0  0  0  0  0  0  0  0  0  0
   -0.9885    0.3065    1.5940 H   0  0  0  0  0  0  0  0  0  0  0  0
    0.5289    0.7505    3.0312 C   0  0  0  0  0  0  0  0  0  0  0  0
    1.2491    1.5754    3.0184 H   0  0  0  0  0  0  0  0  0  0  0  0
   -0.2829    1.0144    3.7156 H   0  0  0  0  0  0  0  0  0  0  0  0
    1.0274   -0.1469    3.4126 H   0  0  0  0  0  0  0  0  0  0  0  0
  1  2  1  0  0  0  0
  2  3  1  0  0  0  0
  2  4  1  0  0  0  0
  2  5  1  0  0  0  0
  5  6  2  0  0  0  0
  5  7  1  0  0  0  0
  7  8  1  0  0  0  0
  7  9  1  0  0  0  0
  9 10  1  0  0  0  0
  9 11  1  0  0  0  0
  9 19  1  0  0  0  0
 11 12  1  0  0  0  0
 11 13  1  0  0  0  0
 11 14  1  0  0  0  0
 14 15  2  0  0  0  0
 14 16  1  0  0  0  0
 16 17  1  0  0  0  0
 16 18  1  0  0  0  0
 19 20  2  0  0  0  0
 19 21  1  0  0  0  0
 21 22  1  0  0  0  0
 21 23  1  0  0  0  0
 23 24  1  0  0  0  0
 23 25  1  0  0  0  0
 23 26  1  0  0  0  0
M  END
$$$$

  -OEChem-03222214023D

 26 25  0     1  0  0  0  0  0999 V2000
   -2.5449   -3.7708   -0.3427 H   0  0  0  0  0  0  0  0  0  0  0  0
   -2.5946   -2.7319   -0.6815 C   0  0  0  0  0  0  0  0  0  0  0  0
   -3.4088   -2.2284   -0.1548 H   0  0  0  0  0  0  0  0  0  0  0  0
   -2.8021   -2.7231   -1.7544 H   0  0  0  0  0  0  0  0  0  0  0  0
   -1.2800   -2.0283   -0.4007 C   0  0  0  0  0  0  0  0  0  0  0  0
   -0.3968   -2.6077    0.2056 O   0  0  0  0  0  0  0  0  0  0  0  0
   -1.0944   -0.7250   -0.8208 N   0  0  0  0  0  0  0  0  0  0  0  0
   -1.8232   -0.3370   -1.4137 H   0  0  0  0  0  0  0  0  0  0  0  0
    0.2007   -0.0215   -0.7676 C   0  0  1  0  0  0  0  0  0  0  0  0
    0.9152   -0.6065   -1.3606 H   0  0  0  0  0  0  0  0  0  0  0  0
    0.0394    1.3692   -1.4078 C   0  0  0  0  0  0  0  0  0  0  0  0
   -0.7196    1.3344   -2.1943 H   0  0  0  0  0  0  0  0  0  0  0  0
   -0.2863    2.1029   -0.6655 H   0  0  0  0  0  0  0  0  0  0  0  0
    1.3415    1.8350   -2.0467 C   0  0  0  0  0  0  0  0  0  0  0  0
    1.4803    1.8240   -3.2544 O   0  0  0  0  0  0  0  0  0  0  0  0
    2.4311    2.2022   -1.3127 N   0  0  0  0  0  0  0  0  0  0  0  0
    3.2926    2.2638   -1.8465 H   0  0  0  0  0  0  0  0  0  0  0  0
    2.4797    1.8300   -0.3618 H   0  0  0  0  0  0  0  0  0  0  0  0
    0.8074    0.1140    0.6484 C   0  0  0  0  0  0  0  0  0  0  0  0
    2.0214    0.2201    0.7703 O   0  0  0  0  0  0  0  0  0  0  0  0
    0.0029    0.4966    1.7058 N   0  0  0  0  0  0  0  0  0  0  0  0
   -0.9917    0.3289    1.5899 H   0  0  0  0  0  0  0  0  0  0  0  0
    0.5182    0.7166    3.0520 C   0  0  0  0  0  0  0  0  0  0  0  0
    1.2726    1.5105    3.0506 H   0  0  0  0  0  0  0  0  0  0  0  0
   -0.2927    1.0156    3.7228 H   0  0  0  0  0  0  0  0  0  0  0  0
    0.9720   -0.2007    3.4420 H   0  0  0  0  0  0  0  0  0  0  0  0
  1  2  1  0  0  0  0
  2  3  1  0  0  0  0
  2  4  1  0  0  0  0
  2  5  1  0  0  0  0
  5  6  2  0  0  0  0
  5  7  1  0  0  0  0
  7  8  1  0  0  0  0
  7  9  1  0  0  0  0
  9 10  1  0  0  0  0
  9 11  1  0  0  0  0
  9 19  1  0  0  0  0
 11 12  1  0  0  0  0
 11 13  1  0  0  0  0
 11 14  1  0  0  0  0
 14 15  2  0  0  0  0
 14 16  1  0  0  0  0
 16 17  1  0  0  0  0
 16 18  1  0  0  0  0
 19 20  2  0  0  0  0
 19 21  1  0  0  0  0
 21 22  1  0  0  0  0
 21 23  1  0  0  0  0
 23 24  1  0  0  0  0
 23 25  1  0  0  0  0
 23 26  1  0  0  0  0
M  END
$$$$

  -OEChem-03222214023D

 26 25  0     1  0  0  0  0  0999 V2000
   -2.6053   -3.7414   -0.2948 H   0  0  0  0  0  0  0  0  0  0  0  0
   -2.6254   -2.7111   -0.6617 C   0  0  0  0  0  0  0  0  0  0  0  0
   -3.4236   -2.1700   -0.1479 H   0  0  0  0  0  0  0  0  0  0  0  0
   -2.8348   -2.7252   -1.7340 H   0  0  0  0  0  0  0  0  0  0  0  0
   -1.2903   -2.0383   -0.4018 C   0  0  0  0  0  0  0  0  0  0  0  0
   -0.4093   -2.6386    0.1870 O   0  0  0  0  0  0  0  0  0  0  0  0
   -1.0814   -0.7395   -0.8252 N   0  0  0  0  0  0  0  0  0  0  0  0
   -1.8148   -0.3271   -1.3953 H   0  0  0  0  0  0  0  0  0  0  0  0
    0.2220   -0.0518   -0.7643 C   0  0  1  0  0  0  0  0  0  0  0  0
    0.9346   -0.6496   -1.3466 H   0  0  0  0  0  0  0  0  0  0  0  0
    0.0766    1.3332   -1.4225 C   0  0  0  0  0  0  0  0  0  0  0  0
   -0.6790    1.2929   -2.2122 H   0  0  0  0  0  0  0  0  0  0  0  0
   -0.2503    2.0745   -0.6883 H   0  0  0  0  0  0  0  0  0  0  0  0
    1.3807    1.7985   -2.0605 C   0  0  0  0  0  0  0  0  0  0  0  0
    1.4382    2.0351   -3.2517 O   0  0  0  0  0  0  0  0  0  0  0  0
    2.5227    2.0107   -1.3441 N   0  0  0  0  0  0  0  0  0  0  0  0
    3.3632    2.1437   -1.8974 H   0  0  0  0  0  0  0  0  0  0  0  0
    2.5978    1.5493   -0.4341 H   0  0  0  0  0  0  0  0  0  0  0  0
    0.8164    0.0816    0.6565 C   0  0  0  0  0  0  0  0  0  0  0  0
    2.0323    0.1348    0.7931 O   0  0  0  0  0  0  0  0  0  0  0  0
    0.0099    0.4787    1.7068 N   0  0  0  0  0  0  0  0  0  0  0  0
   -0.9889    0.3529    1.5754 H   0  0  0  0  0  0  0  0  0  0  0  0
    0.5153    0.6822    3.0590 C   0  0  0  0  0  0  0  0  0  0  0  0
    1.2816    1.4644    3.0696 H   0  0  0  0  0  0  0  0  0  0  0  0
   -0.2975    0.9888    3.7242 H   0  0  0  0  0  0  0  0  0  0  0  0
    0.9515   -0.2442    3.4473 H   0  0  0  0  0  0  0  0  0  0  0  0
  1  2  1  0  0  0  0
  2  3  1  0  0  0  0
  2  4  1  0  0  0  0
  2  5  1  0  0  0  0
  5  6  2  0  0  0  0
  5  7  1  0  0  0  0
  7  8  1  0  0  0  0
  7  9  1  0  0  0  0
  9 10  1  0  0  0  0
  9 11  1  0  0  0  0
  9 19  1  0  0  0  0
 11 12  1  0  0  0  0
 11 13  1  0  0  0  0
 11 14  1  0  0  0  0
 14 15  2  0  0  0  0
 14 16  1  0  0  0  0
 16 17  1  0  0  0  0
 16 18  1  0  0  0  0
 19 20  2  0  0  0  0
 19 21  1  0  0  0  0
 21 22  1  0  0  0  0
 21 23  1  0  0  0  0
 23 24  1  0  0  0  0
 23 25  1  0  0  0  0
 23 26  1  0  0  0  0
M  END
$$$$

  -OEChem-03222214023D

 26 25  0     1  0  0  0  0  0999 V2000
   -2.6330   -3.7331   -0.2856 H   0  0  0  0  0  0  0  0  0  0  0  0
   -2.6490   -2.6999   -0.6446 C   0  0  0  0  0  0  0  0  0  0  0  0
   -3.4332   -2.1553   -0.1133 H   0  0  0  0  0  0  0  0  0  0  0  0
   -2.8763   -2.7042   -1.7135 H   0  0  0  0  0  0  0  0  0  0  0  0
   -1.3031   -2.0432   -0.4011 C   0  0  0  0  0  0  0  0  0  0  0  0
   -0.4218   -2.6569    0.1732 O   0  0  0  0  0  0  0  0  0  0  0  0
   -1.0801   -0.7482   -0.8290 N   0  0  0  0  0  0  0  0  0  0  0  0
   -1.8166   -0.3197   -1.3831 H   0  0  0  0  0  0  0  0  0  0  0  0
    0.2302   -0.0743   -0.7662 C   0  0  1  0  0  0  0  0  0  0  0  0
    0.9377   -0.6847   -1.3414 H   0  0  0  0  0  0  0  0  0  0  0  0
    0.0988    1.3052   -1.4412 C   0  0  0  0  0  0  0  0  0  0  0  0
   -0.6551    1.2596   -2.2322 H   0  0  0  0  0  0  0  0  0  0  0  0
   -0.2272    2.0539   -0.7140 H   0  0  0  0  0  0  0  0  0  0  0  0
    1.4023    1.7704   -2.0833 C   0  0  0  0  0  0  0  0  0  0  0  0
    1.4005    2.2527   -3.1993 O   0  0  0  0  0  0  0  0  0  0  0  0
    2.5997    1.7814   -1.4279 N   0  0  0  0  0  0  0  0  0  0  0  0
    3.4212    1.9886   -1.9870 H   0  0  0  0  0  0  0  0  0  0  0  0
    2.6933    1.2424   -0.5631 H   0  0  0  0  0  0  0  0  0  0  0  0
    0.8196    0.0578    0.6566 C   0  0  0  0  0  0  0  0  0  0  0  0
    2.0355    0.0574    0.8027 O   0  0  0  0  0  0  0  0  0  0  0  0
    0.0159    0.4676    1.7041 N   0  0  0  0  0  0  0  0  0  0  0  0
   -0.9855    0.3776    1.5645 H   0  0  0  0  0  0  0  0  0  0  0  0
    0.5182    0.6605    3.0589 C   0  0  0  0  0  0  0  0  0  0  0  0
    1.3058    1.4214    3.0720 H   0  0  0  0  0  0  0  0  0  0  0  0
   -0.2897    0.9913    3.7185 H   0  0  0  0  0  0  0  0  0  0  0  0
    0.9270   -0.2764    3.4522 H   0  0  0  0  0  0  0  0  0  0  0  0
  1  2  1  0  0  0  0
  2  3  1  0  0  0  0
  2  4  1  0  0  0  0
  2  5  1  0  0  0  0
  5  6  2  0  0  0  0
  5  7  1  0  0  0  0
  7  8  1  0  0  0  0
  7  9  1  0  0  0  0
  9 10  1  0  0  0  0
  9 11  1  0  0  0  0
  9 19  1  0  0  0  0
 11 12  1  0  0  0  0
 11 13  1  0  0  0  0
 11 14  1  0  0  0  0
 14 15  2  0  0  0  0
 14 16  1  0  0  0  0
 16 17  1  0  0  0  0
 16 18  1  0  0  0  0
 19 20  2  0  0  0  0
 19 21  1  0  0  0  0
 21 22  1  0  0  0  0
 21 23  1  0  0  0  0
 23 24  1  0  0  0  0
 23 25  1  0  0  0  0
 23 26  1  0  0  0  0
M  END
$$$$

  -OEChem-03222214023D

 26 25  0     1  0  0  0  0  0999 V2000
   -2.6730   -3.7246   -0.2682 H   0  0  0  0  0  0  0  0  0  0  0  0
   -2.6797   -2.6906   -0.6252 C   0  0  0  0  0  0  0  0  0  0  0  0
   -3.4501   -2.1367   -0.0832 H   0  0  0  0  0  0  0  0  0  0  0  0
   -2.9204   -2.6900   -1.6912 H   0  0  0  0  0  0  0  0  0  0  0  0
   -1.3224   -2.0516   -0.3978 C   0  0  0  0  0  0  0  0  0  0  0  0
   -0.4448   -2.6741    0.1727 O   0  0  0  0  0  0  0  0  0  0  0  0
   -1.0859   -0.7619   -0.8341 N   0  0  0  0  0  0  0  0  0  0  0  0
   -1.8236   -0.3229   -1.3783 H   0  0  0  0  0  0  0  0  0  0  0  0
    0.2319   -0.1017   -0.7788 C   0  0  1  0  0  0  0  0  0  0  0  0
    0.9307   -0.7228   -1.3533 H   0  0  0  0  0  0  0  0  0  0  0  0
    0.1146    1.2792   -1.4551 C   0  0  0  0  0  0  0  0  0  0  0  0
   -0.6422    1.2383   -2.2433 H   0  0  0  0  0  0  0  0  0  0  0  0
   -0.2033    2.0303   -0.7266 H   0  0  0  0  0  0  0  0  0  0  0  0
    1.4141    1.7429   -2.1088 C   0  0  0  0  0  0  0  0  0  0  0  0
    1.3809    2.4647   -3.0866 O   0  0  0  0  0  0  0  0  0  0  0  0
    2.6577    1.4251   -1.6430 N   0  0  0  0  0  0  0  0  0  0  0  0
    3.4399    1.9356   -2.0400 H   0  0  0  0  0  0  0  0  0  0  0  0
    2.7467    0.9778   -0.7269 H   0  0  0  0  0  0  0  0  0  0  0  0
    0.8248    0.0320    0.6432 C   0  0  0  0  0  0  0  0  0  0  0  0
    2.0408    0.0272    0.7891 O   0  0  0  0  0  0  0  0  0  0  0  0
    0.0261    0.4564    1.6890 N   0  0  0  0  0  0  0  0  0  0  0  0
   -0.9763    0.3759    1.5509 H   0  0  0  0  0  0  0  0  0  0  0  0
    0.5319    0.6488    3.0427 C   0  0  0  0  0  0  0  0  0  0  0  0
    1.3291    1.3997    3.0520 H   0  0  0  0  0  0  0  0  0  0  0  0
   -0.2713    0.9928    3.7014 H   0  0  0  0  0  0  0  0  0  0  0  0
    0.9289   -0.2915    3.4397 H   0  0  0  0  0  0  0  0  0  0  0  0
  1  2  1  0  0  0  0
  2  3  1  0  0  0  0
  2  4  1  0  0  0  0
  2  5  1  0  0  0  0
  5  6  2  0  0  0  0
  5  7  1  0  0  0  0
  7  8  1  0  0  0  0
  7  9  1  0  0  0  0
  9 10  1  0  0  0  0
  9 11  1  0  0  0  0
  9 19  1  0  0  0  0
 11 12  1  0  0  0  0
 11 13  1  0  0  0  0
 11 14  1  0  0  0  0
 14 15  2  0  0  0  0
 14 16  1  0  0  0  0
 16 17  1  0  0  0  0
 16 18  1  0  0  0  0
 19 20  2  0  0  0  0
 19 21  1  0  0  0  0
 21 22  1  0  0  0  0
 21 23  1  0  0  0  0
 23 24  1  0  0  0  0
 23 25  1  0  0  0  0
 23 26  1  0  0  0  0
M  END
$$$$

  -OEChem-03222214023D

 26 25  0     1  0  0  0  0  0999 V2000
   -2.7062   -3.7254   -0.2603 H   0  0  0  0  0  0  0  0  0  0  0  0
   -2.7103   -2.6908   -0.6158 C   0  0  0  0  0  0  0  0  0  0  0  0
   -3.4667   -2.1310   -0.0604 H   0  0  0  0  0  0  0  0  0  0  0  0
   -2.9686   -2.6866   -1.6776 H   0  0  0  0  0  0  0  0  0  0  0  0
   -1.3440   -2.0635   -0.4100 C   0  0  0  0  0  0  0  0  0  0  0  0
   -0.4614   -2.6941    0.1435 O   0  0  0  0  0  0  0  0  0  0  0  0
   -1.1039   -0.7741   -0.8453 N   0  0  0  0  0  0  0  0  0  0  0  0
   -1.8491   -0.3218   -1.3679 H   0  0  0  0  0  0  0  0  0  0  0  0
    0.2160   -0.1187   -0.7912 C   0  0  1  0  0  0  0  0  0  0  0  0
    0.9044   -0.7522   -1.3642 H   0  0  0  0  0  0  0  0  0  0  0  0
    0.1111    1.2555   -1.4829 C   0  0  0  0  0  0  0  0  0  0  0  0
   -0.6396    1.2092   -2.2765 H   0  0  0  0  0  0  0  0  0  0  0  0
   -0.2095    2.0143   -0.7637 H   0  0  0  0  0  0  0  0  0  0  0  0
    1.4134    1.7136   -2.1356 C   0  0  0  0  0  0  0  0  0  0  0  0
    1.4015    2.6285   -2.9359 O   0  0  0  0  0  0  0  0  0  0  0  0
    2.6486    1.2366   -1.7999 N   0  0  0  0  0  0  0  0  0  0  0  0
    3.4321    1.7951   -2.1237 H   0  0  0  0  0  0  0  0  0  0  0  0
    2.7365    0.7225   -0.9195 H   0  0  0  0  0  0  0  0  0  0  0  0
    0.8257    0.0193    0.6216 C   0  0  0  0  0  0  0  0  0  0  0  0
    2.0440    0.0019    0.7457 O   0  0  0  0  0  0  0  0  0  0  0  0
    0.0445    0.4495    1.6777 N   0  0  0  0  0  0  0  0  0  0  0  0
   -0.9606    0.3831    1.5528 H   0  0  0  0  0  0  0  0  0  0  0  0
    0.5708    0.6505    3.0220 C   0  0  0  0  0  0  0  0  0  0  0  0
    1.3724    1.3967    3.0130 H   0  0  0  0  0  0  0  0  0  0  0  0
   -0.2208    1.0052    3.6888 H   0  0  0  0  0  0  0  0  0  0  0  0
    0.9672   -0.2889    3.4217 H   0  0  0  0  0  0  0  0  0  0  0  0
  1  2  1  0  0  0  0
  2  3  1  0  0  0  0
  2  4  1  0  0  0  0
  2  5  1  0  0  0  0
  5  6  2  0  0  0  0
  5  7  1  0  0  0  0
  7  8  1  0  0  0  0
  7  9  1  0  0  0  0
  9 10  1  0  0  0  0
  9 11  1  0  0  0  0
  9 19  1  0  0  0  0
 11 12  1  0  0  0  0
 11 13  1  0  0  0  0
 11 14  1  0  0  0  0
 14 15  2  0  0  0  0
 14 16  1  0  0  0  0
 16 17  1  0  0  0  0
 16 18  1  0  0  0  0
 19 20  2  0  0  0  0
 19 21  1  0  0  0  0
 21 22  1  0  0  0  0
 21 23  1  0  0  0  0
 23 24  1  0  0  0  0
 23 25  1  0  0  0  0
 23 26  1  0  0  0  0
M  END
$$$$

  -OEChem-03222214023D

 26 25  0     1  0  0  0  0  0999 V2000
   -2.7647   -3.7572   -0.2545 H   0  0  0  0  0  0  0  0  0  0  0  0
   -2.7794   -2.7255   -0.6179 C   0  0  0  0  0  0  0  0  0  0  0  0
   -3.5335   -2.1670   -0.0581 H   0  0  0  0  0  0  0  0  0  0  0  0
   -3.0502   -2.7307   -1.6767 H   0  0  0  0  0  0  0  0  0  0  0  0
   -1.4149   -2.0879   -0.4331 C   0  0  0  0  0  0  0  0  0  0  0  0
   -0.5138   -2.7166    0.0925 O   0  0  0  0  0  0  0  0  0  0  0  0
   -1.1948   -0.7902   -0.8536 N   0  0  0  0  0  0  0  0  0  0  0  0
   -1.9583   -0.3291   -1.3410 H   0  0  0  0  0  0  0  0  0  0  0  0
    0.1214   -0.1275   -0.8133 C   0  0  1  0  0  0  0  0  0  0  0  0
    0.7770   -0.7951   -1.3847 H   0  0  0  0  0  0  0  0  0  0  0  0
    0.0445    1.2339   -1.5383 C   0  0  0  0  0  0  0  0  0  0  0  0
   -0.8597    1.2804   -2.1505 H   0  0  0  0  0  0  0  0  0  0  0  0
   -0.0088    2.0462   -0.8073 H   0  0  0  0  0  0  0  0  0  0  0  0
    1.2239    1.4924   -2.4715 C   0  0  0  0  0  0  0  0  0  0  0  0
    1.2791    2.5283   -3.1047 O   0  0  0  0  0  0  0  0  0  0  0  0
    2.4198    0.8412   -2.3569 N   0  0  0  0  0  0  0  0  0  0  0  0
    3.2029    1.3484   -2.7582 H   0  0  0  0  0  0  0  0  0  0  0  0
    2.5767    0.3310   -1.4858 H   0  0  0  0  0  0  0  0  0  0  0  0
    0.8030    0.0205    0.5596 C   0  0  0  0  0  0  0  0  0  0  0  0
    2.0273    0.0253    0.5916 O   0  0  0  0  0  0  0  0  0  0  0  0
    0.0846    0.4441    1.6615 N   0  0  0  0  0  0  0  0  0  0  0  0
   -0.9262    0.3738    1.6013 H   0  0  0  0  0  0  0  0  0  0  0  0
    0.6970    0.6752    2.9637 C   0  0  0  0  0  0  0  0  0  0  0  0
    1.4800    1.4373    2.8902 H   0  0  0  0  0  0  0  0  0  0  0  0
   -0.0544    1.0232    3.6789 H   0  0  0  0  0  0  0  0  0  0  0  0
    1.1402   -0.2500    3.3468 H   0  0  0  0  0  0  0  0  0  0  0  0
  1  2  1  0  0  0  0
  2  3  1  0  0  0  0
  2  4  1  0  0  0  0
  2  5  1  0  0  0  0
  5  6  2  0  0  0  0
  5  7  1  0  0  0  0
  7  8  1  0  0  0  0
  7  9  1  0  0  0  0
  9 10  1  0  0  0  0
  9 11  1  0  0  0  0
  9 19  1  0  0  0  0
 11 12  1  0  0  0  0
 11 13  1  0  0  0  0
 11 14  1  0  0  0  0
 14 15  2  0  0  0  0
 14 16  1  0  0  0  0
 16 17  1  0  0  0  0
 16 18  1  0  0  0  0
 19 20  2  0  0  0  0
 19 21  1  0  0  0  0
 21 22  1  0  0  0  0
 21 23  1  0  0  0  0
 23 24  1  0  0  0  0
 23 25  1  0  0  0  0
 23 26  1  0  0  0  0
M  END
$$$$

  -OEChem-03222214023D

 26 25  0     1  0  0  0  0  0999 V2000
   -2.7489   -3.7545   -0.2415 H   0  0  0  0  0  0  0  0  0  0  0  0
   -2.7695   -2.7213   -0.6000 C   0  0  0  0  0  0  0  0  0  0  0  0
   -3.5086   -2.1629   -0.0207 H   0  0  0  0  0  0  0  0  0  0  0  0
   -3.0643   -2.7216   -1.6522 H   0  0  0  0  0  0  0  0  0  0  0  0
   -1.3994   -2.0882   -0.4439 C   0  0  0  0  0  0  0  0  0  0  0  0
   -0.4862   -2.7234    0.0518 O   0  0  0  0  0  0  0  0  0  0  0  0
   -1.1864   -0.7882   -0.8605 N   0  0  0  0  0  0  0  0  0  0  0  0
   -1.9654   -0.3135   -1.3085 H   0  0  0  0  0  0  0  0  0  0  0  0
    0.1241   -0.1141   -0.8141 C   0  0  1  0  0  0  0  0  0  0  0  0
    0.7863   -0.7775   -1.3795 H   0  0  0  0  0  0  0  0  0  0  0  0
    0.0295    1.2477   -1.5380 C   0  0  0  0  0  0  0  0  0  0  0  0
   -0.8762    1.2788   -2.1486 H   0  0  0  0  0  0  0  0  0  0  0  0
   -0.0439    2.0538   -0.8016 H   0  0  0  0  0  0  0  0  0  0  0  0
    1.1944    1.5518   -2.4786 C   0  0  0  0  0  0  0  0  0  0  0  0
    1.3598    2.6853   -2.8841 O   0  0  0  0  0  0  0  0  0  0  0  0
    2.2789    0.7389   -2.6516 N   0  0  0  0  0  0  0  0  0  0  0  0
    3.0878    1.2236   -3.0299 H   0  0  0  0  0  0  0  0  0  0  0  0
    2.4421    0.0433   -1.9267 H   0  0  0  0  0  0  0  0  0  0  0  0
    0.7954    0.0352    0.5635 C   0  0  0  0  0  0  0  0  0  0  0  0
    2.0179    0.0137    0.6121 O   0  0  0  0  0  0  0  0  0  0  0  0
    0.0677    0.4496    1.6630 N   0  0  0  0  0  0  0  0  0  0  0  0
   -0.9430    0.3938    1.5898 H   0  0  0  0  0  0  0  0  0  0  0  0
    0.6681    0.6601    2.9742 C   0  0  0  0  0  0  0  0  0  0  0  0
    1.4598    1.4149    2.9178 H   0  0  0  0  0  0  0  0  0  0  0  0
   -0.0877    1.0075    3.6849 H   0  0  0  0  0  0  0  0  0  0  0  0
    1.0978   -0.2736    3.3519 H   0  0  0  0  0  0  0  0  0  0  0  0
  1  2  1  0  0  0  0
  2  3  1  0  0  0  0
  2  4  1  0  0  0  0
  2  5  1  0  0  0  0
  5  6  2  0  0  0  0
  5  7  1  0  0  0  0
  7  8  1  0  0  0  0
  7  9  1  0  0  0  0
  9 10  1  0  0  0  0
  9 11  1  0  0  0  0
  9 19  1  0  0  0  0
 11 12  1  0  0  0  0
 11 13  1  0  0  0  0
 11 14  1  0  0  0  0
 14 15  2  0  0  0  0
 14 16  1  0  0  0  0
 16 17  1  0  0  0  0
 16 18  1  0  0  0  0
 19 20  2  0  0  0  0
 19 21  1  0  0  0  0
 21 22  1  0  0  0  0
 21 23  1  0  0  0  0
 23 24  1  0  0  0  0
 23 25  1  0  0  0  0
 23 26  1  0  0  0  0
M  END
$$$$

  -OEChem-03222214023D

 26 25  0     1  0  0  0  0  0999 V2000
   -2.6729   -3.7296   -0.2270 H   0  0  0  0  0  0  0  0  0  0  0  0
   -2.6904   -2.6926   -0.5750 C   0  0  0  0  0  0  0  0  0  0  0  0
   -3.4037   -2.1309    0.0328 H   0  0  0  0  0  0  0  0  0  0  0  0
   -3.0178   -2.6778   -1.6174 H   0  0  0  0  0  0  0  0  0  0  0  0
   -1.3077   -2.0793   -0.4556 C   0  0  0  0  0  0  0  0  0  0  0  0
   -0.3854   -2.7360   -0.0076 O   0  0  0  0  0  0  0  0  0  0  0  0
   -1.0904   -0.7777   -0.8655 N   0  0  0  0  0  0  0  0  0  0  0  0
   -1.8848   -0.2750   -1.2513 H   0  0  0  0  0  0  0  0  0  0  0  0
    0.2115   -0.0909   -0.7755 C   0  0  1  0  0  0  0  0  0  0  0  0
    0.9235   -0.7221   -1.3158 H   0  0  0  0  0  0  0  0  0  0  0  0
    0.1030    1.2856   -1.4684 C   0  0  0  0  0  0  0  0  0  0  0  0
   -0.7923    1.3182   -2.0939 H   0  0  0  0  0  0  0  0  0  0  0  0
    0.0067    2.0757   -0.7172 H   0  0  0  0  0  0  0  0  0  0  0  0
    1.2800    1.6174   -2.3813 C   0  0  0  0  0  0  0  0  0  0  0  0
    1.6180    2.7726   -2.5469 O   0  0  0  0  0  0  0  0  0  0  0  0
    1.9283    0.7032   -3.1644 N   0  0  0  0  0  0  0  0  0  0  0  0
    2.7740    1.0494   -3.6093 H   0  0  0  0  0  0  0  0  0  0  0  0
    1.8660   -0.2780   -2.9162 H   0  0  0  0  0  0  0  0  0  0  0  0
    0.8030    0.0478    0.6423 C   0  0  0  0  0  0  0  0  0  0  0  0
    2.0163    0.0027    0.7840 O   0  0  0  0  0  0  0  0  0  0  0  0
    0.0061    0.4467    1.6997 N   0  0  0  0  0  0  0  0  0  0  0  0
   -0.9975    0.4251    1.5545 H   0  0  0  0  0  0  0  0  0  0  0  0
    0.5202    0.6476    3.0487 C   0  0  0  0  0  0  0  0  0  0  0  0
    1.3054    1.4110    3.0503 H   0  0  0  0  0  0  0  0  0  0  0  0
   -0.2822    0.9789    3.7145 H   0  0  0  0  0  0  0  0  0  0  0  0
    0.9359   -0.2858    3.4424 H   0  0  0  0  0  0  0  0  0  0  0  0
  1  2  1  0  0  0  0
  2  3  1  0  0  0  0
  2  4  1  0  0  0  0
  2  5  1  0  0  0  0
  5  6  2  0  0  0  0
  5  7  1  0  0  0  0
  7  8  1  0  0  0  0
  7  9  1  0  0  0  0
  9 10  1  0  0  0  0
  9 11  1  0  0  0  0
  9 19  1  0  0  0  0
 11 12  1  0  0  0  0
 11 13  1  0  0  0  0
 11 14  1  0  0  0  0
 14 15  2  0  0  0  0
 14 16  1  0  0  0  0
 16 17  1  0  0  0  0
 16 18  1  0  0  0  0
 19 20  2  0  0  0  0
 19 21  1  0  0  0  0
 21 22  1  0  0  0  0
 21 23  1  0  0  0  0
 23 24  1  0  0  0  0
 23 25  1  0  0  0  0
 23 26  1  0  0  0  0
M  END
$$$$

  -OEChem-03222214023D

 26 25  0     1  0  0  0  0  0999 V2000
   -2.6507   -3.7267   -0.2167 H   0  0  0  0  0  0  0  0  0  0  0  0
   -2.6753   -2.6880   -0.5589 C   0  0  0  0  0  0  0  0  0  0  0  0
   -3.3695   -2.1275    0.0718 H   0  0  0  0  0  0  0  0  0  0  0  0
   -3.0322   -2.6674   -1.5915 H   0  0  0  0  0  0  0  0  0  0  0  0
   -1.2881   -2.0786   -0.4759 C   0  0  0  0  0  0  0  0  0  0  0  0
   -0.3540   -2.7427   -0.0653 O   0  0  0  0  0  0  0  0  0  0  0  0
   -1.0811   -0.7734   -0.8796 N   0  0  0  0  0  0  0  0  0  0  0  0
   -1.8905   -0.2603   -1.2172 H   0  0  0  0  0  0  0  0  0  0  0  0
    0.2161   -0.0773   -0.7871 C   0  0  1  0  0  0  0  0  0  0  0  0
    0.9390   -0.6920   -1.3346 H   0  0  0  0  0  0  0  0  0  0  0  0
    0.0907    1.3012   -1.4709 C   0  0  0  0  0  0  0  0  0  0  0  0
   -0.8055    1.3352   -2.0951 H   0  0  0  0  0  0  0  0  0  0  0  0
   -0.0042    2.0893   -0.7173 H   0  0  0  0  0  0  0  0  0  0  0  0
    1.2737    1.6196   -2.3771 C   0  0  0  0  0  0  0  0  0  0  0  0
    1.8030    2.7126   -2.3508 O   0  0  0  0  0  0  0  0  0  0  0  0
    1.7140    0.7716   -3.3548 N   0  0  0  0  0  0  0  0  0  0  0  0
    2.5921    1.0392   -3.7915 H   0  0  0  0  0  0  0  0  0  0  0  0
    1.4618   -0.2091   -3.2993 H   0  0  0  0  0  0  0  0  0  0  0  0
    0.8031    0.0558    0.6340 C   0  0  0  0  0  0  0  0  0  0  0  0
    2.0144   -0.0006    0.7860 O   0  0  0  0  0  0  0  0  0  0  0  0
    0.0007    0.4423    1.6922 N   0  0  0  0  0  0  0  0  0  0  0  0
   -1.0016    0.4403    1.5384 H   0  0  0  0  0  0  0  0  0  0  0  0
    0.5089    0.6375    3.0445 C   0  0  0  0  0  0  0  0  0  0  0  0
    1.2946    1.4005    3.0524 H   0  0  0  0  0  0  0  0  0  0  0  0
   -0.2965    0.9664    3.7080 H   0  0  0  0  0  0  0  0  0  0  0  0
    0.9219   -0.2979    3.4365 H   0  0  0  0  0  0  0  0  0  0  0  0
  1  2  1  0  0  0  0
  2  3  1  0  0  0  0
  2  4  1  0  0  0  0
  2  5  1  0  0  0  0
  5  6  2  0  0  0  0
  5  7  1  0  0  0  0
  7  8  1  0  0  0  0
  7  9  1  0  0  0  0
  9 10  1  0  0  0  0
  9 11  1  0  0  0  0
  9 19  1  0  0  0  0
 11 12  1  0  0  0  0
 11 13  1  0  0  0  0
 11 14  1  0  0  0  0
 14 15  2  0  0  0  0
 14 16  1  0  0  0  0
 16 17  1  0  0  0  0
 16 18  1  0  0  0  0
 19 20  2  0  0  0  0
 19 21  1  0  0  0  0
 21 22  1  0  0  0  0
 21 23  1  0  0  0  0
 23 24  1  0  0  0  0
 23 25  1  0  0  0  0
 23 26  1  0  0  0  0
M  END
$$$$

  -OEChem-03222214023D

 26 25  0     1  0  0  0  0  0999 V2000
   -2.6276   -3.7172   -0.1920 H   0  0  0  0  0  0  0  0  0  0  0  0
   -2.6611   -2.6797   -0.5373 C   0  0  0  0  0  0  0  0  0  0  0  0
   -3.3372   -2.1162    0.1101 H   0  0  0  0  0  0  0  0  0  0  0  0
   -3.0459   -2.6627   -1.5598 H   0  0  0  0  0  0  0  0  0  0  0  0
   -1.2717   -2.0713   -0.4941 C   0  0  0  0  0  0  0  0  0  0  0  0
   -0.3256   -2.7389   -0.1186 O   0  0  0  0  0  0  0  0  0  0  0  0
   -1.0793   -0.7623   -0.8929 N   0  0  0  0  0  0  0  0  0  0  0  0
   -1.9028   -0.2432   -1.1833 H   0  0  0  0  0  0  0  0  0  0  0  0
    0.2126   -0.0557   -0.8042 C   0  0  1  0  0  0  0  0  0  0  0  0
    0.9412   -0.6558   -1.3623 H   0  0  0  0  0  0  0  0  0  0  0  0
    0.0643    1.3224   -1.4817 C   0  0  0  0  0  0  0  0  0  0  0  0
   -0.8362    1.3528   -2.0999 H   0  0  0  0  0  0  0  0  0  0  0  0
   -0.0292    2.1091   -0.7263 H   0  0  0  0  0  0  0  0  0  0  0  0
    1.2442    1.6390   -2.3897 C   0  0  0  0  0  0  0  0  0  0  0  0
    1.9462    2.6114   -2.2000 O   0  0  0  0  0  0  0  0  0  0  0  0
    1.5338    0.8938   -3.4981 N   0  0  0  0  0  0  0  0  0  0  0  0
    2.4338    1.0922   -3.9272 H   0  0  0  0  0  0  0  0  0  0  0  0
    1.1336   -0.0346   -3.5786 H   0  0  0  0  0  0  0  0  0  0  0  0
    0.8019    0.0729    0.6169 C   0  0  0  0  0  0  0  0  0  0  0  0
    2.0108   -0.0061    0.7756 O   0  0  0  0  0  0  0  0  0  0  0  0
   -0.0020    0.4466    1.6788 N   0  0  0  0  0  0  0  0  0  0  0  0
   -1.0036    0.4575    1.5217 H   0  0  0  0  0  0  0  0  0  0  0  0
    0.5036    0.6129    3.0359 C   0  0  0  0  0  0  0  0  0  0  0  0
    1.2989    1.3656    3.0596 H   0  0  0  0  0  0  0  0  0  0  0  0
   -0.3000    0.9406    3.7022 H   0  0  0  0  0  0  0  0  0  0  0  0
    0.9038   -0.3341    3.4130 H   0  0  0  0  0  0  0  0  0  0  0  0
  1  2  1  0  0  0  0
  2  3  1  0  0  0  0
  2  4  1  0  0  0  0
  2  5  1  0  0  0  0
  5  6  2  0  0  0  0
  5  7  1  0  0  0  0
  7  8  1  0  0  0  0
  7  9  1  0  0  0  0
  9 10  1  0  0  0  0
  9 11  1  0  0  0  0
  9 19  1  0  0  0  0
 11 12  1  0  0  0  0
 11 13  1  0  0  0  0
 11 14  1  0  0  0  0
 14 15  2  0  0  0  0
 14 16  1  0  0  0  0
 16 17  1  0  0  0  0
 16 18  1  0  0  0  0
 19 20  2  0  0  0  0
 19 21  1  0  0  0  0
 21 22  1  0  0  0  0
 21 23  1  0  0  0  0
 23 24  1  0  0  0  0
 23 25  1  0  0  0  0
 23 26  1  0  0  0  0
M  END
$$$$

  -OEChem-03222214023D

 26 25  0     1  0  0  0  0  0999 V2000
   -2.6106   -3.7153   -0.2041 H   0  0  0  0  0  0  0  0  0  0  0  0
   -2.6497   -2.6746   -0.5390 C   0  0  0  0  0  0  0  0  0  0  0  0
   -3.3260   -2.1200    0.1157 H   0  0  0  0  0  0  0  0  0  0  0  0
   -3.0381   -2.6494   -1.5599 H   0  0  0  0  0  0  0  0  0  0  0  0
   -1.2627   -2.0607   -0.4950 C   0  0  0  0  0  0  0  0  0  0  0  0
   -0.3140   -2.7266   -0.1238 O   0  0  0  0  0  0  0  0  0  0  0  0
   -1.0773   -0.7500   -0.8915 N   0  0  0  0  0  0  0  0  0  0  0  0
   -1.9053   -0.2335   -1.1730 H   0  0  0  0  0  0  0  0  0  0  0  0
    0.2127   -0.0382   -0.8103 C   0  0  1  0  0  0  0  0  0  0  0  0
    0.9426   -0.6269   -1.3799 H   0  0  0  0  0  0  0  0  0  0  0  0
    0.0439    1.3421   -1.4784 C   0  0  0  0  0  0  0  0  0  0  0  0
   -0.8658    1.3726   -2.0829 H   0  0  0  0  0  0  0  0  0  0  0  0
   -0.0416    2.1253   -0.7189 H   0  0  0  0  0  0  0  0  0  0  0  0
    1.2131    1.6654   -2.3963 C   0  0  0  0  0  0  0  0  0  0  0  0
    2.0713    2.4642   -2.0822 O   0  0  0  0  0  0  0  0  0  0  0  0
    1.3599    1.0698   -3.6169 N   0  0  0  0  0  0  0  0  0  0  0  0
    2.2664    1.2063   -4.0566 H   0  0  0  0  0  0  0  0  0  0  0  0
    0.8263    0.2306   -3.8154 H   0  0  0  0  0  0  0  0  0  0  0  0
    0.8062    0.0855    0.6104 C   0  0  0  0  0  0  0  0  0  0  0  0
    2.0128   -0.0121    0.7745 O   0  0  0  0  0  0  0  0  0  0  0  0
    0.0021    0.4516    1.6752 N   0  0  0  0  0  0  0  0  0  0  0  0
   -0.9987    0.4717    1.5154 H   0  0  0  0  0  0  0  0  0  0  0  0
    0.5049    0.5981    3.0356 C   0  0  0  0  0  0  0  0  0  0  0  0
    1.2961    1.3545    3.0720 H   0  0  0  0  0  0  0  0  0  0  0  0
   -0.3013    0.9107    3.7060 H   0  0  0  0  0  0  0  0  0  0  0  0
    0.9099   -0.3528    3.3978 H   0  0  0  0  0  0  0  0  0  0  0  0
  1  2  1  0  0  0  0
  2  3  1  0  0  0  0
  2  4  1  0  0  0  0
  2  5  1  0  0  0  0
  5  6  2  0  0  0  0
  5  7  1  0  0  0  0
  7  8  1  0  0  0  0
  7  9  1  0  0  0  0
  9 10  1  0  0  0  0
  9 11  1  0  0  0  0
  9 19  1  0  0  0  0
 11 12  1  0  0  0  0
 11 13  1  0  0  0  0
 11 14  1  0  0  0  0
 14 15  2  0  0  0  0
 14 16  1  0  0  0  0
 16 17  1  0  0  0  0
 16 18  1  0  0  0  0
 19 20  2  0  0  0  0
 19 21  1  0  0  0  0
 21 22  1  0  0  0  0
 21 23  1  0  0  0  0
 23 24  1  0  0  0  0
 23 25  1  0  0  0  0
 23 26  1  0  0  0  0
M  END
$$$$

  -OEChem-03222214023D

 26 25  0     1  0  0  0  0  0999 V2000
   -2.5908   -3.7066   -0.1975 H   0  0  0  0  0  0  0  0  0  0  0  0
   -2.6340   -2.6669   -0.5351 C   0  0  0  0  0  0  0  0  0  0  0  0
   -3.3102   -2.1131    0.1205 H   0  0  0  0  0  0  0  0  0  0  0  0
   -3.0253   -2.6454   -1.5551 H   0  0  0  0  0  0  0  0  0  0  0  0
   -1.2491   -2.0482   -0.4962 C   0  0  0  0  0  0  0  0  0  0  0  0
   -0.2973   -2.7123   -0.1301 O   0  0  0  0  0  0  0  0  0  0  0  0
   -1.0716   -0.7355   -0.8901 N   0  0  0  0  0  0  0  0  0  0  0  0
   -1.9037   -0.2222   -1.1646 H   0  0  0  0  0  0  0  0  0  0  0  0
    0.2152   -0.0165   -0.8127 C   0  0  1  0  0  0  0  0  0  0  0  0
    0.9486   -0.5950   -1.3890 H   0  0  0  0  0  0  0  0  0  0  0  0
    0.0301    1.3650   -1.4752 C   0  0  0  0  0  0  0  0  0  0  0  0
   -0.8864    1.3923   -2.0695 H   0  0  0  0  0  0  0  0  0  0  0  0
   -0.0522    2.1454   -0.7125 H   0  0  0  0  0  0  0  0  0  0  0  0
    1.1908    1.7000   -2.3996 C   0  0  0  0  0  0  0  0  0  0  0  0
    2.1775    2.2858   -2.0066 O   0  0  0  0  0  0  0  0  0  0  0  0
    1.2149    1.2930   -3.7032 N   0  0  0  0  0  0  0  0  0  0  0  0
    2.1193    1.3709   -4.1611 H   0  0  0  0  0  0  0  0  0  0  0  0
    0.5597    0.5797   -4.0025 H   0  0  0  0  0  0  0  0  0  0  0  0
    0.8081    0.1031    0.6094 C   0  0  0  0  0  0  0  0  0  0  0  0
    2.0115   -0.0132    0.7828 O   0  0  0  0  0  0  0  0  0  0  0  0
    0.0008    0.4604    1.6752 N   0  0  0  0  0  0  0  0  0  0  0  0
   -0.9996    0.4773    1.5130 H   0  0  0  0  0  0  0  0  0  0  0  0
    0.4976    0.5726    3.0411 C   0  0  0  0  0  0  0  0  0  0  0  0
    1.2997    1.3164    3.0970 H   0  0  0  0  0  0  0  0  0  0  0  0
   -0.3076    0.8834    3.7134 H   0  0  0  0  0  0  0  0  0  0  0  0
    0.8868   -0.3910    3.3866 H   0  0  0  0  0  0  0  0  0  0  0  0
  1  2  1  0  0  0  0
  2  3  1  0  0  0  0
  2  4  1  0  0  0  0
  2  5  1  0  0  0  0
  5  6  2  0  0  0  0
  5  7  1  0  0  0  0
  7  8  1  0  0  0  0
  7  9  1  0  0  0  0
  9 10  1  0  0  0  0
  9 11  1  0  0  0  0
  9 19  1  0  0  0  0
 11 12  1  0  0  0  0
 11 13  1  0  0  0  0
 11 14  1  0  0  0  0
 14 15  2  0  0  0  0
 14 16  1  0  0  0  0
 16 17  1  0  0  0  0
 16 18  1  0  0  0  0
 19 20  2  0  0  0  0
 19 21  1  0  0  0  0
 21 22  1  0  0  0  0
 21 23  1  0  0  0  0
 23 24  1  0  0  0  0
 23 25  1  0  0  0  0
 23 26  1  0  0  0  0
M  END
$$$$

  -OEChem-03222214023D

 26 25  0     1  0  0  0  0  0999 V2000
   -2.5807   -3.6969   -0.1889 H   0  0  0  0  0  0  0  0  0  0  0  0
   -2.6207   -2.6593   -0.5331 C   0  0  0  0  0  0  0  0  0  0  0  0
   -3.3044   -2.1021    0.1117 H   0  0  0  0  0  0  0  0  0  0  0  0
   -3.0004   -2.6440   -1.5575 H   0  0  0  0  0  0  0  0  0  0  0  0
   -1.2365   -2.0401   -0.4832 C   0  0  0  0  0  0  0  0  0  0  0  0
   -0.2898   -2.7020   -0.1009 O   0  0  0  0  0  0  0  0  0  0  0  0
   -1.0565   -0.7288   -0.8809 N   0  0  0  0  0  0  0  0  0  0  0  0
   -1.8851   -0.2209   -1.1744 H   0  0  0  0  0  0  0  0  0  0  0  0
    0.2313   -0.0101   -0.8075 C   0  0  1  0  0  0  0  0  0  0  0  0
    0.9668   -0.5836   -1.3864 H   0  0  0  0  0  0  0  0  0  0  0  0
    0.0382    1.3746   -1.4638 C   0  0  0  0  0  0  0  0  0  0  0  0
   -0.8857    1.4017   -2.0465 H   0  0  0  0  0  0  0  0  0  0  0  0
   -0.0376    2.1519   -0.6976 H   0  0  0  0  0  0  0  0  0  0  0  0
    1.1893    1.7214   -2.3974 C   0  0  0  0  0  0  0  0  0  0  0  0
    2.2771    2.0627   -1.9847 O   0  0  0  0  0  0  0  0  0  0  0  0
    1.0895    1.5743   -3.7515 N   0  0  0  0  0  0  0  0  0  0  0  0
    1.9714    1.6158   -4.2558 H   0  0  0  0  0  0  0  0  0  0  0  0
    0.3156    1.0406   -4.1308 H   0  0  0  0  0  0  0  0  0  0  0  0
    0.8166    0.1072    0.6189 C   0  0  0  0  0  0  0  0  0  0  0  0
    2.0161   -0.0228    0.8084 O   0  0  0  0  0  0  0  0  0  0  0  0
   -0.0004    0.4653    1.6773 N   0  0  0  0  0  0  0  0  0  0  0  0
   -0.9990    0.4758    1.5049 H   0  0  0  0  0  0  0  0  0  0  0  0
    0.4791    0.5535    3.0511 C   0  0  0  0  0  0  0  0  0  0  0  0
    1.2925    1.2829    3.1268 H   0  0  0  0  0  0  0  0  0  0  0  0
   -0.3300    0.8703    3.7160 H   0  0  0  0  0  0  0  0  0  0  0  0
    0.8469   -0.4207    3.3904 H   0  0  0  0  0  0  0  0  0  0  0  0
  1  2  1  0  0  0  0
  2  3  1  0  0  0  0
  2  4  1  0  0  0  0
  2  5  1  0  0  0  0
  5  6  2  0  0  0  0
  5  7  1  0  0  0  0
  7  8  1  0  0  0  0
  7  9  1  0  0  0  0
  9 10  1  0  0  0  0
  9 11  1  0  0  0  0
  9 19  1  0  0  0  0
 11 12  1  0  0  0  0
 11 13  1  0  0  0  0
 11 14  1  0  0  0  0
 14 15  2  0  0  0  0
 14 16  1  0  0  0  0
 16 17  1  0  0  0  0
 16 18  1  0  0  0  0
 19 20  2  0  0  0  0
 19 21  1  0  0  0  0
 21 22  1  0  0  0  0
 21 23  1  0  0  0  0
 23 24  1  0  0  0  0
 23 25  1  0  0  0  0
 23 26  1  0  0  0  0
M  END
$$$$

  -OEChem-03222214023D

 26 25  0     1  0  0  0  0  0999 V2000
   -2.5859   -3.6955   -0.1973 H   0  0  0  0  0  0  0  0  0  0  0  0
   -2.6172   -2.6589   -0.5453 C   0  0  0  0  0  0  0  0  0  0  0  0
   -3.3202   -2.1008    0.0778 H   0  0  0  0  0  0  0  0  0  0  0  0
   -2.9667   -2.6471   -1.5804 H   0  0  0  0  0  0  0  0  0  0  0  0
   -1.2358   -2.0375   -0.4561 C   0  0  0  0  0  0  0  0  0  0  0  0
   -0.3037   -2.6933   -0.0300 O   0  0  0  0  0  0  0  0  0  0  0  0
   -1.0445   -0.7304   -0.8634 N   0  0  0  0  0  0  0  0  0  0  0  0
   -1.8584   -0.2357   -1.2142 H   0  0  0  0  0  0  0  0  0  0  0  0
    0.2481   -0.0187   -0.7955 C   0  0  1  0  0  0  0  0  0  0  0  0
    0.9827   -0.5953   -1.3718 H   0  0  0  0  0  0  0  0  0  0  0  0
    0.0588    1.3692   -1.4503 C   0  0  0  0  0  0  0  0  0  0  0  0
   -0.8705    1.3981   -2.0241 H   0  0  0  0  0  0  0  0  0  0  0  0
   -0.0086    2.1455   -0.6825 H   0  0  0  0  0  0  0  0  0  0  0  0
    1.2027    1.7204   -2.3932 C   0  0  0  0  0  0  0  0  0  0  0  0
    2.3541    1.8012   -2.0230 O   0  0  0  0  0  0  0  0  0  0  0  0
    1.0061    1.8881   -3.7345 N   0  0  0  0  0  0  0  0  0  0  0  0
    1.8512    1.9174   -4.2990 H   0  0  0  0  0  0  0  0  0  0  0  0
    0.1283    1.5958   -4.1480 H   0  0  0  0  0  0  0  0  0  0  0  0
    0.8262    0.1014    0.6346 C   0  0  0  0  0  0  0  0  0  0  0  0
    2.0236   -0.0287    0.8374 O   0  0  0  0  0  0  0  0  0  0  0  0
    0.0017    0.4703    1.6836 N   0  0  0  0  0  0  0  0  0  0  0  0
   -0.9959    0.4615    1.5049 H   0  0  0  0  0  0  0  0  0  0  0  0
    0.4685    0.5507    3.0622 C   0  0  0  0  0  0  0  0  0  0  0  0
    1.2889    1.2711    3.1474 H   0  0  0  0  0  0  0  0  0  0  0  0
   -0.3439    0.8749    3.7194 H   0  0  0  0  0  0  0  0  0  0  0  0
    0.8227   -0.4279    3.4032 H   0  0  0  0  0  0  0  0  0  0  0  0
  1  2  1  0  0  0  0
  2  3  1  0  0  0  0
  2  4  1  0  0  0  0
  2  5  1  0  0  0  0
  5  6  2  0  0  0  0
  5  7  1  0  0  0  0
  7  8  1  0  0  0  0
  7  9  1  0  0  0  0
  9 10  1  0  0  0  0
  9 11  1  0  0  0  0
  9 19  1  0  0  0  0
 11 12  1  0  0  0  0
 11 13  1  0  0  0  0
 11 14  1  0  0  0  0
 14 15  2  0  0  0  0
 14 16  1  0  0  0  0
 16 17  1  0  0  0  0
 16 18  1  0  0  0  0
 19 20  2  0  0  0  0
 19 21  1  0  0  0  0
 21 22  1  0  0  0  0
 21 23  1  0  0  0  0
 23 24  1  0  0  0  0
 23 25  1  0  0  0  0
 23 26  1  0  0  0  0
M  END
$$$$

  -OEChem-03222214023D

 26 25  0     1  0  0  0  0  0999 V2000
   -2.6037   -3.7063   -0.2152 H   0  0  0  0  0  0  0  0  0  0  0  0
   -2.6250   -2.6723   -0.5715 C   0  0  0  0  0  0  0  0  0  0  0  0
   -3.3654   -2.1163    0.0087 H   0  0  0  0  0  0  0  0  0  0  0  0
   -2.9184   -2.6711   -1.6239 H   0  0  0  0  0  0  0  0  0  0  0  0
   -1.2555   -2.0384   -0.4123 C   0  0  0  0  0  0  0  0  0  0  0  0
   -0.3498   -2.6775    0.0894 O   0  0  0  0  0  0  0  0  0  0  0  0
   -1.0477   -0.7395   -0.8375 N   0  0  0  0  0  0  0  0  0  0  0  0
   -1.8292   -0.2780   -1.2917 H   0  0  0  0  0  0  0  0  0  0  0  0
    0.2546   -0.0431   -0.7815 C   0  0  1  0  0  0  0  0  0  0  0  0
    0.9809   -0.6336   -1.3548 H   0  0  0  0  0  0  0  0  0  0  0  0
    0.0826    1.3472   -1.4399 C   0  0  0  0  0  0  0  0  0  0  0  0
   -0.8492    1.3805   -2.0087 H   0  0  0  0  0  0  0  0  0  0  0  0
    0.0251    2.1266   -0.6746 H   0  0  0  0  0  0  0  0  0  0  0  0
    1.2208    1.6908   -2.3951 C   0  0  0  0  0  0  0  0  0  0  0  0
    2.3896    1.5105   -2.1281 O   0  0  0  0  0  0  0  0  0  0  0  0
    0.9822    2.2078   -3.6370 N   0  0  0  0  0  0  0  0  0  0  0  0
    1.7847    2.2658   -4.2584 H   0  0  0  0  0  0  0  0  0  0  0  0
    0.0393    2.2224   -4.0081 H   0  0  0  0  0  0  0  0  0  0  0  0
    0.8334    0.0862    0.6484 C   0  0  0  0  0  0  0  0  0  0  0  0
    2.0321   -0.0292    0.8528 O   0  0  0  0  0  0  0  0  0  0  0  0
    0.0102    0.4780    1.6903 N   0  0  0  0  0  0  0  0  0  0  0  0
   -0.9875    0.4424    1.5146 H   0  0  0  0  0  0  0  0  0  0  0  0
    0.4764    0.5705    3.0685 C   0  0  0  0  0  0  0  0  0  0  0  0
    1.2992    1.2889    3.1477 H   0  0  0  0  0  0  0  0  0  0  0  0
   -0.3352    0.9039    3.7221 H   0  0  0  0  0  0  0  0  0  0  0  0
    0.8271   -0.4060    3.4190 H   0  0  0  0  0  0  0  0  0  0  0  0
  1  2  1  0  0  0  0
  2  3  1  0  0  0  0
  2  4  1  0  0  0  0
  2  5  1  0  0  0  0
  5  6  2  0  0  0  0
  5  7  1  0  0  0  0
  7  8  1  0  0  0  0
  7  9  1  0  0  0  0
  9 10  1  0  0  0  0
  9 11  1  0  0  0  0
  9 19  1  0  0  0  0
 11 12  1  0  0  0  0
 11 13  1  0  0  0  0
 11 14  1  0  0  0  0
 14 15  2  0  0  0  0
 14 16  1  0  0  0  0
 16 17  1  0  0  0  0
 16 18  1  0  0  0  0
 19 20  2  0  0  0  0
 19 21  1  0  0  0  0
 21 22  1  0  0  0  0
 21 23  1  0  0  0  0
 23 24  1  0  0  0  0
 23 25  1  0  0  0  0
 23 26  1  0  0  0  0
M  END
$$$$

  -OEChem-03222214023D

 26 25  0     1  0  0  0  0  0999 V2000
   -2.6377   -3.7405   -0.1966 H   0  0  0  0  0  0  0  0  0  0  0  0
   -2.6480   -2.7155   -0.5786 C   0  0  0  0  0  0  0  0  0  0  0  0
   -3.4247   -2.1533   -0.0550 H   0  0  0  0  0  0  0  0  0  0  0  0
   -2.8815   -2.7421   -1.6457 H   0  0  0  0  0  0  0  0  0  0  0  0
   -1.2959   -2.0629   -0.3573 C   0  0  0  0  0  0  0  0  0  0  0  0
   -0.4221   -2.6705    0.2325 O   0  0  0  0  0  0  0  0  0  0  0  0
   -1.0735   -0.7785   -0.8179 N   0  0  0  0  0  0  0  0  0  0  0  0
   -1.8137   -0.3696   -1.3793 H   0  0  0  0  0  0  0  0  0  0  0  0
    0.2397   -0.1004   -0.7870 C   0  0  1  0  0  0  0  0  0  0  0  0
    0.9506   -0.7170   -1.3519 H   0  0  0  0  0  0  0  0  0  0  0  0
    0.0870    1.2836   -1.4662 C   0  0  0  0  0  0  0  0  0  0  0  0
   -0.8473    1.3168   -2.0312 H   0  0  0  0  0  0  0  0  0  0  0  0
    0.0416    2.0741   -0.7120 H   0  0  0  0  0  0  0  0  0  0  0  0
    1.2153    1.6075   -2.4413 C   0  0  0  0  0  0  0  0  0  0  0  0
    2.3498    1.1943   -2.3256 O   0  0  0  0  0  0  0  0  0  0  0  0
    1.0111    2.4377   -3.5063 N   0  0  0  0  0  0  0  0  0  0  0  0
    1.8553    2.7475   -3.9805 H   0  0  0  0  0  0  0  0  0  0  0  0
    0.1785    3.0157   -3.5260 H   0  0  0  0  0  0  0  0  0  0  0  0
    0.8322    0.0586    0.6345 C   0  0  0  0  0  0  0  0  0  0  0  0
    2.0373   -0.0107    0.8223 O   0  0  0  0  0  0  0  0  0  0  0  0
    0.0197    0.4899    1.6690 N   0  0  0  0  0  0  0  0  0  0  0  0
   -0.9790    0.4082    1.5137 H   0  0  0  0  0  0  0  0  0  0  0  0
    0.5037    0.6400    3.0360 C   0  0  0  0  0  0  0  0  0  0  0  0
    1.3289    1.3590    3.0740 H   0  0  0  0  0  0  0  0  0  0  0  0
   -0.2989    1.0038    3.6843 H   0  0  0  0  0  0  0  0  0  0  0  0
    0.8562   -0.3214    3.4241 H   0  0  0  0  0  0  0  0  0  0  0  0
  1  2  1  0  0  0  0
  2  3  1  0  0  0  0
  2  4  1  0  0  0  0
  2  5  1  0  0  0  0
  5  6  2  0  0  0  0
  5  7  1  0  0  0  0
  7  8  1  0  0  0  0
  7  9  1  0  0  0  0
  9 10  1  0  0  0  0
  9 11  1  0  0  0  0
  9 19  1  0  0  0  0
 11 12  1  0  0  0  0
 11 13  1  0  0  0  0
 11 14  1  0  0  0  0
 14 15  2  0  0  0  0
 14 16  1  0  0  0  0
 16 17  1  0  0  0  0
 16 18  1  0  0  0  0
 19 20  2  0  0  0  0
 19 21  1  0  0  0  0
 21 22  1  0  0  0  0
 21 23  1  0  0  0  0
 23 24  1  0  0  0  0
 23 25  1  0  0  0  0
 23 26  1  0  0  0  0
M  END
$$$$

  -OEChem-03222214023D

 26 25  0     1  0  0  0  0  0999 V2000
   -2.6367   -3.7577   -0.2364 H   0  0  0  0  0  0  0  0  0  0  0  0
   -2.6524   -2.7282   -0.6057 C   0  0  0  0  0  0  0  0  0  0  0  0
   -3.4480   -2.1828   -0.0927 H   0  0  0  0  0  0  0  0  0  0  0  0
   -2.8621   -2.7447   -1.6778 H   0  0  0  0  0  0  0  0  0  0  0  0
   -1.3142   -2.0613   -0.3475 C   0  0  0  0  0  0  0  0  0  0  0  0
   -0.4540   -2.6561    0.2749 O   0  0  0  0  0  0  0  0  0  0  0  0
   -1.0899   -0.7781   -0.8102 N   0  0  0  0  0  0  0  0  0  0  0  0
   -1.8113   -0.3902   -1.4098 H   0  0  0  0  0  0  0  0  0  0  0  0
    0.2271   -0.1080   -0.7842 C   0  0  1  0  0  0  0  0  0  0  0  0
    0.9277   -0.7335   -1.3511 H   0  0  0  0  0  0  0  0  0  0  0  0
    0.0839    1.2808   -1.4576 C   0  0  0  0  0  0  0  0  0  0  0  0
   -0.8524    1.3228   -2.0190 H   0  0  0  0  0  0  0  0  0  0  0  0
    0.0440    2.0658   -0.6972 H   0  0  0  0  0  0  0  0  0  0  0  0
    1.2047    1.6140   -2.4397 C   0  0  0  0  0  0  0  0  0  0  0  0
    2.2579    1.0143   -2.5056 O   0  0  0  0  0  0  0  0  0  0  0  0
    1.0907    2.6689   -3.2994 N   0  0  0  0  0  0  0  0  0  0  0  0
    1.9533    2.9387   -3.7649 H   0  0  0  0  0  0  0  0  0  0  0  0
    0.3721    3.3631   -3.1276 H   0  0  0  0  0  0  0  0  0  0  0  0
    0.8309    0.0504    0.6320 C   0  0  0  0  0  0  0  0  0  0  0  0
    2.0409    0.0211    0.7998 O   0  0  0  0  0  0  0  0  0  0  0  0
    0.0255    0.4878    1.6694 N   0  0  0  0  0  0  0  0  0  0  0  0
   -0.9731    0.3776    1.5300 H   0  0  0  0  0  0  0  0  0  0  0  0
    0.5232    0.6671    3.0279 C   0  0  0  0  0  0  0  0  0  0  0  0
    1.3375    1.3991    3.0449 H   0  0  0  0  0  0  0  0  0  0  0  0
   -0.2775    1.0291    3.6797 H   0  0  0  0  0  0  0  0  0  0  0  0
    0.8953   -0.2826    3.4266 H   0  0  0  0  0  0  0  0  0  0  0  0
  1  2  1  0  0  0  0
  2  3  1  0  0  0  0
  2  4  1  0  0  0  0
  2  5  1  0  0  0  0
  5  6  2  0  0  0  0
  5  7  1  0  0  0  0
  7  8  1  0  0  0  0
  7  9  1  0  0  0  0
  9 10  1  0  0  0  0
  9 11  1  0  0  0  0
  9 19  1  0  0  0  0
 11 12  1  0  0  0  0
 11 13  1  0  0  0  0
 11 14  1  0  0  0  0
 14 15  2  0  0  0  0
 14 16  1  0  0  0  0
 16 17  1  0  0  0  0
 16 18  1  0  0  0  0
 19 20  2  0  0  0  0
 19 21  1  0  0  0  0
 21 22  1  0  0  0  0
 21 23  1  0  0  0  0
 23 24  1  0  0  0  0
 23 25  1  0  0  0  0
 23 26  1  0  0  0  0
M  END
$$$$

  -OEChem-03222214023D

 26 25  0     1  0  0  0  0  0999 V2000
   -2.6382   -3.7638   -0.2523 H   0  0  0  0  0  0  0  0  0  0  0  0
   -2.6532   -2.7379   -0.6319 C   0  0  0  0  0  0  0  0  0  0  0  0
   -3.4640   -2.1934   -0.1421 H   0  0  0  0  0  0  0  0  0  0  0  0
   -2.8386   -2.7661   -1.7085 H   0  0  0  0  0  0  0  0  0  0  0  0
   -1.3260   -2.0582   -0.3503 C   0  0  0  0  0  0  0  0  0  0  0  0
   -0.4729   -2.6432    0.2913 O   0  0  0  0  0  0  0  0  0  0  0  0
   -1.1054   -0.7721   -0.8072 N   0  0  0  0  0  0  0  0  0  0  0  0
   -1.8173   -0.3943   -1.4247 H   0  0  0  0  0  0  0  0  0  0  0  0
    0.2117   -0.1025   -0.7790 C   0  0  1  0  0  0  0  0  0  0  0  0
    0.9070   -0.7334   -1.3460 H   0  0  0  0  0  0  0  0  0  0  0  0
    0.0780    1.2902   -1.4469 C   0  0  0  0  0  0  0  0  0  0  0  0
   -0.8561    1.3409   -2.0111 H   0  0  0  0  0  0  0  0  0  0  0  0
    0.0388    2.0692   -0.6803 H   0  0  0  0  0  0  0  0  0  0  0  0
    1.2006    1.6285   -2.4261 C   0  0  0  0  0  0  0  0  0  0  0  0
    2.1319    0.8932   -2.6846 O   0  0  0  0  0  0  0  0  0  0  0  0
    1.2200    2.8287   -3.0764 N   0  0  0  0  0  0  0  0  0  0  0  0
    2.0933    3.0461   -3.5490 H   0  0  0  0  0  0  0  0  0  0  0  0
    0.6378    3.5805   -2.7246 H   0  0  0  0  0  0  0  0  0  0  0  0
    0.8244    0.0520    0.6327 C   0  0  0  0  0  0  0  0  0  0  0  0
    2.0379    0.0631    0.7792 O   0  0  0  0  0  0  0  0  0  0  0  0
    0.0268    0.4854    1.6778 N   0  0  0  0  0  0  0  0  0  0  0  0
   -0.9712    0.3501    1.5556 H   0  0  0  0  0  0  0  0  0  0  0  0
    0.5415    0.6797    3.0280 C   0  0  0  0  0  0  0  0  0  0  0  0
    1.3438    1.4253    3.0296 H   0  0  0  0  0  0  0  0  0  0  0  0
   -0.2553    1.0316    3.6899 H   0  0  0  0  0  0  0  0  0  0  0  0
    0.9348   -0.2619    3.4258 H   0  0  0  0  0  0  0  0  0  0  0  0
  1  2  1  0  0  0  0
  2  3  1  0  0  0  0
  2  4  1  0  0  0  0
  2  5  1  0  0  0  0
  5  6  2  0  0  0  0
  5  7  1  0  0  0  0
  7  8  1  0  0  0  0
  7  9  1  0  0  0  0
  9 10  1  0  0  0  0
  9 11  1  0  0  0  0
  9 19  1  0  0  0  0
 11 12  1  0  0  0  0
 11 13  1  0  0  0  0
 11 14  1  0  0  0  0
 14 15  2  0  0  0  0
 14 16  1  0  0  0  0
 16 17  1  0  0  0  0
 16 18  1  0  0  0  0
 19 20  2  0  0  0  0
 19 21  1  0  0  0  0
 21 22  1  0  0  0  0
 21 23  1  0  0  0  0
 23 24  1  0  0  0  0
 23 25  1  0  0  0  0
 23 26  1  0  0  0  0
M  END
$$$$

  -OEChem-03222214023D

 26 25  0     1  0  0  0  0  0999 V2000
   -2.6212   -3.7808   -0.2975 H   0  0  0  0  0  0  0  0  0  0  0  0
   -2.6490   -2.7481   -0.6570 C   0  0  0  0  0  0  0  0  0  0  0  0
   -3.4735   -2.2262   -0.1653 H   0  0  0  0  0  0  0  0  0  0  0  0
   -2.8226   -2.7579   -1.7358 H   0  0  0  0  0  0  0  0  0  0  0  0
   -1.3360   -2.0532   -0.3480 C   0  0  0  0  0  0  0  0  0  0  0  0
   -0.4913   -2.6257    0.3158 O   0  0  0  0  0  0  0  0  0  0  0  0
   -1.1210   -0.7653   -0.8020 N   0  0  0  0  0  0  0  0  0  0  0  0
   -1.8203   -0.4042   -1.4435 H   0  0  0  0  0  0  0  0  0  0  0  0
    0.1955   -0.0959   -0.7760 C   0  0  1  0  0  0  0  0  0  0  0  0
    0.8871   -0.7271   -1.3466 H   0  0  0  0  0  0  0  0  0  0  0  0
    0.0635    1.3000   -1.4369 C   0  0  0  0  0  0  0  0  0  0  0  0
   -0.8710    1.3580   -1.9998 H   0  0  0  0  0  0  0  0  0  0  0  0
    0.0262    2.0743   -0.6657 H   0  0  0  0  0  0  0  0  0  0  0  0
    1.1860    1.6369   -2.4167 C   0  0  0  0  0  0  0  0  0  0  0  0
    1.9585    0.8184   -2.8748 O   0  0  0  0  0  0  0  0  0  0  0  0
    1.3942    2.9211   -2.8308 N   0  0  0  0  0  0  0  0  0  0  0  0
    2.2787    3.0767   -3.3070 H   0  0  0  0  0  0  0  0  0  0  0  0
    0.9754    3.6733   -2.2952 H   0  0  0  0  0  0  0  0  0  0  0  0
    0.8195    0.0572    0.6305 C   0  0  0  0  0  0  0  0  0  0  0  0
    2.0350    0.0969    0.7564 O   0  0  0  0  0  0  0  0  0  0  0  0
    0.0302    0.4884    1.6825 N   0  0  0  0  0  0  0  0  0  0  0  0
   -0.9668    0.3335    1.5743 H   0  0  0  0  0  0  0  0  0  0  0  0
    0.5582    0.6965    3.0256 C   0  0  0  0  0  0  0  0  0  0  0  0
    1.3528    1.4501    3.0142 H   0  0  0  0  0  0  0  0  0  0  0  0
   -0.2348    1.0447    3.6941 H   0  0  0  0  0  0  0  0  0  0  0  0
    0.9656   -0.2385    3.4248 H   0  0  0  0  0  0  0  0  0  0  0  0
  1  2  1  0  0  0  0
  2  3  1  0  0  0  0
  2  4  1  0  0  0  0
  2  5  1  0  0  0  0
  5  6  2  0  0  0  0
  5  7  1  0  0  0  0
  7  8  1  0  0  0  0
  7  9  1  0  0  0  0
  9 10  1  0  0  0  0
  9 11  1  0  0  0  0
  9 19  1  0  0  0  0
 11 12  1  0  0  0  0
 11 13  1  0  0  0  0
 11 14  1  0  0  0  0
 14 15  2  0  0  0  0
 14 16  1  0  0  0  0
 16 17  1  0  0  0  0
 16 18  1  0  0  0  0
 19 20  2  0  0  0  0
 19 21  1  0  0  0  0
 21 22  1  0  0  0  0
 21 23  1  0  0  0  0
 23 24  1  0  0  0  0
 23 25  1  0  0  0  0
 23 26  1  0  0  0  0
M  END
$$$$

  -OEChem-03222214023D

 26 25  0     1  0  0  0  0  0999 V2000
   -2.6208   -3.7783   -0.2854 H   0  0  0  0  0  0  0  0  0  0  0  0
   -2.6419   -2.7570   -0.6765 C   0  0  0  0  0  0  0  0  0  0  0  0
   -3.4794   -2.2231   -0.2212 H   0  0  0  0  0  0  0  0  0  0  0  0
   -2.7891   -2.7998   -1.7583 H   0  0  0  0  0  0  0  0  0  0  0  0
   -1.3379   -2.0494   -0.3573 C   0  0  0  0  0  0  0  0  0  0  0  0
   -0.4898   -2.6158    0.3080 O   0  0  0  0  0  0  0  0  0  0  0  0
   -1.1335   -0.7569   -0.8025 N   0  0  0  0  0  0  0  0  0  0  0  0
   -1.8310   -0.4018   -1.4499 H   0  0  0  0  0  0  0  0  0  0  0  0
    0.1789   -0.0803   -0.7758 C   0  0  1  0  0  0  0  0  0  0  0  0
    0.8715   -0.7046   -1.3535 H   0  0  0  0  0  0  0  0  0  0  0  0
    0.0427    1.3184   -1.4262 C   0  0  0  0  0  0  0  0  0  0  0  0
   -0.8895    1.3795   -1.9928 H   0  0  0  0  0  0  0  0  0  0  0  0
    0.0025    2.0889   -0.6514 H   0  0  0  0  0  0  0  0  0  0  0  0
    1.1704    1.6478   -2.4005 C   0  0  0  0  0  0  0  0  0  0  0  0
    1.7597    0.8053   -3.0494 O   0  0  0  0  0  0  0  0  0  0  0  0
    1.6027    2.9307   -2.5759 N   0  0  0  0  0  0  0  0  0  0  0  0
    2.4887    3.0166   -3.0665 H   0  0  0  0  0  0  0  0  0  0  0  0
    1.3557    3.6177   -1.8719 H   0  0  0  0  0  0  0  0  0  0  0  0
    0.8133    0.0692    0.6253 C   0  0  0  0  0  0  0  0  0  0  0  0
    2.0297    0.1397    0.7320 O   0  0  0  0  0  0  0  0  0  0  0  0
    0.0305    0.4895    1.6862 N   0  0  0  0  0  0  0  0  0  0  0  0
   -0.9646    0.3136    1.5917 H   0  0  0  0  0  0  0  0  0  0  0  0
    0.5720    0.7078    3.0221 C   0  0  0  0  0  0  0  0  0  0  0  0
    1.3467    1.4815    3.0014 H   0  0  0  0  0  0  0  0  0  0  0  0
   -0.2203    1.0336    3.7026 H   0  0  0  0  0  0  0  0  0  0  0  0
    1.0088   -0.2172    3.4132 H   0  0  0  0  0  0  0  0  0  0  0  0
  1  2  1  0  0  0  0
  2  3  1  0  0  0  0
  2  4  1  0  0  0  0
  2  5  1  0  0  0  0
  5  6  2  0  0  0  0
  5  7  1  0  0  0  0
  7  8  1  0  0  0  0
  7  9  1  0  0  0  0
  9 10  1  0  0  0  0
  9 11  1  0  0  0  0
  9 19  1  0  0  0  0
 11 12  1  0  0  0  0
 11 13  1  0  0  0  0
 11 14  1  0  0  0  0
 14 15  2  0  0  0  0
 14 16  1  0  0  0  0
 16 17  1  0  0  0  0
 16 18  1  0  0  0  0
 19 20  2  0  0  0  0
 19 21  1  0  0  0  0
 21 22  1  0  0  0  0
 21 23  1  0  0  0  0
 23 24  1  0  0  0  0
 23 25  1  0  0  0  0
 23 26  1  0  0  0  0
M  END
$$$$

  -OEChem-03222214023D

 26 25  0     1  0  0  0  0  0999 V2000
   -2.5894   -3.7879   -0.2889 H   0  0  0  0  0  0  0  0  0  0  0  0
   -2.6217   -2.7710   -0.6905 C   0  0  0  0  0  0  0  0  0  0  0  0
   -3.4693   -2.2442   -0.2458 H   0  0  0  0  0  0  0  0  0  0  0  0
   -2.7616   -2.8265   -1.7728 H   0  0  0  0  0  0  0  0  0  0  0  0
   -1.3298   -2.0421   -0.3707 C   0  0  0  0  0  0  0  0  0  0  0  0
   -0.4697   -2.5963    0.2897 O   0  0  0  0  0  0  0  0  0  0  0  0
   -1.1501   -0.7426   -0.8060 N   0  0  0  0  0  0  0  0  0  0  0  0
   -1.8535   -0.3973   -1.4523 H   0  0  0  0  0  0  0  0  0  0  0  0
    0.1523   -0.0477   -0.7833 C   0  0  1  0  0  0  0  0  0  0  0  0
    0.8477   -0.6576   -1.3734 H   0  0  0  0  0  0  0  0  0  0  0  0
    0.0018    1.3517   -1.4237 C   0  0  0  0  0  0  0  0  0  0  0  0
   -0.9283    1.4089   -1.9939 H   0  0  0  0  0  0  0  0  0  0  0  0
   -0.0450    2.1226   -0.6495 H   0  0  0  0  0  0  0  0  0  0  0  0
    1.1355    1.6682   -2.3920 C   0  0  0  0  0  0  0  0  0  0  0  0
    1.5306    0.8643   -3.2148 O   0  0  0  0  0  0  0  0  0  0  0  0
    1.8469    2.8298   -2.3053 N   0  0  0  0  0  0  0  0  0  0  0  0
    2.7315    2.8182   -2.8055 H   0  0  0  0  0  0  0  0  0  0  0  0
    1.7788    3.3569   -1.4410 H   0  0  0  0  0  0  0  0  0  0  0  0
    0.8021    0.1019    0.6098 C   0  0  0  0  0  0  0  0  0  0  0  0
    2.0182    0.2085    0.6931 O   0  0  0  0  0  0  0  0  0  0  0  0
    0.0279    0.5029    1.6840 N   0  0  0  0  0  0  0  0  0  0  0  0
   -0.9650    0.3075    1.6041 H   0  0  0  0  0  0  0  0  0  0  0  0
    0.5856    0.7222    3.0129 C   0  0  0  0  0  0  0  0  0  0  0  0
    1.3360    1.5193    2.9879 H   0  0  0  0  0  0  0  0  0  0  0  0
   -0.2042    1.0157    3.7107 H   0  0  0  0  0  0  0  0  0  0  0  0
    1.0564   -0.1936    3.3856 H   0  0  0  0  0  0  0  0  0  0  0  0
  1  2  1  0  0  0  0
  2  3  1  0  0  0  0
  2  4  1  0  0  0  0
  2  5  1  0  0  0  0
  5  6  2  0  0  0  0
  5  7  1  0  0  0  0
  7  8  1  0  0  0  0
  7  9  1  0  0  0  0
  9 10  1  0  0  0  0
  9 11  1  0  0  0  0
  9 19  1  0  0  0  0
 11 12  1  0  0  0  0
 11 13  1  0  0  0  0
 11 14  1  0  0  0  0
 14 15  2  0  0  0  0
 14 16  1  0  0  0  0
 16 17  1  0  0  0  0
 16 18  1  0  0  0  0
 19 20  2  0  0  0  0
 19 21  1  0  0  0  0
 21 22  1  0  0  0  0
 21 23  1  0  0  0  0
 23 24  1  0  0  0  0
 23 25  1  0  0  0  0
 23 26  1  0  0  0  0
M  END
$$$$

  -OEChem-03222214023D

 26 25  0     1  0  0  0  0  0999 V2000
   -2.5233   -3.8123   -0.3500 H   0  0  0  0  0  0  0  0  0  0  0  0
   -2.5886   -2.7843   -0.7181 C   0  0  0  0  0  0  0  0  0  0  0  0
   -3.4424   -2.2942   -0.2442 H   0  0  0  0  0  0  0  0  0  0  0  0
   -2.7443   -2.8093   -1.7995 H   0  0  0  0  0  0  0  0  0  0  0  0
   -1.3115   -2.0317   -0.3943 C   0  0  0  0  0  0  0  0  0  0  0  0
   -0.4340   -2.5754    0.2522 O   0  0  0  0  0  0  0  0  0  0  0  0
   -1.1623   -0.7228   -0.8116 N   0  0  0  0  0  0  0  0  0  0  0  0
   -1.8775   -0.3815   -1.4475 H   0  0  0  0  0  0  0  0  0  0  0  0
    0.1262   -0.0042   -0.7885 C   0  0  1  0  0  0  0  0  0  0  0  0
    0.8250   -0.5941   -1.3957 H   0  0  0  0  0  0  0  0  0  0  0  0
   -0.0414    1.3980   -1.4105 C   0  0  0  0  0  0  0  0  0  0  0  0
   -0.9693    1.4518   -1.9851 H   0  0  0  0  0  0  0  0  0  0  0  0
   -0.0946    2.1674   -0.6348 H   0  0  0  0  0  0  0  0  0  0  0  0
    1.1002    1.7052   -2.3682 C   0  0  0  0  0  0  0  0  0  0  0  0
    1.3104    1.0132   -3.3462 O   0  0  0  0  0  0  0  0  0  0  0  0
    2.0791    2.5991   -2.0463 N   0  0  0  0  0  0  0  0  0  0  0  0
    2.9359    2.4820   -2.5799 H   0  0  0  0  0  0  0  0  0  0  0  0
    2.1535    2.8573   -1.0666 H   0  0  0  0  0  0  0  0  0  0  0  0
    0.7923    0.1419    0.5966 C   0  0  0  0  0  0  0  0  0  0  0  0
    2.0044    0.3028    0.6535 O   0  0  0  0  0  0  0  0  0  0  0  0
    0.0258    0.5144    1.6860 N   0  0  0  0  0  0  0  0  0  0  0  0
   -0.9618    0.2865    1.6240 H   0  0  0  0  0  0  0  0  0  0  0  0
    0.5992    0.7553    3.0045 C   0  0  0  0  0  0  0  0  0  0  0  0
    1.3373    1.5633    2.9616 H   0  0  0  0  0  0  0  0  0  0  0  0
   -0.1849    1.0443    3.7107 H   0  0  0  0  0  0  0  0  0  0  0  0
    1.0890   -0.1498    3.3789 H   0  0  0  0  0  0  0  0  0  0  0  0
  1  2  1  0  0  0  0
  2  3  1  0  0  0  0
  2  4  1  0  0  0  0
  2  5  1  0  0  0  0
  5  6  2  0  0  0  0
  5  7  1  0  0  0  0
  7  8  1  0  0  0  0
  7  9  1  0  0  0  0
  9 10  1  0  0  0  0
  9 11  1  0  0  0  0
  9 19  1  0  0  0  0
 11 12  1  0  0  0  0
 11 13  1  0  0  0  0
 11 14  1  0  0  0  0
 14 15  2  0  0  0  0
 14 16  1  0  0  0  0
 16 17  1  0  0  0  0
 16 18  1  0  0  0  0
 19 20  2  0  0  0  0
 19 21  1  0  0  0  0
 21 22  1  0  0  0  0
 21 23  1  0  0  0  0
 23 24  1  0  0  0  0
 23 25  1  0  0  0  0
 23 26  1  0  0  0  0
M  END
$$$$

  -OEChem-03222214023D

 26 25  0     1  0  0  0  0  0999 V2000
   -2.4958   -3.8082   -0.3751 H   0  0  0  0  0  0  0  0  0  0  0  0
   -2.5663   -2.7805   -0.7433 C   0  0  0  0  0  0  0  0  0  0  0  0
   -3.4234   -2.2953   -0.2702 H   0  0  0  0  0  0  0  0  0  0  0  0
   -2.7209   -2.8063   -1.8248 H   0  0  0  0  0  0  0  0  0  0  0  0
   -1.2935   -2.0207   -0.4185 C   0  0  0  0  0  0  0  0  0  0  0  0
   -0.4039   -2.5654    0.2108 O   0  0  0  0  0  0  0  0  0  0  0  0
   -1.1585   -0.7042   -0.8160 N   0  0  0  0  0  0  0  0  0  0  0  0
   -1.8803   -0.3574   -1.4417 H   0  0  0  0  0  0  0  0  0  0  0  0
    0.1213    0.0279   -0.7810 C   0  0  1  0  0  0  0  0  0  0  0  0
    0.8239   -0.5497   -1.3962 H   0  0  0  0  0  0  0  0  0  0  0  0
   -0.0490    1.4324   -1.3916 C   0  0  0  0  0  0  0  0  0  0  0  0
   -0.9719    1.4890   -1.9744 H   0  0  0  0  0  0  0  0  0  0  0  0
   -0.1054    2.2004   -0.6145 H   0  0  0  0  0  0  0  0  0  0  0  0
    1.1070    1.7312   -2.3317 C   0  0  0  0  0  0  0  0  0  0  0  0
    1.1678    1.2184   -3.4328 O   0  0  0  0  0  0  0  0  0  0  0  0
    2.2536    2.3112   -1.8750 N   0  0  0  0  0  0  0  0  0  0  0  0
    3.0590    2.1543   -2.4736 H   0  0  0  0  0  0  0  0  0  0  0  0
    2.3964    2.2776   -0.8668 H   0  0  0  0  0  0  0  0  0  0  0  0
    0.7914    0.1653    0.6030 C   0  0  0  0  0  0  0  0  0  0  0  0
    1.9994    0.3646    0.6484 O   0  0  0  0  0  0  0  0  0  0  0  0
    0.0259    0.5151    1.7002 N   0  0  0  0  0  0  0  0  0  0  0  0
   -0.9588    0.2737    1.6435 H   0  0  0  0  0  0  0  0  0  0  0  0
    0.6022    0.7738    3.0142 C   0  0  0  0  0  0  0  0  0  0  0  0
    1.3000    1.6166    2.9693 H   0  0  0  0  0  0  0  0  0  0  0  0
   -0.1870    1.0198    3.7310 H   0  0  0  0  0  0  0  0  0  0  0  0
    1.1385   -0.1093    3.3771 H   0  0  0  0  0  0  0  0  0  0  0  0
  1  2  1  0  0  0  0
  2  3  1  0  0  0  0
  2  4  1  0  0  0  0
  2  5  1  0  0  0  0
  5  6  2  0  0  0  0
  5  7  1  0  0  0  0
  7  8  1  0  0  0  0
  7  9  1  0  0  0  0
  9 10  1  0  0  0  0
  9 11  1  0  0  0  0
  9 19  1  0  0  0  0
 11 12  1  0  0  0  0
 11 13  1  0  0  0  0
 11 14  1  0  0  0  0
 14 15  2  0  0  0  0
 14 16  1  0  0  0  0
 16 17  1  0  0  0  0
 16 18  1  0  0  0  0
 19 20  2  0  0  0  0
 19 21  1  0  0  0  0
 21 22  1  0  0  0  0
 21 23  1  0  0  0  0
 23 24  1  0  0  0  0
 23 25  1  0  0  0  0
 23 26  1  0  0  0  0
M  END
$$$$

  -OEChem-03222214023D

 26 25  0     1  0  0  0  0  0999 V2000
   -2.5060   -3.7964   -0.3816 H   0  0  0  0  0  0  0  0  0  0  0  0
   -2.5694   -2.7673   -0.7471 C   0  0  0  0  0  0  0  0  0  0  0  0
   -3.4196   -2.2755   -0.2685 H   0  0  0  0  0  0  0  0  0  0  0  0
   -2.7296   -2.7888   -1.8279 H   0  0  0  0  0  0  0  0  0  0  0  0
   -1.2888   -2.0193   -0.4269 C   0  0  0  0  0  0  0  0  0  0  0  0
   -0.3951   -2.5762    0.1857 O   0  0  0  0  0  0  0  0  0  0  0  0
   -1.1461   -0.7014   -0.8168 N   0  0  0  0  0  0  0  0  0  0  0  0
   -1.8741   -0.3366   -1.4250 H   0  0  0  0  0  0  0  0  0  0  0  0
    0.1350    0.0268   -0.7669 C   0  0  1  0  0  0  0  0  0  0  0  0
    0.8388   -0.5562   -1.3753 H   0  0  0  0  0  0  0  0  0  0  0  0
   -0.0195    1.4278   -1.3881 C   0  0  0  0  0  0  0  0  0  0  0  0
   -0.9345    1.4868   -1.9836 H   0  0  0  0  0  0  0  0  0  0  0  0
   -0.0800    2.2009   -0.6166 H   0  0  0  0  0  0  0  0  0  0  0  0
    1.1547    1.7118   -2.3099 C   0  0  0  0  0  0  0  0  0  0  0  0
    1.1122    1.4189   -3.4893 O   0  0  0  0  0  0  0  0  0  0  0  0
    2.3724    2.0716   -1.8110 N   0  0  0  0  0  0  0  0  0  0  0  0
    3.1458    1.9327   -2.4542 H   0  0  0  0  0  0  0  0  0  0  0  0
    2.5273    1.8752   -0.8208 H   0  0  0  0  0  0  0  0  0  0  0  0
    0.7959    0.1581    0.6217 C   0  0  0  0  0  0  0  0  0  0  0  0
    2.0063    0.3436    0.6735 O   0  0  0  0  0  0  0  0  0  0  0  0
    0.0267    0.5060    1.7165 N   0  0  0  0  0  0  0  0  0  0  0  0
   -0.9619    0.2831    1.6514 H   0  0  0  0  0  0  0  0  0  0  0  0
    0.5965    0.7631    3.0335 C   0  0  0  0  0  0  0  0  0  0  0  0
    1.2924    1.6076    2.9928 H   0  0  0  0  0  0  0  0  0  0  0  0
   -0.1966    1.0058    3.7471 H   0  0  0  0  0  0  0  0  0  0  0  0
    1.1334   -0.1194    3.3972 H   0  0  0  0  0  0  0  0  0  0  0  0
  1  2  1  0  0  0  0
  2  3  1  0  0  0  0
  2  4  1  0  0  0  0
  2  5  1  0  0  0  0
  5  6  2  0  0  0  0
  5  7  1  0  0  0  0
  7  8  1  0  0  0  0
  7  9  1  0  0  0  0
  9 10  1  0  0  0  0
  9 11  1  0  0  0  0
  9 19  1  0  0  0  0
 11 12  1  0  0  0  0
 11 13  1  0  0  0  0
 11 14  1  0  0  0  0
 14 15  2  0  0  0  0
 14 16  1  0  0  0  0
 16 17  1  0  0  0  0
 16 18  1  0  0  0  0
 19 20  2  0  0  0  0
 19 21  1  0  0  0  0
 21 22  1  0  0  0  0
 21 23  1  0  0  0  0
 23 24  1  0  0  0  0
 23 25  1  0  0  0  0
 23 26  1  0  0  0  0
M  END
$$$$

  -OEChem-03222214023D

 26 25  0     1  0  0  0  0  0999 V2000
   -2.5304   -3.7910   -0.3933 H   0  0  0  0  0  0  0  0  0  0  0  0
   -2.5942   -2.7509   -0.7258 C   0  0  0  0  0  0  0  0  0  0  0  0
   -3.4217   -2.2646   -0.2038 H   0  0  0  0  0  0  0  0  0  0  0  0
   -2.7916   -2.7384   -1.8005 H   0  0  0  0  0  0  0  0  0  0  0  0
   -1.2941   -2.0274   -0.4279 C   0  0  0  0  0  0  0  0  0  0  0  0
   -0.4014   -2.6002    0.1712 O   0  0  0  0  0  0  0  0  0  0  0  0
   -1.1302   -0.7135   -0.8226 N   0  0  0  0  0  0  0  0  0  0  0  0
   -1.8624   -0.3274   -1.4126 H   0  0  0  0  0  0  0  0  0  0  0  0
    0.1572    0.0022   -0.7607 C   0  0  1  0  0  0  0  0  0  0  0  0
    0.8627   -0.5933   -1.3546 H   0  0  0  0  0  0  0  0  0  0  0  0
    0.0207    1.3959   -1.4025 C   0  0  0  0  0  0  0  0  0  0  0  0
   -0.8877    1.4524   -2.0086 H   0  0  0  0  0  0  0  0  0  0  0  0
   -0.0438    2.1775   -0.6399 H   0  0  0  0  0  0  0  0  0  0  0  0
    1.2077    1.6686   -2.3124 C   0  0  0  0  0  0  0  0  0  0  0  0
    1.1002    1.6200   -3.5226 O   0  0  0  0  0  0  0  0  0  0  0  0
    2.4587    1.8689   -1.8051 N   0  0  0  0  0  0  0  0  0  0  0  0
    3.2157    1.7936   -2.4773 H   0  0  0  0  0  0  0  0  0  0  0  0
    2.6213    1.5686   -0.8411 H   0  0  0  0  0  0  0  0  0  0  0  0
    0.8021    0.1355    0.6348 C   0  0  0  0  0  0  0  0  0  0  0  0
    2.0172    0.2808    0.7010 O   0  0  0  0  0  0  0  0  0  0  0  0
    0.0273    0.4979    1.7206 N   0  0  0  0  0  0  0  0  0  0  0  0
   -0.9666    0.3065    1.6410 H   0  0  0  0  0  0  0  0  0  0  0  0
    0.5866    0.7359    3.0458 C   0  0  0  0  0  0  0  0  0  0  0  0
    1.3246    1.5444    3.0131 H   0  0  0  0  0  0  0  0  0  0  0  0
   -0.2054    1.0229    3.7442 H   0  0  0  0  0  0  0  0  0  0  0  0
    1.0727   -0.1698    3.4235 H   0  0  0  0  0  0  0  0  0  0  0  0
  1  2  1  0  0  0  0
  2  3  1  0  0  0  0
  2  4  1  0  0  0  0
  2  5  1  0  0  0  0
  5  6  2  0  0  0  0
  5  7  1  0  0  0  0
  7  8  1  0  0  0  0
  7  9  1  0  0  0  0
  9 10  1  0  0  0  0
  9 11  1  0  0  0  0
  9 19  1  0  0  0  0
 11 12  1  0  0  0  0
 11 13  1  0  0  0  0
 11 14  1  0  0  0  0
 14 15  2  0  0  0  0
 14 16  1  0  0  0  0
 16 17  1  0  0  0  0
 16 18  1  0  0  0  0
 19 20  2  0  0  0  0
 19 21  1  0  0  0  0
 21 22  1  0  0  0  0
 21 23  1  0  0  0  0
 23 24  1  0  0  0  0
 23 25  1  0  0  0  0
 23 26  1  0  0  0  0
M  END
$$$$

  -OEChem-03222214023D

 26 25  0     1  0  0  0  0  0999 V2000
   -2.5772   -3.7796   -0.3767 H   0  0  0  0  0  0  0  0  0  0  0  0
   -2.6265   -2.7384   -0.7084 C   0  0  0  0  0  0  0  0  0  0  0  0
   -3.4376   -2.2372   -0.1749 H   0  0  0  0  0  0  0  0  0  0  0  0
   -2.8386   -2.7223   -1.7803 H   0  0  0  0  0  0  0  0  0  0  0  0
   -1.3098   -2.0385   -0.4274 C   0  0  0  0  0  0  0  0  0  0  0  0
   -0.4193   -2.6277    0.1588 O   0  0  0  0  0  0  0  0  0  0  0  0
   -1.1259   -0.7287   -0.8267 N   0  0  0  0  0  0  0  0  0  0  0  0
   -1.8610   -0.3240   -1.4003 H   0  0  0  0  0  0  0  0  0  0  0  0
    0.1692   -0.0275   -0.7590 C   0  0  1  0  0  0  0  0  0  0  0  0
    0.8707   -0.6373   -1.3426 H   0  0  0  0  0  0  0  0  0  0  0  0
    0.0495    1.3589   -1.4221 C   0  0  0  0  0  0  0  0  0  0  0  0
   -0.8545    1.4130   -2.0350 H   0  0  0  0  0  0  0  0  0  0  0  0
   -0.0156    2.1490   -0.6686 H   0  0  0  0  0  0  0  0  0  0  0  0
    1.2441    1.6205   -2.3272 C   0  0  0  0  0  0  0  0  0  0  0  0
    1.1015    1.8254   -3.5171 O   0  0  0  0  0  0  0  0  0  0  0  0
    2.5173    1.6587   -1.8354 N   0  0  0  0  0  0  0  0  0  0  0  0
    3.2655    1.6596   -2.5215 H   0  0  0  0  0  0  0  0  0  0  0  0
    2.6844    1.2770   -0.9010 H   0  0  0  0  0  0  0  0  0  0  0  0
    0.8072    0.1066    0.6395 C   0  0  0  0  0  0  0  0  0  0  0  0
    2.0266    0.2035    0.7139 O   0  0  0  0  0  0  0  0  0  0  0  0
    0.0350    0.4843    1.7220 N   0  0  0  0  0  0  0  0  0  0  0  0
   -0.9653    0.3353    1.6328 H   0  0  0  0  0  0  0  0  0  0  0  0
    0.5916    0.7132    3.0497 C   0  0  0  0  0  0  0  0  0  0  0  0
    1.3449    1.5075    3.0190 H   0  0  0  0  0  0  0  0  0  0  0  0
   -0.1981    1.0161    3.7437 H   0  0  0  0  0  0  0  0  0  0  0  0
    1.0584   -0.2009    3.4313 H   0  0  0  0  0  0  0  0  0  0  0  0
  1  2  1  0  0  0  0
  2  3  1  0  0  0  0
  2  4  1  0  0  0  0
  2  5  1  0  0  0  0
  5  6  2  0  0  0  0
  5  7  1  0  0  0  0
  7  8  1  0  0  0  0
  7  9  1  0  0  0  0
  9 10  1  0  0  0  0
  9 11  1  0  0  0  0
  9 19  1  0  0  0  0
 11 12  1  0  0  0  0
 11 13  1  0  0  0  0
 11 14  1  0  0  0  0
 14 15  2  0  0  0  0
 14 16  1  0  0  0  0
 16 17  1  0  0  0  0
 16 18  1  0  0  0  0
 19 20  2  0  0  0  0
 19 21  1  0  0  0  0
 21 22  1  0  0  0  0
 21 23  1  0  0  0  0
 23 24  1  0  0  0  0
 23 25  1  0  0  0  0
 23 26  1  0  0  0  0
M  END
$$$$

  -OEChem-03222214023D

 26 25  0     1  0  0  0  0  0999 V2000
   -2.6294   -3.7711   -0.3524 H   0  0  0  0  0  0  0  0  0  0  0  0
   -2.6662   -2.7291   -0.6835 C   0  0  0  0  0  0  0  0  0  0  0  0
   -3.4615   -2.2147   -0.1388 H   0  0  0  0  0  0  0  0  0  0  0  0
   -2.8931   -2.7092   -1.7522 H   0  0  0  0  0  0  0  0  0  0  0  0
   -1.3342   -2.0513   -0.4218 C   0  0  0  0  0  0  0  0  0  0  0  0
   -0.4470   -2.6533    0.1563 O   0  0  0  0  0  0  0  0  0  0  0  0
   -1.1312   -0.7470   -0.8304 N   0  0  0  0  0  0  0  0  0  0  0  0
   -1.8686   -0.3270   -1.3900 H   0  0  0  0  0  0  0  0  0  0  0  0
    0.1733   -0.0627   -0.7668 C   0  0  1  0  0  0  0  0  0  0  0  0
    0.8661   -0.6878   -1.3446 H   0  0  0  0  0  0  0  0  0  0  0  0
    0.0700    1.3188   -1.4450 C   0  0  0  0  0  0  0  0  0  0  0  0
   -0.8348    1.3765   -2.0562 H   0  0  0  0  0  0  0  0  0  0  0  0
    0.0143    2.1143   -0.6966 H   0  0  0  0  0  0  0  0  0  0  0  0
    1.2629    1.5733   -2.3561 C   0  0  0  0  0  0  0  0  0  0  0  0
    1.1136    2.0332   -3.4717 O   0  0  0  0  0  0  0  0  0  0  0  0
    2.5473    1.4119   -1.9204 N   0  0  0  0  0  0  0  0  0  0  0  0
    3.3027    1.5845   -2.5760 H   0  0  0  0  0  0  0  0  0  0  0  0
    2.7273    1.0075   -0.9979 H   0  0  0  0  0  0  0  0  0  0  0  0
    0.8112    0.0729    0.6316 C   0  0  0  0  0  0  0  0  0  0  0  0
    2.0323    0.1364    0.7099 O   0  0  0  0  0  0  0  0  0  0  0  0
    0.0437    0.4688    1.7107 N   0  0  0  0  0  0  0  0  0  0  0  0
   -0.9597    0.3444    1.6187 H   0  0  0  0  0  0  0  0  0  0  0  0
    0.6017    0.6953    3.0383 C   0  0  0  0  0  0  0  0  0  0  0  0
    1.3707    1.4743    3.0046 H   0  0  0  0  0  0  0  0  0  0  0  0
   -0.1837    1.0184    3.7282 H   0  0  0  0  0  0  0  0  0  0  0  0
    1.0496   -0.2254    3.4270 H   0  0  0  0  0  0  0  0  0  0  0  0
  1  2  1  0  0  0  0
  2  3  1  0  0  0  0
  2  4  1  0  0  0  0
  2  5  1  0  0  0  0
  5  6  2  0  0  0  0
  5  7  1  0  0  0  0
  7  8  1  0  0  0  0
  7  9  1  0  0  0  0
  9 10  1  0  0  0  0
  9 11  1  0  0  0  0
  9 19  1  0  0  0  0
 11 12  1  0  0  0  0
 11 13  1  0  0  0  0
 11 14  1  0  0  0  0
 14 15  2  0  0  0  0
 14 16  1  0  0  0  0
 16 17  1  0  0  0  0
 16 18  1  0  0  0  0
 19 20  2  0  0  0  0
 19 21  1  0  0  0  0
 21 22  1  0  0  0  0
 21 23  1  0  0  0  0
 23 24  1  0  0  0  0
 23 25  1  0  0  0  0
 23 26  1  0  0  0  0
M  END
$$$$

  -OEChem-03222214023D

 26 25  0     1  0  0  0  0  0999 V2000
   -2.6991   -3.7565   -0.3088 H   0  0  0  0  0  0  0  0  0  0  0  0
   -2.7149   -2.7221   -0.6638 C   0  0  0  0  0  0  0  0  0  0  0  0
   -3.5013   -2.1801   -0.1333 H   0  0  0  0  0  0  0  0  0  0  0  0
   -2.9391   -2.7223   -1.7333 H   0  0  0  0  0  0  0  0  0  0  0  0
   -1.3703   -2.0648   -0.4148 C   0  0  0  0  0  0  0  0  0  0  0  0
   -0.4878   -2.6783    0.1584 O   0  0  0  0  0  0  0  0  0  0  0  0
   -1.1496   -0.7666   -0.8327 N   0  0  0  0  0  0  0  0  0  0  0  0
   -1.8897   -0.3317   -1.3771 H   0  0  0  0  0  0  0  0  0  0  0  0
    0.1646   -0.1010   -0.7797 C   0  0  1  0  0  0  0  0  0  0  0  0
    0.8411   -0.7456   -1.3549 H   0  0  0  0  0  0  0  0  0  0  0  0
    0.0825    1.2762   -1.4709 C   0  0  0  0  0  0  0  0  0  0  0  0
   -0.8229    1.3390   -2.0804 H   0  0  0  0  0  0  0  0  0  0  0  0
    0.0368    2.0770   -0.7274 H   0  0  0  0  0  0  0  0  0  0  0  0
    1.2713    1.5212   -2.3920 C   0  0  0  0  0  0  0  0  0  0  0  0
    1.1569    2.2171   -3.3823 O   0  0  0  0  0  0  0  0  0  0  0  0
    2.5397    1.1299   -2.0680 N   0  0  0  0  0  0  0  0  0  0  0  0
    3.2908    1.5695   -2.5907 H   0  0  0  0  0  0  0  0  0  0  0  0
    2.7125    0.7907   -1.1182 H   0  0  0  0  0  0  0  0  0  0  0  0
    0.8141    0.0363    0.6125 C   0  0  0  0  0  0  0  0  0  0  0  0
    2.0364    0.0921    0.6783 O   0  0  0  0  0  0  0  0  0  0  0  0
    0.0601    0.4513    1.6939 N   0  0  0  0  0  0  0  0  0  0  0  0
   -0.9452    0.3355    1.6127 H   0  0  0  0  0  0  0  0  0  0  0  0
    0.6334    0.6881    3.0129 C   0  0  0  0  0  0  0  0  0  0  0  0
    1.4008    1.4678    2.9637 H   0  0  0  0  0  0  0  0  0  0  0  0
   -0.1436    1.0149    3.7104 H   0  0  0  0  0  0  0  0  0  0  0  0
    1.0871   -0.2293    3.4025 H   0  0  0  0  0  0  0  0  0  0  0  0
  1  2  1  0  0  0  0
  2  3  1  0  0  0  0
  2  4  1  0  0  0  0
  2  5  1  0  0  0  0
  5  6  2  0  0  0  0
  5  7  1  0  0  0  0
  7  8  1  0  0  0  0
  7  9  1  0  0  0  0
  9 10  1  0  0  0  0
  9 11  1  0  0  0  0
  9 19  1  0  0  0  0
 11 12  1  0  0  0  0
 11 13  1  0  0  0  0
 11 14  1  0  0  0  0
 14 15  2  0  0  0  0
 14 16  1  0  0  0  0
 16 17  1  0  0  0  0
 16 18  1  0  0  0  0
 19 20  2  0  0  0  0
 19 21  1  0  0  0  0
 21 22  1  0  0  0  0
 21 23  1  0  0  0  0
 23 24  1  0  0  0  0
 23 25  1  0  0  0  0
 23 26  1  0  0  0  0
M  END
$$$$

  -OEChem-03222214023D

 26 25  0     1  0  0  0  0  0999 V2000
   -2.7414   -3.7597   -0.2937 H   0  0  0  0  0  0  0  0  0  0  0  0
   -2.7553   -2.7231   -0.6425 C   0  0  0  0  0  0  0  0  0  0  0  0
   -3.5215   -2.1759   -0.0881 H   0  0  0  0  0  0  0  0  0  0  0  0
   -3.0072   -2.7149   -1.7057 H   0  0  0  0  0  0  0  0  0  0  0  0
   -1.3980   -2.0813   -0.4246 C   0  0  0  0  0  0  0  0  0  0  0  0
   -0.5097   -2.7046    0.1286 O   0  0  0  0  0  0  0  0  0  0  0  0
   -1.1720   -0.7844   -0.8442 N   0  0  0  0  0  0  0  0  0  0  0  0
   -1.9191   -0.3372   -1.3685 H   0  0  0  0  0  0  0  0  0  0  0  0
    0.1459   -0.1255   -0.7962 C   0  0  1  0  0  0  0  0  0  0  0  0
    0.8107   -0.7820   -1.3705 H   0  0  0  0  0  0  0  0  0  0  0  0
    0.0709    1.2455   -1.5019 C   0  0  0  0  0  0  0  0  0  0  0  0
   -0.8335    1.3042   -2.1132 H   0  0  0  0  0  0  0  0  0  0  0  0
    0.0242    2.0512   -0.7634 H   0  0  0  0  0  0  0  0  0  0  0  0
    1.2559    1.4946   -2.4284 C   0  0  0  0  0  0  0  0  0  0  0  0
    1.2121    2.3862   -3.2533 O   0  0  0  0  0  0  0  0  0  0  0  0
    2.4965    0.9711   -2.1953 N   0  0  0  0  0  0  0  0  0  0  0  0
    3.2597    1.4637   -2.6490 H   0  0  0  0  0  0  0  0  0  0  0  0
    2.6594    0.5494   -1.2778 H   0  0  0  0  0  0  0  0  0  0  0  0
    0.8113    0.0158    0.5868 C   0  0  0  0  0  0  0  0  0  0  0  0
    2.0351    0.0463    0.6348 O   0  0  0  0  0  0  0  0  0  0  0  0
    0.0759    0.4389    1.6777 N   0  0  0  0  0  0  0  0  0  0  0  0
   -0.9325    0.3450    1.6084 H   0  0  0  0  0  0  0  0  0  0  0  0
    0.6696    0.6900    2.9851 C   0  0  0  0  0  0  0  0  0  0  0  0
    1.4494    1.4555    2.9126 H   0  0  0  0  0  0  0  0  0  0  0  0
   -0.0934    1.0433    3.6852 H   0  0  0  0  0  0  0  0  0  0  0  0
    1.1125   -0.2274    3.3868 H   0  0  0  0  0  0  0  0  0  0  0  0
  1  2  1  0  0  0  0
  2  3  1  0  0  0  0
  2  4  1  0  0  0  0
  2  5  1  0  0  0  0
  5  6  2  0  0  0  0
  5  7  1  0  0  0  0
  7  8  1  0  0  0  0
  7  9  1  0  0  0  0
  9 10  1  0  0  0  0
  9 11  1  0  0  0  0
  9 19  1  0  0  0  0
 11 12  1  0  0  0  0
 11 13  1  0  0  0  0
 11 14  1  0  0  0  0
 14 15  2  0  0  0  0
 14 16  1  0  0  0  0
 16 17  1  0  0  0  0
 16 18  1  0  0  0  0
 19 20  2  0  0  0  0
 19 21  1  0  0  0  0
 21 22  1  0  0  0  0
 21 23  1  0  0  0  0
 23 24  1  0  0  0  0
 23 25  1  0  0  0  0
 23 26  1  0  0  0  0
M  END
$$$$

  -OEChem-03222214023D

 26 25  0     1  0  0  0  0  0999 V2000
   -2.7640   -3.7485   -0.2127 H   0  0  0  0  0  0  0  0  0  0  0  0
   -2.7739   -2.7182   -0.5801 C   0  0  0  0  0  0  0  0  0  0  0  0
   -3.5191   -2.1517   -0.0166 H   0  0  0  0  0  0  0  0  0  0  0  0
   -3.0526   -2.7253   -1.6366 H   0  0  0  0  0  0  0  0  0  0  0  0
   -1.4034   -2.0902   -0.4088 C   0  0  0  0  0  0  0  0  0  0  0  0
   -0.5013   -2.7253    0.1070 O   0  0  0  0  0  0  0  0  0  0  0  0
   -1.1778   -0.7968   -0.8392 N   0  0  0  0  0  0  0  0  0  0  0  0
   -1.9434   -0.3329   -1.3205 H   0  0  0  0  0  0  0  0  0  0  0  0
    0.1386   -0.1337   -0.7988 C   0  0  1  0  0  0  0  0  0  0  0  0
    0.8095   -0.7990   -1.3508 H   0  0  0  0  0  0  0  0  0  0  0  0
    0.0471    1.2375   -1.5125 C   0  0  0  0  0  0  0  0  0  0  0  0
   -0.9715    1.4099   -1.8688 H   0  0  0  0  0  0  0  0  0  0  0  0
    0.2811    2.0386   -0.8043 H   0  0  0  0  0  0  0  0  0  0  0  0
    0.9797    1.3955   -2.7102 C   0  0  0  0  0  0  0  0  0  0  0  0
    0.9812    2.4341   -3.3410 O   0  0  0  0  0  0  0  0  0  0  0  0
    2.0648    0.5990   -2.9459 N   0  0  0  0  0  0  0  0  0  0  0  0
    2.7629    1.0233   -3.5501 H   0  0  0  0  0  0  0  0  0  0  0  0
    2.3834    0.0122   -2.1785 H   0  0  0  0  0  0  0  0  0  0  0  0
    0.7918    0.0142    0.5886 C   0  0  0  0  0  0  0  0  0  0  0  0
    2.0134   -0.0006    0.6566 O   0  0  0  0  0  0  0  0  0  0  0  0
    0.0490    0.4410    1.6733 N   0  0  0  0  0  0  0  0  0  0  0  0
   -0.9604    0.3851    1.5845 H   0  0  0  0  0  0  0  0  0  0  0  0
    0.6282    0.6585    2.9929 C   0  0  0  0  0  0  0  0  0  0  0  0
    1.4261    1.4070    2.9433 H   0  0  0  0  0  0  0  0  0  0  0  0
   -0.1369    1.0179    3.6876 H   0  0  0  0  0  0  0  0  0  0  0  0
    1.0445   -0.2750    3.3859 H   0  0  0  0  0  0  0  0  0  0  0  0
  1  2  1  0  0  0  0
  2  3  1  0  0  0  0
  2  4  1  0  0  0  0
  2  5  1  0  0  0  0
  5  6  2  0  0  0  0
  5  7  1  0  0  0  0
  7  8  1  0  0  0  0
  7  9  1  0  0  0  0
  9 10  1  0  0  0  0
  9 11  1  0  0  0  0
  9 19  1  0  0  0  0
 11 12  1  0  0  0  0
 11 13  1  0  0  0  0
 11 14  1  0  0  0  0
 14 15  2  0  0  0  0
 14 16  1  0  0  0  0
 16 17  1  0  0  0  0
 16 18  1  0  0  0  0
 19 20  2  0  0  0  0
 19 21  1  0  0  0  0
 21 22  1  0  0  0  0
 21 23  1  0  0  0  0
 23 24  1  0  0  0  0
 23 25  1  0  0  0  0
 23 26  1  0  0  0  0
M  END
$$$$

  -OEChem-03222214023D

 26 25  0     1  0  0  0  0  0999 V2000
   -2.6880   -3.7226   -0.2039 H   0  0  0  0  0  0  0  0  0  0  0  0
   -2.6956   -2.6900   -0.5649 C   0  0  0  0  0  0  0  0  0  0  0  0
   -3.4216   -2.1193    0.0192 H   0  0  0  0  0  0  0  0  0  0  0  0
   -2.9989   -2.6878   -1.6148 H   0  0  0  0  0  0  0  0  0  0  0  0
   -1.3148   -2.0777   -0.4209 C   0  0  0  0  0  0  0  0  0  0  0  0
   -0.4057   -2.7295    0.0600 O   0  0  0  0  0  0  0  0  0  0  0  0
   -1.0844   -0.7838   -0.8474 N   0  0  0  0  0  0  0  0  0  0  0  0
   -1.8612   -0.2975   -1.2867 H   0  0  0  0  0  0  0  0  0  0  0  0
    0.2247   -0.1080   -0.7693 C   0  0  1  0  0  0  0  0  0  0  0  0
    0.9418   -0.7442   -1.2954 H   0  0  0  0  0  0  0  0  0  0  0  0
    0.1201    1.2752   -1.4583 C   0  0  0  0  0  0  0  0  0  0  0  0
   -0.8971    1.4389   -1.8223 H   0  0  0  0  0  0  0  0  0  0  0  0
    0.3314    2.0649   -0.7302 H   0  0  0  0  0  0  0  0  0  0  0  0
    1.0605    1.4813   -2.6435 C   0  0  0  0  0  0  0  0  0  0  0  0
    1.2539    2.6005   -3.0749 O   0  0  0  0  0  0  0  0  0  0  0  0
    1.6571    0.4790   -3.3571 N   0  0  0  0  0  0  0  0  0  0  0  0
    2.3621    0.7888   -4.0205 H   0  0  0  0  0  0  0  0  0  0  0  0
    1.7468   -0.4362   -2.9292 H   0  0  0  0  0  0  0  0  0  0  0  0
    0.8042    0.0331    0.6544 C   0  0  0  0  0  0  0  0  0  0  0  0
    2.0167   -0.0087    0.8058 O   0  0  0  0  0  0  0  0  0  0  0  0
    0.0005    0.4473    1.7008 N   0  0  0  0  0  0  0  0  0  0  0  0
   -1.0019    0.4177    1.5482 H   0  0  0  0  0  0  0  0  0  0  0  0
    0.5016    0.6446    3.0553 C   0  0  0  0  0  0  0  0  0  0  0  0
    1.2902    1.4045    3.0662 H   0  0  0  0  0  0  0  0  0  0  0  0
   -0.3067    0.9785    3.7128 H   0  0  0  0  0  0  0  0  0  0  0  0
    0.9085   -0.2915    3.4524 H   0  0  0  0  0  0  0  0  0  0  0  0
  1  2  1  0  0  0  0
  2  3  1  0  0  0  0
  2  4  1  0  0  0  0
  2  5  1  0  0  0  0
  5  6  2  0  0  0  0
  5  7  1  0  0  0  0
  7  8  1  0  0  0  0
  7  9  1  0  0  0  0
  9 10  1  0  0  0  0
  9 11  1  0  0  0  0
  9 19  1  0  0  0  0
 11 12  1  0  0  0  0
 11 13  1  0  0  0  0
 11 14  1  0  0  0  0
 14 15  2  0  0  0  0
 14 16  1  0  0  0  0
 16 17  1  0  0  0  0
 16 18  1  0  0  0  0
 19 20  2  0  0  0  0
 19 21  1  0  0  0  0
 21 22  1  0  0  0  0
 21 23  1  0  0  0  0
 23 24  1  0  0  0  0
 23 25  1  0  0  0  0
 23 26  1  0  0  0  0
M  END
$$$$

  -OEChem-03222214023D

 26 25  0     1  0  0  0  0  0999 V2000
   -2.6541   -3.7142   -0.1903 H   0  0  0  0  0  0  0  0  0  0  0  0
   -2.6679   -2.6783   -0.5413 C   0  0  0  0  0  0  0  0  0  0  0  0
   -3.3641   -2.1071    0.0777 H   0  0  0  0  0  0  0  0  0  0  0  0
   -3.0143   -2.6642   -1.5775 H   0  0  0  0  0  0  0  0  0  0  0  0
   -1.2774   -2.0784   -0.4496 C   0  0  0  0  0  0  0  0  0  0  0  0
   -0.3526   -2.7442   -0.0213 O   0  0  0  0  0  0  0  0  0  0  0  0
   -1.0564   -0.7801   -0.8679 N   0  0  0  0  0  0  0  0  0  0  0  0
   -1.8563   -0.2699   -1.2319 H   0  0  0  0  0  0  0  0  0  0  0  0
    0.2459   -0.0928   -0.7778 C   0  0  1  0  0  0  0  0  0  0  0  0
    0.9815   -0.7094   -1.3057 H   0  0  0  0  0  0  0  0  0  0  0  0
    0.1291    1.2926   -1.4561 C   0  0  0  0  0  0  0  0  0  0  0  0
   -0.8849    1.4529   -1.8303 H   0  0  0  0  0  0  0  0  0  0  0  0
    0.3333    2.0829   -0.7264 H   0  0  0  0  0  0  0  0  0  0  0  0
    1.0856    1.4778   -2.6288 C   0  0  0  0  0  0  0  0  0  0  0  0
    1.5144    2.5793   -2.9091 O   0  0  0  0  0  0  0  0  0  0  0  0
    1.3642    0.4943   -3.5371 N   0  0  0  0  0  0  0  0  0  0  0  0
    2.0970    0.7164   -4.2054 H   0  0  0  0  0  0  0  0  0  0  0  0
    1.1929   -0.4723   -3.2821 H   0  0  0  0  0  0  0  0  0  0  0  0
    0.8071    0.0417    0.6542 C   0  0  0  0  0  0  0  0  0  0  0  0
    2.0160   -0.0073    0.8277 O   0  0  0  0  0  0  0  0  0  0  0  0
   -0.0138    0.4410    1.6935 N   0  0  0  0  0  0  0  0  0  0  0  0
   -1.0133    0.4311    1.5217 H   0  0  0  0  0  0  0  0  0  0  0  0
    0.4663    0.6289    3.0570 C   0  0  0  0  0  0  0  0  0  0  0  0
    1.2559    1.3874    3.0847 H   0  0  0  0  0  0  0  0  0  0  0  0
   -0.3515    0.9597    3.7043 H   0  0  0  0  0  0  0  0  0  0  0  0
    0.8657   -0.3104    3.4539 H   0  0  0  0  0  0  0  0  0  0  0  0
  1  2  1  0  0  0  0
  2  3  1  0  0  0  0
  2  4  1  0  0  0  0
  2  5  1  0  0  0  0
  5  6  2  0  0  0  0
  5  7  1  0  0  0  0
  7  8  1  0  0  0  0
  7  9  1  0  0  0  0
  9 10  1  0  0  0  0
  9 11  1  0  0  0  0
  9 19  1  0  0  0  0
 11 12  1  0  0  0  0
 11 13  1  0  0  0  0
 11 14  1  0  0  0  0
 14 15  2  0  0  0  0
 14 16  1  0  0  0  0
 16 17  1  0  0  0  0
 16 18  1  0  0  0  0
 19 20  2  0  0  0  0
 19 21  1  0  0  0  0
 21 22  1  0  0  0  0
 21 23  1  0  0  0  0
 23 24  1  0  0  0  0
 23 25  1  0  0  0  0
 23 26  1  0  0  0  0
M  END
$$$$

  -OEChem-03222214023D

 26 25  0     1  0  0  0  0  0999 V2000
   -2.6370   -3.7085   -0.1675 H   0  0  0  0  0  0  0  0  0  0  0  0
   -2.6617   -2.6731   -0.5198 C   0  0  0  0  0  0  0  0  0  0  0  0
   -3.3362   -2.1009    0.1216 H   0  0  0  0  0  0  0  0  0  0  0  0
   -3.0430   -2.6605   -1.5437 H   0  0  0  0  0  0  0  0  0  0  0  0
   -1.2680   -2.0746   -0.4756 C   0  0  0  0  0  0  0  0  0  0  0  0
   -0.3288   -2.7457   -0.0894 O   0  0  0  0  0  0  0  0  0  0  0  0
   -1.0620   -0.7707   -0.8851 N   0  0  0  0  0  0  0  0  0  0  0  0
   -1.8789   -0.2493   -1.1905 H   0  0  0  0  0  0  0  0  0  0  0  0
    0.2357   -0.0738   -0.7968 C   0  0  1  0  0  0  0  0  0  0  0  0
    0.9741   -0.6769   -1.3380 H   0  0  0  0  0  0  0  0  0  0  0  0
    0.1024    1.3129   -1.4665 C   0  0  0  0  0  0  0  0  0  0  0  0
   -0.9129    1.4704   -1.8381 H   0  0  0  0  0  0  0  0  0  0  0  0
    0.3071    2.1033   -0.7369 H   0  0  0  0  0  0  0  0  0  0  0  0
    1.0605    1.4859   -2.6374 C   0  0  0  0  0  0  0  0  0  0  0  0
    1.7070    2.5043   -2.7788 O   0  0  0  0  0  0  0  0  0  0  0  0
    1.1508    0.5776   -3.6546 N   0  0  0  0  0  0  0  0  0  0  0  0
    1.9197    0.7288   -4.3020 H   0  0  0  0  0  0  0  0  0  0  0  0
    0.8003   -0.3618   -3.5011 H   0  0  0  0  0  0  0  0  0  0  0  0
    0.8034    0.0528    0.6335 C   0  0  0  0  0  0  0  0  0  0  0  0
    2.0114   -0.0073    0.8076 O   0  0  0  0  0  0  0  0  0  0  0  0
   -0.0158    0.4371    1.6799 N   0  0  0  0  0  0  0  0  0  0  0  0
   -1.0152    0.4372    1.5090 H   0  0  0  0  0  0  0  0  0  0  0  0
    0.4677    0.6082    3.0444 C   0  0  0  0  0  0  0  0  0  0  0  0
    1.2635    1.3601    3.0787 H   0  0  0  0  0  0  0  0  0  0  0  0
   -0.3465    0.9391    3.6960 H   0  0  0  0  0  0  0  0  0  0  0  0
    0.8601   -0.3382    3.4313 H   0  0  0  0  0  0  0  0  0  0  0  0
  1  2  1  0  0  0  0
  2  3  1  0  0  0  0
  2  4  1  0  0  0  0
  2  5  1  0  0  0  0
  5  6  2  0  0  0  0
  5  7  1  0  0  0  0
  7  8  1  0  0  0  0
  7  9  1  0  0  0  0
  9 10  1  0  0  0  0
  9 11  1  0  0  0  0
  9 19  1  0  0  0  0
 11 12  1  0  0  0  0
 11 13  1  0  0  0  0
 11 14  1  0  0  0  0
 14 15  2  0  0  0  0
 14 16  1  0  0  0  0
 16 17  1  0  0  0  0
 16 18  1  0  0  0  0
 19 20  2  0  0  0  0
 19 21  1  0  0  0  0
 21 22  1  0  0  0  0
 21 23  1  0  0  0  0
 23 24  1  0  0  0  0
 23 25  1  0  0  0  0
 23 26  1  0  0  0  0
M  END
$$$$

  -OEChem-03222214023D

 26 25  0     1  0  0  0  0  0999 V2000
   -2.6267   -3.7051   -0.1793 H   0  0  0  0  0  0  0  0  0  0  0  0
   -2.6572   -2.6668   -0.5223 C   0  0  0  0  0  0  0  0  0  0  0  0
   -3.3277   -2.1019    0.1297 H   0  0  0  0  0  0  0  0  0  0  0  0
   -3.0469   -2.6458   -1.5429 H   0  0  0  0  0  0  0  0  0  0  0  0
   -1.2649   -2.0650   -0.4856 C   0  0  0  0  0  0  0  0  0  0  0  0
   -0.3204   -2.7371   -0.1152 O   0  0  0  0  0  0  0  0  0  0  0  0
   -1.0677   -0.7578   -0.8885 N   0  0  0  0  0  0  0  0  0  0  0  0
   -1.8913   -0.2347   -1.1714 H   0  0  0  0  0  0  0  0  0  0  0  0
    0.2281   -0.0561   -0.8062 C   0  0  1  0  0  0  0  0  0  0  0  0
    0.9658   -0.6488   -1.3616 H   0  0  0  0  0  0  0  0  0  0  0  0
    0.0772    1.3324   -1.4666 C   0  0  0  0  0  0  0  0  0  0  0  0
   -0.9419    1.4887   -1.8279 H   0  0  0  0  0  0  0  0  0  0  0  0
    0.2872    2.1215   -0.7374 H   0  0  0  0  0  0  0  0  0  0  0  0
    1.0278    1.5027   -2.6426 C   0  0  0  0  0  0  0  0  0  0  0  0
    1.8664    2.3803   -2.6658 O   0  0  0  0  0  0  0  0  0  0  0  0
    0.9517    0.7141   -3.7559 N   0  0  0  0  0  0  0  0  0  0  0  0
    1.7324    0.8015   -4.4011 H   0  0  0  0  0  0  0  0  0  0  0  0
    0.4453   -0.1626   -3.6959 H   0  0  0  0  0  0  0  0  0  0  0  0
    0.8039    0.0621    0.6225 C   0  0  0  0  0  0  0  0  0  0  0  0
    2.0115   -0.0065    0.7951 O   0  0  0  0  0  0  0  0  0  0  0  0
   -0.0114    0.4356    1.6761 N   0  0  0  0  0  0  0  0  0  0  0  0
   -1.0112    0.4424    1.5083 H   0  0  0  0  0  0  0  0  0  0  0  0
    0.4775    0.5947    3.0402 C   0  0  0  0  0  0  0  0  0  0  0  0
    1.2649    1.3550    3.0788 H   0  0  0  0  0  0  0  0  0  0  0  0
   -0.3365    0.9086    3.7005 H   0  0  0  0  0  0  0  0  0  0  0  0
    0.8828   -0.3517    3.4136 H   0  0  0  0  0  0  0  0  0  0  0  0
  1  2  1  0  0  0  0
  2  3  1  0  0  0  0
  2  4  1  0  0  0  0
  2  5  1  0  0  0  0
  5  6  2  0  0  0  0
  5  7  1  0  0  0  0
  7  8  1  0  0  0  0
  7  9  1  0  0  0  0
  9 10  1  0  0  0  0
  9 11  1  0  0  0  0
  9 19  1  0  0  0  0
 11 12  1  0  0  0  0
 11 13  1  0  0  0  0
 11 14  1  0  0  0  0
 14 15  2  0  0  0  0
 14 16  1  0  0  0  0
 16 17  1  0  0  0  0
 16 18  1  0  0  0  0
 19 20  2  0  0  0  0
 19 21  1  0  0  0  0
 21 22  1  0  0  0  0
 21 23  1  0  0  0  0
 23 24  1  0  0  0  0
 23 25  1  0  0  0  0
 23 26  1  0  0  0  0
M  END
$$$$

  -OEChem-03222214023D

 26 25  0     1  0  0  0  0  0999 V2000
   -2.6120   -3.6977   -0.1763 H   0  0  0  0  0  0  0  0  0  0  0  0
   -2.6484   -2.6596   -0.5194 C   0  0  0  0  0  0  0  0  0  0  0  0
   -3.3156   -2.0965    0.1374 H   0  0  0  0  0  0  0  0  0  0  0  0
   -3.0461   -2.6401   -1.5369 H   0  0  0  0  0  0  0  0  0  0  0  0
   -1.2575   -2.0535   -0.4926 C   0  0  0  0  0  0  0  0  0  0  0  0
   -0.3092   -2.7234   -0.1280 O   0  0  0  0  0  0  0  0  0  0  0  0
   -1.0693   -0.7435   -0.8912 N   0  0  0  0  0  0  0  0  0  0  0  0
   -1.8983   -0.2225   -1.1613 H   0  0  0  0  0  0  0  0  0  0  0  0
    0.2240   -0.0354   -0.8139 C   0  0  1  0  0  0  0  0  0  0  0  0
    0.9619   -0.6183   -1.3802 H   0  0  0  0  0  0  0  0  0  0  0  0
    0.0591    1.3560   -1.4643 C   0  0  0  0  0  0  0  0  0  0  0  0
   -0.9641    1.5119   -1.8140 H   0  0  0  0  0  0  0  0  0  0  0  0
    0.2744    2.1428   -0.7341 H   0  0  0  0  0  0  0  0  0  0  0  0
    1.0016    1.5321   -2.6451 C   0  0  0  0  0  0  0  0  0  0  0  0
    1.9991    2.2200   -2.5764 O   0  0  0  0  0  0  0  0  0  0  0  0
    0.7844    0.9060   -3.8395 N   0  0  0  0  0  0  0  0  0  0  0  0
    1.5671    0.9317   -4.4877 H   0  0  0  0  0  0  0  0  0  0  0  0
    0.1325    0.1299   -3.8689 H   0  0  0  0  0  0  0  0  0  0  0  0
    0.8042    0.0770    0.6139 C   0  0  0  0  0  0  0  0  0  0  0  0
    2.0108   -0.0010    0.7881 O   0  0  0  0  0  0  0  0  0  0  0  0
   -0.0103    0.4409    1.6719 N   0  0  0  0  0  0  0  0  0  0  0  0
   -1.0103    0.4433    1.5060 H   0  0  0  0  0  0  0  0  0  0  0  0
    0.4793    0.5731    3.0388 C   0  0  0  0  0  0  0  0  0  0  0  0
    1.2719    1.3272    3.0909 H   0  0  0  0  0  0  0  0  0  0  0  0
   -0.3328    0.8807    3.7045 H   0  0  0  0  0  0  0  0  0  0  0  0
    0.8787   -0.3822    3.3960 H   0  0  0  0  0  0  0  0  0  0  0  0
  1  2  1  0  0  0  0
  2  3  1  0  0  0  0
  2  4  1  0  0  0  0
  2  5  1  0  0  0  0
  5  6  2  0  0  0  0
  5  7  1  0  0  0  0
  7  8  1  0  0  0  0
  7  9  1  0  0  0  0
  9 10  1  0  0  0  0
  9 11  1  0  0  0  0
  9 19  1  0  0  0  0
 11 12  1  0  0  0  0
 11 13  1  0  0  0  0
 11 14  1  0  0  0  0
 14 15  2  0  0  0  0
 14 16  1  0  0  0  0
 16 17  1  0  0  0  0
 16 18  1  0  0  0  0
 19 20  2  0  0  0  0
 19 21  1  0  0  0  0
 21 22  1  0  0  0  0
 21 23  1  0  0  0  0
 23 24  1  0  0  0  0
 23 25  1  0  0  0  0
 23 26  1  0  0  0  0
M  END
$$$$

  -OEChem-03222214023D

 26 25  0     1  0  0  0  0  0999 V2000
   -2.6023   -3.6907   -0.1845 H   0  0  0  0  0  0  0  0  0  0  0  0
   -2.6394   -2.6531   -0.5292 C   0  0  0  0  0  0  0  0  0  0  0  0
   -3.3143   -2.0916    0.1213 H   0  0  0  0  0  0  0  0  0  0  0  0
   -3.0282   -2.6365   -1.5504 H   0  0  0  0  0  0  0  0  0  0  0  0
   -1.2508   -2.0422   -0.4912 C   0  0  0  0  0  0  0  0  0  0  0  0
   -0.3043   -2.7091   -0.1171 O   0  0  0  0  0  0  0  0  0  0  0  0
   -1.0656   -0.7305   -0.8860 N   0  0  0  0  0  0  0  0  0  0  0  0
   -1.8938   -0.2150   -1.1676 H   0  0  0  0  0  0  0  0  0  0  0  0
    0.2270   -0.0199   -0.8127 C   0  0  1  0  0  0  0  0  0  0  0  0
    0.9648   -0.5953   -1.3868 H   0  0  0  0  0  0  0  0  0  0  0  0
    0.0527    1.3753   -1.4530 C   0  0  0  0  0  0  0  0  0  0  0  0
   -0.9747    1.5332   -1.7889 H   0  0  0  0  0  0  0  0  0  0  0  0
    0.2759    2.1582   -0.7209 H   0  0  0  0  0  0  0  0  0  0  0  0
    0.9865    1.5601   -2.6394 C   0  0  0  0  0  0  0  0  0  0  0  0
    2.1036    2.0173   -2.5173 O   0  0  0  0  0  0  0  0  0  0  0  0
    0.6455    1.1462   -3.8955 N   0  0  0  0  0  0  0  0  0  0  0  0
    1.4127    1.1162   -4.5620 H   0  0  0  0  0  0  0  0  0  0  0  0
   -0.1402    0.5152   -4.0034 H   0  0  0  0  0  0  0  0  0  0  0  0
    0.8097    0.0860    0.6151 C   0  0  0  0  0  0  0  0  0  0  0  0
    2.0154    0.0051    0.7930 O   0  0  0  0  0  0  0  0  0  0  0  0
   -0.0065    0.4434    1.6740 N   0  0  0  0  0  0  0  0  0  0  0  0
   -1.0063    0.4351    1.5078 H   0  0  0  0  0  0  0  0  0  0  0  0
    0.4798    0.5580    3.0435 C   0  0  0  0  0  0  0  0  0  0  0  0
    1.2775    1.3059    3.1056 H   0  0  0  0  0  0  0  0  0  0  0  0
   -0.3320    0.8646    3.7099 H   0  0  0  0  0  0  0  0  0  0  0  0
    0.8710   -0.4038    3.3919 H   0  0  0  0  0  0  0  0  0  0  0  0
  1  2  1  0  0  0  0
  2  3  1  0  0  0  0
  2  4  1  0  0  0  0
  2  5  1  0  0  0  0
  5  6  2  0  0  0  0
  5  7  1  0  0  0  0
  7  8  1  0  0  0  0
  7  9  1  0  0  0  0
  9 10  1  0  0  0  0
  9 11  1  0  0  0  0
  9 19  1  0  0  0  0
 11 12  1  0  0  0  0
 11 13  1  0  0  0  0
 11 14  1  0  0  0  0
 14 15  2  0  0  0  0
 14 16  1  0  0  0  0
 16 17  1  0  0  0  0
 16 18  1  0  0  0  0
 19 20  2  0  0  0  0
 19 21  1  0  0  0  0
 21 22  1  0  0  0  0
 21 23  1  0  0  0  0
 23 24  1  0  0  0  0
 23 25  1  0  0  0  0
 23 26  1  0  0  0  0
M  END
$$$$

  -OEChem-03222214023D

 26 25  0     1  0  0  0  0  0999 V2000
   -2.6014   -3.6903   -0.2028 H   0  0  0  0  0  0  0  0  0  0  0  0
   -2.6334   -2.6533   -0.5499 C   0  0  0  0  0  0  0  0  0  0  0  0
   -3.3301   -2.0942    0.0794 H   0  0  0  0  0  0  0  0  0  0  0  0
   -2.9911   -2.6399   -1.5822 H   0  0  0  0  0  0  0  0  0  0  0  0
   -1.2499   -2.0352   -0.4715 C   0  0  0  0  0  0  0  0  0  0  0  0
   -0.3142   -2.6944   -0.0586 O   0  0  0  0  0  0  0  0  0  0  0  0
   -1.0590   -0.7255   -0.8702 N   0  0  0  0  0  0  0  0  0  0  0  0
   -1.8755   -0.2237   -1.2045 H   0  0  0  0  0  0  0  0  0  0  0  0
    0.2359   -0.0181   -0.8024 C   0  0  1  0  0  0  0  0  0  0  0  0
    0.9723   -0.5936   -1.3785 H   0  0  0  0  0  0  0  0  0  0  0  0
    0.0623    1.3805   -1.4382 C   0  0  0  0  0  0  0  0  0  0  0  0
   -0.9683    1.5435   -1.7619 H   0  0  0  0  0  0  0  0  0  0  0  0
    0.2964    2.1600   -0.7064 H   0  0  0  0  0  0  0  0  0  0  0  0
    0.9892    1.5686   -2.6307 C   0  0  0  0  0  0  0  0  0  0  0  0
    2.1792    1.7646   -2.5015 O   0  0  0  0  0  0  0  0  0  0  0  0
    0.5481    1.4368   -3.9168 N   0  0  0  0  0  0  0  0  0  0  0  0
    1.2779    1.3708   -4.6216 H   0  0  0  0  0  0  0  0  0  0  0  0
   -0.3599    1.0206   -4.0869 H   0  0  0  0  0  0  0  0  0  0  0  0
    0.8178    0.0876    0.6267 C   0  0  0  0  0  0  0  0  0  0  0  0
    2.0232    0.0111    0.8096 O   0  0  0  0  0  0  0  0  0  0  0  0
   -0.0013    0.4491    1.6824 N   0  0  0  0  0  0  0  0  0  0  0  0
   -1.0007    0.4172    1.5162 H   0  0  0  0  0  0  0  0  0  0  0  0
    0.4804    0.5555    3.0542 C   0  0  0  0  0  0  0  0  0  0  0  0
    1.2830    1.2974    3.1225 H   0  0  0  0  0  0  0  0  0  0  0  0
   -0.3316    0.8655    3.7186 H   0  0  0  0  0  0  0  0  0  0  0  0
    0.8637   -0.4102    3.4003 H   0  0  0  0  0  0  0  0  0  0  0  0
  1  2  1  0  0  0  0
  2  3  1  0  0  0  0
  2  4  1  0  0  0  0
  2  5  1  0  0  0  0
  5  6  2  0  0  0  0
  5  7  1  0  0  0  0
  7  8  1  0  0  0  0
  7  9  1  0  0  0  0
  9 10  1  0  0  0  0
  9 11  1  0  0  0  0
  9 19  1  0  0  0  0
 11 12  1  0  0  0  0
 11 13  1  0  0  0  0
 11 14  1  0  0  0  0
 14 15  2  0  0  0  0
 14 16  1  0  0  0  0
 16 17  1  0  0  0  0
 16 18  1  0  0  0  0
 19 20  2  0  0  0  0
 19 21  1  0  0  0  0
 21 22  1  0  0  0  0
 21 23  1  0  0  0  0
 23 24  1  0  0  0  0
 23 25  1  0  0  0  0
 23 26  1  0  0  0  0
M  END
$$$$

  -OEChem-03222214023D

 26 25  0     1  0  0  0  0  0999 V2000
   -2.6326   -3.7306   -0.2092 H   0  0  0  0  0  0  0  0  0  0  0  0
   -2.6458   -2.7026   -0.5834 C   0  0  0  0  0  0  0  0  0  0  0  0
   -3.4155   -2.1432   -0.0464 H   0  0  0  0  0  0  0  0  0  0  0  0
   -2.8917   -2.7211   -1.6479 H   0  0  0  0  0  0  0  0  0  0  0  0
   -1.2901   -2.0541   -0.3735 C   0  0  0  0  0  0  0  0  0  0  0  0
   -0.4076   -2.6713    0.1929 O   0  0  0  0  0  0  0  0  0  0  0  0
   -1.0721   -0.7636   -0.8190 N   0  0  0  0  0  0  0  0  0  0  0  0
   -1.8196   -0.3432   -1.3618 H   0  0  0  0  0  0  0  0  0  0  0  0
    0.2393   -0.0833   -0.7811 C   0  0  1  0  0  0  0  0  0  0  0  0
    0.9606   -0.6869   -1.3472 H   0  0  0  0  0  0  0  0  0  0  0  0
    0.0881    1.3096   -1.4392 C   0  0  0  0  0  0  0  0  0  0  0  0
   -0.9451    1.4839   -1.7474 H   0  0  0  0  0  0  0  0  0  0  0  0
    0.3477    2.0972   -0.7252 H   0  0  0  0  0  0  0  0  0  0  0  0
    0.9993    1.4634   -2.6496 C   0  0  0  0  0  0  0  0  0  0  0  0
    2.2065    1.3715   -2.5770 O   0  0  0  0  0  0  0  0  0  0  0  0
    0.5013    1.6958   -3.9004 N   0  0  0  0  0  0  0  0  0  0  0  0
    1.1921    1.9350   -4.6071 H   0  0  0  0  0  0  0  0  0  0  0  0
   -0.4577    2.0076   -4.0015 H   0  0  0  0  0  0  0  0  0  0  0  0
    0.8284    0.0575    0.6427 C   0  0  0  0  0  0  0  0  0  0  0  0
    2.0353   -0.0071    0.8223 O   0  0  0  0  0  0  0  0  0  0  0  0
    0.0165    0.4730    1.6839 N   0  0  0  0  0  0  0  0  0  0  0  0
   -0.9829    0.4057    1.5270 H   0  0  0  0  0  0  0  0  0  0  0  0
    0.5023    0.6211    3.0503 C   0  0  0  0  0  0  0  0  0  0  0  0
    1.3162    1.3528    3.0912 H   0  0  0  0  0  0  0  0  0  0  0  0
   -0.3042    0.9677    3.7032 H   0  0  0  0  0  0  0  0  0  0  0  0
    0.8711   -0.3373    3.4307 H   0  0  0  0  0  0  0  0  0  0  0  0
  1  2  1  0  0  0  0
  2  3  1  0  0  0  0
  2  4  1  0  0  0  0
  2  5  1  0  0  0  0
  5  6  2  0  0  0  0
  5  7  1  0  0  0  0
  7  8  1  0  0  0  0
  7  9  1  0  0  0  0
  9 10  1  0  0  0  0
  9 11  1  0  0  0  0
  9 19  1  0  0  0  0
 11 12  1  0  0  0  0
 11 13  1  0  0  0  0
 11 14  1  0  0  0  0
 14 15  2  0  0  0  0
 14 16  1  0  0  0  0
 16 17  1  0  0  0  0
 16 18  1  0  0  0  0
 19 20  2  0  0  0  0
 19 21  1  0  0  0  0
 21 22  1  0  0  0  0
 21 23  1  0  0  0  0
 23 24  1  0  0  0  0
 23 25  1  0  0  0  0
 23 26  1  0  0  0  0
M  END
$$$$

  -OEChem-03222214023D

 26 25  0     1  0  0  0  0  0999 V2000
   -2.6367   -3.7476   -0.2215 H   0  0  0  0  0  0  0  0  0  0  0  0
   -2.6503   -2.7203   -0.5971 C   0  0  0  0  0  0  0  0  0  0  0  0
   -3.4392   -2.1680   -0.0810 H   0  0  0  0  0  0  0  0  0  0  0  0
   -2.8683   -2.7421   -1.6676 H   0  0  0  0  0  0  0  0  0  0  0  0
   -1.3068   -2.0585   -0.3531 C   0  0  0  0  0  0  0  0  0  0  0  0
   -0.4381   -2.6619    0.2486 O   0  0  0  0  0  0  0  0  0  0  0  0
   -1.0856   -0.7717   -0.8080 N   0  0  0  0  0  0  0  0  0  0  0  0
   -1.8155   -0.3737   -1.3905 H   0  0  0  0  0  0  0  0  0  0  0  0
    0.2301   -0.0986   -0.7789 C   0  0  1  0  0  0  0  0  0  0  0  0
    0.9434   -0.7128   -1.3431 H   0  0  0  0  0  0  0  0  0  0  0  0
    0.0866    1.2952   -1.4413 C   0  0  0  0  0  0  0  0  0  0  0  0
   -0.9483    1.4684   -1.7446 H   0  0  0  0  0  0  0  0  0  0  0  0
    0.3490    2.0827   -0.7284 H   0  0  0  0  0  0  0  0  0  0  0  0
    0.9873    1.4588   -2.6602 C   0  0  0  0  0  0  0  0  0  0  0  0
    2.1513    1.1167   -2.6791 O   0  0  0  0  0  0  0  0  0  0  0  0
    0.5279    2.0236   -3.8160 N   0  0  0  0  0  0  0  0  0  0  0  0
    1.2448    2.2510   -4.5001 H   0  0  0  0  0  0  0  0  0  0  0  0
   -0.3356    2.5541   -3.7936 H   0  0  0  0  0  0  0  0  0  0  0  0
    0.8266    0.0483    0.6412 C   0  0  0  0  0  0  0  0  0  0  0  0
    2.0362    0.0069    0.8109 O   0  0  0  0  0  0  0  0  0  0  0  0
    0.0200    0.4750    1.6821 N   0  0  0  0  0  0  0  0  0  0  0  0
   -0.9795    0.3843    1.5371 H   0  0  0  0  0  0  0  0  0  0  0  0
    0.5162    0.6427    3.0425 C   0  0  0  0  0  0  0  0  0  0  0  0
    1.3294    1.3758    3.0663 H   0  0  0  0  0  0  0  0  0  0  0  0
   -0.2854    0.9975    3.6971 H   0  0  0  0  0  0  0  0  0  0  0  0
    0.8893   -0.3099    3.4333 H   0  0  0  0  0  0  0  0  0  0  0  0
  1  2  1  0  0  0  0
  2  3  1  0  0  0  0
  2  4  1  0  0  0  0
  2  5  1  0  0  0  0
  5  6  2  0  0  0  0
  5  7  1  0  0  0  0
  7  8  1  0  0  0  0
  7  9  1  0  0  0  0
  9 10  1  0  0  0  0
  9 11  1  0  0  0  0
  9 19  1  0  0  0  0
 11 12  1  0  0  0  0
 11 13  1  0  0  0  0
 11 14  1  0  0  0  0
 14 15  2  0  0  0  0
 14 16  1  0  0  0  0
 16 17  1  0  0  0  0
 16 18  1  0  0  0  0
 19 20  2  0  0  0  0
 19 21  1  0  0  0  0
 21 22  1  0  0  0  0
 21 23  1  0  0  0  0
 23 24  1  0  0  0  0
 23 25  1  0  0  0  0
 23 26  1  0  0  0  0
M  END
$$$$

  -OEChem-03222214023D

 26 25  0     1  0  0  0  0  0999 V2000
   -2.6543   -3.7455   -0.1976 H   0  0  0  0  0  0  0  0  0  0  0  0
   -2.6529   -2.7330   -0.6116 C   0  0  0  0  0  0  0  0  0  0  0  0
   -3.4642   -2.1641   -0.1512 H   0  0  0  0  0  0  0  0  0  0  0  0
   -2.8241   -2.7953   -1.6890 H   0  0  0  0  0  0  0  0  0  0  0  0
   -1.3221   -2.0587   -0.3350 C   0  0  0  0  0  0  0  0  0  0  0  0
   -0.4694   -2.6466    0.3040 O   0  0  0  0  0  0  0  0  0  0  0  0
   -1.0974   -0.7761   -0.7997 N   0  0  0  0  0  0  0  0  0  0  0  0
   -1.8084   -0.4015   -1.4200 H   0  0  0  0  0  0  0  0  0  0  0  0
    0.2221   -0.1103   -0.7791 C   0  0  1  0  0  0  0  0  0  0  0  0
    0.9274   -0.7356   -1.3407 H   0  0  0  0  0  0  0  0  0  0  0  0
    0.0842    1.2845   -1.4442 C   0  0  0  0  0  0  0  0  0  0  0  0
   -0.9522    1.4585   -1.7427 H   0  0  0  0  0  0  0  0  0  0  0  0
    0.3486    2.0698   -0.7298 H   0  0  0  0  0  0  0  0  0  0  0  0
    0.9716    1.4642   -2.6723 C   0  0  0  0  0  0  0  0  0  0  0  0
    2.0405    0.9088   -2.8234 O   0  0  0  0  0  0  0  0  0  0  0  0
    0.6173    2.3172   -3.6783 N   0  0  0  0  0  0  0  0  0  0  0  0
    1.3544    2.5227   -4.3475 H   0  0  0  0  0  0  0  0  0  0  0  0
   -0.1103    3.0015   -3.5045 H   0  0  0  0  0  0  0  0  0  0  0  0
    0.8264    0.0434    0.6369 C   0  0  0  0  0  0  0  0  0  0  0  0
    2.0383    0.0223    0.7953 O   0  0  0  0  0  0  0  0  0  0  0  0
    0.0258    0.4816    1.6775 N   0  0  0  0  0  0  0  0  0  0  0  0
   -0.9735    0.3734    1.5419 H   0  0  0  0  0  0  0  0  0  0  0  0
    0.5290    0.6568    3.0344 C   0  0  0  0  0  0  0  0  0  0  0  0
    1.3341    1.3990    3.0525 H   0  0  0  0  0  0  0  0  0  0  0  0
   -0.2728    1.0032    3.6933 H   0  0  0  0  0  0  0  0  0  0  0  0
    0.9153   -0.2910    3.4242 H   0  0  0  0  0  0  0  0  0  0  0  0
  1  2  1  0  0  0  0
  2  3  1  0  0  0  0
  2  4  1  0  0  0  0
  2  5  1  0  0  0  0
  5  6  2  0  0  0  0
  5  7  1  0  0  0  0
  7  8  1  0  0  0  0
  7  9  1  0  0  0  0
  9 10  1  0  0  0  0
  9 11  1  0  0  0  0
  9 19  1  0  0  0  0
 11 12  1  0  0  0  0
 11 13  1  0  0  0  0
 11 14  1  0  0  0  0
 14 15  2  0  0  0  0
 14 16  1  0  0  0  0
 16 17  1  0  0  0  0
 16 18  1  0  0  0  0
 19 20  2  0  0  0  0
 19 21  1  0  0  0  0
 21 22  1  0  0  0  0
 21 23  1  0  0  0  0
 23 24  1  0  0  0  0
 23 25  1  0  0  0  0
 23 26  1  0  0  0  0
M  END
$$$$

  -OEChem-03222214023D

 26 25  0     1  0  0  0  0  0999 V2000
   -2.6426   -3.7686   -0.2445 H   0  0  0  0  0  0  0  0  0  0  0  0
   -2.6562   -2.7447   -0.6292 C   0  0  0  0  0  0  0  0  0  0  0  0
   -3.4745   -2.2006   -0.1519 H   0  0  0  0  0  0  0  0  0  0  0  0
   -2.8284   -2.7785   -1.7077 H   0  0  0  0  0  0  0  0  0  0  0  0
   -1.3344   -2.0600   -0.3348 C   0  0  0  0  0  0  0  0  0  0  0  0
   -0.4888   -2.6393    0.3217 O   0  0  0  0  0  0  0  0  0  0  0  0
   -1.1106   -0.7768   -0.7985 N   0  0  0  0  0  0  0  0  0  0  0  0
   -1.8107   -0.4139   -1.4380 H   0  0  0  0  0  0  0  0  0  0  0  0
    0.2102   -0.1137   -0.7771 C   0  0  1  0  0  0  0  0  0  0  0  0
    0.9108   -0.7456   -1.3363 H   0  0  0  0  0  0  0  0  0  0  0  0
    0.0816    1.2844   -1.4405 C   0  0  0  0  0  0  0  0  0  0  0  0
   -0.9536    1.4619   -1.7413 H   0  0  0  0  0  0  0  0  0  0  0  0
    0.3443    2.0644   -0.7198 H   0  0  0  0  0  0  0  0  0  0  0  0
    0.9660    1.4806   -2.6697 C   0  0  0  0  0  0  0  0  0  0  0  0
    1.8946    0.7579   -2.9703 O   0  0  0  0  0  0  0  0  0  0  0  0
    0.7691    2.5390   -3.5093 N   0  0  0  0  0  0  0  0  0  0  0  0
    1.5192    2.7034   -4.1754 H   0  0  0  0  0  0  0  0  0  0  0  0
    0.2033    3.3160   -3.1865 H   0  0  0  0  0  0  0  0  0  0  0  0
    0.8205    0.0397    0.6359 C   0  0  0  0  0  0  0  0  0  0  0  0
    2.0346    0.0463    0.7798 O   0  0  0  0  0  0  0  0  0  0  0  0
    0.0252    0.4794    1.6797 N   0  0  0  0  0  0  0  0  0  0  0  0
   -0.9735    0.3501    1.5576 H   0  0  0  0  0  0  0  0  0  0  0  0
    0.5416    0.6770    3.0286 C   0  0  0  0  0  0  0  0  0  0  0  0
    1.3462    1.4199    3.0263 H   0  0  0  0  0  0  0  0  0  0  0  0
   -0.2531    1.0339    3.6903 H   0  0  0  0  0  0  0  0  0  0  0  0
    0.9324   -0.2641    3.4295 H   0  0  0  0  0  0  0  0  0  0  0  0
  1  2  1  0  0  0  0
  2  3  1  0  0  0  0
  2  4  1  0  0  0  0
  2  5  1  0  0  0  0
  5  6  2  0  0  0  0
  5  7  1  0  0  0  0
  7  8  1  0  0  0  0
  7  9  1  0  0  0  0
  9 10  1  0  0  0  0
  9 11  1  0  0  0  0
  9 19  1  0  0  0  0
 11 12  1  0  0  0  0
 11 13  1  0  0  0  0
 11 14  1  0  0  0  0
 14 15  2  0  0  0  0
 14 16  1  0  0  0  0
 16 17  1  0  0  0  0
 16 18  1  0  0  0  0
 19 20  2  0  0  0  0
 19 21  1  0  0  0  0
 21 22  1  0  0  0  0
 21 23  1  0  0  0  0
 23 24  1  0  0  0  0
 23 25  1  0  0  0  0
 23 26  1  0  0  0  0
M  END
$$$$

  -OEChem-03222214023D

 26 25  0     1  0  0  0  0  0999 V2000
   -2.6528   -3.7628   -0.2458 H   0  0  0  0  0  0  0  0  0  0  0  0
   -2.6542   -2.7488   -0.6560 C   0  0  0  0  0  0  0  0  0  0  0  0
   -3.4912   -2.1955   -0.2238 H   0  0  0  0  0  0  0  0  0  0  0  0
   -2.7850   -2.8097   -1.7393 H   0  0  0  0  0  0  0  0  0  0  0  0
   -1.3463   -2.0521   -0.3297 C   0  0  0  0  0  0  0  0  0  0  0  0
   -0.5126   -2.6211    0.3508 O   0  0  0  0  0  0  0  0  0  0  0  0
   -1.1227   -0.7685   -0.7919 N   0  0  0  0  0  0  0  0  0  0  0  0
   -1.8091   -0.4203   -1.4543 H   0  0  0  0  0  0  0  0  0  0  0  0
    0.1999   -0.1096   -0.7728 C   0  0  1  0  0  0  0  0  0  0  0  0
    0.8961   -0.7450   -1.3329 H   0  0  0  0  0  0  0  0  0  0  0  0
    0.0755    1.2915   -1.4313 C   0  0  0  0  0  0  0  0  0  0  0  0
   -0.9596    1.4760   -1.7279 H   0  0  0  0  0  0  0  0  0  0  0  0
    0.3431    2.0653   -0.7058 H   0  0  0  0  0  0  0  0  0  0  0  0
    0.9549    1.4955   -2.6633 C   0  0  0  0  0  0  0  0  0  0  0  0
    1.7018    0.6537   -3.1213 O   0  0  0  0  0  0  0  0  0  0  0  0
    0.9582    2.6887   -3.3271 N   0  0  0  0  0  0  0  0  0  0  0  0
    1.7124    2.8037   -3.9988 H   0  0  0  0  0  0  0  0  0  0  0  0
    0.5719    3.5026   -2.8615 H   0  0  0  0  0  0  0  0  0  0  0  0
    0.8188    0.0411    0.6364 C   0  0  0  0  0  0  0  0  0  0  0  0
    2.0348    0.0674    0.7649 O   0  0  0  0  0  0  0  0  0  0  0  0
    0.0308    0.4817    1.6854 N   0  0  0  0  0  0  0  0  0  0  0  0
   -0.9672    0.3349    1.5753 H   0  0  0  0  0  0  0  0  0  0  0  0
    0.5581    0.6850    3.0292 C   0  0  0  0  0  0  0  0  0  0  0  0
    1.3524    1.4391    3.0200 H   0  0  0  0  0  0  0  0  0  0  0  0
   -0.2352    1.0300    3.6990 H   0  0  0  0  0  0  0  0  0  0  0  0
    0.9660   -0.2512    3.4249 H   0  0  0  0  0  0  0  0  0  0  0  0
  1  2  1  0  0  0  0
  2  3  1  0  0  0  0
  2  4  1  0  0  0  0
  2  5  1  0  0  0  0
  5  6  2  0  0  0  0
  5  7  1  0  0  0  0
  7  8  1  0  0  0  0
  7  9  1  0  0  0  0
  9 10  1  0  0  0  0
  9 11  1  0  0  0  0
  9 19  1  0  0  0  0
 11 12  1  0  0  0  0
 11 13  1  0  0  0  0
 11 14  1  0  0  0  0
 14 15  2  0  0  0  0
 14 16  1  0  0  0  0
 16 17  1  0  0  0  0
 16 18  1  0  0  0  0
 19 20  2  0  0  0  0
 19 21  1  0  0  0  0
 21 22  1  0  0  0  0
 21 23  1  0  0  0  0
 23 24  1  0  0  0  0
 23 25  1  0  0  0  0
 23 26  1  0  0  0  0
M  END
$$$$

  -OEChem-03222214023D

 26 25  0     1  0  0  0  0  0999 V2000
   -2.6585   -3.7535   -0.2441 H   0  0  0  0  0  0  0  0  0  0  0  0
   -2.6505   -2.7477   -0.6740 C   0  0  0  0  0  0  0  0  0  0  0  0
   -3.4955   -2.1852   -0.2695 H   0  0  0  0  0  0  0  0  0  0  0  0
   -2.7605   -2.8299   -1.7582 H   0  0  0  0  0  0  0  0  0  0  0  0
   -1.3480   -2.0462   -0.3363 C   0  0  0  0  0  0  0  0  0  0  0  0
   -0.5162   -2.6136    0.3485 O   0  0  0  0  0  0  0  0  0  0  0  0
   -1.1276   -0.7592   -0.7906 N   0  0  0  0  0  0  0  0  0  0  0  0
   -1.8090   -0.4139   -1.4599 H   0  0  0  0  0  0  0  0  0  0  0  0
    0.1938   -0.0988   -0.7694 C   0  0  1  0  0  0  0  0  0  0  0  0
    0.8908   -0.7292   -1.3342 H   0  0  0  0  0  0  0  0  0  0  0  0
    0.0681    1.3057   -1.4193 C   0  0  0  0  0  0  0  0  0  0  0  0
   -0.9660    1.4938   -1.7174 H   0  0  0  0  0  0  0  0  0  0  0  0
    0.3355    2.0749   -0.6888 H   0  0  0  0  0  0  0  0  0  0  0  0
    0.9486    1.5100   -2.6498 C   0  0  0  0  0  0  0  0  0  0  0  0
    1.4865    0.6054   -3.2581 O   0  0  0  0  0  0  0  0  0  0  0  0
    1.1836    2.7606   -3.1446 N   0  0  0  0  0  0  0  0  0  0  0  0
    1.9311    2.8177   -3.8311 H   0  0  0  0  0  0  0  0  0  0  0  0
    0.9855    3.5591   -2.5515 H   0  0  0  0  0  0  0  0  0  0  0  0
    0.8178    0.0451    0.6378 C   0  0  0  0  0  0  0  0  0  0  0  0
    2.0347    0.0869    0.7556 O   0  0  0  0  0  0  0  0  0  0  0  0
    0.0333    0.4784    1.6920 N   0  0  0  0  0  0  0  0  0  0  0  0
   -0.9642    0.3231    1.5875 H   0  0  0  0  0  0  0  0  0  0  0  0
    0.5665    0.6854    3.0330 C   0  0  0  0  0  0  0  0  0  0  0  0
    1.3486    1.4519    3.0211 H   0  0  0  0  0  0  0  0  0  0  0  0
   -0.2279    1.0157    3.7088 H   0  0  0  0  0  0  0  0  0  0  0  0
    0.9914   -0.2455    3.4236 H   0  0  0  0  0  0  0  0  0  0  0  0
  1  2  1  0  0  0  0
  2  3  1  0  0  0  0
  2  4  1  0  0  0  0
  2  5  1  0  0  0  0
  5  6  2  0  0  0  0
  5  7  1  0  0  0  0
  7  8  1  0  0  0  0
  7  9  1  0  0  0  0
  9 10  1  0  0  0  0
  9 11  1  0  0  0  0
  9 19  1  0  0  0  0
 11 12  1  0  0  0  0
 11 13  1  0  0  0  0
 11 14  1  0  0  0  0
 14 15  2  0  0  0  0
 14 16  1  0  0  0  0
 16 17  1  0  0  0  0
 16 18  1  0  0  0  0
 19 20  2  0  0  0  0
 19 21  1  0  0  0  0
 21 22  1  0  0  0  0
 21 23  1  0  0  0  0
 23 24  1  0  0  0  0
 23 25  1  0  0  0  0
 23 26  1  0  0  0  0
M  END
$$$$

  -OEChem-03222214023D

 26 25  0     1  0  0  0  0  0999 V2000
   -2.5980   -3.7879   -0.3302 H   0  0  0  0  0  0  0  0  0  0  0  0
   -2.6357   -2.7548   -0.6877 C   0  0  0  0  0  0  0  0  0  0  0  0
   -3.4815   -2.2492   -0.2157 H   0  0  0  0  0  0  0  0  0  0  0  0
   -2.7820   -2.7650   -1.7706 H   0  0  0  0  0  0  0  0  0  0  0  0
   -1.3436   -2.0372   -0.3446 C   0  0  0  0  0  0  0  0  0  0  0  0
   -0.5057   -2.5961    0.3401 O   0  0  0  0  0  0  0  0  0  0  0  0
   -1.1405   -0.7447   -0.7903 N   0  0  0  0  0  0  0  0  0  0  0  0
   -1.8205   -0.4095   -1.4664 H   0  0  0  0  0  0  0  0  0  0  0  0
    0.1748   -0.0738   -0.7692 C   0  0  1  0  0  0  0  0  0  0  0  0
    0.8733   -0.6952   -1.3427 H   0  0  0  0  0  0  0  0  0  0  0  0
    0.0428    1.3310   -1.4125 C   0  0  0  0  0  0  0  0  0  0  0  0
   -0.9896    1.5163   -1.7185 H   0  0  0  0  0  0  0  0  0  0  0  0
    0.3026    2.1015   -0.6807 H   0  0  0  0  0  0  0  0  0  0  0  0
    0.9306    1.5202   -2.6383 C   0  0  0  0  0  0  0  0  0  0  0  0
    1.2431    0.6071   -3.3785 O   0  0  0  0  0  0  0  0  0  0  0  0
    1.4550    2.7401   -2.9555 N   0  0  0  0  0  0  0  0  0  0  0  0
    2.1975    2.7199   -3.6494 H   0  0  0  0  0  0  0  0  0  0  0  0
    1.4606    3.4589   -2.2398 H   0  0  0  0  0  0  0  0  0  0  0  0
    0.8085    0.0666    0.6333 C   0  0  0  0  0  0  0  0  0  0  0  0
    2.0261    0.1294    0.7356 O   0  0  0  0  0  0  0  0  0  0  0  0
    0.0295    0.4860    1.6971 N   0  0  0  0  0  0  0  0  0  0  0  0
   -0.9669    0.3174    1.6011 H   0  0  0  0  0  0  0  0  0  0  0  0
    0.5718    0.6871    3.0353 C   0  0  0  0  0  0  0  0  0  0  0  0
    1.3633    1.4437    3.0199 H   0  0  0  0  0  0  0  0  0  0  0  0
   -0.2152    1.0278    3.7148 H   0  0  0  0  0  0  0  0  0  0  0  0
    0.9871   -0.2487    3.4240 H   0  0  0  0  0  0  0  0  0  0  0  0
  1  2  1  0  0  0  0
  2  3  1  0  0  0  0
  2  4  1  0  0  0  0
  2  5  1  0  0  0  0
  5  6  2  0  0  0  0
  5  7  1  0  0  0  0
  7  8  1  0  0  0  0
  7  9  1  0  0  0  0
  9 10  1  0  0  0  0
  9 11  1  0  0  0  0
  9 19  1  0  0  0  0
 11 12  1  0  0  0  0
 11 13  1  0  0  0  0
 11 14  1  0  0  0  0
 14 15  2  0  0  0  0
 14 16  1  0  0  0  0
 16 17  1  0  0  0  0
 16 18  1  0  0  0  0
 19 20  2  0  0  0  0
 19 21  1  0  0  0  0
 21 22  1  0  0  0  0
 21 23  1  0  0  0  0
 23 24  1  0  0  0  0
 23 25  1  0  0  0  0
 23 26  1  0  0  0  0
M  END
$$$$

  -OEChem-03222214023D

 26 25  0     1  0  0  0  0  0999 V2000
   -2.5687   -3.7965   -0.3573 H   0  0  0  0  0  0  0  0  0  0  0  0
   -2.6166   -2.7645   -0.7165 C   0  0  0  0  0  0  0  0  0  0  0  0
   -3.4735   -2.2698   -0.2532 H   0  0  0  0  0  0  0  0  0  0  0  0
   -2.7526   -2.7775   -1.8007 H   0  0  0  0  0  0  0  0  0  0  0  0
   -1.3375   -2.0290   -0.3620 C   0  0  0  0  0  0  0  0  0  0  0  0
   -0.4886   -2.5828    0.3135 O   0  0  0  0  0  0  0  0  0  0  0  0
   -1.1547   -0.7281   -0.7915 N   0  0  0  0  0  0  0  0  0  0  0  0
   -1.8391   -0.3964   -1.4653 H   0  0  0  0  0  0  0  0  0  0  0  0
    0.1516   -0.0412   -0.7690 C   0  0  1  0  0  0  0  0  0  0  0  0
    0.8516   -0.6472   -1.3578 H   0  0  0  0  0  0  0  0  0  0  0  0
    0.0046    1.3650   -1.4000 C   0  0  0  0  0  0  0  0  0  0  0  0
   -1.0272    1.5433   -1.7126 H   0  0  0  0  0  0  0  0  0  0  0  0
    0.2543    2.1381   -0.6673 H   0  0  0  0  0  0  0  0  0  0  0  0
    0.8995    1.5400   -2.6197 C   0  0  0  0  0  0  0  0  0  0  0  0
    0.9886    0.6854   -3.4810 O   0  0  0  0  0  0  0  0  0  0  0  0
    1.7306    2.6142   -2.7548 N   0  0  0  0  0  0  0  0  0  0  0  0
    2.4564    2.5045   -3.4575 H   0  0  0  0  0  0  0  0  0  0  0  0
    1.9230    3.1698   -1.9274 H   0  0  0  0  0  0  0  0  0  0  0  0
    0.8002    0.0935    0.6265 C   0  0  0  0  0  0  0  0  0  0  0  0
    2.0180    0.1839    0.7078 O   0  0  0  0  0  0  0  0  0  0  0  0
    0.0303    0.4914    1.7048 N   0  0  0  0  0  0  0  0  0  0  0  0
   -0.9650    0.3087    1.6226 H   0  0  0  0  0  0  0  0  0  0  0  0
    0.5899    0.6999    3.0347 C   0  0  0  0  0  0  0  0  0  0  0  0
    1.3679    1.4702    3.0081 H   0  0  0  0  0  0  0  0  0  0  0  0
   -0.1919    1.0261    3.7271 H   0  0  0  0  0  0  0  0  0  0  0  0
    1.0272   -0.2292    3.4151 H   0  0  0  0  0  0  0  0  0  0  0  0
  1  2  1  0  0  0  0
  2  3  1  0  0  0  0
  2  4  1  0  0  0  0
  2  5  1  0  0  0  0
  5  6  2  0  0  0  0
  5  7  1  0  0  0  0
  7  8  1  0  0  0  0
  7  9  1  0  0  0  0
  9 10  1  0  0  0  0
  9 11  1  0  0  0  0
  9 19  1  0  0  0  0
 11 12  1  0  0  0  0
 11 13  1  0  0  0  0
 11 14  1  0  0  0  0
 14 15  2  0  0  0  0
 14 16  1  0  0  0  0
 16 17  1  0  0  0  0
 16 18  1  0  0  0  0
 19 20  2  0  0  0  0
 19 21  1  0  0  0  0
 21 22  1  0  0  0  0
 21 23  1  0  0  0  0
 23 24  1  0  0  0  0
 23 25  1  0  0  0  0
 23 26  1  0  0  0  0
M  END
$$$$

  -OEChem-03222214023D

 26 25  0     1  0  0  0  0  0999 V2000
   -2.5359   -3.7992   -0.3853 H   0  0  0  0  0  0  0  0  0  0  0  0
   -2.5952   -2.7657   -0.7385 C   0  0  0  0  0  0  0  0  0  0  0  0
   -3.4525   -2.2806   -0.2659 H   0  0  0  0  0  0  0  0  0  0  0  0
   -2.7398   -2.7737   -1.8218 H   0  0  0  0  0  0  0  0  0  0  0  0
   -1.3197   -2.0211   -0.3901 C   0  0  0  0  0  0  0  0  0  0  0  0
   -0.4537   -2.5744    0.2642 O   0  0  0  0  0  0  0  0  0  0  0  0
   -1.1576   -0.7114   -0.8002 N   0  0  0  0  0  0  0  0  0  0  0  0
   -1.8525   -0.3752   -1.4612 H   0  0  0  0  0  0  0  0  0  0  0  0
    0.1377   -0.0058   -0.7700 C   0  0  1  0  0  0  0  0  0  0  0  0
    0.8408   -0.5961   -1.3719 H   0  0  0  0  0  0  0  0  0  0  0  0
   -0.0220    1.4015   -1.3881 C   0  0  0  0  0  0  0  0  0  0  0  0
   -1.0521    1.5704   -1.7116 H   0  0  0  0  0  0  0  0  0  0  0  0
    0.2146    2.1775   -0.6540 H   0  0  0  0  0  0  0  0  0  0  0  0
    0.8853    1.5671   -2.5965 C   0  0  0  0  0  0  0  0  0  0  0  0
    0.7794    0.8423   -3.5677 O   0  0  0  0  0  0  0  0  0  0  0  0
    1.9733    2.3902   -2.5703 N   0  0  0  0  0  0  0  0  0  0  0  0
    2.6617    2.2053   -3.2943 H   0  0  0  0  0  0  0  0  0  0  0  0
    2.2919    2.7112   -1.6607 H   0  0  0  0  0  0  0  0  0  0  0  0
    0.7962    0.1233    0.6202 C   0  0  0  0  0  0  0  0  0  0  0  0
    2.0125    0.2483    0.6841 O   0  0  0  0  0  0  0  0  0  0  0  0
    0.0304    0.4962    1.7098 N   0  0  0  0  0  0  0  0  0  0  0  0
   -0.9628    0.2982    1.6365 H   0  0  0  0  0  0  0  0  0  0  0  0
    0.5992    0.7118    3.0346 C   0  0  0  0  0  0  0  0  0  0  0  0
    1.3614    1.4976    3.0031 H   0  0  0  0  0  0  0  0  0  0  0  0
   -0.1818    1.0202    3.7360 H   0  0  0  0  0  0  0  0  0  0  0  0
    1.0585   -0.2098    3.4077 H   0  0  0  0  0  0  0  0  0  0  0  0
  1  2  1  0  0  0  0
  2  3  1  0  0  0  0
  2  4  1  0  0  0  0
  2  5  1  0  0  0  0
  5  6  2  0  0  0  0
  5  7  1  0  0  0  0
  7  8  1  0  0  0  0
  7  9  1  0  0  0  0
  9 10  1  0  0  0  0
  9 11  1  0  0  0  0
  9 19  1  0  0  0  0
 11 12  1  0  0  0  0
 11 13  1  0  0  0  0
 11 14  1  0  0  0  0
 14 15  2  0  0  0  0
 14 16  1  0  0  0  0
 16 17  1  0  0  0  0
 16 18  1  0  0  0  0
 19 20  2  0  0  0  0
 19 21  1  0  0  0  0
 21 22  1  0  0  0  0
 21 23  1  0  0  0  0
 23 24  1  0  0  0  0
 23 25  1  0  0  0  0
 23 26  1  0  0  0  0
M  END
$$$$

  -OEChem-03222214023D

 26 25  0     1  0  0  0  0  0999 V2000
   -2.5214   -3.7909   -0.3934 H   0  0  0  0  0  0  0  0  0  0  0  0
   -2.5785   -2.7634   -0.7639 C   0  0  0  0  0  0  0  0  0  0  0  0
   -3.4410   -2.2720   -0.3074 H   0  0  0  0  0  0  0  0  0  0  0  0
   -2.7129   -2.7890   -1.8480 H   0  0  0  0  0  0  0  0  0  0  0  0
   -1.3072   -2.0117   -0.4160 C   0  0  0  0  0  0  0  0  0  0  0  0
   -0.4283   -2.5659    0.2202 O   0  0  0  0  0  0  0  0  0  0  0  0
   -1.1590   -0.6948   -0.8074 N   0  0  0  0  0  0  0  0  0  0  0  0
   -1.8644   -0.3484   -1.4525 H   0  0  0  0  0  0  0  0  0  0  0  0
    0.1286    0.0230   -0.7646 C   0  0  1  0  0  0  0  0  0  0  0  0
    0.8329   -0.5618   -1.3708 H   0  0  0  0  0  0  0  0  0  0  0  0
   -0.0277    1.4299   -1.3788 C   0  0  0  0  0  0  0  0  0  0  0  0
   -1.0531    1.5963   -1.7185 H   0  0  0  0  0  0  0  0  0  0  0  0
    0.1991    2.2093   -0.6452 H   0  0  0  0  0  0  0  0  0  0  0  0
    0.9006    1.5814   -2.5703 C   0  0  0  0  0  0  0  0  0  0  0  0
    0.6476    1.0475   -3.6334 O   0  0  0  0  0  0  0  0  0  0  0  0
    2.1545    2.1004   -2.4282 N   0  0  0  0  0  0  0  0  0  0  0  0
    2.7975    1.8722   -3.1808 H   0  0  0  0  0  0  0  0  0  0  0  0
    2.5169    2.1789   -1.4806 H   0  0  0  0  0  0  0  0  0  0  0  0
    0.7940    0.1464    0.6216 C   0  0  0  0  0  0  0  0  0  0  0  0
    2.0084    0.2987    0.6698 O   0  0  0  0  0  0  0  0  0  0  0  0
    0.0337    0.4995    1.7212 N   0  0  0  0  0  0  0  0  0  0  0  0
   -0.9575    0.2887    1.6572 H   0  0  0  0  0  0  0  0  0  0  0  0
    0.6126    0.7240    3.0402 C   0  0  0  0  0  0  0  0  0  0  0  0
    1.3377    1.5440    3.0073 H   0  0  0  0  0  0  0  0  0  0  0  0
   -0.1710    0.9872    3.7569 H   0  0  0  0  0  0  0  0  0  0  0  0
    1.1189   -0.1802    3.3946 H   0  0  0  0  0  0  0  0  0  0  0  0
  1  2  1  0  0  0  0
  2  3  1  0  0  0  0
  2  4  1  0  0  0  0
  2  5  1  0  0  0  0
  5  6  2  0  0  0  0
  5  7  1  0  0  0  0
  7  8  1  0  0  0  0
  7  9  1  0  0  0  0
  9 10  1  0  0  0  0
  9 11  1  0  0  0  0
  9 19  1  0  0  0  0
 11 12  1  0  0  0  0
 11 13  1  0  0  0  0
 11 14  1  0  0  0  0
 14 15  2  0  0  0  0
 14 16  1  0  0  0  0
 16 17  1  0  0  0  0
 16 18  1  0  0  0  0
 19 20  2  0  0  0  0
 19 21  1  0  0  0  0
 21 22  1  0  0  0  0
 21 23  1  0  0  0  0
 23 24  1  0  0  0  0
 23 25  1  0  0  0  0
 23 26  1  0  0  0  0
M  END
$$$$

  -OEChem-03222214023D

 26 25  0     1  0  0  0  0  0999 V2000
   -2.5232   -3.7920   -0.4244 H   0  0  0  0  0  0  0  0  0  0  0  0
   -2.5852   -2.7565   -0.7714 C   0  0  0  0  0  0  0  0  0  0  0  0
   -3.4372   -2.2734   -0.2870 H   0  0  0  0  0  0  0  0  0  0  0  0
   -2.7413   -2.7582   -1.8530 H   0  0  0  0  0  0  0  0  0  0  0  0
   -1.3054   -2.0153   -0.4327 C   0  0  0  0  0  0  0  0  0  0  0  0
   -0.4206   -2.5793    0.1866 O   0  0  0  0  0  0  0  0  0  0  0  0
   -1.1522   -0.6968   -0.8161 N   0  0  0  0  0  0  0  0  0  0  0  0
   -1.8637   -0.3344   -1.4456 H   0  0  0  0  0  0  0  0  0  0  0  0
    0.1342    0.0206   -0.7558 C   0  0  1  0  0  0  0  0  0  0  0  0
    0.8401   -0.5707   -1.3536 H   0  0  0  0  0  0  0  0  0  0  0  0
   -0.0075    1.4229   -1.3814 C   0  0  0  0  0  0  0  0  0  0  0  0
   -1.0263    1.5900   -1.7408 H   0  0  0  0  0  0  0  0  0  0  0  0
    0.2107    2.2077   -0.6510 H   0  0  0  0  0  0  0  0  0  0  0  0
    0.9459    1.5582   -2.5537 C   0  0  0  0  0  0  0  0  0  0  0  0
    0.6071    1.2558   -3.6817 O   0  0  0  0  0  0  0  0  0  0  0  0
    2.2668    1.8342   -2.3491 N   0  0  0  0  0  0  0  0  0  0  0  0
    2.8804    1.6271   -3.1315 H   0  0  0  0  0  0  0  0  0  0  0  0
    2.6217    1.7314   -1.3992 H   0  0  0  0  0  0  0  0  0  0  0  0
    0.7966    0.1461    0.6306 C   0  0  0  0  0  0  0  0  0  0  0  0
    2.0119    0.2969    0.6730 O   0  0  0  0  0  0  0  0  0  0  0  0
    0.0387    0.4984    1.7317 N   0  0  0  0  0  0  0  0  0  0  0  0
   -0.9551    0.2995    1.6688 H   0  0  0  0  0  0  0  0  0  0  0  0
    0.6211    0.7298    3.0479 C   0  0  0  0  0  0  0  0  0  0  0  0
    1.3520    1.5444    3.0073 H   0  0  0  0  0  0  0  0  0  0  0  0
   -0.1594    1.0044    3.7639 H   0  0  0  0  0  0  0  0  0  0  0  0
    1.1217   -0.1749    3.4088 H   0  0  0  0  0  0  0  0  0  0  0  0
  1  2  1  0  0  0  0
  2  3  1  0  0  0  0
  2  4  1  0  0  0  0
  2  5  1  0  0  0  0
  5  6  2  0  0  0  0
  5  7  1  0  0  0  0
  7  8  1  0  0  0  0
  7  9  1  0  0  0  0
  9 10  1  0  0  0  0
  9 11  1  0  0  0  0
  9 19  1  0  0  0  0
 11 12  1  0  0  0  0
 11 13  1  0  0  0  0
 11 14  1  0  0  0  0
 14 15  2  0  0  0  0
 14 16  1  0  0  0  0
 16 17  1  0  0  0  0
 16 18  1  0  0  0  0
 19 20  2  0  0  0  0
 19 21  1  0  0  0  0
 21 22  1  0  0  0  0
 21 23  1  0  0  0  0
 23 24  1  0  0  0  0
 23 25  1  0  0  0  0
 23 26  1  0  0  0  0
M  END
$$$$

  -OEChem-03222214023D

 26 25  0     1  0  0  0  0  0999 V2000
   -2.5665   -3.7809   -0.4070 H   0  0  0  0  0  0  0  0  0  0  0  0
   -2.6116   -2.7472   -0.7617 C   0  0  0  0  0  0  0  0  0  0  0  0
   -3.4509   -2.2444   -0.2754 H   0  0  0  0  0  0  0  0  0  0  0  0
   -2.7757   -2.7542   -1.8421 H   0  0  0  0  0  0  0  0  0  0  0  0
   -1.3160   -2.0271   -0.4382 C   0  0  0  0  0  0  0  0  0  0  0  0
   -0.4308   -2.6057    0.1667 O   0  0  0  0  0  0  0  0  0  0  0  0
   -1.1463   -0.7106   -0.8206 N   0  0  0  0  0  0  0  0  0  0  0  0
   -1.8663   -0.3257   -1.4265 H   0  0  0  0  0  0  0  0  0  0  0  0
    0.1447   -0.0029   -0.7503 C   0  0  1  0  0  0  0  0  0  0  0  0
    0.8480   -0.6070   -1.3376 H   0  0  0  0  0  0  0  0  0  0  0  0
    0.0219    1.3938   -1.3927 C   0  0  0  0  0  0  0  0  0  0  0  0
   -0.9915    1.5653   -1.7653 H   0  0  0  0  0  0  0  0  0  0  0  0
    0.2388    2.1832   -0.6668 H   0  0  0  0  0  0  0  0  0  0  0  0
    0.9924    1.5117   -2.5533 C   0  0  0  0  0  0  0  0  0  0  0  0
    0.6127    1.4638   -3.7074 O   0  0  0  0  0  0  0  0  0  0  0  0
    2.3368    1.5986   -2.3308 N   0  0  0  0  0  0  0  0  0  0  0  0
    2.9351    1.4511   -3.1380 H   0  0  0  0  0  0  0  0  0  0  0  0
    2.6822    1.3767   -1.3967 H   0  0  0  0  0  0  0  0  0  0  0  0
    0.8019    0.1227    0.6378 C   0  0  0  0  0  0  0  0  0  0  0  0
    2.0195    0.2549    0.6815 O   0  0  0  0  0  0  0  0  0  0  0  0
    0.0445    0.4837    1.7362 N   0  0  0  0  0  0  0  0  0  0  0  0
   -0.9528    0.3047    1.6700 H   0  0  0  0  0  0  0  0  0  0  0  0
    0.6257    0.7252    3.0510 C   0  0  0  0  0  0  0  0  0  0  0  0
    1.3524    1.5432    3.0057 H   0  0  0  0  0  0  0  0  0  0  0  0
   -0.1560    1.0001    3.7654 H   0  0  0  0  0  0  0  0  0  0  0  0
    1.1308   -0.1749    3.4171 H   0  0  0  0  0  0  0  0  0  0  0  0
  1  2  1  0  0  0  0
  2  3  1  0  0  0  0
  2  4  1  0  0  0  0
  2  5  1  0  0  0  0
  5  6  2  0  0  0  0
  5  7  1  0  0  0  0
  7  8  1  0  0  0  0
  7  9  1  0  0  0  0
  9 10  1  0  0  0  0
  9 11  1  0  0  0  0
  9 19  1  0  0  0  0
 11 12  1  0  0  0  0
 11 13  1  0  0  0  0
 11 14  1  0  0  0  0
 14 15  2  0  0  0  0
 14 16  1  0  0  0  0
 16 17  1  0  0  0  0
 16 18  1  0  0  0  0
 19 20  2  0  0  0  0
 19 21  1  0  0  0  0
 21 22  1  0  0  0  0
 21 23  1  0  0  0  0
 23 24  1  0  0  0  0
 23 25  1  0  0  0  0
 23 26  1  0  0  0  0
M  END
$$$$

  -OEChem-03222214023D

 26 25  0     1  0  0  0  0  0999 V2000
   -2.6120   -3.7742   -0.3751 H   0  0  0  0  0  0  0  0  0  0  0  0
   -2.6475   -2.7403   -0.7307 C   0  0  0  0  0  0  0  0  0  0  0  0
   -3.4680   -2.2233   -0.2276 H   0  0  0  0  0  0  0  0  0  0  0  0
   -2.8343   -2.7464   -1.8074 H   0  0  0  0  0  0  0  0  0  0  0  0
   -1.3336   -2.0414   -0.4353 C   0  0  0  0  0  0  0  0  0  0  0  0
   -0.4471   -2.6337    0.1541 O   0  0  0  0  0  0  0  0  0  0  0  0
   -1.1467   -0.7293   -0.8258 N   0  0  0  0  0  0  0  0  0  0  0  0
   -1.8738   -0.3257   -1.4109 H   0  0  0  0  0  0  0  0  0  0  0  0
    0.1511   -0.0344   -0.7537 C   0  0  1  0  0  0  0  0  0  0  0  0
    0.8491   -0.6541   -1.3308 H   0  0  0  0  0  0  0  0  0  0  0  0
    0.0472    1.3554   -1.4153 C   0  0  0  0  0  0  0  0  0  0  0  0
   -0.9629    1.5317   -1.7947 H   0  0  0  0  0  0  0  0  0  0  0  0
    0.2679    2.1495   -0.6958 H   0  0  0  0  0  0  0  0  0  0  0  0
    1.0257    1.4595   -2.5717 C   0  0  0  0  0  0  0  0  0  0  0  0
    0.6488    1.6731   -3.7076 O   0  0  0  0  0  0  0  0  0  0  0  0
    2.3722    1.3754   -2.3562 N   0  0  0  0  0  0  0  0  0  0  0  0
    2.9725    1.3284   -3.1739 H   0  0  0  0  0  0  0  0  0  0  0  0
    2.7100    1.0650   -1.4443 H   0  0  0  0  0  0  0  0  0  0  0  0
    0.8036    0.0953    0.6354 C   0  0  0  0  0  0  0  0  0  0  0  0
    2.0240    0.1928    0.6843 O   0  0  0  0  0  0  0  0  0  0  0  0
    0.0480    0.4726    1.7292 N   0  0  0  0  0  0  0  0  0  0  0  0
   -0.9544    0.3289    1.6552 H   0  0  0  0  0  0  0  0  0  0  0  0
    0.6269    0.7093    3.0456 C   0  0  0  0  0  0  0  0  0  0  0  0
    1.3676    1.5146    2.9997 H   0  0  0  0  0  0  0  0  0  0  0  0
   -0.1534    1.0001    3.7554 H   0  0  0  0  0  0  0  0  0  0  0  0
    1.1149   -0.1980    3.4172 H   0  0  0  0  0  0  0  0  0  0  0  0
  1  2  1  0  0  0  0
  2  3  1  0  0  0  0
  2  4  1  0  0  0  0
  2  5  1  0  0  0  0
  5  6  2  0  0  0  0
  5  7  1  0  0  0  0
  7  8  1  0  0  0  0
  7  9  1  0  0  0  0
  9 10  1  0  0  0  0
  9 11  1  0  0  0  0
  9 19  1  0  0  0  0
 11 12  1  0  0  0  0
 11 13  1  0  0  0  0
 11 14  1  0  0  0  0
 14 15  2  0  0  0  0
 14 16  1  0  0  0  0
 16 17  1  0  0  0  0
 16 18  1  0  0  0  0
 19 20  2  0  0  0  0
 19 21  1  0  0  0  0
 21 22  1  0  0  0  0
 21 23  1  0  0  0  0
 23 24  1  0  0  0  0
 23 25  1  0  0  0  0
 23 26  1  0  0  0  0
M  END
$$$$

  -OEChem-03222214023D

 26 25  0     1  0  0  0  0  0999 V2000
   -2.6802   -3.7699   -0.3448 H   0  0  0  0  0  0  0  0  0  0  0  0
   -2.7040   -2.7324   -0.6902 C   0  0  0  0  0  0  0  0  0  0  0  0
   -3.5048   -2.2056   -0.1659 H   0  0  0  0  0  0  0  0  0  0  0  0
   -2.9123   -2.7255   -1.7628 H   0  0  0  0  0  0  0  0  0  0  0  0
   -1.3718   -2.0601   -0.4156 C   0  0  0  0  0  0  0  0  0  0  0  0
   -0.4932   -2.6641    0.1736 O   0  0  0  0  0  0  0  0  0  0  0  0
   -1.1597   -0.7578   -0.8251 N   0  0  0  0  0  0  0  0  0  0  0  0
   -1.8875   -0.3404   -1.3992 H   0  0  0  0  0  0  0  0  0  0  0  0
    0.1511   -0.0857   -0.7654 C   0  0  1  0  0  0  0  0  0  0  0  0
    0.8357   -0.7280   -1.3336 H   0  0  0  0  0  0  0  0  0  0  0  0
    0.0709    1.2981   -1.4459 C   0  0  0  0  0  0  0  0  0  0  0  0
   -0.9388    1.4862   -1.8210 H   0  0  0  0  0  0  0  0  0  0  0  0
    0.3078    2.0947   -0.7344 H   0  0  0  0  0  0  0  0  0  0  0  0
    1.0432    1.3876   -2.6109 C   0  0  0  0  0  0  0  0  0  0  0  0
    0.7077    1.8589   -3.6800 O   0  0  0  0  0  0  0  0  0  0  0  0
    2.3642    1.0744   -2.4564 N   0  0  0  0  0  0  0  0  0  0  0  0
    2.9964    1.3805   -3.1896 H   0  0  0  0  0  0  0  0  0  0  0  0
    2.7166    0.8813   -1.5182 H   0  0  0  0  0  0  0  0  0  0  0  0
    0.8058    0.0507    0.6225 C   0  0  0  0  0  0  0  0  0  0  0  0
    2.0274    0.1325    0.6717 O   0  0  0  0  0  0  0  0  0  0  0  0
    0.0560    0.4569    1.7102 N   0  0  0  0  0  0  0  0  0  0  0  0
   -0.9477    0.3209    1.6392 H   0  0  0  0  0  0  0  0  0  0  0  0
    0.6383    0.6970    3.0247 C   0  0  0  0  0  0  0  0  0  0  0  0
    1.4061    1.4758    2.9687 H   0  0  0  0  0  0  0  0  0  0  0  0
   -0.1340    1.0264    3.7262 H   0  0  0  0  0  0  0  0  0  0  0  0
    1.0937   -0.2197    3.4138 H   0  0  0  0  0  0  0  0  0  0  0  0
  1  2  1  0  0  0  0
  2  3  1  0  0  0  0
  2  4  1  0  0  0  0
  2  5  1  0  0  0  0
  5  6  2  0  0  0  0
  5  7  1  0  0  0  0
  7  8  1  0  0  0  0
  7  9  1  0  0  0  0
  9 10  1  0  0  0  0
  9 11  1  0  0  0  0
  9 19  1  0  0  0  0
 11 12  1  0  0  0  0
 11 13  1  0  0  0  0
 11 14  1  0  0  0  0
 14 15  2  0  0  0  0
 14 16  1  0  0  0  0
 16 17  1  0  0  0  0
 16 18  1  0  0  0  0
 19 20  2  0  0  0  0
 19 21  1  0  0  0  0
 21 22  1  0  0  0  0
 21 23  1  0  0  0  0
 23 24  1  0  0  0  0
 23 25  1  0  0  0  0
 23 26  1  0  0  0  0
M  END
$$$$

  -OEChem-03222214023D

 26 25  0     1  0  0  0  0  0999 V2000
   -2.7340   -3.7665   -0.3053 H   0  0  0  0  0  0  0  0  0  0  0  0
   -2.7484   -2.7315   -0.6590 C   0  0  0  0  0  0  0  0  0  0  0  0
   -3.5330   -2.1888   -0.1266 H   0  0  0  0  0  0  0  0  0  0  0  0
   -2.9741   -2.7300   -1.7282 H   0  0  0  0  0  0  0  0  0  0  0  0
   -1.4026   -2.0761   -0.4106 C   0  0  0  0  0  0  0  0  0  0  0  0
   -0.5217   -2.6902    0.1642 O   0  0  0  0  0  0  0  0  0  0  0  0
   -1.1790   -0.7784   -0.8289 N   0  0  0  0  0  0  0  0  0  0  0  0
   -1.9150   -0.3464   -1.3814 H   0  0  0  0  0  0  0  0  0  0  0  0
    0.1375   -0.1167   -0.7776 C   0  0  1  0  0  0  0  0  0  0  0  0
    0.8102   -0.7753   -1.3402 H   0  0  0  0  0  0  0  0  0  0  0  0
    0.0666    1.2583   -1.4790 C   0  0  0  0  0  0  0  0  0  0  0  0
   -0.9424    1.4456   -1.8554 H   0  0  0  0  0  0  0  0  0  0  0  0
    0.3060    2.0612   -0.7751 H   0  0  0  0  0  0  0  0  0  0  0  0
    1.0341    1.3460   -2.6498 C   0  0  0  0  0  0  0  0  0  0  0  0
    0.7858    2.0431   -3.6141 O   0  0  0  0  0  0  0  0  0  0  0  0
    2.3201    0.8942   -2.5493 N   0  0  0  0  0  0  0  0  0  0  0  0
    2.9743    1.2821   -3.2224 H   0  0  0  0  0  0  0  0  0  0  0  0
    2.6553    0.6167   -1.6261 H   0  0  0  0  0  0  0  0  0  0  0  0
    0.8024    0.0265    0.6042 C   0  0  0  0  0  0  0  0  0  0  0  0
    2.0256    0.0808    0.6440 O   0  0  0  0  0  0  0  0  0  0  0  0
    0.0664    0.4478    1.6956 N   0  0  0  0  0  0  0  0  0  0  0  0
   -0.9407    0.3370    1.6307 H   0  0  0  0  0  0  0  0  0  0  0  0
    0.6618    0.6912    3.0036 C   0  0  0  0  0  0  0  0  0  0  0  0
    1.4360    1.4627    2.9352 H   0  0  0  0  0  0  0  0  0  0  0  0
   -0.1014    1.0326    3.7096 H   0  0  0  0  0  0  0  0  0  0  0  0
    1.1127   -0.2268    3.3952 H   0  0  0  0  0  0  0  0  0  0  0  0
  1  2  1  0  0  0  0
  2  3  1  0  0  0  0
  2  4  1  0  0  0  0
  2  5  1  0  0  0  0
  5  6  2  0  0  0  0
  5  7  1  0  0  0  0
  7  8  1  0  0  0  0
  7  9  1  0  0  0  0
  9 10  1  0  0  0  0
  9 11  1  0  0  0  0
  9 19  1  0  0  0  0
 11 12  1  0  0  0  0
 11 13  1  0  0  0  0
 11 14  1  0  0  0  0
 14 15  2  0  0  0  0
 14 16  1  0  0  0  0
 16 17  1  0  0  0  0
 16 18  1  0  0  0  0
 19 20  2  0  0  0  0
 19 21  1  0  0  0  0
 21 22  1  0  0  0  0
 21 23  1  0  0  0  0
 23 24  1  0  0  0  0
 23 25  1  0  0  0  0
 23 26  1  0  0  0  0
M  END
$$$$

  -OEChem-03222214023D

 26 25  0     1  0  0  0  0  0999 V2000
   -2.7680   -3.7610   -0.2576 H   0  0  0  0  0  0  0  0  0  0  0  0
   -2.7777   -2.7292   -0.6203 C   0  0  0  0  0  0  0  0  0  0  0  0
   -3.5425   -2.1721   -0.0740 H   0  0  0  0  0  0  0  0  0  0  0  0
   -3.0290   -2.7341   -1.6837 H   0  0  0  0  0  0  0  0  0  0  0  0
   -1.4180   -2.0893   -0.4106 C   0  0  0  0  0  0  0  0  0  0  0  0
   -0.5269   -2.7141    0.1362 O   0  0  0  0  0  0  0  0  0  0  0  0
   -1.1920   -0.7939   -0.8349 N   0  0  0  0  0  0  0  0  0  0  0  0
   -1.9426   -0.3451   -1.3529 H   0  0  0  0  0  0  0  0  0  0  0  0
    0.1260   -0.1346   -0.7924 C   0  0  1  0  0  0  0  0  0  0  0  0
    0.7913   -0.8023   -1.3517 H   0  0  0  0  0  0  0  0  0  0  0  0
    0.0507    1.2352   -1.5067 C   0  0  0  0  0  0  0  0  0  0  0  0
   -0.9615    1.4163   -1.8774 H   0  0  0  0  0  0  0  0  0  0  0  0
    0.2887    2.0406   -0.8054 H   0  0  0  0  0  0  0  0  0  0  0  0
    1.0056    1.3414   -2.6887 C   0  0  0  0  0  0  0  0  0  0  0  0
    0.8728    2.2299   -3.5069 O   0  0  0  0  0  0  0  0  0  0  0  0
    2.2323    0.7390   -2.6915 N   0  0  0  0  0  0  0  0  0  0  0  0
    2.9102    1.1655   -3.3163 H   0  0  0  0  0  0  0  0  0  0  0  0
    2.5589    0.3467   -1.8088 H   0  0  0  0  0  0  0  0  0  0  0  0
    0.7964    0.0126    0.5858 C   0  0  0  0  0  0  0  0  0  0  0  0
    2.0201    0.0365    0.6246 O   0  0  0  0  0  0  0  0  0  0  0  0
    0.0675    0.4400    1.6796 N   0  0  0  0  0  0  0  0  0  0  0  0
   -0.9418    0.3539    1.6141 H   0  0  0  0  0  0  0  0  0  0  0  0
    0.6690    0.6813    2.9851 C   0  0  0  0  0  0  0  0  0  0  0  0
    1.4549    1.4406    2.9116 H   0  0  0  0  0  0  0  0  0  0  0  0
   -0.0879    1.0379    3.6902 H   0  0  0  0  0  0  0  0  0  0  0  0
    1.1064   -0.2416    3.3807 H   0  0  0  0  0  0  0  0  0  0  0  0
  1  2  1  0  0  0  0
  2  3  1  0  0  0  0
  2  4  1  0  0  0  0
  2  5  1  0  0  0  0
  5  6  2  0  0  0  0
  5  7  1  0  0  0  0
  7  8  1  0  0  0  0
  7  9  1  0  0  0  0
  9 10  1  0  0  0  0
  9 11  1  0  0  0  0
  9 19  1  0  0  0  0
 11 12  1  0  0  0  0
 11 13  1  0  0  0  0
 11 14  1  0  0  0  0
 14 15  2  0  0  0  0
 14 16  1  0  0  0  0
 16 17  1  0  0  0  0
 16 18  1  0  0  0  0
 19 20  2  0  0  0  0
 19 21  1  0  0  0  0
 21 22  1  0  0  0  0
 21 23  1  0  0  0  0
 23 24  1  0  0  0  0
 23 25  1  0  0  0  0
 23 26  1  0  0  0  0
M  END
$$$$

  -OEChem-03222214023D

 26 25  0     1  0  0  0  0  0999 V2000
   -2.7109   -3.7213   -0.1803 H   0  0  0  0  0  0  0  0  0  0  0  0
   -2.7090   -2.6935   -0.5549 C   0  0  0  0  0  0  0  0  0  0  0  0
   -3.4490   -2.1149    0.0033 H   0  0  0  0  0  0  0  0  0  0  0  0
   -2.9858   -2.7054   -1.6119 H   0  0  0  0  0  0  0  0  0  0  0  0
   -1.3321   -2.0791   -0.3858 C   0  0  0  0  0  0  0  0  0  0  0  0
   -0.4363   -2.7234    0.1290 O   0  0  0  0  0  0  0  0  0  0  0  0
   -1.0910   -0.7936   -0.8318 N   0  0  0  0  0  0  0  0  0  0  0  0
   -1.8491   -0.3292   -1.3246 H   0  0  0  0  0  0  0  0  0  0  0  0
    0.2254   -0.1310   -0.7736 C   0  0  1  0  0  0  0  0  0  0  0  0
    0.9457   -0.7649   -1.2978 H   0  0  0  0  0  0  0  0  0  0  0  0
    0.1113    1.2560   -1.4515 C   0  0  0  0  0  0  0  0  0  0  0  0
   -0.9357    1.5622   -1.5187 H   0  0  0  0  0  0  0  0  0  0  0  0
    0.6227    2.0009   -0.8333 H   0  0  0  0  0  0  0  0  0  0  0  0
    0.7339    1.3554   -2.8421 C   0  0  0  0  0  0  0  0  0  0  0  0
    0.6898    2.4065   -3.4497 O   0  0  0  0  0  0  0  0  0  0  0  0
    1.3991    0.3481   -3.4846 N   0  0  0  0  0  0  0  0  0  0  0  0
    1.9253    0.6391   -4.3041 H   0  0  0  0  0  0  0  0  0  0  0  0
    1.7294   -0.4406   -2.9384 H   0  0  0  0  0  0  0  0  0  0  0  0
    0.8040    0.0155    0.6503 C   0  0  0  0  0  0  0  0  0  0  0  0
    2.0168   -0.0283    0.8016 O   0  0  0  0  0  0  0  0  0  0  0  0
    0.0030    0.4479    1.6914 N   0  0  0  0  0  0  0  0  0  0  0  0
   -0.9996    0.4197    1.5388 H   0  0  0  0  0  0  0  0  0  0  0  0
    0.5039    0.6504    3.0451 C   0  0  0  0  0  0  0  0  0  0  0  0
    1.3025    1.3998    3.0504 H   0  0  0  0  0  0  0  0  0  0  0  0
   -0.3006    1.0010    3.6986 H   0  0  0  0  0  0  0  0  0  0  0  0
    0.8977   -0.2874    3.4510 H   0  0  0  0  0  0  0  0  0  0  0  0
  1  2  1  0  0  0  0
  2  3  1  0  0  0  0
  2  4  1  0  0  0  0
  2  5  1  0  0  0  0
  5  6  2  0  0  0  0
  5  7  1  0  0  0  0
  7  8  1  0  0  0  0
  7  9  1  0  0  0  0
  9 10  1  0  0  0  0
  9 11  1  0  0  0  0
  9 19  1  0  0  0  0
 11 12  1  0  0  0  0
 11 13  1  0  0  0  0
 11 14  1  0  0  0  0
 14 15  2  0  0  0  0
 14 16  1  0  0  0  0
 16 17  1  0  0  0  0
 16 18  1  0  0  0  0
 19 20  2  0  0  0  0
 19 21  1  0  0  0  0
 21 22  1  0  0  0  0
 21 23  1  0  0  0  0
 23 24  1  0  0  0  0
 23 25  1  0  0  0  0
 23 26  1  0  0  0  0
M  END
$$$$

  -OEChem-03222214023D

 26 25  0     1  0  0  0  0  0999 V2000
   -2.6577   -3.7072   -0.1750 H   0  0  0  0  0  0  0  0  0  0  0  0
   -2.6626   -2.6748   -0.5365 C   0  0  0  0  0  0  0  0  0  0  0  0
   -3.3693   -2.0964    0.0632 H   0  0  0  0  0  0  0  0  0  0  0  0
   -2.9895   -2.6698   -1.5791 H   0  0  0  0  0  0  0  0  0  0  0  0
   -1.2729   -2.0767   -0.4235 C   0  0  0  0  0  0  0  0  0  0  0  0
   -0.3591   -2.7388    0.0332 O   0  0  0  0  0  0  0  0  0  0  0  0
   -1.0388   -0.7858   -0.8575 N   0  0  0  0  0  0  0  0  0  0  0  0
   -1.8226   -0.2891   -1.2724 H   0  0  0  0  0  0  0  0  0  0  0  0
    0.2695   -0.1086   -0.7751 C   0  0  1  0  0  0  0  0  0  0  0  0
    1.0161   -0.7194   -1.2933 H   0  0  0  0  0  0  0  0  0  0  0  0
    0.1489    1.2818   -1.4415 C   0  0  0  0  0  0  0  0  0  0  0  0
   -0.8990    1.5792   -1.5287 H   0  0  0  0  0  0  0  0  0  0  0  0
    0.6451    2.0295   -0.8139 H   0  0  0  0  0  0  0  0  0  0  0  0
    0.7965    1.3685   -2.8195 C   0  0  0  0  0  0  0  0  0  0  0  0
    1.0130    2.4499   -3.3286 O   0  0  0  0  0  0  0  0  0  0  0  0
    1.0116    0.2913   -3.6341 N   0  0  0  0  0  0  0  0  0  0  0  0
    1.5511    0.4815   -4.4742 H   0  0  0  0  0  0  0  0  0  0  0  0
    1.0209   -0.6388   -3.2292 H   0  0  0  0  0  0  0  0  0  0  0  0
    0.8131    0.0290    0.6643 C   0  0  0  0  0  0  0  0  0  0  0  0
    2.0199   -0.0210    0.8532 O   0  0  0  0  0  0  0  0  0  0  0  0
   -0.0179    0.4427    1.6898 N   0  0  0  0  0  0  0  0  0  0  0  0
   -1.0154    0.4287    1.5069 H   0  0  0  0  0  0  0  0  0  0  0  0
    0.4450    0.6326    3.0590 C   0  0  0  0  0  0  0  0  0  0  0  0
    1.2390    1.3860    3.0949 H   0  0  0  0  0  0  0  0  0  0  0  0
   -0.3793    0.9716    3.6936 H   0  0  0  0  0  0  0  0  0  0  0  0
    0.8328   -0.3075    3.4655 H   0  0  0  0  0  0  0  0  0  0  0  0
  1  2  1  0  0  0  0
  2  3  1  0  0  0  0
  2  4  1  0  0  0  0
  2  5  1  0  0  0  0
  5  6  2  0  0  0  0
  5  7  1  0  0  0  0
  7  8  1  0  0  0  0
  7  9  1  0  0  0  0
  9 10  1  0  0  0  0
  9 11  1  0  0  0  0
  9 19  1  0  0  0  0
 11 12  1  0  0  0  0
 11 13  1  0  0  0  0
 11 14  1  0  0  0  0
 14 15  2  0  0  0  0
 14 16  1  0  0  0  0
 16 17  1  0  0  0  0
 16 18  1  0  0  0  0
 19 20  2  0  0  0  0
 19 21  1  0  0  0  0
 21 22  1  0  0  0  0
 21 23  1  0  0  0  0
 23 24  1  0  0  0  0
 23 25  1  0  0  0  0
 23 26  1  0  0  0  0
M  END
$$$$

  -OEChem-03222214023D

 26 25  0     1  0  0  0  0  0999 V2000
   -2.6455   -3.7029   -0.1691 H   0  0  0  0  0  0  0  0  0  0  0  0
   -2.6576   -2.6678   -0.5229 C   0  0  0  0  0  0  0  0  0  0  0  0
   -3.3422   -2.0910    0.1037 H   0  0  0  0  0  0  0  0  0  0  0  0
   -3.0177   -2.6544   -1.5545 H   0  0  0  0  0  0  0  0  0  0  0  0
   -1.2624   -2.0762   -0.4510 C   0  0  0  0  0  0  0  0  0  0  0  0
   -0.3352   -2.7480   -0.0380 O   0  0  0  0  0  0  0  0  0  0  0  0
   -1.0392   -0.7798   -0.8741 N   0  0  0  0  0  0  0  0  0  0  0  0
   -1.8417   -0.2646   -1.2253 H   0  0  0  0  0  0  0  0  0  0  0  0
    0.2648   -0.0947   -0.7883 C   0  0  1  0  0  0  0  0  0  0  0  0
    1.0155   -0.6926   -1.3184 H   0  0  0  0  0  0  0  0  0  0  0  0
    0.1331    1.2969   -1.4464 C   0  0  0  0  0  0  0  0  0  0  0  0
   -0.9155    1.5894   -1.5392 H   0  0  0  0  0  0  0  0  0  0  0  0
    0.6250    2.0473   -0.8185 H   0  0  0  0  0  0  0  0  0  0  0  0
    0.7879    1.3636   -2.8204 C   0  0  0  0  0  0  0  0  0  0  0  0
    1.2590    2.4014   -3.2401 O   0  0  0  0  0  0  0  0  0  0  0  0
    0.7433    0.3311   -3.7157 N   0  0  0  0  0  0  0  0  0  0  0  0
    1.3142    0.4516   -4.5480 H   0  0  0  0  0  0  0  0  0  0  0  0
    0.5401   -0.6026   -3.3742 H   0  0  0  0  0  0  0  0  0  0  0  0
    0.8101    0.0333    0.6515 C   0  0  0  0  0  0  0  0  0  0  0  0
    2.0162   -0.0202    0.8417 O   0  0  0  0  0  0  0  0  0  0  0  0
   -0.0215    0.4322    1.6828 N   0  0  0  0  0  0  0  0  0  0  0  0
   -1.0187    0.4323    1.4985 H   0  0  0  0  0  0  0  0  0  0  0  0
    0.4443    0.6188    3.0515 C   0  0  0  0  0  0  0  0  0  0  0  0
    1.2330    1.3778    3.0880 H   0  0  0  0  0  0  0  0  0  0  0  0
   -0.3802    0.9484    3.6907 H   0  0  0  0  0  0  0  0  0  0  0  0
    0.8405   -0.3203    3.4519 H   0  0  0  0  0  0  0  0  0  0  0  0
  1  2  1  0  0  0  0
  2  3  1  0  0  0  0
  2  4  1  0  0  0  0
  2  5  1  0  0  0  0
  5  6  2  0  0  0  0
  5  7  1  0  0  0  0
  7  8  1  0  0  0  0
  7  9  1  0  0  0  0
  9 10  1  0  0  0  0
  9 11  1  0  0  0  0
  9 19  1  0  0  0  0
 11 12  1  0  0  0  0
 11 13  1  0  0  0  0
 11 14  1  0  0  0  0
 14 15  2  0  0  0  0
 14 16  1  0  0  0  0
 16 17  1  0  0  0  0
 16 18  1  0  0  0  0
 19 20  2  0  0  0  0
 19 21  1  0  0  0  0
 21 22  1  0  0  0  0
 21 23  1  0  0  0  0
 23 24  1  0  0  0  0
 23 25  1  0  0  0  0
 23 26  1  0  0  0  0
M  END
$$$$

  -OEChem-03222214023D

 26 25  0     1  0  0  0  0  0999 V2000
   -2.6343   -3.6905   -0.1421 H   0  0  0  0  0  0  0  0  0  0  0  0
   -2.6547   -2.6564   -0.4986 C   0  0  0  0  0  0  0  0  0  0  0  0
   -3.3154   -2.0754    0.1492 H   0  0  0  0  0  0  0  0  0  0  0  0
   -3.0501   -2.6442   -1.5173 H   0  0  0  0  0  0  0  0  0  0  0  0
   -1.2556   -2.0697   -0.4760 C   0  0  0  0  0  0  0  0  0  0  0  0
   -0.3154   -2.7484   -0.1068 O   0  0  0  0  0  0  0  0  0  0  0  0
   -1.0460   -0.7682   -0.8908 N   0  0  0  0  0  0  0  0  0  0  0  0
   -1.8660   -0.2380   -1.1721 H   0  0  0  0  0  0  0  0  0  0  0  0
    0.2546   -0.0750   -0.8064 C   0  0  1  0  0  0  0  0  0  0  0  0
    1.0056   -0.6611   -1.3507 H   0  0  0  0  0  0  0  0  0  0  0  0
    0.1058    1.3183   -1.4547 C   0  0  0  0  0  0  0  0  0  0  0  0
   -0.9451    1.6029   -1.5452 H   0  0  0  0  0  0  0  0  0  0  0  0
    0.5934    2.0720   -0.8272 H   0  0  0  0  0  0  0  0  0  0  0  0
    0.7579    1.3768   -2.8288 C   0  0  0  0  0  0  0  0  0  0  0  0
    1.4577    2.3113   -3.1625 O   0  0  0  0  0  0  0  0  0  0  0  0
    0.5232    0.4326   -3.7888 N   0  0  0  0  0  0  0  0  0  0  0  0
    1.1258    0.4879   -4.6057 H   0  0  0  0  0  0  0  0  0  0  0  0
    0.1474   -0.4650   -3.5013 H   0  0  0  0  0  0  0  0  0  0  0  0
    0.8070    0.0453    0.6314 C   0  0  0  0  0  0  0  0  0  0  0  0
    2.0124   -0.0189    0.8218 O   0  0  0  0  0  0  0  0  0  0  0  0
   -0.0232    0.4311    1.6688 N   0  0  0  0  0  0  0  0  0  0  0  0
   -1.0202    0.4370    1.4852 H   0  0  0  0  0  0  0  0  0  0  0  0
    0.4433    0.5912    3.0405 C   0  0  0  0  0  0  0  0  0  0  0  0
    1.2401    1.3409    3.0901 H   0  0  0  0  0  0  0  0  0  0  0  0
   -0.3783    0.9195    3.6842 H   0  0  0  0  0  0  0  0  0  0  0  0
    0.8291   -0.3586    3.4256 H   0  0  0  0  0  0  0  0  0  0  0  0
  1  2  1  0  0  0  0
  2  3  1  0  0  0  0
  2  4  1  0  0  0  0
  2  5  1  0  0  0  0
  5  6  2  0  0  0  0
  5  7  1  0  0  0  0
  7  8  1  0  0  0  0
  7  9  1  0  0  0  0
  9 10  1  0  0  0  0
  9 11  1  0  0  0  0
  9 19  1  0  0  0  0
 11 12  1  0  0  0  0
 11 13  1  0  0  0  0
 11 14  1  0  0  0  0
 14 15  2  0  0  0  0
 14 16  1  0  0  0  0
 16 17  1  0  0  0  0
 16 18  1  0  0  0  0
 19 20  2  0  0  0  0
 19 21  1  0  0  0  0
 21 22  1  0  0  0  0
 21 23  1  0  0  0  0
 23 24  1  0  0  0  0
 23 25  1  0  0  0  0
 23 26  1  0  0  0  0
M  END
$$$$

  -OEChem-03222214023D

 26 25  0     1  0  0  0  0  0999 V2000
   -2.6299   -3.6895   -0.1631 H   0  0  0  0  0  0  0  0  0  0  0  0
   -2.6585   -2.6517   -0.5079 C   0  0  0  0  0  0  0  0  0  0  0  0
   -3.3158   -2.0813    0.1526 H   0  0  0  0  0  0  0  0  0  0  0  0
   -3.0633   -2.6305   -1.5226 H   0  0  0  0  0  0  0  0  0  0  0  0
   -1.2617   -2.0589   -0.4925 C   0  0  0  0  0  0  0  0  0  0  0  0
   -0.3164   -2.7370   -0.1357 O   0  0  0  0  0  0  0  0  0  0  0  0
   -1.0624   -0.7518   -0.8956 N   0  0  0  0  0  0  0  0  0  0  0  0
   -1.8894   -0.2196   -1.1507 H   0  0  0  0  0  0  0  0  0  0  0  0
    0.2363   -0.0536   -0.8133 C   0  0  1  0  0  0  0  0  0  0  0  0
    0.9840   -0.6323   -1.3707 H   0  0  0  0  0  0  0  0  0  0  0  0
    0.0799    1.3426   -1.4525 C   0  0  0  0  0  0  0  0  0  0  0  0
   -0.9714    1.6273   -1.5380 H   0  0  0  0  0  0  0  0  0  0  0  0
    0.5694    2.0951   -0.8248 H   0  0  0  0  0  0  0  0  0  0  0  0
    0.7294    1.3993   -2.8272 C   0  0  0  0  0  0  0  0  0  0  0  0
    1.6291    2.1734   -3.0828 O   0  0  0  0  0  0  0  0  0  0  0  0
    0.3308    0.5840   -3.8482 N   0  0  0  0  0  0  0  0  0  0  0  0
    0.9508    0.5740   -4.6538 H   0  0  0  0  0  0  0  0  0  0  0  0
   -0.2013   -0.2478   -3.6166 H   0  0  0  0  0  0  0  0  0  0  0  0
    0.8010    0.0551    0.6210 C   0  0  0  0  0  0  0  0  0  0  0  0
    2.0079   -0.0061    0.8014 O   0  0  0  0  0  0  0  0  0  0  0  0
   -0.0199    0.4267    1.6713 N   0  0  0  0  0  0  0  0  0  0  0  0
   -1.0191    0.4282    1.5005 H   0  0  0  0  0  0  0  0  0  0  0  0
    0.4634    0.5792    3.0383 C   0  0  0  0  0  0  0  0  0  0  0  0
    1.2485    1.3415    3.0846 H   0  0  0  0  0  0  0  0  0  0  0  0
   -0.3537    0.8865    3.6978 H   0  0  0  0  0  0  0  0  0  0  0  0
    0.8704   -0.3680    3.4077 H   0  0  0  0  0  0  0  0  0  0  0  0
  1  2  1  0  0  0  0
  2  3  1  0  0  0  0
  2  4  1  0  0  0  0
  2  5  1  0  0  0  0
  5  6  2  0  0  0  0
  5  7  1  0  0  0  0
  7  8  1  0  0  0  0
  7  9  1  0  0  0  0
  9 10  1  0  0  0  0
  9 11  1  0  0  0  0
  9 19  1  0  0  0  0
 11 12  1  0  0  0  0
 11 13  1  0  0  0  0
 11 14  1  0  0  0  0
 14 15  2  0  0  0  0
 14 16  1  0  0  0  0
 16 17  1  0  0  0  0
 16 18  1  0  0  0  0
 19 20  2  0  0  0  0
 19 21  1  0  0  0  0
 21 22  1  0  0  0  0
 21 23  1  0  0  0  0
 23 24  1  0  0  0  0
 23 25  1  0  0  0  0
 23 26  1  0  0  0  0
M  END
$$$$

  -OEChem-03222214023D

 26 25  0     1  0  0  0  0  0999 V2000
   -2.6207   -3.6797   -0.1681 H   0  0  0  0  0  0  0  0  0  0  0  0
   -2.6521   -2.6421   -0.5130 C   0  0  0  0  0  0  0  0  0  0  0  0
   -3.3100   -2.0727    0.1478 H   0  0  0  0  0  0  0  0  0  0  0  0
   -3.0576   -2.6222   -1.5274 H   0  0  0  0  0  0  0  0  0  0  0  0
   -1.2565   -2.0465   -0.4983 C   0  0  0  0  0  0  0  0  0  0  0  0
   -0.3100   -2.7246   -0.1454 O   0  0  0  0  0  0  0  0  0  0  0  0
   -1.0623   -0.7367   -0.8955 N   0  0  0  0  0  0  0  0  0  0  0  0
   -1.8927   -0.2037   -1.1357 H   0  0  0  0  0  0  0  0  0  0  0  0
    0.2353   -0.0357   -0.8168 C   0  0  1  0  0  0  0  0  0  0  0  0
    0.9816   -0.6072   -1.3840 H   0  0  0  0  0  0  0  0  0  0  0  0
    0.0706    1.3636   -1.4458 C   0  0  0  0  0  0  0  0  0  0  0  0
   -0.9812    1.6494   -1.5198 H   0  0  0  0  0  0  0  0  0  0  0  0
    0.5653    2.1135   -0.8194 H   0  0  0  0  0  0  0  0  0  0  0  0
    0.7127    1.4245   -2.8234 C   0  0  0  0  0  0  0  0  0  0  0  0
    1.7676    1.9917   -3.0202 O   0  0  0  0  0  0  0  0  0  0  0  0
    0.1624    0.7951   -3.9035 N   0  0  0  0  0  0  0  0  0  0  0  0
    0.7734    0.7245   -4.7130 H   0  0  0  0  0  0  0  0  0  0  0  0
   -0.5319    0.0756   -3.7372 H   0  0  0  0  0  0  0  0  0  0  0  0
    0.8042    0.0646    0.6169 C   0  0  0  0  0  0  0  0  0  0  0  0
    2.0109    0.0028    0.7977 O   0  0  0  0  0  0  0  0  0  0  0  0
   -0.0166    0.4276    1.6705 N   0  0  0  0  0  0  0  0  0  0  0  0
   -1.0159    0.4208    1.5009 H   0  0  0  0  0  0  0  0  0  0  0  0
    0.4652    0.5616    3.0400 C   0  0  0  0  0  0  0  0  0  0  0  0
    1.2524    1.3209    3.0974 H   0  0  0  0  0  0  0  0  0  0  0  0
   -0.3522    0.8630    3.7019 H   0  0  0  0  0  0  0  0  0  0  0  0
    0.8691   -0.3914    3.3979 H   0  0  0  0  0  0  0  0  0  0  0  0
  1  2  1  0  0  0  0
  2  3  1  0  0  0  0
  2  4  1  0  0  0  0
  2  5  1  0  0  0  0
  5  6  2  0  0  0  0
  5  7  1  0  0  0  0
  7  8  1  0  0  0  0
  7  9  1  0  0  0  0
  9 10  1  0  0  0  0
  9 11  1  0  0  0  0
  9 19  1  0  0  0  0
 11 12  1  0  0  0  0
 11 13  1  0  0  0  0
 11 14  1  0  0  0  0
 14 15  2  0  0  0  0
 14 16  1  0  0  0  0
 16 17  1  0  0  0  0
 16 18  1  0  0  0  0
 19 20  2  0  0  0  0
 19 21  1  0  0  0  0
 21 22  1  0  0  0  0
 21 23  1  0  0  0  0
 23 24  1  0  0  0  0
 23 25  1  0  0  0  0
 23 26  1  0  0  0  0
M  END
$$$$

  -OEChem-03222214023D

 26 25  0     1  0  0  0  0  0999 V2000
   -2.6185   -3.6756   -0.1791 H   0  0  0  0  0  0  0  0  0  0  0  0
   -2.6458   -2.6398   -0.5301 C   0  0  0  0  0  0  0  0  0  0  0  0
   -3.3206   -2.0696    0.1129 H   0  0  0  0  0  0  0  0  0  0  0  0
   -3.0281   -2.6267   -1.5537 H   0  0  0  0  0  0  0  0  0  0  0  0
   -1.2531   -2.0392   -0.4873 C   0  0  0  0  0  0  0  0  0  0  0  0
   -0.3143   -2.7112   -0.1034 O   0  0  0  0  0  0  0  0  0  0  0  0
   -1.0566   -0.7300   -0.8852 N   0  0  0  0  0  0  0  0  0  0  0  0
   -1.8809   -0.2074   -1.1642 H   0  0  0  0  0  0  0  0  0  0  0  0
    0.2418   -0.0296   -0.8114 C   0  0  1  0  0  0  0  0  0  0  0  0
    0.9868   -0.5990   -1.3829 H   0  0  0  0  0  0  0  0  0  0  0  0
    0.0772    1.3733   -1.4332 C   0  0  0  0  0  0  0  0  0  0  0  0
   -0.9740    1.6643   -1.4949 H   0  0  0  0  0  0  0  0  0  0  0  0
    0.5811    2.1187   -0.8089 H   0  0  0  0  0  0  0  0  0  0  0  0
    0.7124    1.4384   -2.8139 C   0  0  0  0  0  0  0  0  0  0  0  0
    1.8714    1.7587   -2.9773 O   0  0  0  0  0  0  0  0  0  0  0  0
    0.0347    1.0663   -3.9398 N   0  0  0  0  0  0  0  0  0  0  0  0
    0.6109    0.9468   -4.7690 H   0  0  0  0  0  0  0  0  0  0  0  0
   -0.8194    0.5310   -3.8394 H   0  0  0  0  0  0  0  0  0  0  0  0
    0.8118    0.0685    0.6225 C   0  0  0  0  0  0  0  0  0  0  0  0
    2.0184    0.0114    0.8057 O   0  0  0  0  0  0  0  0  0  0  0  0
   -0.0113    0.4314    1.6746 N   0  0  0  0  0  0  0  0  0  0  0  0
   -1.0103    0.4037    1.5058 H   0  0  0  0  0  0  0  0  0  0  0  0
    0.4675    0.5561    3.0460 C   0  0  0  0  0  0  0  0  0  0  0  0
    1.2615    1.3079    3.1083 H   0  0  0  0  0  0  0  0  0  0  0  0
   -0.3491    0.8630    3.7065 H   0  0  0  0  0  0  0  0  0  0  0  0
    0.8611   -0.4021    3.4016 H   0  0  0  0  0  0  0  0  0  0  0  0
  1  2  1  0  0  0  0
  2  3  1  0  0  0  0
  2  4  1  0  0  0  0
  2  5  1  0  0  0  0
  5  6  2  0  0  0  0
  5  7  1  0  0  0  0
  7  8  1  0  0  0  0
  7  9  1  0  0  0  0
  9 10  1  0  0  0  0
  9 11  1  0  0  0  0
  9 19  1  0  0  0  0
 11 12  1  0  0  0  0
 11 13  1  0  0  0  0
 11 14  1  0  0  0  0
 14 15  2  0  0  0  0
 14 16  1  0  0  0  0
 16 17  1  0  0  0  0
 16 18  1  0  0  0  0
 19 20  2  0  0  0  0
 19 21  1  0  0  0  0
 21 22  1  0  0  0  0
 21 23  1  0  0  0  0
 23 24  1  0  0  0  0
 23 25  1  0  0  0  0
 23 26  1  0  0  0  0
M  END
$$$$

  -OEChem-03222214023D

 26 25  0     1  0  0  0  0  0999 V2000
   -2.6402   -3.7299   -0.2190 H   0  0  0  0  0  0  0  0  0  0  0  0
   -2.6468   -2.7040   -0.5988 C   0  0  0  0  0  0  0  0  0  0  0  0
   -3.4285   -2.1428   -0.0814 H   0  0  0  0  0  0  0  0  0  0  0  0
   -2.8699   -2.7282   -1.6681 H   0  0  0  0  0  0  0  0  0  0  0  0
   -1.2967   -2.0527   -0.3634 C   0  0  0  0  0  0  0  0  0  0  0  0
   -0.4250   -2.6651    0.2247 O   0  0  0  0  0  0  0  0  0  0  0  0
   -1.0712   -0.7650   -0.8136 N   0  0  0  0  0  0  0  0  0  0  0  0
   -1.8060   -0.3547   -1.3809 H   0  0  0  0  0  0  0  0  0  0  0  0
    0.2441   -0.0928   -0.7764 C   0  0  1  0  0  0  0  0  0  0  0  0
    0.9718   -0.6935   -1.3379 H   0  0  0  0  0  0  0  0  0  0  0  0
    0.1028    1.3033   -1.4240 C   0  0  0  0  0  0  0  0  0  0  0  0
   -0.9426    1.6167   -1.4659 H   0  0  0  0  0  0  0  0  0  0  0  0
    0.6379    2.0491   -0.8270 H   0  0  0  0  0  0  0  0  0  0  0  0
    0.7142    1.3257   -2.8168 C   0  0  0  0  0  0  0  0  0  0  0  0
    1.9136    1.3471   -2.9991 O   0  0  0  0  0  0  0  0  0  0  0  0
   -0.0572    1.3199   -3.9445 N   0  0  0  0  0  0  0  0  0  0  0  0
    0.4430    1.4979   -4.8118 H   0  0  0  0  0  0  0  0  0  0  0  0
   -1.0396    1.5569   -3.8700 H   0  0  0  0  0  0  0  0  0  0  0  0
    0.8271    0.0464    0.6497 C   0  0  0  0  0  0  0  0  0  0  0  0
    2.0362    0.0016    0.8235 O   0  0  0  0  0  0  0  0  0  0  0  0
    0.0152    0.4685    1.6880 N   0  0  0  0  0  0  0  0  0  0  0  0
   -0.9842    0.3897    1.5355 H   0  0  0  0  0  0  0  0  0  0  0  0
    0.5040    0.6312    3.0517 C   0  0  0  0  0  0  0  0  0  0  0  0
    1.3138    1.3680    3.0833 H   0  0  0  0  0  0  0  0  0  0  0  0
   -0.3024    0.9789    3.7044 H   0  0  0  0  0  0  0  0  0  0  0  0
    0.8798   -0.3218    3.4393 H   0  0  0  0  0  0  0  0  0  0  0  0
  1  2  1  0  0  0  0
  2  3  1  0  0  0  0
  2  4  1  0  0  0  0
  2  5  1  0  0  0  0
  5  6  2  0  0  0  0
  5  7  1  0  0  0  0
  7  8  1  0  0  0  0
  7  9  1  0  0  0  0
  9 10  1  0  0  0  0
  9 11  1  0  0  0  0
  9 19  1  0  0  0  0
 11 12  1  0  0  0  0
 11 13  1  0  0  0  0
 11 14  1  0  0  0  0
 14 15  2  0  0  0  0
 14 16  1  0  0  0  0
 16 17  1  0  0  0  0
 16 18  1  0  0  0  0
 19 20  2  0  0  0  0
 19 21  1  0  0  0  0
 21 22  1  0  0  0  0
 21 23  1  0  0  0  0
 23 24  1  0  0  0  0
 23 25  1  0  0  0  0
 23 26  1  0  0  0  0
M  END
$$$$

  -OEChem-03222214023D

 26 25  0     1  0  0  0  0  0999 V2000
   -2.6403   -3.7380   -0.2360 H   0  0  0  0  0  0  0  0  0  0  0  0
   -2.6478   -2.7117   -0.6141 C   0  0  0  0  0  0  0  0  0  0  0  0
   -3.4443   -2.1579   -0.1116 H   0  0  0  0  0  0  0  0  0  0  0  0
   -2.8492   -2.7361   -1.6877 H   0  0  0  0  0  0  0  0  0  0  0  0
   -1.3082   -2.0499   -0.3507 C   0  0  0  0  0  0  0  0  0  0  0  0
   -0.4488   -2.6521    0.2654 O   0  0  0  0  0  0  0  0  0  0  0  0
   -1.0800   -0.7645   -0.8060 N   0  0  0  0  0  0  0  0  0  0  0  0
   -1.7955   -0.3767   -1.4126 H   0  0  0  0  0  0  0  0  0  0  0  0
    0.2393   -0.0996   -0.7747 C   0  0  1  0  0  0  0  0  0  0  0  0
    0.9612   -0.7043   -1.3387 H   0  0  0  0  0  0  0  0  0  0  0  0
    0.0982    1.2995   -1.4182 C   0  0  0  0  0  0  0  0  0  0  0  0
   -0.9480    1.6125   -1.4477 H   0  0  0  0  0  0  0  0  0  0  0  0
    0.6388    2.0418   -0.8223 H   0  0  0  0  0  0  0  0  0  0  0  0
    0.6963    1.3361   -2.8172 C   0  0  0  0  0  0  0  0  0  0  0  0
    1.8651    1.0945   -3.0369 O   0  0  0  0  0  0  0  0  0  0  0  0
   -0.0615    1.6312   -3.9147 N   0  0  0  0  0  0  0  0  0  0  0  0
    0.4643    1.7905   -4.7703 H   0  0  0  0  0  0  0  0  0  0  0  0
   -0.9568    2.0875   -3.7815 H   0  0  0  0  0  0  0  0  0  0  0  0
    0.8287    0.0409    0.6487 C   0  0  0  0  0  0  0  0  0  0  0  0
    2.0389    0.0031    0.8170 O   0  0  0  0  0  0  0  0  0  0  0  0
    0.0212    0.4709    1.6873 N   0  0  0  0  0  0  0  0  0  0  0  0
   -0.9782    0.3812    1.5406 H   0  0  0  0  0  0  0  0  0  0  0  0
    0.5151    0.6414    3.0481 C   0  0  0  0  0  0  0  0  0  0  0  0
    1.3269    1.3762    3.0725 H   0  0  0  0  0  0  0  0  0  0  0  0
   -0.2883    0.9955    3.7009 H   0  0  0  0  0  0  0  0  0  0  0  0
    0.8896   -0.3100    3.4405 H   0  0  0  0  0  0  0  0  0  0  0  0
  1  2  1  0  0  0  0
  2  3  1  0  0  0  0
  2  4  1  0  0  0  0
  2  5  1  0  0  0  0
  5  6  2  0  0  0  0
  5  7  1  0  0  0  0
  7  8  1  0  0  0  0
  7  9  1  0  0  0  0
  9 10  1  0  0  0  0
  9 11  1  0  0  0  0
  9 19  1  0  0  0  0
 11 12  1  0  0  0  0
 11 13  1  0  0  0  0
 11 14  1  0  0  0  0
 14 15  2  0  0  0  0
 14 16  1  0  0  0  0
 16 17  1  0  0  0  0
 16 18  1  0  0  0  0
 19 20  2  0  0  0  0
 19 21  1  0  0  0  0
 21 22  1  0  0  0  0
 21 23  1  0  0  0  0
 23 24  1  0  0  0  0
 23 25  1  0  0  0  0
 23 26  1  0  0  0  0
M  END
$$$$

  -OEChem-03222214023D

 26 25  0     1  0  0  0  0  0999 V2000
   -2.6441   -3.7510   -0.2363 H   0  0  0  0  0  0  0  0  0  0  0  0
   -2.6509   -2.7266   -0.6198 C   0  0  0  0  0  0  0  0  0  0  0  0
   -3.4592   -2.1749   -0.1342 H   0  0  0  0  0  0  0  0  0  0  0  0
   -2.8331   -2.7571   -1.6967 H   0  0  0  0  0  0  0  0  0  0  0  0
   -1.3200   -2.0549   -0.3367 C   0  0  0  0  0  0  0  0  0  0  0  0
   -0.4719   -2.6444    0.3071 O   0  0  0  0  0  0  0  0  0  0  0  0
   -1.0896   -0.7728   -0.8001 N   0  0  0  0  0  0  0  0  0  0  0  0
   -1.7922   -0.4015   -1.4319 H   0  0  0  0  0  0  0  0  0  0  0  0
    0.2322   -0.1123   -0.7751 C   0  0  1  0  0  0  0  0  0  0  0  0
    0.9495   -0.7255   -1.3354 H   0  0  0  0  0  0  0  0  0  0  0  0
    0.0947    1.2877   -1.4217 C   0  0  0  0  0  0  0  0  0  0  0  0
   -0.9526    1.5983   -1.4452 H   0  0  0  0  0  0  0  0  0  0  0  0
    0.6363    2.0285   -0.8248 H   0  0  0  0  0  0  0  0  0  0  0  0
    0.6826    1.3433   -2.8265 C   0  0  0  0  0  0  0  0  0  0  0  0
    1.7592    0.8639   -3.1179 O   0  0  0  0  0  0  0  0  0  0  0  0
    0.0198    1.9559   -3.8518 N   0  0  0  0  0  0  0  0  0  0  0  0
    0.5710    2.1015   -4.6936 H   0  0  0  0  0  0  0  0  0  0  0  0
   -0.7363    2.5938   -3.6298 H   0  0  0  0  0  0  0  0  0  0  0  0
    0.8258    0.0345    0.6460 C   0  0  0  0  0  0  0  0  0  0  0  0
    2.0378    0.0169    0.8064 O   0  0  0  0  0  0  0  0  0  0  0  0
    0.0218    0.4730    1.6837 N   0  0  0  0  0  0  0  0  0  0  0  0
   -0.9771    0.3620    1.5467 H   0  0  0  0  0  0  0  0  0  0  0  0
    0.5229    0.6553    3.0405 C   0  0  0  0  0  0  0  0  0  0  0  0
    1.3345    1.3905    3.0547 H   0  0  0  0  0  0  0  0  0  0  0  0
   -0.2772    1.0145    3.6943 H   0  0  0  0  0  0  0  0  0  0  0  0
    0.8995   -0.2926    3.4391 H   0  0  0  0  0  0  0  0  0  0  0  0
  1  2  1  0  0  0  0
  2  3  1  0  0  0  0
  2  4  1  0  0  0  0
  2  5  1  0  0  0  0
  5  6  2  0  0  0  0
  5  7  1  0  0  0  0
  7  8  1  0  0  0  0
  7  9  1  0  0  0  0
  9 10  1  0  0  0  0
  9 11  1  0  0  0  0
  9 19  1  0  0  0  0
 11 12  1  0  0  0  0
 11 13  1  0  0  0  0
 11 14  1  0  0  0  0
 14 15  2  0  0  0  0
 14 16  1  0  0  0  0
 16 17  1  0  0  0  0
 16 18  1  0  0  0  0
 19 20  2  0  0  0  0
 19 21  1  0  0  0  0
 21 22  1  0  0  0  0
 21 23  1  0  0  0  0
 23 24  1  0  0  0  0
 23 25  1  0  0  0  0
 23 26  1  0  0  0  0
M  END
$$$$

  -OEChem-03222214023D

 26 25  0     1  0  0  0  0  0999 V2000
   -2.6553   -3.7509   -0.2086 H   0  0  0  0  0  0  0  0  0  0  0  0
   -2.6512   -2.7393   -0.6247 C   0  0  0  0  0  0  0  0  0  0  0  0
   -3.4764   -2.1745   -0.1846 H   0  0  0  0  0  0  0  0  0  0  0  0
   -2.7971   -2.8052   -1.7055 H   0  0  0  0  0  0  0  0  0  0  0  0
   -1.3314   -2.0553   -0.3202 C   0  0  0  0  0  0  0  0  0  0  0  0
   -0.4944   -2.6321    0.3494 O   0  0  0  0  0  0  0  0  0  0  0  0
   -1.1002   -0.7766   -0.7930 N   0  0  0  0  0  0  0  0  0  0  0  0
   -1.7902   -0.4238   -1.4492 H   0  0  0  0  0  0  0  0  0  0  0  0
    0.2247   -0.1215   -0.7776 C   0  0  1  0  0  0  0  0  0  0  0  0
    0.9355   -0.7440   -1.3348 H   0  0  0  0  0  0  0  0  0  0  0  0
    0.0917    1.2803   -1.4262 C   0  0  0  0  0  0  0  0  0  0  0  0
   -0.9554    1.5921   -1.4431 H   0  0  0  0  0  0  0  0  0  0  0  0
    0.6370    2.0172   -0.8283 H   0  0  0  0  0  0  0  0  0  0  0  0
    0.6653    1.3568   -2.8374 C   0  0  0  0  0  0  0  0  0  0  0  0
    1.5928    0.6782   -3.2298 O   0  0  0  0  0  0  0  0  0  0  0  0
    0.1695    2.2412   -3.7522 N   0  0  0  0  0  0  0  0  0  0  0  0
    0.7371    2.3580   -4.5876 H   0  0  0  0  0  0  0  0  0  0  0  0
   -0.4029    3.0106   -3.4224 H   0  0  0  0  0  0  0  0  0  0  0  0
    0.8245    0.0307    0.6402 C   0  0  0  0  0  0  0  0  0  0  0  0
    2.0380    0.0253    0.7922 O   0  0  0  0  0  0  0  0  0  0  0  0
    0.0244    0.4784    1.6767 N   0  0  0  0  0  0  0  0  0  0  0  0
   -0.9740    0.3559    1.5449 H   0  0  0  0  0  0  0  0  0  0  0  0
    0.5284    0.6643    3.0318 C   0  0  0  0  0  0  0  0  0  0  0  0
    1.3349    1.4051    3.0434 H   0  0  0  0  0  0  0  0  0  0  0  0
   -0.2722    1.0183    3.6880 H   0  0  0  0  0  0  0  0  0  0  0  0
    0.9127   -0.2808    3.4300 H   0  0  0  0  0  0  0  0  0  0  0  0
  1  2  1  0  0  0  0
  2  3  1  0  0  0  0
  2  4  1  0  0  0  0
  2  5  1  0  0  0  0
  5  6  2  0  0  0  0
  5  7  1  0  0  0  0
  7  8  1  0  0  0  0
  7  9  1  0  0  0  0
  9 10  1  0  0  0  0
  9 11  1  0  0  0  0
  9 19  1  0  0  0  0
 11 12  1  0  0  0  0
 11 13  1  0  0  0  0
 11 14  1  0  0  0  0
 14 15  2  0  0  0  0
 14 16  1  0  0  0  0
 16 17  1  0  0  0  0
 16 18  1  0  0  0  0
 19 20  2  0  0  0  0
 19 21  1  0  0  0  0
 21 22  1  0  0  0  0
 21 23  1  0  0  0  0
 23 24  1  0  0  0  0
 23 25  1  0  0  0  0
 23 26  1  0  0  0  0
M  END
$$$$

  -OEChem-03222214023D

 26 25  0     1  0  0  0  0  0999 V2000
   -2.6762   -3.7382   -0.1906 H   0  0  0  0  0  0  0  0  0  0  0  0
   -2.6523   -2.7428   -0.6436 C   0  0  0  0  0  0  0  0  0  0  0  0
   -3.4904   -2.1597   -0.2550 H   0  0  0  0  0  0  0  0  0  0  0  0
   -2.7592   -2.8480   -1.7260 H   0  0  0  0  0  0  0  0  0  0  0  0
   -1.3413   -2.0520   -0.3167 C   0  0  0  0  0  0  0  0  0  0  0  0
   -0.5155   -2.6207    0.3738 O   0  0  0  0  0  0  0  0  0  0  0  0
   -1.1078   -0.7742   -0.7903 N   0  0  0  0  0  0  0  0  0  0  0  0
   -1.7850   -0.4340   -1.4663 H   0  0  0  0  0  0  0  0  0  0  0  0
    0.2190   -0.1239   -0.7761 C   0  0  1  0  0  0  0  0  0  0  0  0
    0.9273   -0.7498   -1.3323 H   0  0  0  0  0  0  0  0  0  0  0  0
    0.0881    1.2800   -1.4225 C   0  0  0  0  0  0  0  0  0  0  0  0
   -0.9587    1.5934   -1.4358 H   0  0  0  0  0  0  0  0  0  0  0  0
    0.6349    2.0122   -0.8203 H   0  0  0  0  0  0  0  0  0  0  0  0
    0.6544    1.3749   -2.8363 C   0  0  0  0  0  0  0  0  0  0  0  0
    1.3908    0.5473   -3.3352 O   0  0  0  0  0  0  0  0  0  0  0  0
    0.3680    2.4467   -3.6321 N   0  0  0  0  0  0  0  0  0  0  0  0
    0.9399    2.5273   -4.4687 H   0  0  0  0  0  0  0  0  0  0  0  0
   -0.0133    3.2821   -3.2013 H   0  0  0  0  0  0  0  0  0  0  0  0
    0.8236    0.0281    0.6394 C   0  0  0  0  0  0  0  0  0  0  0  0
    2.0385    0.0327    0.7824 O   0  0  0  0  0  0  0  0  0  0  0  0
    0.0286    0.4792    1.6783 N   0  0  0  0  0  0  0  0  0  0  0  0
   -0.9699    0.3472    1.5547 H   0  0  0  0  0  0  0  0  0  0  0  0
    0.5410    0.6740    3.0290 C   0  0  0  0  0  0  0  0  0  0  0  0
    1.3398    1.4233    3.0320 H   0  0  0  0  0  0  0  0  0  0  0  0
   -0.2585    1.0210    3.6906 H   0  0  0  0  0  0  0  0  0  0  0  0
    0.9386   -0.2659    3.4265 H   0  0  0  0  0  0  0  0  0  0  0  0
  1  2  1  0  0  0  0
  2  3  1  0  0  0  0
  2  4  1  0  0  0  0
  2  5  1  0  0  0  0
  5  6  2  0  0  0  0
  5  7  1  0  0  0  0
  7  8  1  0  0  0  0
  7  9  1  0  0  0  0
  9 10  1  0  0  0  0
  9 11  1  0  0  0  0
  9 19  1  0  0  0  0
 11 12  1  0  0  0  0
 11 13  1  0  0  0  0
 11 14  1  0  0  0  0
 14 15  2  0  0  0  0
 14 16  1  0  0  0  0
 16 17  1  0  0  0  0
 16 18  1  0  0  0  0
 19 20  2  0  0  0  0
 19 21  1  0  0  0  0
 21 22  1  0  0  0  0
 21 23  1  0  0  0  0
 23 24  1  0  0  0  0
 23 25  1  0  0  0  0
 23 26  1  0  0  0  0
M  END
$$$$

  -OEChem-03222214023D

 26 25  0     1  0  0  0  0  0999 V2000
   -2.6679   -3.7418   -0.2101 H   0  0  0  0  0  0  0  0  0  0  0  0
   -2.6495   -2.7427   -0.6548 C   0  0  0  0  0  0  0  0  0  0  0  0
   -3.4918   -2.1676   -0.2630 H   0  0  0  0  0  0  0  0  0  0  0  0
   -2.7540   -2.8394   -1.7383 H   0  0  0  0  0  0  0  0  0  0  0  0
   -1.3437   -2.0462   -0.3202 C   0  0  0  0  0  0  0  0  0  0  0  0
   -0.5191   -2.6116    0.3750 O   0  0  0  0  0  0  0  0  0  0  0  0
   -1.1147   -0.7661   -0.7896 N   0  0  0  0  0  0  0  0  0  0  0  0
   -1.7858   -0.4332   -1.4756 H   0  0  0  0  0  0  0  0  0  0  0  0
    0.2111   -0.1148   -0.7745 C   0  0  1  0  0  0  0  0  0  0  0  0
    0.9191   -0.7389   -1.3329 H   0  0  0  0  0  0  0  0  0  0  0  0
    0.0830    1.2915   -1.4162 C   0  0  0  0  0  0  0  0  0  0  0  0
   -0.9628    1.6077   -1.4309 H   0  0  0  0  0  0  0  0  0  0  0  0
    0.6304    2.0189   -0.8089 H   0  0  0  0  0  0  0  0  0  0  0  0
    0.6495    1.3919   -2.8294 C   0  0  0  0  0  0  0  0  0  0  0  0
    1.1616    0.4654   -3.4267 O   0  0  0  0  0  0  0  0  0  0  0  0
    0.6153    2.5725   -3.5140 N   0  0  0  0  0  0  0  0  0  0  0  0
    1.1845    2.5998   -4.3558 H   0  0  0  0  0  0  0  0  0  0  0  0
    0.4408    3.4277   -2.9970 H   0  0  0  0  0  0  0  0  0  0  0  0
    0.8202    0.0336    0.6389 C   0  0  0  0  0  0  0  0  0  0  0  0
    2.0363    0.0526    0.7719 O   0  0  0  0  0  0  0  0  0  0  0  0
    0.0286    0.4805    1.6821 N   0  0  0  0  0  0  0  0  0  0  0  0
   -0.9695    0.3398    1.5642 H   0  0  0  0  0  0  0  0  0  0  0  0
    0.5468    0.6729    3.0310 C   0  0  0  0  0  0  0  0  0  0  0  0
    1.3465    1.4210    3.0322 H   0  0  0  0  0  0  0  0  0  0  0  0
   -0.2494    1.0200    3.6962 H   0  0  0  0  0  0  0  0  0  0  0  0
    0.9442   -0.2684    3.4251 H   0  0  0  0  0  0  0  0  0  0  0  0
  1  2  1  0  0  0  0
  2  3  1  0  0  0  0
  2  4  1  0  0  0  0
  2  5  1  0  0  0  0
  5  6  2  0  0  0  0
  5  7  1  0  0  0  0
  7  8  1  0  0  0  0
  7  9  1  0  0  0  0
  9 10  1  0  0  0  0
  9 11  1  0  0  0  0
  9 19  1  0  0  0  0
 11 12  1  0  0  0  0
 11 13  1  0  0  0  0
 11 14  1  0  0  0  0
 14 15  2  0  0  0  0
 14 16  1  0  0  0  0
 16 17  1  0  0  0  0
 16 18  1  0  0  0  0
 19 20  2  0  0  0  0
 19 21  1  0  0  0  0
 21 22  1  0  0  0  0
 21 23  1  0  0  0  0
 23 24  1  0  0  0  0
 23 25  1  0  0  0  0
 23 26  1  0  0  0  0
M  END
$$$$

  -OEChem-03222214023D

 26 25  0     1  0  0  0  0  0999 V2000
   -2.6524   -3.7479   -0.2532 H   0  0  0  0  0  0  0  0  0  0  0  0
   -2.6437   -2.7399   -0.6779 C   0  0  0  0  0  0  0  0  0  0  0  0
   -3.4944   -2.1826   -0.2785 H   0  0  0  0  0  0  0  0  0  0  0  0
   -2.7427   -2.8164   -1.7634 H   0  0  0  0  0  0  0  0  0  0  0  0
   -1.3473   -2.0349   -0.3245 C   0  0  0  0  0  0  0  0  0  0  0  0
   -0.5263   -2.5968    0.3779 O   0  0  0  0  0  0  0  0  0  0  0  0
   -1.1222   -0.7513   -0.7857 N   0  0  0  0  0  0  0  0  0  0  0  0
   -1.7825   -0.4279   -1.4868 H   0  0  0  0  0  0  0  0  0  0  0  0
    0.2029   -0.0999   -0.7687 C   0  0  1  0  0  0  0  0  0  0  0  0
    0.9097   -0.7190   -1.3349 H   0  0  0  0  0  0  0  0  0  0  0  0
    0.0738    1.3089   -1.4026 C   0  0  0  0  0  0  0  0  0  0  0  0
   -0.9714    1.6275   -1.4192 H   0  0  0  0  0  0  0  0  0  0  0  0
    0.6208    2.0335   -0.7914 H   0  0  0  0  0  0  0  0  0  0  0  0
    0.6422    1.4027   -2.8147 C   0  0  0  0  0  0  0  0  0  0  0  0
    0.9067    0.4319   -3.4978 O   0  0  0  0  0  0  0  0  0  0  0  0
    0.8881    2.6127   -3.3971 N   0  0  0  0  0  0  0  0  0  0  0  0
    1.4424    2.5789   -4.2484 H   0  0  0  0  0  0  0  0  0  0  0  0
    0.9251    3.4361   -2.8056 H   0  0  0  0  0  0  0  0  0  0  0  0
    0.8184    0.0405    0.6421 C   0  0  0  0  0  0  0  0  0  0  0  0
    2.0356    0.0679    0.7655 O   0  0  0  0  0  0  0  0  0  0  0  0
    0.0314    0.4807    1.6913 N   0  0  0  0  0  0  0  0  0  0  0  0
   -0.9666    0.3332    1.5793 H   0  0  0  0  0  0  0  0  0  0  0  0
    0.5571    0.6715    3.0373 C   0  0  0  0  0  0  0  0  0  0  0  0
    1.3551    1.4215    3.0357 H   0  0  0  0  0  0  0  0  0  0  0  0
   -0.2361    1.0156    3.7078 H   0  0  0  0  0  0  0  0  0  0  0  0
    0.9592   -0.2696    3.4272 H   0  0  0  0  0  0  0  0  0  0  0  0
  1  2  1  0  0  0  0
  2  3  1  0  0  0  0
  2  4  1  0  0  0  0
  2  5  1  0  0  0  0
  5  6  2  0  0  0  0
  5  7  1  0  0  0  0
  7  8  1  0  0  0  0
  7  9  1  0  0  0  0
  9 10  1  0  0  0  0
  9 11  1  0  0  0  0
  9 19  1  0  0  0  0
 11 12  1  0  0  0  0
 11 13  1  0  0  0  0
 11 14  1  0  0  0  0
 14 15  2  0  0  0  0
 14 16  1  0  0  0  0
 16 17  1  0  0  0  0
 16 18  1  0  0  0  0
 19 20  2  0  0  0  0
 19 21  1  0  0  0  0
 21 22  1  0  0  0  0
 21 23  1  0  0  0  0
 23 24  1  0  0  0  0
 23 25  1  0  0  0  0
 23 26  1  0  0  0  0
M  END
$$$$

  -OEChem-03222214023D

 26 25  0     1  0  0  0  0  0999 V2000
   -2.6481   -3.7419   -0.2638 H   0  0  0  0  0  0  0  0  0  0  0  0
   -2.6340   -2.7417   -0.7064 C   0  0  0  0  0  0  0  0  0  0  0  0
   -3.4969   -2.1820   -0.3380 H   0  0  0  0  0  0  0  0  0  0  0  0
   -2.7062   -2.8381   -1.7925 H   0  0  0  0  0  0  0  0  0  0  0  0
   -1.3495   -2.0243   -0.3348 C   0  0  0  0  0  0  0  0  0  0  0  0
   -0.5289   -2.5823    0.3715 O   0  0  0  0  0  0  0  0  0  0  0  0
   -1.1336   -0.7347   -0.7833 N   0  0  0  0  0  0  0  0  0  0  0  0
   -1.7891   -0.4159   -1.4915 H   0  0  0  0  0  0  0  0  0  0  0  0
    0.1886   -0.0784   -0.7638 C   0  0  1  0  0  0  0  0  0  0  0  0
    0.8935   -0.6879   -1.3433 H   0  0  0  0  0  0  0  0  0  0  0  0
    0.0550    1.3338   -1.3854 C   0  0  0  0  0  0  0  0  0  0  0  0
   -0.9902    1.6522   -1.4056 H   0  0  0  0  0  0  0  0  0  0  0  0
    0.5992    2.0576   -0.7711 H   0  0  0  0  0  0  0  0  0  0  0  0
    0.6275    1.4154   -2.7950 C   0  0  0  0  0  0  0  0  0  0  0  0
    0.6380    0.4640   -3.5533 O   0  0  0  0  0  0  0  0  0  0  0  0
    1.1812    2.5667   -3.2768 N   0  0  0  0  0  0  0  0  0  0  0  0
    1.7130    2.4657   -4.1370 H   0  0  0  0  0  0  0  0  0  0  0  0
    1.4294    3.2958   -2.6159 H   0  0  0  0  0  0  0  0  0  0  0  0
    0.8147    0.0521    0.6428 C   0  0  0  0  0  0  0  0  0  0  0  0
    2.0330    0.0927    0.7517 O   0  0  0  0  0  0  0  0  0  0  0  0
    0.0348    0.4792    1.7022 N   0  0  0  0  0  0  0  0  0  0  0  0
   -0.9633    0.3248    1.5988 H   0  0  0  0  0  0  0  0  0  0  0  0
    0.5719    0.6701    3.0436 C   0  0  0  0  0  0  0  0  0  0  0  0
    1.3569    1.4337    3.0381 H   0  0  0  0  0  0  0  0  0  0  0  0
   -0.2195    0.9962    3.7251 H   0  0  0  0  0  0  0  0  0  0  0  0
    0.9943   -0.2665    3.4228 H   0  0  0  0  0  0  0  0  0  0  0  0
  1  2  1  0  0  0  0
  2  3  1  0  0  0  0
  2  4  1  0  0  0  0
  2  5  1  0  0  0  0
  5  6  2  0  0  0  0
  5  7  1  0  0  0  0
  7  8  1  0  0  0  0
  7  9  1  0  0  0  0
  9 10  1  0  0  0  0
  9 11  1  0  0  0  0
  9 19  1  0  0  0  0
 11 12  1  0  0  0  0
 11 13  1  0  0  0  0
 11 14  1  0  0  0  0
 14 15  2  0  0  0  0
 14 16  1  0  0  0  0
 16 17  1  0  0  0  0
 16 18  1  0  0  0  0
 19 20  2  0  0  0  0
 19 21  1  0  0  0  0
 21 22  1  0  0  0  0
 21 23  1  0  0  0  0
 23 24  1  0  0  0  0
 23 25  1  0  0  0  0
 23 26  1  0  0  0  0
M  END
$$$$

  -OEChem-03222214023D

 26 25  0     1  0  0  0  0  0999 V2000
   -2.5993   -3.7586   -0.3237 H   0  0  0  0  0  0  0  0  0  0  0  0
   -2.6164   -2.7406   -0.7237 C   0  0  0  0  0  0  0  0  0  0  0  0
   -3.4806   -2.2147   -0.3110 H   0  0  0  0  0  0  0  0  0  0  0  0
   -2.7143   -2.7933   -1.8110 H   0  0  0  0  0  0  0  0  0  0  0  0
   -1.3379   -2.0125   -0.3525 C   0  0  0  0  0  0  0  0  0  0  0  0
   -0.5041   -2.5705    0.3384 O   0  0  0  0  0  0  0  0  0  0  0  0
   -1.1390   -0.7154   -0.7866 N   0  0  0  0  0  0  0  0  0  0  0  0
   -1.7978   -0.3974   -1.4928 H   0  0  0  0  0  0  0  0  0  0  0  0
    0.1755   -0.0454   -0.7628 C   0  0  1  0  0  0  0  0  0  0  0  0
    0.8817   -0.6421   -1.3541 H   0  0  0  0  0  0  0  0  0  0  0  0
    0.0290    1.3672   -1.3753 C   0  0  0  0  0  0  0  0  0  0  0  0
   -1.0189    1.6761   -1.4052 H   0  0  0  0  0  0  0  0  0  0  0  0
    0.5611    2.0977   -0.7585 H   0  0  0  0  0  0  0  0  0  0  0  0
    0.6093    1.4330   -2.7802 C   0  0  0  0  0  0  0  0  0  0  0  0
    0.3846    0.5652   -3.6031 O   0  0  0  0  0  0  0  0  0  0  0  0
    1.4745    2.4179   -3.1614 N   0  0  0  0  0  0  0  0  0  0  0  0
    1.9789    2.2411   -4.0257 H   0  0  0  0  0  0  0  0  0  0  0  0
    1.9069    2.9823   -2.4370 H   0  0  0  0  0  0  0  0  0  0  0  0
    0.8086    0.0784    0.6407 C   0  0  0  0  0  0  0  0  0  0  0  0
    2.0275    0.1311    0.7390 O   0  0  0  0  0  0  0  0  0  0  0  0
    0.0324    0.4858    1.7105 N   0  0  0  0  0  0  0  0  0  0  0  0
   -0.9654    0.3269    1.6117 H   0  0  0  0  0  0  0  0  0  0  0  0
    0.5763    0.6654    3.0507 C   0  0  0  0  0  0  0  0  0  0  0  0
    1.3592    1.4310    3.0484 H   0  0  0  0  0  0  0  0  0  0  0  0
   -0.2126    0.9826    3.7393 H   0  0  0  0  0  0  0  0  0  0  0  0
    1.0030   -0.2735    3.4190 H   0  0  0  0  0  0  0  0  0  0  0  0
  1  2  1  0  0  0  0
  2  3  1  0  0  0  0
  2  4  1  0  0  0  0
  2  5  1  0  0  0  0
  5  6  2  0  0  0  0
  5  7  1  0  0  0  0
  7  8  1  0  0  0  0
  7  9  1  0  0  0  0
  9 10  1  0  0  0  0
  9 11  1  0  0  0  0
  9 19  1  0  0  0  0
 11 12  1  0  0  0  0
 11 13  1  0  0  0  0
 11 14  1  0  0  0  0
 14 15  2  0  0  0  0
 14 16  1  0  0  0  0
 16 17  1  0  0  0  0
 16 18  1  0  0  0  0
 19 20  2  0  0  0  0
 19 21  1  0  0  0  0
 21 22  1  0  0  0  0
 21 23  1  0  0  0  0
 23 24  1  0  0  0  0
 23 25  1  0  0  0  0
 23 26  1  0  0  0  0
M  END
$$$$

  -OEChem-03222214023D

 26 25  0     1  0  0  0  0  0999 V2000
   -2.5587   -3.7716   -0.4022 H   0  0  0  0  0  0  0  0  0  0  0  0
   -2.6004   -2.7371   -0.7550 C   0  0  0  0  0  0  0  0  0  0  0  0
   -3.4641   -2.2445   -0.3024 H   0  0  0  0  0  0  0  0  0  0  0  0
   -2.7197   -2.7427   -1.8413 H   0  0  0  0  0  0  0  0  0  0  0  0
   -1.3267   -2.0045   -0.3763 C   0  0  0  0  0  0  0  0  0  0  0  0
   -0.4845   -2.5643    0.3030 O   0  0  0  0  0  0  0  0  0  0  0  0
   -1.1385   -0.7008   -0.7937 N   0  0  0  0  0  0  0  0  0  0  0  0
   -1.8014   -0.3762   -1.4936 H   0  0  0  0  0  0  0  0  0  0  0  0
    0.1685   -0.0182   -0.7577 C   0  0  1  0  0  0  0  0  0  0  0  0
    0.8782   -0.6047   -1.3554 H   0  0  0  0  0  0  0  0  0  0  0  0
    0.0100    1.3930   -1.3641 C   0  0  0  0  0  0  0  0  0  0  0  0
   -1.0412    1.6887   -1.4086 H   0  0  0  0  0  0  0  0  0  0  0  0
    0.5255    2.1336   -0.7451 H   0  0  0  0  0  0  0  0  0  0  0  0
    0.6051    1.4457   -2.7603 C   0  0  0  0  0  0  0  0  0  0  0  0
    0.1846    0.7254   -3.6461 O   0  0  0  0  0  0  0  0  0  0  0  0
    1.7177    2.1829   -3.0463 N   0  0  0  0  0  0  0  0  0  0  0  0
    2.1819    1.9477   -3.9190 H   0  0  0  0  0  0  0  0  0  0  0  0
    2.2669    2.5368   -2.2686 H   0  0  0  0  0  0  0  0  0  0  0  0
    0.8066    0.1014    0.6433 C   0  0  0  0  0  0  0  0  0  0  0  0
    2.0258    0.1710    0.7297 O   0  0  0  0  0  0  0  0  0  0  0  0
    0.0343    0.4913    1.7222 N   0  0  0  0  0  0  0  0  0  0  0  0
   -0.9637    0.3297    1.6288 H   0  0  0  0  0  0  0  0  0  0  0  0
    0.5873    0.6750    3.0582 C   0  0  0  0  0  0  0  0  0  0  0  0
    1.3698    1.4410    3.0488 H   0  0  0  0  0  0  0  0  0  0  0  0
   -0.1966    0.9945    3.7514 H   0  0  0  0  0  0  0  0  0  0  0  0
    1.0166   -0.2627    3.4262 H   0  0  0  0  0  0  0  0  0  0  0  0
  1  2  1  0  0  0  0
  2  3  1  0  0  0  0
  2  4  1  0  0  0  0
  2  5  1  0  0  0  0
  5  6  2  0  0  0  0
  5  7  1  0  0  0  0
  7  8  1  0  0  0  0
  7  9  1  0  0  0  0
  9 10  1  0  0  0  0
  9 11  1  0  0  0  0
  9 19  1  0  0  0  0
 11 12  1  0  0  0  0
 11 13  1  0  0  0  0
 11 14  1  0  0  0  0
 14 15  2  0  0  0  0
 14 16  1  0  0  0  0
 16 17  1  0  0  0  0
 16 18  1  0  0  0  0
 19 20  2  0  0  0  0
 19 21  1  0  0  0  0
 21 22  1  0  0  0  0
 21 23  1  0  0  0  0
 23 24  1  0  0  0  0
 23 25  1  0  0  0  0
 23 26  1  0  0  0  0
M  END
$$$$

  -OEChem-03222214023D

 26 25  0     1  0  0  0  0  0999 V2000
   -2.5451   -3.7674   -0.4229 H   0  0  0  0  0  0  0  0  0  0  0  0
   -2.5914   -2.7290   -0.7634 C   0  0  0  0  0  0  0  0  0  0  0  0
   -3.4474   -2.2413   -0.2913 H   0  0  0  0  0  0  0  0  0  0  0  0
   -2.7284   -2.7220   -1.8476 H   0  0  0  0  0  0  0  0  0  0  0  0
   -1.3118   -2.0009   -0.3963 C   0  0  0  0  0  0  0  0  0  0  0  0
   -0.4578   -2.5680    0.2620 O   0  0  0  0  0  0  0  0  0  0  0  0
   -1.1274   -0.6933   -0.8031 N   0  0  0  0  0  0  0  0  0  0  0  0
   -1.8026   -0.3528   -1.4836 H   0  0  0  0  0  0  0  0  0  0  0  0
    0.1747   -0.0030   -0.7547 C   0  0  1  0  0  0  0  0  0  0  0  0
    0.8887   -0.5867   -1.3498 H   0  0  0  0  0  0  0  0  0  0  0  0
    0.0164    1.4058   -1.3629 C   0  0  0  0  0  0  0  0  0  0  0  0
   -1.0359    1.6966   -1.4220 H   0  0  0  0  0  0  0  0  0  0  0  0
    0.5217    2.1527   -0.7430 H   0  0  0  0  0  0  0  0  0  0  0  0
    0.6299    1.4471   -2.7498 C   0  0  0  0  0  0  0  0  0  0  0  0
    0.0633    0.9316   -3.6946 O   0  0  0  0  0  0  0  0  0  0  0  0
    1.8944    1.9142   -2.9652 N   0  0  0  0  0  0  0  0  0  0  0  0
    2.3086    1.6611   -3.8577 H   0  0  0  0  0  0  0  0  0  0  0  0
    2.4942    2.0577   -2.1572 H   0  0  0  0  0  0  0  0  0  0  0  0
    0.8088    0.1142    0.6473 C   0  0  0  0  0  0  0  0  0  0  0  0
    2.0278    0.1923    0.7320 O   0  0  0  0  0  0  0  0  0  0  0  0
    0.0336    0.4933    1.7278 N   0  0  0  0  0  0  0  0  0  0  0  0
   -0.9648    0.3359    1.6317 H   0  0  0  0  0  0  0  0  0  0  0  0
    0.5837    0.6739    3.0655 C   0  0  0  0  0  0  0  0  0  0  0  0
    1.3648    1.4414    3.0598 H   0  0  0  0  0  0  0  0  0  0  0  0
   -0.2022    0.9895    3.7583 H   0  0  0  0  0  0  0  0  0  0  0  0
    1.0141   -0.2645    3.4312 H   0  0  0  0  0  0  0  0  0  0  0  0
  1  2  1  0  0  0  0
  2  3  1  0  0  0  0
  2  4  1  0  0  0  0
  2  5  1  0  0  0  0
  5  6  2  0  0  0  0
  5  7  1  0  0  0  0
  7  8  1  0  0  0  0
  7  9  1  0  0  0  0
  9 10  1  0  0  0  0
  9 11  1  0  0  0  0
  9 19  1  0  0  0  0
 11 12  1  0  0  0  0
 11 13  1  0  0  0  0
 11 14  1  0  0  0  0
 14 15  2  0  0  0  0
 14 16  1  0  0  0  0
 16 17  1  0  0  0  0
 16 18  1  0  0  0  0
 19 20  2  0  0  0  0
 19 21  1  0  0  0  0
 21 22  1  0  0  0  0
 21 23  1  0  0  0  0
 23 24  1  0  0  0  0
 23 25  1  0  0  0  0
 23 26  1  0  0  0  0
M  END
$$$$

  -OEChem-03222214023D

 26 25  0     1  0  0  0  0  0999 V2000
   -2.5516   -3.7626   -0.4258 H   0  0  0  0  0  0  0  0  0  0  0  0
   -2.5976   -2.7207   -0.7556 C   0  0  0  0  0  0  0  0  0  0  0  0
   -3.4422   -2.2322   -0.2637 H   0  0  0  0  0  0  0  0  0  0  0  0
   -2.7537   -2.7021   -1.8370 H   0  0  0  0  0  0  0  0  0  0  0  0
   -1.3067   -2.0046   -0.4054 C   0  0  0  0  0  0  0  0  0  0  0  0
   -0.4461   -2.5811    0.2361 O   0  0  0  0  0  0  0  0  0  0  0  0
   -1.1157   -0.6977   -0.8109 N   0  0  0  0  0  0  0  0  0  0  0  0
   -1.8009   -0.3402   -1.4728 H   0  0  0  0  0  0  0  0  0  0  0  0
    0.1864   -0.0085   -0.7521 C   0  0  1  0  0  0  0  0  0  0  0  0
    0.9030   -0.5982   -1.3378 H   0  0  0  0  0  0  0  0  0  0  0  0
    0.0377    1.3960   -1.3710 C   0  0  0  0  0  0  0  0  0  0  0  0
   -1.0133    1.6890   -1.4433 H   0  0  0  0  0  0  0  0  0  0  0  0
    0.5390    2.1472   -0.7529 H   0  0  0  0  0  0  0  0  0  0  0  0
    0.6689    1.4243   -2.7495 C   0  0  0  0  0  0  0  0  0  0  0  0
    0.0181    1.1534   -3.7403 O   0  0  0  0  0  0  0  0  0  0  0  0
    2.0057    1.6442   -2.9180 N   0  0  0  0  0  0  0  0  0  0  0  0
    2.3829    1.4198   -3.8342 H   0  0  0  0  0  0  0  0  0  0  0  0
    2.6079    1.6079   -2.0992 H   0  0  0  0  0  0  0  0  0  0  0  0
    0.8126    0.1117    0.6524 C   0  0  0  0  0  0  0  0  0  0  0  0
    2.0317    0.1830    0.7408 O   0  0  0  0  0  0  0  0  0  0  0  0
    0.0334    0.4934    1.7288 N   0  0  0  0  0  0  0  0  0  0  0  0
   -0.9657    0.3438    1.6271 H   0  0  0  0  0  0  0  0  0  0  0  0
    0.5779    0.6738    3.0688 C   0  0  0  0  0  0  0  0  0  0  0  0
    1.3600    1.4401    3.0664 H   0  0  0  0  0  0  0  0  0  0  0  0
   -0.2109    0.9905    3.7577 H   0  0  0  0  0  0  0  0  0  0  0  0
    1.0056   -0.2649    3.4366 H   0  0  0  0  0  0  0  0  0  0  0  0
  1  2  1  0  0  0  0
  2  3  1  0  0  0  0
  2  4  1  0  0  0  0
  2  5  1  0  0  0  0
  5  6  2  0  0  0  0
  5  7  1  0  0  0  0
  7  8  1  0  0  0  0
  7  9  1  0  0  0  0
  9 10  1  0  0  0  0
  9 11  1  0  0  0  0
  9 19  1  0  0  0  0
 11 12  1  0  0  0  0
 11 13  1  0  0  0  0
 11 14  1  0  0  0  0
 14 15  2  0  0  0  0
 14 16  1  0  0  0  0
 16 17  1  0  0  0  0
 16 18  1  0  0  0  0
 19 20  2  0  0  0  0
 19 21  1  0  0  0  0
 21 22  1  0  0  0  0
 21 23  1  0  0  0  0
 23 24  1  0  0  0  0
 23 25  1  0  0  0  0
 23 26  1  0  0  0  0
M  END
$$$$

  -OEChem-03222214023D

 26 25  0     1  0  0  0  0  0999 V2000
   -2.6106   -3.7445   -0.3677 H   0  0  0  0  0  0  0  0  0  0  0  0
   -2.6268   -2.7153   -0.7379 C   0  0  0  0  0  0  0  0  0  0  0  0
   -3.4563   -2.1843   -0.2649 H   0  0  0  0  0  0  0  0  0  0  0  0
   -2.7834   -2.7341   -1.8192 H   0  0  0  0  0  0  0  0  0  0  0  0
   -1.3154   -2.0239   -0.4155 C   0  0  0  0  0  0  0  0  0  0  0  0
   -0.4487   -2.6181    0.2008 O   0  0  0  0  0  0  0  0  0  0  0  0
   -1.1100   -0.7189   -0.8195 N   0  0  0  0  0  0  0  0  0  0  0  0
   -1.8108   -0.3328   -1.4480 H   0  0  0  0  0  0  0  0  0  0  0  0
    0.1953   -0.0372   -0.7514 C   0  0  1  0  0  0  0  0  0  0  0  0
    0.9106   -0.6372   -1.3276 H   0  0  0  0  0  0  0  0  0  0  0  0
    0.0617    1.3634   -1.3826 C   0  0  0  0  0  0  0  0  0  0  0  0
   -0.9870    1.6625   -1.4647 H   0  0  0  0  0  0  0  0  0  0  0  0
    0.5634    2.1149   -0.7652 H   0  0  0  0  0  0  0  0  0  0  0  0
    0.7079    1.3841   -2.7550 C   0  0  0  0  0  0  0  0  0  0  0  0
    0.0344    1.3807   -3.7672 O   0  0  0  0  0  0  0  0  0  0  0  0
    2.0655    1.3982   -2.9020 N   0  0  0  0  0  0  0  0  0  0  0  0
    2.4267    1.2514   -3.8400 H   0  0  0  0  0  0  0  0  0  0  0  0
    2.6527    1.2228   -2.0897 H   0  0  0  0  0  0  0  0  0  0  0  0
    0.8153    0.0833    0.6556 C   0  0  0  0  0  0  0  0  0  0  0  0
    2.0348    0.1427    0.7475 O   0  0  0  0  0  0  0  0  0  0  0  0
    0.0359    0.4718    1.7293 N   0  0  0  0  0  0  0  0  0  0  0  0
   -0.9657    0.3423    1.6253 H   0  0  0  0  0  0  0  0  0  0  0  0
    0.5796    0.6812    3.0654 C   0  0  0  0  0  0  0  0  0  0  0  0
    1.3432    1.4660    3.0504 H   0  0  0  0  0  0  0  0  0  0  0  0
   -0.2143    0.9877    3.7530 H   0  0  0  0  0  0  0  0  0  0  0  0
    1.0302   -0.2423    3.4441 H   0  0  0  0  0  0  0  0  0  0  0  0
  1  2  1  0  0  0  0
  2  3  1  0  0  0  0
  2  4  1  0  0  0  0
  2  5  1  0  0  0  0
  5  6  2  0  0  0  0
  5  7  1  0  0  0  0
  7  8  1  0  0  0  0
  7  9  1  0  0  0  0
  9 10  1  0  0  0  0
  9 11  1  0  0  0  0
  9 19  1  0  0  0  0
 11 12  1  0  0  0  0
 11 13  1  0  0  0  0
 11 14  1  0  0  0  0
 14 15  2  0  0  0  0
 14 16  1  0  0  0  0
 16 17  1  0  0  0  0
 16 18  1  0  0  0  0
 19 20  2  0  0  0  0
 19 21  1  0  0  0  0
 21 22  1  0  0  0  0
 21 23  1  0  0  0  0
 23 24  1  0  0  0  0
 23 25  1  0  0  0  0
 23 26  1  0  0  0  0
M  END
$$$$

  -OEChem-03222214023D

 26 25  0     1  0  0  0  0  0999 V2000
   -2.6675   -3.7436   -0.3234 H   0  0  0  0  0  0  0  0  0  0  0  0
   -2.6769   -2.7119   -0.6868 C   0  0  0  0  0  0  0  0  0  0  0  0
   -3.4844   -2.1707   -0.1881 H   0  0  0  0  0  0  0  0  0  0  0  0
   -2.8635   -2.7215   -1.7635 H   0  0  0  0  0  0  0  0  0  0  0  0
   -1.3459   -2.0441   -0.3957 C   0  0  0  0  0  0  0  0  0  0  0  0
   -0.4821   -2.6489    0.2141 O   0  0  0  0  0  0  0  0  0  0  0  0
   -1.1183   -0.7487   -0.8190 N   0  0  0  0  0  0  0  0  0  0  0  0
   -1.8252   -0.3465   -1.4300 H   0  0  0  0  0  0  0  0  0  0  0  0
    0.1976   -0.0860   -0.7587 C   0  0  1  0  0  0  0  0  0  0  0  0
    0.9039   -0.7091   -1.3214 H   0  0  0  0  0  0  0  0  0  0  0  0
    0.0912    1.3074   -1.4129 C   0  0  0  0  0  0  0  0  0  0  0  0
   -0.9526    1.6213   -1.4994 H   0  0  0  0  0  0  0  0  0  0  0  0
    0.6039    2.0579   -0.8036 H   0  0  0  0  0  0  0  0  0  0  0  0
    0.7396    1.3093   -2.7856 C   0  0  0  0  0  0  0  0  0  0  0  0
    0.0996    1.5770   -3.7839 O   0  0  0  0  0  0  0  0  0  0  0  0
    2.0757    1.0735   -2.9455 N   0  0  0  0  0  0  0  0  0  0  0  0
    2.4726    1.2713   -3.8594 H   0  0  0  0  0  0  0  0  0  0  0  0
    2.6727    1.0122   -2.1236 H   0  0  0  0  0  0  0  0  0  0  0  0
    0.8147    0.0453    0.6486 C   0  0  0  0  0  0  0  0  0  0  0  0
    2.0345    0.0886    0.7456 O   0  0  0  0  0  0  0  0  0  0  0  0
    0.0366    0.4616    1.7128 N   0  0  0  0  0  0  0  0  0  0  0  0
   -0.9664    0.3490    1.6047 H   0  0  0  0  0  0  0  0  0  0  0  0
    0.5767    0.6747    3.0495 C   0  0  0  0  0  0  0  0  0  0  0  0
    1.3612    1.4385    3.0291 H   0  0  0  0  0  0  0  0  0  0  0  0
   -0.2132    1.0118    3.7273 H   0  0  0  0  0  0  0  0  0  0  0  0
    1.0000   -0.2552    3.4437 H   0  0  0  0  0  0  0  0  0  0  0  0
  1  2  1  0  0  0  0
  2  3  1  0  0  0  0
  2  4  1  0  0  0  0
  2  5  1  0  0  0  0
  5  6  2  0  0  0  0
  5  7  1  0  0  0  0
  7  8  1  0  0  0  0
  7  9  1  0  0  0  0
  9 10  1  0  0  0  0
  9 11  1  0  0  0  0
  9 19  1  0  0  0  0
 11 12  1  0  0  0  0
 11 13  1  0  0  0  0
 11 14  1  0  0  0  0
 14 15  2  0  0  0  0
 14 16  1  0  0  0  0
 16 17  1  0  0  0  0
 16 18  1  0  0  0  0
 19 20  2  0  0  0  0
 19 21  1  0  0  0  0
 21 22  1  0  0  0  0
 21 23  1  0  0  0  0
 23 24  1  0  0  0  0
 23 25  1  0  0  0  0
 23 26  1  0  0  0  0
M  END
$$$$

  -OEChem-03222214023D

 26 25  0     1  0  0  0  0  0999 V2000
   -2.7087   -3.7506   -0.3020 H   0  0  0  0  0  0  0  0  0  0  0  0
   -2.7152   -2.7160   -0.6573 C   0  0  0  0  0  0  0  0  0  0  0  0
   -3.5069   -2.1705   -0.1382 H   0  0  0  0  0  0  0  0  0  0  0  0
   -2.9238   -2.7158   -1.7300 H   0  0  0  0  0  0  0  0  0  0  0  0
   -1.3722   -2.0632   -0.3878 C   0  0  0  0  0  0  0  0  0  0  0  0
   -0.5058   -2.6765    0.2096 O   0  0  0  0  0  0  0  0  0  0  0  0
   -1.1348   -0.7723   -0.8196 N   0  0  0  0  0  0  0  0  0  0  0  0
   -1.8518   -0.3547   -1.4076 H   0  0  0  0  0  0  0  0  0  0  0  0
    0.1857   -0.1184   -0.7650 C   0  0  1  0  0  0  0  0  0  0  0  0
    0.8830   -0.7567   -1.3205 H   0  0  0  0  0  0  0  0  0  0  0  0
    0.0905    1.2686   -1.4375 C   0  0  0  0  0  0  0  0  0  0  0  0
   -0.9516    1.5882   -1.5265 H   0  0  0  0  0  0  0  0  0  0  0  0
    0.6077    2.0198   -0.8327 H   0  0  0  0  0  0  0  0  0  0  0  0
    0.7387    1.2672   -2.8120 C   0  0  0  0  0  0  0  0  0  0  0  0
    0.1897    1.7852   -3.7645 O   0  0  0  0  0  0  0  0  0  0  0  0
    2.0306    0.8632   -2.9991 N   0  0  0  0  0  0  0  0  0  0  0  0
    2.4648    1.1492   -3.8719 H   0  0  0  0  0  0  0  0  0  0  0  0
    2.6073    0.6851   -2.1797 H   0  0  0  0  0  0  0  0  0  0  0  0
    0.8093    0.0205    0.6382 C   0  0  0  0  0  0  0  0  0  0  0  0
    2.0300    0.0440    0.7286 O   0  0  0  0  0  0  0  0  0  0  0  0
    0.0415    0.4508    1.7043 N   0  0  0  0  0  0  0  0  0  0  0  0
   -0.9641    0.3579    1.6012 H   0  0  0  0  0  0  0  0  0  0  0  0
    0.5919    0.6799    3.0345 C   0  0  0  0  0  0  0  0  0  0  0  0
    1.3875    1.4316    2.9969 H   0  0  0  0  0  0  0  0  0  0  0  0
   -0.1896    1.0410    3.7099 H   0  0  0  0  0  0  0  0  0  0  0  0
    1.0040   -0.2487    3.4432 H   0  0  0  0  0  0  0  0  0  0  0  0
  1  2  1  0  0  0  0
  2  3  1  0  0  0  0
  2  4  1  0  0  0  0
  2  5  1  0  0  0  0
  5  6  2  0  0  0  0
  5  7  1  0  0  0  0
  7  8  1  0  0  0  0
  7  9  1  0  0  0  0
  9 10  1  0  0  0  0
  9 11  1  0  0  0  0
  9 19  1  0  0  0  0
 11 12  1  0  0  0  0
 11 13  1  0  0  0  0
 11 14  1  0  0  0  0
 14 15  2  0  0  0  0
 14 16  1  0  0  0  0
 16 17  1  0  0  0  0
 16 18  1  0  0  0  0
 19 20  2  0  0  0  0
 19 21  1  0  0  0  0
 21 22  1  0  0  0  0
 21 23  1  0  0  0  0
 23 24  1  0  0  0  0
 23 25  1  0  0  0  0
 23 26  1  0  0  0  0
M  END
$$$$

  -OEChem-03222214023D

 26 25  0     1  0  0  0  0  0999 V2000
   -2.7457   -3.7418   -0.2387 H   0  0  0  0  0  0  0  0  0  0  0  0
   -2.7436   -2.7133   -0.6110 C   0  0  0  0  0  0  0  0  0  0  0  0
   -3.5164   -2.1473   -0.0854 H   0  0  0  0  0  0  0  0  0  0  0  0
   -2.9734   -2.7269   -1.6793 H   0  0  0  0  0  0  0  0  0  0  0  0
   -1.3856   -2.0776   -0.3794 C   0  0  0  0  0  0  0  0  0  0  0  0
   -0.5109   -2.7005    0.1953 O   0  0  0  0  0  0  0  0  0  0  0  0
   -1.1430   -0.7914   -0.8220 N   0  0  0  0  0  0  0  0  0  0  0  0
   -1.8739   -0.3583   -1.3808 H   0  0  0  0  0  0  0  0  0  0  0  0
    0.1800   -0.1418   -0.7765 C   0  0  1  0  0  0  0  0  0  0  0  0
    0.8724   -0.7899   -1.3250 H   0  0  0  0  0  0  0  0  0  0  0  0
    0.0835    1.2408   -1.4612 C   0  0  0  0  0  0  0  0  0  0  0  0
   -0.9587    1.5612   -1.5418 H   0  0  0  0  0  0  0  0  0  0  0  0
    0.6058    1.9917   -0.8604 H   0  0  0  0  0  0  0  0  0  0  0  0
    0.7197    1.2561   -2.8431 C   0  0  0  0  0  0  0  0  0  0  0  0
    0.2995    1.9974   -3.7095 O   0  0  0  0  0  0  0  0  0  0  0  0
    1.9307    0.6775   -3.0998 N   0  0  0  0  0  0  0  0  0  0  0  0
    2.4026    1.0138   -3.9344 H   0  0  0  0  0  0  0  0  0  0  0  0
    2.4845    0.3589   -2.3080 H   0  0  0  0  0  0  0  0  0  0  0  0
    0.8037    0.0044    0.6260 C   0  0  0  0  0  0  0  0  0  0  0  0
    2.0240    0.0042    0.7204 O   0  0  0  0  0  0  0  0  0  0  0  0
    0.0382    0.4453    1.6895 N   0  0  0  0  0  0  0  0  0  0  0  0
   -0.9686    0.3742    1.5823 H   0  0  0  0  0  0  0  0  0  0  0  0
    0.5886    0.6721    3.0199 C   0  0  0  0  0  0  0  0  0  0  0  0
    1.3859    1.4220    2.9831 H   0  0  0  0  0  0  0  0  0  0  0  0
   -0.1922    1.0342    3.6957 H   0  0  0  0  0  0  0  0  0  0  0  0
    0.9982   -0.2580    3.4278 H   0  0  0  0  0  0  0  0  0  0  0  0
  1  2  1  0  0  0  0
  2  3  1  0  0  0  0
  2  4  1  0  0  0  0
  2  5  1  0  0  0  0
  5  6  2  0  0  0  0
  5  7  1  0  0  0  0
  7  8  1  0  0  0  0
  7  9  1  0  0  0  0
  9 10  1  0  0  0  0
  9 11  1  0  0  0  0
  9 19  1  0  0  0  0
 11 12  1  0  0  0  0
 11 13  1  0  0  0  0
 11 14  1  0  0  0  0
 14 15  2  0  0  0  0
 14 16  1  0  0  0  0
 16 17  1  0  0  0  0
 16 18  1  0  0  0  0
 19 20  2  0  0  0  0
 19 21  1  0  0  0  0
 21 22  1  0  0  0  0
 21 23  1  0  0  0  0
 23 24  1  0  0  0  0
 23 25  1  0  0  0  0
 23 26  1  0  0  0  0
M  END
$$$$

  -OEChem-03222214023D

 26 25  0     1  0  0  0  0  0999 V2000
   -2.7555   -3.7350   -0.1852 H   0  0  0  0  0  0  0  0  0  0  0  0
   -2.7534   -2.7091   -0.5648 C   0  0  0  0  0  0  0  0  0  0  0  0
   -3.5063   -2.1324   -0.0224 H   0  0  0  0  0  0  0  0  0  0  0  0
   -3.0124   -2.7279   -1.6262 H   0  0  0  0  0  0  0  0  0  0  0  0
   -1.3833   -2.0851   -0.3744 C   0  0  0  0  0  0  0  0  0  0  0  0
   -0.4980   -2.7159    0.1747 O   0  0  0  0  0  0  0  0  0  0  0  0
   -1.1407   -0.8014   -0.8251 N   0  0  0  0  0  0  0  0  0  0  0  0
   -1.8853   -0.3554   -1.3542 H   0  0  0  0  0  0  0  0  0  0  0  0
    0.1821   -0.1502   -0.7856 C   0  0  1  0  0  0  0  0  0  0  0  0
    0.8767   -0.8006   -1.3263 H   0  0  0  0  0  0  0  0  0  0  0  0
    0.0781    1.2322   -1.4740 C   0  0  0  0  0  0  0  0  0  0  0  0
   -0.9661    1.5492   -1.5420 H   0  0  0  0  0  0  0  0  0  0  0  0
    0.6017    1.9807   -0.8710 H   0  0  0  0  0  0  0  0  0  0  0  0
    0.6986    1.2846   -2.8652 C   0  0  0  0  0  0  0  0  0  0  0  0
    0.4454    2.2100   -3.6106 O   0  0  0  0  0  0  0  0  0  0  0  0
    1.7550    0.5108   -3.2558 N   0  0  0  0  0  0  0  0  0  0  0  0
    2.2635    0.8646   -4.0616 H   0  0  0  0  0  0  0  0  0  0  0  0
    2.2647    0.0078   -2.5346 H   0  0  0  0  0  0  0  0  0  0  0  0
    0.7979   -0.0001    0.6207 C   0  0  0  0  0  0  0  0  0  0  0  0
    2.0163   -0.0267    0.7296 O   0  0  0  0  0  0  0  0  0  0  0  0
    0.0273    0.4438    1.6792 N   0  0  0  0  0  0  0  0  0  0  0  0
   -0.9793    0.3920    1.5608 H   0  0  0  0  0  0  0  0  0  0  0  0
    0.5678    0.6612    3.0152 C   0  0  0  0  0  0  0  0  0  0  0  0
    1.3705    1.4057    2.9880 H   0  0  0  0  0  0  0  0  0  0  0  0
   -0.2162    1.0256    3.6858 H   0  0  0  0  0  0  0  0  0  0  0  0
    0.9677   -0.2735    3.4224 H   0  0  0  0  0  0  0  0  0  0  0  0
  1  2  1  0  0  0  0
  2  3  1  0  0  0  0
  2  4  1  0  0  0  0
  2  5  1  0  0  0  0
  5  6  2  0  0  0  0
  5  7  1  0  0  0  0
  7  8  1  0  0  0  0
  7  9  1  0  0  0  0
  9 10  1  0  0  0  0
  9 11  1  0  0  0  0
  9 19  1  0  0  0  0
 11 12  1  0  0  0  0
 11 13  1  0  0  0  0
 11 14  1  0  0  0  0
 14 15  2  0  0  0  0
 14 16  1  0  0  0  0
 16 17  1  0  0  0  0
 16 18  1  0  0  0  0
 19 20  2  0  0  0  0
 19 21  1  0  0  0  0
 21 22  1  0  0  0  0
 21 23  1  0  0  0  0
 23 24  1  0  0  0  0
 23 25  1  0  0  0  0
 23 26  1  0  0  0  0
M  END
$$$$

  -OEChem-03222214023D

 26 25  0     1  0  0  0  0  0999 V2000
   -2.6753   -3.7138   -0.1858 H   0  0  0  0  0  0  0  0  0  0  0  0
   -2.6736   -2.6828   -0.5514 C   0  0  0  0  0  0  0  0  0  0  0  0
   -3.4010   -2.1049    0.0238 H   0  0  0  0  0  0  0  0  0  0  0  0
   -2.9678   -2.6839   -1.6038 H   0  0  0  0  0  0  0  0  0  0  0  0
   -1.2907   -2.0777   -0.3988 C   0  0  0  0  0  0  0  0  0  0  0  0
   -0.3896   -2.7317    0.0936 O   0  0  0  0  0  0  0  0  0  0  0  0
   -1.0472   -0.7922   -0.8428 N   0  0  0  0  0  0  0  0  0  0  0  0
   -1.8136   -0.3135   -1.3093 H   0  0  0  0  0  0  0  0  0  0  0  0
    0.2661   -0.1243   -0.7704 C   0  0  1  0  0  0  0  0  0  0  0  0
    1.0118   -0.7311   -1.2948 H   0  0  0  0  0  0  0  0  0  0  0  0
    0.1403    1.2664   -1.4266 C   0  0  0  0  0  0  0  0  0  0  0  0
   -0.8536    1.6848   -1.2481 H   0  0  0  0  0  0  0  0  0  0  0  0
    0.8660    1.9439   -0.9649 H   0  0  0  0  0  0  0  0  0  0  0  0
    0.4316    1.2835   -2.9238 C   0  0  0  0  0  0  0  0  0  0  0  0
    0.3632    2.3238   -3.5470 O   0  0  0  0  0  0  0  0  0  0  0  0
    0.7025    0.1734   -3.6752 N   0  0  0  0  0  0  0  0  0  0  0  0
    1.0272    0.3564   -4.6209 H   0  0  0  0  0  0  0  0  0  0  0  0
    0.9772   -0.6830   -3.2059 H   0  0  0  0  0  0  0  0  0  0  0  0
    0.8151    0.0193    0.6661 C   0  0  0  0  0  0  0  0  0  0  0  0
    2.0234   -0.0282    0.8482 O   0  0  0  0  0  0  0  0  0  0  0  0
   -0.0094    0.4465    1.6912 N   0  0  0  0  0  0  0  0  0  0  0  0
   -1.0081    0.4264    1.5149 H   0  0  0  0  0  0  0  0  0  0  0  0
    0.4617    0.6514    3.0553 C   0  0  0  0  0  0  0  0  0  0  0  0
    1.2576    1.4034    3.0775 H   0  0  0  0  0  0  0  0  0  0  0  0
   -0.3580    0.9996    3.6909 H   0  0  0  0  0  0  0  0  0  0  0  0
    0.8497   -0.2849    3.4703 H   0  0  0  0  0  0  0  0  0  0  0  0
  1  2  1  0  0  0  0
  2  3  1  0  0  0  0
  2  4  1  0  0  0  0
  2  5  1  0  0  0  0
  5  6  2  0  0  0  0
  5  7  1  0  0  0  0
  7  8  1  0  0  0  0
  7  9  1  0  0  0  0
  9 10  1  0  0  0  0
  9 11  1  0  0  0  0
  9 19  1  0  0  0  0
 11 12  1  0  0  0  0
 11 13  1  0  0  0  0
 11 14  1  0  0  0  0
 14 15  2  0  0  0  0
 14 16  1  0  0  0  0
 16 17  1  0  0  0  0
 16 18  1  0  0  0  0
 19 20  2  0  0  0  0
 19 21  1  0  0  0  0
 21 22  1  0  0  0  0
 21 23  1  0  0  0  0
 23 24  1  0  0  0  0
 23 25  1  0  0  0  0
 23 26  1  0  0  0  0
M  END
$$$$

  -OEChem-03222214023D

 26 25  0     1  0  0  0  0  0999 V2000
   -2.6536   -3.7046   -0.1652 H   0  0  0  0  0  0  0  0  0  0  0  0
   -2.6600   -2.6706   -0.5223 C   0  0  0  0  0  0  0  0  0  0  0  0
   -3.3529   -2.0914    0.0927 H   0  0  0  0  0  0  0  0  0  0  0  0
   -3.0058   -2.6599   -1.5588 H   0  0  0  0  0  0  0  0  0  0  0  0
   -1.2655   -2.0791   -0.4323 C   0  0  0  0  0  0  0  0  0  0  0  0
   -0.3461   -2.7475    0.0030 O   0  0  0  0  0  0  0  0  0  0  0  0
   -1.0322   -0.7881   -0.8662 N   0  0  0  0  0  0  0  0  0  0  0  0
   -1.8232   -0.2819   -1.2559 H   0  0  0  0  0  0  0  0  0  0  0  0
    0.2755   -0.1094   -0.7831 C   0  0  1  0  0  0  0  0  0  0  0  0
    1.0304   -0.7025   -1.3125 H   0  0  0  0  0  0  0  0  0  0  0  0
    0.1443    1.2825   -1.4336 C   0  0  0  0  0  0  0  0  0  0  0  0
   -0.8546    1.6935   -1.2679 H   0  0  0  0  0  0  0  0  0  0  0  0
    0.8610    1.9660   -0.9660 H   0  0  0  0  0  0  0  0  0  0  0  0
    0.4502    1.2831   -2.9267 C   0  0  0  0  0  0  0  0  0  0  0  0
    0.6539    2.3247   -3.5171 O   0  0  0  0  0  0  0  0  0  0  0  0
    0.3846    0.1665   -3.7135 N   0  0  0  0  0  0  0  0  0  0  0  0
    0.7406    0.2775   -4.6592 H   0  0  0  0  0  0  0  0  0  0  0  0
    0.4065   -0.7458   -3.2694 H   0  0  0  0  0  0  0  0  0  0  0  0
    0.8139    0.0267    0.6584 C   0  0  0  0  0  0  0  0  0  0  0  0
    2.0196   -0.0246    0.8533 O   0  0  0  0  0  0  0  0  0  0  0  0
   -0.0206    0.4385    1.6821 N   0  0  0  0  0  0  0  0  0  0  0  0
   -1.0175    0.4296    1.4958 H   0  0  0  0  0  0  0  0  0  0  0  0
    0.4397    0.6304    3.0521 C   0  0  0  0  0  0  0  0  0  0  0  0
    1.2340    1.3835    3.0882 H   0  0  0  0  0  0  0  0  0  0  0  0
   -0.3854    0.9704    3.6850 H   0  0  0  0  0  0  0  0  0  0  0  0
    0.8268   -0.3092    3.4604 H   0  0  0  0  0  0  0  0  0  0  0  0
  1  2  1  0  0  0  0
  2  3  1  0  0  0  0
  2  4  1  0  0  0  0
  2  5  1  0  0  0  0
  5  6  2  0  0  0  0
  5  7  1  0  0  0  0
  7  8  1  0  0  0  0
  7  9  1  0  0  0  0
  9 10  1  0  0  0  0
  9 11  1  0  0  0  0
  9 19  1  0  0  0  0
 11 12  1  0  0  0  0
 11 13  1  0  0  0  0
 11 14  1  0  0  0  0
 14 15  2  0  0  0  0
 14 16  1  0  0  0  0
 16 17  1  0  0  0  0
 16 18  1  0  0  0  0
 19 20  2  0  0  0  0
 19 21  1  0  0  0  0
 21 22  1  0  0  0  0
 21 23  1  0  0  0  0
 23 24  1  0  0  0  0
 23 25  1  0  0  0  0
 23 26  1  0  0  0  0
M  END
$$$$

  -OEChem-03222214023D

 26 25  0     1  0  0  0  0  0999 V2000
   -2.6500   -3.6961   -0.1529 H   0  0  0  0  0  0  0  0  0  0  0  0
   -2.6629   -2.6606   -0.5050 C   0  0  0  0  0  0  0  0  0  0  0  0
   -3.3318   -2.0808    0.1353 H   0  0  0  0  0  0  0  0  0  0  0  0
   -3.0428   -2.6437   -1.5294 H   0  0  0  0  0  0  0  0  0  0  0  0
   -1.2631   -2.0770   -0.4593 C   0  0  0  0  0  0  0  0  0  0  0  0
   -0.3302   -2.7564   -0.0733 O   0  0  0  0  0  0  0  0  0  0  0  0
   -1.0411   -0.7800   -0.8813 N   0  0  0  0  0  0  0  0  0  0  0  0
   -1.8518   -0.2521   -1.1936 H   0  0  0  0  0  0  0  0  0  0  0  0
    0.2637   -0.0946   -0.7961 C   0  0  1  0  0  0  0  0  0  0  0  0
    1.0184   -0.6775   -1.3386 H   0  0  0  0  0  0  0  0  0  0  0  0
    0.1222    1.2992   -1.4386 C   0  0  0  0  0  0  0  0  0  0  0  0
   -0.8795    1.7042   -1.2753 H   0  0  0  0  0  0  0  0  0  0  0  0
    0.8349    1.9865   -0.9702 H   0  0  0  0  0  0  0  0  0  0  0  0
    0.4300    1.2870   -2.9302 C   0  0  0  0  0  0  0  0  0  0  0  0
    0.8917    2.2626   -3.4866 O   0  0  0  0  0  0  0  0  0  0  0  0
    0.1264    0.2292   -3.7412 N   0  0  0  0  0  0  0  0  0  0  0  0
    0.5218    0.2754   -4.6765 H   0  0  0  0  0  0  0  0  0  0  0  0
   -0.0364   -0.6747   -3.3091 H   0  0  0  0  0  0  0  0  0  0  0  0
    0.8084    0.0304    0.6441 C   0  0  0  0  0  0  0  0  0  0  0  0
    2.0142   -0.0231    0.8359 O   0  0  0  0  0  0  0  0  0  0  0  0
   -0.0232    0.4275    1.6762 N   0  0  0  0  0  0  0  0  0  0  0  0
   -1.0204    0.4284    1.4928 H   0  0  0  0  0  0  0  0  0  0  0  0
    0.4433    0.6127    3.0449 C   0  0  0  0  0  0  0  0  0  0  0  0
    1.2315    1.3722    3.0823 H   0  0  0  0  0  0  0  0  0  0  0  0
   -0.3809    0.9406    3.6853 H   0  0  0  0  0  0  0  0  0  0  0  0
    0.8407   -0.3266    3.4436 H   0  0  0  0  0  0  0  0  0  0  0  0
  1  2  1  0  0  0  0
  2  3  1  0  0  0  0
  2  4  1  0  0  0  0
  2  5  1  0  0  0  0
  5  6  2  0  0  0  0
  5  7  1  0  0  0  0
  7  8  1  0  0  0  0
  7  9  1  0  0  0  0
  9 10  1  0  0  0  0
  9 11  1  0  0  0  0
  9 19  1  0  0  0  0
 11 12  1  0  0  0  0
 11 13  1  0  0  0  0
 11 14  1  0  0  0  0
 14 15  2  0  0  0  0
 14 16  1  0  0  0  0
 16 17  1  0  0  0  0
 16 18  1  0  0  0  0
 19 20  2  0  0  0  0
 19 21  1  0  0  0  0
 21 22  1  0  0  0  0
 21 23  1  0  0  0  0
 23 24  1  0  0  0  0
 23 25  1  0  0  0  0
 23 26  1  0  0  0  0
M  END
$$$$

  -OEChem-03222214023D

 26 25  0     1  0  0  0  0  0999 V2000
   -2.6399   -3.6815   -0.1282 H   0  0  0  0  0  0  0  0  0  0  0  0
   -2.6617   -2.6466   -0.4821 C   0  0  0  0  0  0  0  0  0  0  0  0
   -3.3086   -2.0640    0.1782 H   0  0  0  0  0  0  0  0  0  0  0  0
   -3.0740   -2.6307   -1.4939 H   0  0  0  0  0  0  0  0  0  0  0  0
   -1.2597   -2.0667   -0.4825 C   0  0  0  0  0  0  0  0  0  0  0  0
   -0.3160   -2.7528   -0.1374 O   0  0  0  0  0  0  0  0  0  0  0  0
   -1.0512   -0.7641   -0.8953 N   0  0  0  0  0  0  0  0  0  0  0  0
   -1.8765   -0.2226   -1.1379 H   0  0  0  0  0  0  0  0  0  0  0  0
    0.2515   -0.0731   -0.8115 C   0  0  1  0  0  0  0  0  0  0  0  0
    1.0047   -0.6472   -1.3664 H   0  0  0  0  0  0  0  0  0  0  0  0
    0.1007    1.3236   -1.4434 C   0  0  0  0  0  0  0  0  0  0  0  0
   -0.9019    1.7243   -1.2768 H   0  0  0  0  0  0  0  0  0  0  0  0
    0.8116    2.0125   -0.9742 H   0  0  0  0  0  0  0  0  0  0  0  0
    0.4051    1.3068   -2.9348 C   0  0  0  0  0  0  0  0  0  0  0  0
    1.0988    2.1567   -3.4553 O   0  0  0  0  0  0  0  0  0  0  0  0
   -0.0984    0.3516   -3.7721 N   0  0  0  0  0  0  0  0  0  0  0  0
    0.3209    0.3340   -4.6981 H   0  0  0  0  0  0  0  0  0  0  0  0
   -0.4242   -0.5149   -3.3564 H   0  0  0  0  0  0  0  0  0  0  0  0
    0.8026    0.0401    0.6274 C   0  0  0  0  0  0  0  0  0  0  0  0
    2.0081   -0.0204    0.8178 O   0  0  0  0  0  0  0  0  0  0  0  0
   -0.0270    0.4234    1.6665 N   0  0  0  0  0  0  0  0  0  0  0  0
   -1.0243    0.4302    1.4851 H   0  0  0  0  0  0  0  0  0  0  0  0
    0.4417    0.5835    3.0376 C   0  0  0  0  0  0  0  0  0  0  0  0
    1.2330    1.3391    3.0871 H   0  0  0  0  0  0  0  0  0  0  0  0
   -0.3807    0.9037    3.6842 H   0  0  0  0  0  0  0  0  0  0  0  0
    0.8352   -0.3644    3.4196 H   0  0  0  0  0  0  0  0  0  0  0  0
  1  2  1  0  0  0  0
  2  3  1  0  0  0  0
  2  4  1  0  0  0  0
  2  5  1  0  0  0  0
  5  6  2  0  0  0  0
  5  7  1  0  0  0  0
  7  8  1  0  0  0  0
  7  9  1  0  0  0  0
  9 10  1  0  0  0  0
  9 11  1  0  0  0  0
  9 19  1  0  0  0  0
 11 12  1  0  0  0  0
 11 13  1  0  0  0  0
 11 14  1  0  0  0  0
 14 15  2  0  0  0  0
 14 16  1  0  0  0  0
 16 17  1  0  0  0  0
 16 18  1  0  0  0  0
 19 20  2  0  0  0  0
 19 21  1  0  0  0  0
 21 22  1  0  0  0  0
 21 23  1  0  0  0  0
 23 24  1  0  0  0  0
 23 25  1  0  0  0  0
 23 26  1  0  0  0  0
M  END
$$$$

  -OEChem-03222214023D

 26 25  0     1  0  0  0  0  0999 V2000
   -2.6334   -3.6716   -0.1354 H   0  0  0  0  0  0  0  0  0  0  0  0
   -2.6623   -2.6347   -0.4827 C   0  0  0  0  0  0  0  0  0  0  0  0
   -3.2983   -2.0569    0.1921 H   0  0  0  0  0  0  0  0  0  0  0  0
   -3.0921   -2.6133   -1.4871 H   0  0  0  0  0  0  0  0  0  0  0  0
   -1.2607   -2.0540   -0.5039 C   0  0  0  0  0  0  0  0  0  0  0  0
   -0.3114   -2.7424   -0.1793 O   0  0  0  0  0  0  0  0  0  0  0  0
   -1.0620   -0.7457   -0.9040 N   0  0  0  0  0  0  0  0  0  0  0  0
   -1.8950   -0.1972   -1.0986 H   0  0  0  0  0  0  0  0  0  0  0  0
    0.2395   -0.0513   -0.8183 C   0  0  1  0  0  0  0  0  0  0  0  0
    0.9904   -0.6178   -1.3843 H   0  0  0  0  0  0  0  0  0  0  0  0
    0.0835    1.3489   -1.4395 C   0  0  0  0  0  0  0  0  0  0  0  0
   -0.9188    1.7489   -1.2689 H   0  0  0  0  0  0  0  0  0  0  0  0
    0.7946    2.0367   -0.9693 H   0  0  0  0  0  0  0  0  0  0  0  0
    0.3872    1.3318   -2.9307 C   0  0  0  0  0  0  0  0  0  0  0  0
    1.2759    2.0027   -3.4146 O   0  0  0  0  0  0  0  0  0  0  0  0
   -0.2901    0.5246   -3.7999 N   0  0  0  0  0  0  0  0  0  0  0  0
    0.1371    0.4450   -4.7191 H   0  0  0  0  0  0  0  0  0  0  0  0
   -0.7805   -0.2736   -3.4117 H   0  0  0  0  0  0  0  0  0  0  0  0
    0.7984    0.0484    0.6189 C   0  0  0  0  0  0  0  0  0  0  0  0
    2.0046   -0.0110    0.8042 O   0  0  0  0  0  0  0  0  0  0  0  0
   -0.0265    0.4177    1.6670 N   0  0  0  0  0  0  0  0  0  0  0  0
   -1.0248    0.4231    1.4921 H   0  0  0  0  0  0  0  0  0  0  0  0
    0.4504    0.5648    3.0369 C   0  0  0  0  0  0  0  0  0  0  0  0
    1.2341    1.3280    3.0905 H   0  0  0  0  0  0  0  0  0  0  0  0
   -0.3704    0.8679    3.6937 H   0  0  0  0  0  0  0  0  0  0  0  0
    0.8571   -0.3835    3.4038 H   0  0  0  0  0  0  0  0  0  0  0  0
  1  2  1  0  0  0  0
  2  3  1  0  0  0  0
  2  4  1  0  0  0  0
  2  5  1  0  0  0  0
  5  6  2  0  0  0  0
  5  7  1  0  0  0  0
  7  8  1  0  0  0  0
  7  9  1  0  0  0  0
  9 10  1  0  0  0  0
  9 11  1  0  0  0  0
  9 19  1  0  0  0  0
 11 12  1  0  0  0  0
 11 13  1  0  0  0  0
 11 14  1  0  0  0  0
 14 15  2  0  0  0  0
 14 16  1  0  0  0  0
 16 17  1  0  0  0  0
 16 18  1  0  0  0  0
 19 20  2  0  0  0  0
 19 21  1  0  0  0  0
 21 22  1  0  0  0  0
 21 23  1  0  0  0  0
 23 24  1  0  0  0  0
 23 25  1  0  0  0  0
 23 26  1  0  0  0  0
M  END
$$$$

  -OEChem-03222214023D

 26 25  0     1  0  0  0  0  0999 V2000
   -2.6245   -3.6624   -0.1297 H   0  0  0  0  0  0  0  0  0  0  0  0
   -2.6543   -2.6289   -0.4876 C   0  0  0  0  0  0  0  0  0  0  0  0
   -3.2930   -2.0455    0.1798 H   0  0  0  0  0  0  0  0  0  0  0  0
   -3.0808   -2.6181   -1.4936 H   0  0  0  0  0  0  0  0  0  0  0  0
   -1.2539   -2.0455   -0.5114 C   0  0  0  0  0  0  0  0  0  0  0  0
   -0.3033   -2.7327   -0.1885 O   0  0  0  0  0  0  0  0  0  0  0  0
   -1.0607   -0.7344   -0.9052 N   0  0  0  0  0  0  0  0  0  0  0  0
   -1.8967   -0.1849   -1.0795 H   0  0  0  0  0  0  0  0  0  0  0  0
    0.2400   -0.0389   -0.8187 C   0  0  1  0  0  0  0  0  0  0  0  0
    0.9894   -0.6030   -1.3894 H   0  0  0  0  0  0  0  0  0  0  0  0
    0.0865    1.3642   -1.4332 C   0  0  0  0  0  0  0  0  0  0  0  0
   -0.9140    1.7670   -1.2591 H   0  0  0  0  0  0  0  0  0  0  0  0
    0.8001    2.0487   -0.9620 H   0  0  0  0  0  0  0  0  0  0  0  0
    0.3909    1.3494   -2.9240 C   0  0  0  0  0  0  0  0  0  0  0  0
    1.4263    1.7951   -3.3744 O   0  0  0  0  0  0  0  0  0  0  0  0
   -0.4501    0.7722   -3.8321 N   0  0  0  0  0  0  0  0  0  0  0  0
   -0.0452    0.6367   -4.7548 H   0  0  0  0  0  0  0  0  0  0  0  0
   -1.1347    0.1091   -3.4889 H   0  0  0  0  0  0  0  0  0  0  0  0
    0.8006    0.0522    0.6188 C   0  0  0  0  0  0  0  0  0  0  0  0
    2.0068   -0.0029    0.8056 O   0  0  0  0  0  0  0  0  0  0  0  0
   -0.0255    0.4142    1.6687 N   0  0  0  0  0  0  0  0  0  0  0  0
   -1.0239    0.4068    1.4950 H   0  0  0  0  0  0  0  0  0  0  0  0
    0.4498    0.5527    3.0401 C   0  0  0  0  0  0  0  0  0  0  0  0
    1.2413    1.3075    3.0977 H   0  0  0  0  0  0  0  0  0  0  0  0
   -0.3697    0.8631    3.6952 H   0  0  0  0  0  0  0  0  0  0  0  0
    0.8453   -0.4010    3.4055 H   0  0  0  0  0  0  0  0  0  0  0  0
  1  2  1  0  0  0  0
  2  3  1  0  0  0  0
  2  4  1  0  0  0  0
  2  5  1  0  0  0  0
  5  6  2  0  0  0  0
  5  7  1  0  0  0  0
  7  8  1  0  0  0  0
  7  9  1  0  0  0  0
  9 10  1  0  0  0  0
  9 11  1  0  0  0  0
  9 19  1  0  0  0  0
 11 12  1  0  0  0  0
 11 13  1  0  0  0  0
 11 14  1  0  0  0  0
 14 15  2  0  0  0  0
 14 16  1  0  0  0  0
 16 17  1  0  0  0  0
 16 18  1  0  0  0  0
 19 20  2  0  0  0  0
 19 21  1  0  0  0  0
 21 22  1  0  0  0  0
 21 23  1  0  0  0  0
 23 24  1  0  0  0  0
 23 25  1  0  0  0  0
 23 26  1  0  0  0  0
M  END
$$$$

  -OEChem-03222214023D

 26 25  0     1  0  0  0  0  0999 V2000
   -2.6308   -3.6758   -0.1632 H   0  0  0  0  0  0  0  0  0  0  0  0
   -2.6512   -2.6441   -0.5263 C   0  0  0  0  0  0  0  0  0  0  0  0
   -3.3301   -2.0641    0.1035 H   0  0  0  0  0  0  0  0  0  0  0  0
   -3.0238   -2.6422   -1.5535 H   0  0  0  0  0  0  0  0  0  0  0  0
   -1.2568   -2.0473   -0.4779 C   0  0  0  0  0  0  0  0  0  0  0  0
   -0.3233   -2.7191   -0.0810 O   0  0  0  0  0  0  0  0  0  0  0  0
   -1.0529   -0.7406   -0.8811 N   0  0  0  0  0  0  0  0  0  0  0  0
   -1.8746   -0.2127   -1.1561 H   0  0  0  0  0  0  0  0  0  0  0  0
    0.2500   -0.0483   -0.8047 C   0  0  1  0  0  0  0  0  0  0  0  0
    0.9957   -0.6181   -1.3749 H   0  0  0  0  0  0  0  0  0  0  0  0
    0.1048    1.3562   -1.4203 C   0  0  0  0  0  0  0  0  0  0  0  0
   -0.8897    1.7693   -1.2370 H   0  0  0  0  0  0  0  0  0  0  0  0
    0.8286    2.0351   -0.9570 H   0  0  0  0  0  0  0  0  0  0  0  0
    0.4023    1.3354   -2.9120 C   0  0  0  0  0  0  0  0  0  0  0  0
    1.5210    1.5152   -3.3468 O   0  0  0  0  0  0  0  0  0  0  0  0
   -0.5620    1.0826   -3.8461 N   0  0  0  0  0  0  0  0  0  0  0  0
   -0.2210    0.9179   -4.7897 H   0  0  0  0  0  0  0  0  0  0  0  0
   -1.4464    0.6886   -3.5508 H   0  0  0  0  0  0  0  0  0  0  0  0
    0.8134    0.0513    0.6315 C   0  0  0  0  0  0  0  0  0  0  0  0
    2.0205    0.0094    0.8172 O   0  0  0  0  0  0  0  0  0  0  0  0
   -0.0133    0.4236    1.6774 N   0  0  0  0  0  0  0  0  0  0  0  0
   -1.0117    0.3836    1.5080 H   0  0  0  0  0  0  0  0  0  0  0  0
    0.4616    0.5686    3.0483 C   0  0  0  0  0  0  0  0  0  0  0  0
    1.2642    1.3120    3.1004 H   0  0  0  0  0  0  0  0  0  0  0  0
   -0.3542    0.8980    3.6987 H   0  0  0  0  0  0  0  0  0  0  0  0
    0.8425   -0.3871    3.4238 H   0  0  0  0  0  0  0  0  0  0  0  0
  1  2  1  0  0  0  0
  2  3  1  0  0  0  0
  2  4  1  0  0  0  0
  2  5  1  0  0  0  0
  5  6  2  0  0  0  0
  5  7  1  0  0  0  0
  7  8  1  0  0  0  0
  7  9  1  0  0  0  0
  9 10  1  0  0  0  0
  9 11  1  0  0  0  0
  9 19  1  0  0  0  0
 11 12  1  0  0  0  0
 11 13  1  0  0  0  0
 11 14  1  0  0  0  0
 14 15  2  0  0  0  0
 14 16  1  0  0  0  0
 16 17  1  0  0  0  0
 16 18  1  0  0  0  0
 19 20  2  0  0  0  0
 19 21  1  0  0  0  0
 21 22  1  0  0  0  0
 21 23  1  0  0  0  0
 23 24  1  0  0  0  0
 23 25  1  0  0  0  0
 23 26  1  0  0  0  0
M  END
$$$$

  -OEChem-03222214023D

 26 25  0     1  0  0  0  0  0999 V2000
   -2.6395   -3.7452   -0.2555 H   0  0  0  0  0  0  0  0  0  0  0  0
   -2.6460   -2.7186   -0.6331 C   0  0  0  0  0  0  0  0  0  0  0  0
   -3.4566   -2.1704   -0.1473 H   0  0  0  0  0  0  0  0  0  0  0  0
   -2.8247   -2.7437   -1.7107 H   0  0  0  0  0  0  0  0  0  0  0  0
   -1.3165   -2.0480   -0.3414 C   0  0  0  0  0  0  0  0  0  0  0  0
   -0.4701   -2.6412    0.3012 O   0  0  0  0  0  0  0  0  0  0  0  0
   -1.0823   -0.7651   -0.8013 N   0  0  0  0  0  0  0  0  0  0  0  0
   -1.7808   -0.3931   -1.4370 H   0  0  0  0  0  0  0  0  0  0  0  0
    0.2404   -0.1074   -0.7671 C   0  0  1  0  0  0  0  0  0  0  0  0
    0.9644   -0.7085   -1.3325 H   0  0  0  0  0  0  0  0  0  0  0  0
    0.1100    1.2899   -1.4048 C   0  0  0  0  0  0  0  0  0  0  0  0
   -0.8699    1.7261   -1.1971 H   0  0  0  0  0  0  0  0  0  0  0  0
    0.8623    1.9620   -0.9786 H   0  0  0  0  0  0  0  0  0  0  0  0
    0.3664    1.2298   -2.9020 C   0  0  0  0  0  0  0  0  0  0  0  0
    1.4806    1.1040   -3.3662 O   0  0  0  0  0  0  0  0  0  0  0  0
   -0.6499    1.3183   -3.8108 N   0  0  0  0  0  0  0  0  0  0  0  0
   -0.3478    1.4426   -4.7740 H   0  0  0  0  0  0  0  0  0  0  0  0
   -1.5328    1.7151   -3.5100 H   0  0  0  0  0  0  0  0  0  0  0  0
    0.8274    0.0367    0.6562 C   0  0  0  0  0  0  0  0  0  0  0  0
    2.0388    0.0028    0.8193 O   0  0  0  0  0  0  0  0  0  0  0  0
    0.0228    0.4752    1.6932 N   0  0  0  0  0  0  0  0  0  0  0  0
   -0.9768    0.3779    1.5520 H   0  0  0  0  0  0  0  0  0  0  0  0
    0.5221    0.6543    3.0509 C   0  0  0  0  0  0  0  0  0  0  0  0
    1.3352    1.3877    3.0665 H   0  0  0  0  0  0  0  0  0  0  0  0
   -0.2780    1.0146    3.7044 H   0  0  0  0  0  0  0  0  0  0  0  0
    0.8965   -0.2950    3.4484 H   0  0  0  0  0  0  0  0  0  0  0  0
  1  2  1  0  0  0  0
  2  3  1  0  0  0  0
  2  4  1  0  0  0  0
  2  5  1  0  0  0  0
  5  6  2  0  0  0  0
  5  7  1  0  0  0  0
  7  8  1  0  0  0  0
  7  9  1  0  0  0  0
  9 10  1  0  0  0  0
  9 11  1  0  0  0  0
  9 19  1  0  0  0  0
 11 12  1  0  0  0  0
 11 13  1  0  0  0  0
 11 14  1  0  0  0  0
 14 15  2  0  0  0  0
 14 16  1  0  0  0  0
 16 17  1  0  0  0  0
 16 18  1  0  0  0  0
 19 20  2  0  0  0  0
 19 21  1  0  0  0  0
 21 22  1  0  0  0  0
 21 23  1  0  0  0  0
 23 24  1  0  0  0  0
 23 25  1  0  0  0  0
 23 26  1  0  0  0  0
M  END
$$$$

  -OEChem-03222214023D

 26 25  0     1  0  0  0  0  0999 V2000
   -2.6477   -3.7407   -0.2569 H   0  0  0  0  0  0  0  0  0  0  0  0
   -2.6479   -2.7175   -0.6438 C   0  0  0  0  0  0  0  0  0  0  0  0
   -3.4643   -2.1636   -0.1745 H   0  0  0  0  0  0  0  0  0  0  0  0
   -2.8113   -2.7523   -1.7237 H   0  0  0  0  0  0  0  0  0  0  0  0
   -1.3219   -2.0452   -0.3401 C   0  0  0  0  0  0  0  0  0  0  0  0
   -0.4826   -2.6349    0.3151 O   0  0  0  0  0  0  0  0  0  0  0  0
   -1.0857   -0.7629   -0.8000 N   0  0  0  0  0  0  0  0  0  0  0  0
   -1.7773   -0.3967   -1.4470 H   0  0  0  0  0  0  0  0  0  0  0  0
    0.2384   -0.1089   -0.7673 C   0  0  1  0  0  0  0  0  0  0  0  0
    0.9596   -0.7115   -1.3346 H   0  0  0  0  0  0  0  0  0  0  0  0
    0.1050    1.2915   -1.3999 C   0  0  0  0  0  0  0  0  0  0  0  0
   -0.8754    1.7223   -1.1828 H   0  0  0  0  0  0  0  0  0  0  0  0
    0.8573    1.9625   -0.9725 H   0  0  0  0  0  0  0  0  0  0  0  0
    0.3526    1.2509   -2.9001 C   0  0  0  0  0  0  0  0  0  0  0  0
    1.4012    0.8733   -3.3813 O   0  0  0  0  0  0  0  0  0  0  0  0
   -0.6111    1.6192   -3.7955 N   0  0  0  0  0  0  0  0  0  0  0  0
   -0.2871    1.7171   -4.7544 H   0  0  0  0  0  0  0  0  0  0  0  0
   -1.3819    2.1906   -3.4676 H   0  0  0  0  0  0  0  0  0  0  0  0
    0.8290    0.0337    0.6545 C   0  0  0  0  0  0  0  0  0  0  0  0
    2.0412    0.0089    0.8138 O   0  0  0  0  0  0  0  0  0  0  0  0
    0.0266    0.4744    1.6922 N   0  0  0  0  0  0  0  0  0  0  0  0
   -0.9728    0.3691    1.5549 H   0  0  0  0  0  0  0  0  0  0  0  0
    0.5284    0.6547    3.0491 C   0  0  0  0  0  0  0  0  0  0  0  0
    1.3423    1.3875    3.0631 H   0  0  0  0  0  0  0  0  0  0  0  0
   -0.2703    1.0163    3.7037 H   0  0  0  0  0  0  0  0  0  0  0  0
    0.9028   -0.2945    3.4470 H   0  0  0  0  0  0  0  0  0  0  0  0
  1  2  1  0  0  0  0
  2  3  1  0  0  0  0
  2  4  1  0  0  0  0
  2  5  1  0  0  0  0
  5  6  2  0  0  0  0
  5  7  1  0  0  0  0
  7  8  1  0  0  0  0
  7  9  1  0  0  0  0
  9 10  1  0  0  0  0
  9 11  1  0  0  0  0
  9 19  1  0  0  0  0
 11 12  1  0  0  0  0
 11 13  1  0  0  0  0
 11 14  1  0  0  0  0
 14 15  2  0  0  0  0
 14 16  1  0  0  0  0
 16 17  1  0  0  0  0
 16 18  1  0  0  0  0
 19 20  2  0  0  0  0
 19 21  1  0  0  0  0
 21 22  1  0  0  0  0
 21 23  1  0  0  0  0
 23 24  1  0  0  0  0
 23 25  1  0  0  0  0
 23 26  1  0  0  0  0
M  END
$$$$

  -OEChem-03222214023D

 26 25  0     1  0  0  0  0  0999 V2000
   -2.6700   -3.7256   -0.2004 H   0  0  0  0  0  0  0  0  0  0  0  0
   -2.6473   -2.7260   -0.6440 C   0  0  0  0  0  0  0  0  0  0  0  0
   -3.4764   -2.1423   -0.2369 H   0  0  0  0  0  0  0  0  0  0  0  0
   -2.7709   -2.8203   -1.7257 H   0  0  0  0  0  0  0  0  0  0  0  0
   -1.3278   -2.0460   -0.3300 C   0  0  0  0  0  0  0  0  0  0  0  0
   -0.4955   -2.6261    0.3427 O   0  0  0  0  0  0  0  0  0  0  0  0
   -1.0920   -0.7656   -0.7958 N   0  0  0  0  0  0  0  0  0  0  0  0
   -1.7755   -0.4117   -1.4583 H   0  0  0  0  0  0  0  0  0  0  0  0
    0.2339   -0.1142   -0.7695 C   0  0  1  0  0  0  0  0  0  0  0  0
    0.9513   -0.7236   -1.3337 H   0  0  0  0  0  0  0  0  0  0  0  0
    0.1024    1.2876   -1.4037 C   0  0  0  0  0  0  0  0  0  0  0  0
   -0.8771    1.7168   -1.1793 H   0  0  0  0  0  0  0  0  0  0  0  0
    0.8565    1.9557   -0.9754 H   0  0  0  0  0  0  0  0  0  0  0  0
    0.3402    1.2692   -2.9076 C   0  0  0  0  0  0  0  0  0  0  0  0
    1.2569    0.6663   -3.4281 O   0  0  0  0  0  0  0  0  0  0  0  0
   -0.4914    1.9280   -3.7675 N   0  0  0  0  0  0  0  0  0  0  0  0
   -0.1488    2.0029   -4.7218 H   0  0  0  0  0  0  0  0  0  0  0  0
   -1.0990    2.6498   -3.3954 H   0  0  0  0  0  0  0  0  0  0  0  0
    0.8279    0.0313    0.6509 C   0  0  0  0  0  0  0  0  0  0  0  0
    2.0412    0.0186    0.8050 O   0  0  0  0  0  0  0  0  0  0  0  0
    0.0273    0.4766    1.6882 N   0  0  0  0  0  0  0  0  0  0  0  0
   -0.9712    0.3559    1.5555 H   0  0  0  0  0  0  0  0  0  0  0  0
    0.5311    0.6540    3.0447 C   0  0  0  0  0  0  0  0  0  0  0  0
    1.3406    1.3913    3.0602 H   0  0  0  0  0  0  0  0  0  0  0  0
   -0.2686    1.0079    3.7022 H   0  0  0  0  0  0  0  0  0  0  0  0
    0.9114   -0.2943    3.4388 H   0  0  0  0  0  0  0  0  0  0  0  0
  1  2  1  0  0  0  0
  2  3  1  0  0  0  0
  2  4  1  0  0  0  0
  2  5  1  0  0  0  0
  5  6  2  0  0  0  0
  5  7  1  0  0  0  0
  7  8  1  0  0  0  0
  7  9  1  0  0  0  0
  9 10  1  0  0  0  0
  9 11  1  0  0  0  0
  9 19  1  0  0  0  0
 11 12  1  0  0  0  0
 11 13  1  0  0  0  0
 11 14  1  0  0  0  0
 14 15  2  0  0  0  0
 14 16  1  0  0  0  0
 16 17  1  0  0  0  0
 16 18  1  0  0  0  0
 19 20  2  0  0  0  0
 19 21  1  0  0  0  0
 21 22  1  0  0  0  0
 21 23  1  0  0  0  0
 23 24  1  0  0  0  0
 23 25  1  0  0  0  0
 23 26  1  0  0  0  0
M  END
$$$$

  -OEChem-03222214023D

 26 25  0     1  0  0  0  0  0999 V2000
   -2.6809   -3.7302   -0.1903 H   0  0  0  0  0  0  0  0  0  0  0  0
   -2.6483   -2.7393   -0.6525 C   0  0  0  0  0  0  0  0  0  0  0  0
   -3.4894   -2.1498   -0.2802 H   0  0  0  0  0  0  0  0  0  0  0  0
   -2.7423   -2.8544   -1.7352 H   0  0  0  0  0  0  0  0  0  0  0  0
   -1.3394   -2.0493   -0.3159 C   0  0  0  0  0  0  0  0  0  0  0  0
   -0.5203   -2.6171    0.3835 O   0  0  0  0  0  0  0  0  0  0  0  0
   -1.1015   -0.7727   -0.7903 N   0  0  0  0  0  0  0  0  0  0  0  0
   -1.7703   -0.4383   -1.4778 H   0  0  0  0  0  0  0  0  0  0  0  0
    0.2265   -0.1261   -0.7707 C   0  0  1  0  0  0  0  0  0  0  0  0
    0.9414   -0.7402   -1.3327 H   0  0  0  0  0  0  0  0  0  0  0  0
    0.0953    1.2770   -1.4049 C   0  0  0  0  0  0  0  0  0  0  0  0
   -0.8832    1.7047   -1.1726 H   0  0  0  0  0  0  0  0  0  0  0  0
    0.8519    1.9418   -0.9762 H   0  0  0  0  0  0  0  0  0  0  0  0
    0.3210    1.2812   -2.9119 C   0  0  0  0  0  0  0  0  0  0  0  0
    1.0502    0.4974   -3.4863 O   0  0  0  0  0  0  0  0  0  0  0  0
   -0.2953    2.1986   -3.7137 N   0  0  0  0  0  0  0  0  0  0  0  0
    0.0606    2.2478   -4.6649 H   0  0  0  0  0  0  0  0  0  0  0  0
   -0.6957    3.0257   -3.2841 H   0  0  0  0  0  0  0  0  0  0  0  0
    0.8250    0.0260    0.6467 C   0  0  0  0  0  0  0  0  0  0  0  0
    2.0396    0.0215    0.7936 O   0  0  0  0  0  0  0  0  0  0  0  0
    0.0288    0.4805    1.6832 N   0  0  0  0  0  0  0  0  0  0  0  0
   -0.9695    0.3494    1.5579 H   0  0  0  0  0  0  0  0  0  0  0  0
    0.5392    0.6704    3.0353 C   0  0  0  0  0  0  0  0  0  0  0  0
    1.3452    1.4118    3.0409 H   0  0  0  0  0  0  0  0  0  0  0  0
   -0.2585    1.0252    3.6946 H   0  0  0  0  0  0  0  0  0  0  0  0
    0.9261   -0.2735    3.4335 H   0  0  0  0  0  0  0  0  0  0  0  0
  1  2  1  0  0  0  0
  2  3  1  0  0  0  0
  2  4  1  0  0  0  0
  2  5  1  0  0  0  0
  5  6  2  0  0  0  0
  5  7  1  0  0  0  0
  7  8  1  0  0  0  0
  7  9  1  0  0  0  0
  9 10  1  0  0  0  0
  9 11  1  0  0  0  0
  9 19  1  0  0  0  0
 11 12  1  0  0  0  0
 11 13  1  0  0  0  0
 11 14  1  0  0  0  0
 14 15  2  0  0  0  0
 14 16  1  0  0  0  0
 16 17  1  0  0  0  0
 16 18  1  0  0  0  0
 19 20  2  0  0  0  0
 19 21  1  0  0  0  0
 21 22  1  0  0  0  0
 21 23  1  0  0  0  0
 23 24  1  0  0  0  0
 23 25  1  0  0  0  0
 23 26  1  0  0  0  0
M  END
$$$$

  -OEChem-03222214023D

 26 25  0     1  0  0  0  0  0999 V2000
   -2.6686   -3.7462   -0.2131 H   0  0  0  0  0  0  0  0  0  0  0  0
   -2.6467   -2.7497   -0.6637 C   0  0  0  0  0  0  0  0  0  0  0  0
   -3.5006   -2.1772   -0.2940 H   0  0  0  0  0  0  0  0  0  0  0  0
   -2.7275   -2.8540   -1.7484 H   0  0  0  0  0  0  0  0  0  0  0  0
   -1.3517   -2.0442   -0.3066 C   0  0  0  0  0  0  0  0  0  0  0  0
   -0.5398   -2.6008    0.4103 O   0  0  0  0  0  0  0  0  0  0  0  0
   -1.1171   -0.7679   -0.7837 N   0  0  0  0  0  0  0  0  0  0  0  0
   -1.7738   -0.4503   -1.4908 H   0  0  0  0  0  0  0  0  0  0  0  0
    0.2124   -0.1242   -0.7698 C   0  0  1  0  0  0  0  0  0  0  0  0
    0.9228   -0.7417   -1.3334 H   0  0  0  0  0  0  0  0  0  0  0  0
    0.0860    1.2808   -1.4037 C   0  0  0  0  0  0  0  0  0  0  0  0
   -0.8909    1.7116   -1.1695 H   0  0  0  0  0  0  0  0  0  0  0  0
    0.8458    1.9404   -0.9728 H   0  0  0  0  0  0  0  0  0  0  0  0
    0.3052    1.2969   -2.9124 C   0  0  0  0  0  0  0  0  0  0  0  0
    0.8053    0.3801   -3.5342 O   0  0  0  0  0  0  0  0  0  0  0  0
   -0.0404    2.3859   -3.6596 N   0  0  0  0  0  0  0  0  0  0  0  0
    0.3230    2.3911   -4.6090 H   0  0  0  0  0  0  0  0  0  0  0  0
   -0.2129    3.2648   -3.1830 H   0  0  0  0  0  0  0  0  0  0  0  0
    0.8196    0.0288    0.6436 C   0  0  0  0  0  0  0  0  0  0  0  0
    2.0357    0.0312    0.7790 O   0  0  0  0  0  0  0  0  0  0  0  0
    0.0306    0.4863    1.6841 N   0  0  0  0  0  0  0  0  0  0  0  0
   -0.9682    0.3506    1.5666 H   0  0  0  0  0  0  0  0  0  0  0  0
    0.5502    0.6772    3.0327 C   0  0  0  0  0  0  0  0  0  0  0  0
    1.3579    1.4168    3.0320 H   0  0  0  0  0  0  0  0  0  0  0  0
   -0.2426    1.0350    3.6964 H   0  0  0  0  0  0  0  0  0  0  0  0
    0.9373   -0.2671    3.4301 H   0  0  0  0  0  0  0  0  0  0  0  0
  1  2  1  0  0  0  0
  2  3  1  0  0  0  0
  2  4  1  0  0  0  0
  2  5  1  0  0  0  0
  5  6  2  0  0  0  0
  5  7  1  0  0  0  0
  7  8  1  0  0  0  0
  7  9  1  0  0  0  0
  9 10  1  0  0  0  0
  9 11  1  0  0  0  0
  9 19  1  0  0  0  0
 11 12  1  0  0  0  0
 11 13  1  0  0  0  0
 11 14  1  0  0  0  0
 14 15  2  0  0  0  0
 14 16  1  0  0  0  0
 16 17  1  0  0  0  0
 16 18  1  0  0  0  0
 19 20  2  0  0  0  0
 19 21  1  0  0  0  0
 21 22  1  0  0  0  0
 21 23  1  0  0  0  0
 23 24  1  0  0  0  0
 23 25  1  0  0  0  0
 23 26  1  0  0  0  0
M  END
$$$$

  -OEChem-03222214023D

 26 25  0     1  0  0  0  0  0999 V2000
   -2.6728   -3.7350   -0.2200 H   0  0  0  0  0  0  0  0  0  0  0  0
   -2.6445   -2.7414   -0.6764 C   0  0  0  0  0  0  0  0  0  0  0  0
   -3.5001   -2.1645   -0.3179 H   0  0  0  0  0  0  0  0  0  0  0  0
   -2.7160   -2.8523   -1.7613 H   0  0  0  0  0  0  0  0  0  0  0  0
   -1.3521   -2.0353   -0.3114 C   0  0  0  0  0  0  0  0  0  0  0  0
   -0.5445   -2.5909    0.4115 O   0  0  0  0  0  0  0  0  0  0  0  0
   -1.1184   -0.7571   -0.7832 N   0  0  0  0  0  0  0  0  0  0  0  0
   -1.7641   -0.4481   -1.5045 H   0  0  0  0  0  0  0  0  0  0  0  0
    0.2114   -0.1156   -0.7678 C   0  0  1  0  0  0  0  0  0  0  0  0
    0.9204   -0.7302   -1.3363 H   0  0  0  0  0  0  0  0  0  0  0  0
    0.0856    1.2920   -1.3956 C   0  0  0  0  0  0  0  0  0  0  0  0
   -0.8899    1.7251   -1.1607 H   0  0  0  0  0  0  0  0  0  0  0  0
    0.8473    1.9473   -0.9615 H   0  0  0  0  0  0  0  0  0  0  0  0
    0.3033    1.3128   -2.9042 C   0  0  0  0  0  0  0  0  0  0  0  0
    0.5512    0.3210   -3.5628 O   0  0  0  0  0  0  0  0  0  0  0  0
    0.2320    2.4802   -3.6083 N   0  0  0  0  0  0  0  0  0  0  0  0
    0.5787    2.4342   -4.5628 H   0  0  0  0  0  0  0  0  0  0  0  0
    0.2735    3.3568   -3.0991 H   0  0  0  0  0  0  0  0  0  0  0  0
    0.8211    0.0304    0.6449 C   0  0  0  0  0  0  0  0  0  0  0  0
    2.0379    0.0367    0.7758 O   0  0  0  0  0  0  0  0  0  0  0  0
    0.0336    0.4843    1.6878 N   0  0  0  0  0  0  0  0  0  0  0  0
   -0.9654    0.3476    1.5706 H   0  0  0  0  0  0  0  0  0  0  0  0
    0.5540    0.6729    3.0361 C   0  0  0  0  0  0  0  0  0  0  0  0
    1.3608    1.4135    3.0362 H   0  0  0  0  0  0  0  0  0  0  0  0
   -0.2388    1.0286    3.7009 H   0  0  0  0  0  0  0  0  0  0  0  0
    0.9424   -0.2717    3.4313 H   0  0  0  0  0  0  0  0  0  0  0  0
  1  2  1  0  0  0  0
  2  3  1  0  0  0  0
  2  4  1  0  0  0  0
  2  5  1  0  0  0  0
  5  6  2  0  0  0  0
  5  7  1  0  0  0  0
  7  8  1  0  0  0  0
  7  9  1  0  0  0  0
  9 10  1  0  0  0  0
  9 11  1  0  0  0  0
  9 19  1  0  0  0  0
 11 12  1  0  0  0  0
 11 13  1  0  0  0  0
 11 14  1  0  0  0  0
 14 15  2  0  0  0  0
 14 16  1  0  0  0  0
 16 17  1  0  0  0  0
 16 18  1  0  0  0  0
 19 20  2  0  0  0  0
 19 21  1  0  0  0  0
 21 22  1  0  0  0  0
 21 23  1  0  0  0  0
 23 24  1  0  0  0  0
 23 25  1  0  0  0  0
 23 26  1  0  0  0  0
M  END
$$$$

  -OEChem-03222214023D

 26 25  0     1  0  0  0  0  0999 V2000
   -2.6652   -3.7358   -0.2651 H   0  0  0  0  0  0  0  0  0  0  0  0
   -2.6393   -2.7373   -0.7110 C   0  0  0  0  0  0  0  0  0  0  0  0
   -3.5084   -2.1738   -0.3633 H   0  0  0  0  0  0  0  0  0  0  0  0
   -2.6885   -2.8376   -1.7982 H   0  0  0  0  0  0  0  0  0  0  0  0
   -1.3618   -2.0212   -0.3143 C   0  0  0  0  0  0  0  0  0  0  0  0
   -0.5639   -2.5732    0.4223 O   0  0  0  0  0  0  0  0  0  0  0  0
   -1.1280   -0.7402   -0.7776 N   0  0  0  0  0  0  0  0  0  0  0  0
   -1.7588   -0.4401   -1.5162 H   0  0  0  0  0  0  0  0  0  0  0  0
    0.2026   -0.1018   -0.7583 C   0  0  1  0  0  0  0  0  0  0  0  0
    0.9075   -0.7130   -1.3358 H   0  0  0  0  0  0  0  0  0  0  0  0
    0.0772    1.3072   -1.3808 C   0  0  0  0  0  0  0  0  0  0  0  0
   -0.8985    1.7418   -1.1497 H   0  0  0  0  0  0  0  0  0  0  0  0
    0.8383    1.9608   -0.9436 H   0  0  0  0  0  0  0  0  0  0  0  0
    0.2970    1.3207   -2.8885 C   0  0  0  0  0  0  0  0  0  0  0  0
    0.2808    0.3130   -3.5701 O   0  0  0  0  0  0  0  0  0  0  0  0
    0.5257    2.4868   -3.5606 N   0  0  0  0  0  0  0  0  0  0  0  0
    0.8482    2.3828   -4.5189 H   0  0  0  0  0  0  0  0  0  0  0  0
    0.7862    3.3104   -3.0280 H   0  0  0  0  0  0  0  0  0  0  0  0
    0.8202    0.0365    0.6515 C   0  0  0  0  0  0  0  0  0  0  0  0
    2.0382    0.0450    0.7717 O   0  0  0  0  0  0  0  0  0  0  0  0
    0.0406    0.4863    1.7018 N   0  0  0  0  0  0  0  0  0  0  0  0
   -0.9591    0.3473    1.5925 H   0  0  0  0  0  0  0  0  0  0  0  0
    0.5716    0.6737    3.0463 C   0  0  0  0  0  0  0  0  0  0  0  0
    1.3782    1.4144    3.0411 H   0  0  0  0  0  0  0  0  0  0  0  0
   -0.2161    1.0282    3.7177 H   0  0  0  0  0  0  0  0  0  0  0  0
    0.9638   -0.2711    3.4373 H   0  0  0  0  0  0  0  0  0  0  0  0
  1  2  1  0  0  0  0
  2  3  1  0  0  0  0
  2  4  1  0  0  0  0
  2  5  1  0  0  0  0
  5  6  2  0  0  0  0
  5  7  1  0  0  0  0
  7  8  1  0  0  0  0
  7  9  1  0  0  0  0
  9 10  1  0  0  0  0
  9 11  1  0  0  0  0
  9 19  1  0  0  0  0
 11 12  1  0  0  0  0
 11 13  1  0  0  0  0
 11 14  1  0  0  0  0
 14 15  2  0  0  0  0
 14 16  1  0  0  0  0
 16 17  1  0  0  0  0
 16 18  1  0  0  0  0
 19 20  2  0  0  0  0
 19 21  1  0  0  0  0
 21 22  1  0  0  0  0
 21 23  1  0  0  0  0
 23 24  1  0  0  0  0
 23 25  1  0  0  0  0
 23 26  1  0  0  0  0
M  END
$$$$

  -OEChem-03222214023D

 26 25  0     1  0  0  0  0  0999 V2000
   -2.6328   -3.7482   -0.3407 H   0  0  0  0  0  0  0  0  0  0  0  0
   -2.6331   -2.7272   -0.7329 C   0  0  0  0  0  0  0  0  0  0  0  0
   -3.5036   -2.1984   -0.3379 H   0  0  0  0  0  0  0  0  0  0  0  0
   -2.7037   -2.7703   -1.8226 H   0  0  0  0  0  0  0  0  0  0  0  0
   -1.3598   -2.0103   -0.3248 C   0  0  0  0  0  0  0  0  0  0  0  0
   -0.5615   -2.5662    0.4087 O   0  0  0  0  0  0  0  0  0  0  0  0
   -1.1279   -0.7255   -0.7776 N   0  0  0  0  0  0  0  0  0  0  0  0
   -1.7517   -0.4263   -1.5236 H   0  0  0  0  0  0  0  0  0  0  0  0
    0.2012   -0.0855   -0.7517 C   0  0  1  0  0  0  0  0  0  0  0  0
    0.9051   -0.6906   -1.3368 H   0  0  0  0  0  0  0  0  0  0  0  0
    0.0740    1.3250   -1.3672 C   0  0  0  0  0  0  0  0  0  0  0  0
   -0.9035    1.7593   -1.1424 H   0  0  0  0  0  0  0  0  0  0  0  0
    0.8317    1.9798   -0.9256 H   0  0  0  0  0  0  0  0  0  0  0  0
    0.3003    1.3246   -2.8728 C   0  0  0  0  0  0  0  0  0  0  0  0
    0.0262    0.3646   -3.5691 O   0  0  0  0  0  0  0  0  0  0  0  0
    0.8227    2.4070   -3.5208 N   0  0  0  0  0  0  0  0  0  0  0  0
    1.1091    2.2478   -4.4829 H   0  0  0  0  0  0  0  0  0  0  0  0
    1.2754    3.1310   -2.9722 H   0  0  0  0  0  0  0  0  0  0  0  0
    0.8201    0.0441    0.6579 C   0  0  0  0  0  0  0  0  0  0  0  0
    2.0387    0.0578    0.7733 O   0  0  0  0  0  0  0  0  0  0  0  0
    0.0417    0.4854    1.7127 N   0  0  0  0  0  0  0  0  0  0  0  0
   -0.9583    0.3482    1.6038 H   0  0  0  0  0  0  0  0  0  0  0  0
    0.5741    0.6700    3.0571 C   0  0  0  0  0  0  0  0  0  0  0  0
    1.3812    1.4102    3.0521 H   0  0  0  0  0  0  0  0  0  0  0  0
   -0.2126    1.0242    3.7301 H   0  0  0  0  0  0  0  0  0  0  0  0
    0.9660   -0.2757    3.4464 H   0  0  0  0  0  0  0  0  0  0  0  0
  1  2  1  0  0  0  0
  2  3  1  0  0  0  0
  2  4  1  0  0  0  0
  2  5  1  0  0  0  0
  5  6  2  0  0  0  0
  5  7  1  0  0  0  0
  7  8  1  0  0  0  0
  7  9  1  0  0  0  0
  9 10  1  0  0  0  0
  9 11  1  0  0  0  0
  9 19  1  0  0  0  0
 11 12  1  0  0  0  0
 11 13  1  0  0  0  0
 11 14  1  0  0  0  0
 14 15  2  0  0  0  0
 14 16  1  0  0  0  0
 16 17  1  0  0  0  0
 16 18  1  0  0  0  0
 19 20  2  0  0  0  0
 19 21  1  0  0  0  0
 21 22  1  0  0  0  0
 21 23  1  0  0  0  0
 23 24  1  0  0  0  0
 23 25  1  0  0  0  0
 23 26  1  0  0  0  0
M  END
$$$$

  -OEChem-03222214023D

 26 25  0     1  0  0  0  0  0999 V2000
   -2.6207   -3.7417   -0.3606 H   0  0  0  0  0  0  0  0  0  0  0  0
   -2.6219   -2.7208   -0.7531 C   0  0  0  0  0  0  0  0  0  0  0  0
   -3.4941   -2.1926   -0.3604 H   0  0  0  0  0  0  0  0  0  0  0  0
   -2.6907   -2.7644   -1.8428 H   0  0  0  0  0  0  0  0  0  0  0  0
   -1.3504   -2.0013   -0.3437 C   0  0  0  0  0  0  0  0  0  0  0  0
   -0.5421   -2.5624    0.3749 O   0  0  0  0  0  0  0  0  0  0  0  0
   -1.1279   -0.7097   -0.7812 N   0  0  0  0  0  0  0  0  0  0  0  0
   -1.7545   -0.4041   -1.5233 H   0  0  0  0  0  0  0  0  0  0  0  0
    0.1961   -0.0605   -0.7492 C   0  0  1  0  0  0  0  0  0  0  0  0
    0.9010   -0.6551   -1.3437 H   0  0  0  0  0  0  0  0  0  0  0  0
    0.0566    1.3519   -1.3534 C   0  0  0  0  0  0  0  0  0  0  0  0
   -0.9260    1.7773   -1.1331 H   0  0  0  0  0  0  0  0  0  0  0  0
    0.8053    2.0143   -0.9086 H   0  0  0  0  0  0  0  0  0  0  0  0
    0.2871    1.3400   -2.8564 C   0  0  0  0  0  0  0  0  0  0  0  0
   -0.2203    0.4924   -3.5680 O   0  0  0  0  0  0  0  0  0  0  0  0
    1.1099    2.2388   -3.4723 N   0  0  0  0  0  0  0  0  0  0  0  0
    1.3604    2.0218   -4.4330 H   0  0  0  0  0  0  0  0  0  0  0  0
    1.7392    2.7923   -2.8995 H   0  0  0  0  0  0  0  0  0  0  0  0
    0.8197    0.0594    0.6586 C   0  0  0  0  0  0  0  0  0  0  0  0
    2.0389    0.0831    0.7660 O   0  0  0  0  0  0  0  0  0  0  0  0
    0.0428    0.4836    1.7211 N   0  0  0  0  0  0  0  0  0  0  0  0
   -0.9572    0.3441    1.6144 H   0  0  0  0  0  0  0  0  0  0  0  0
    0.5792    0.6639    3.0642 C   0  0  0  0  0  0  0  0  0  0  0  0
    1.3774    1.4135    3.0621 H   0  0  0  0  0  0  0  0  0  0  0  0
   -0.2085    1.0039    3.7431 H   0  0  0  0  0  0  0  0  0  0  0  0
    0.9830   -0.2803    3.4446 H   0  0  0  0  0  0  0  0  0  0  0  0
  1  2  1  0  0  0  0
  2  3  1  0  0  0  0
  2  4  1  0  0  0  0
  2  5  1  0  0  0  0
  5  6  2  0  0  0  0
  5  7  1  0  0  0  0
  7  8  1  0  0  0  0
  7  9  1  0  0  0  0
  9 10  1  0  0  0  0
  9 11  1  0  0  0  0
  9 19  1  0  0  0  0
 11 12  1  0  0  0  0
 11 13  1  0  0  0  0
 11 14  1  0  0  0  0
 14 15  2  0  0  0  0
 14 16  1  0  0  0  0
 16 17  1  0  0  0  0
 16 18  1  0  0  0  0
 19 20  2  0  0  0  0
 19 21  1  0  0  0  0
 21 22  1  0  0  0  0
 21 23  1  0  0  0  0
 23 24  1  0  0  0  0
 23 25  1  0  0  0  0
 23 26  1  0  0  0  0
M  END
$$$$

  -OEChem-03222214023D

 26 25  0     1  0  0  0  0  0999 V2000
   -2.5942   -3.7393   -0.3957 H   0  0  0  0  0  0  0  0  0  0  0  0
   -2.6095   -2.7098   -0.7644 C   0  0  0  0  0  0  0  0  0  0  0  0
   -3.4739   -2.1952   -0.3381 H   0  0  0  0  0  0  0  0  0  0  0  0
   -2.7057   -2.7289   -1.8528 H   0  0  0  0  0  0  0  0  0  0  0  0
   -1.3315   -1.9941   -0.3684 C   0  0  0  0  0  0  0  0  0  0  0  0
   -0.5082   -2.5639    0.3259 O   0  0  0  0  0  0  0  0  0  0  0  0
   -1.1158   -0.6970   -0.7924 N   0  0  0  0  0  0  0  0  0  0  0  0
   -1.7541   -0.3756   -1.5183 H   0  0  0  0  0  0  0  0  0  0  0  0
    0.2015   -0.0364   -0.7496 C   0  0  1  0  0  0  0  0  0  0  0  0
    0.9130   -0.6207   -1.3462 H   0  0  0  0  0  0  0  0  0  0  0  0
    0.0487    1.3761   -1.3455 C   0  0  0  0  0  0  0  0  0  0  0  0
   -0.9419    1.7875   -1.1342 H   0  0  0  0  0  0  0  0  0  0  0  0
    0.7832    2.0510   -0.8956 H   0  0  0  0  0  0  0  0  0  0  0  0
    0.2892    1.3532   -2.8446 C   0  0  0  0  0  0  0  0  0  0  0  0
   -0.4092    0.6742   -3.5748 O   0  0  0  0  0  0  0  0  0  0  0  0
    1.3465    1.9935   -3.4245 N   0  0  0  0  0  0  0  0  0  0  0  0
    1.5495    1.7321   -4.3853 H   0  0  0  0  0  0  0  0  0  0  0  0
    2.0917    2.3386   -2.8272 H   0  0  0  0  0  0  0  0  0  0  0  0
    0.8216    0.0782    0.6594 C   0  0  0  0  0  0  0  0  0  0  0  0
    2.0406    0.1082    0.7670 O   0  0  0  0  0  0  0  0  0  0  0  0
    0.0402    0.4864    1.7246 N   0  0  0  0  0  0  0  0  0  0  0  0
   -0.9596    0.3490    1.6130 H   0  0  0  0  0  0  0  0  0  0  0  0
    0.5728    0.6571    3.0703 C   0  0  0  0  0  0  0  0  0  0  0  0
    1.3690    1.4089    3.0758 H   0  0  0  0  0  0  0  0  0  0  0  0
   -0.2174    0.9888    3.7505 H   0  0  0  0  0  0  0  0  0  0  0  0
    0.9790   -0.2892    3.4429 H   0  0  0  0  0  0  0  0  0  0  0  0
  1  2  1  0  0  0  0
  2  3  1  0  0  0  0
  2  4  1  0  0  0  0
  2  5  1  0  0  0  0
  5  6  2  0  0  0  0
  5  7  1  0  0  0  0
  7  8  1  0  0  0  0
  7  9  1  0  0  0  0
  9 10  1  0  0  0  0
  9 11  1  0  0  0  0
  9 19  1  0  0  0  0
 11 12  1  0  0  0  0
 11 13  1  0  0  0  0
 11 14  1  0  0  0  0
 14 15  2  0  0  0  0
 14 16  1  0  0  0  0
 16 17  1  0  0  0  0
 16 18  1  0  0  0  0
 19 20  2  0  0  0  0
 19 21  1  0  0  0  0
 21 22  1  0  0  0  0
 21 23  1  0  0  0  0
 23 24  1  0  0  0  0
 23 25  1  0  0  0  0
 23 26  1  0  0  0  0
M  END
$$$$

  -OEChem-03222214023D

 26 25  0     1  0  0  0  0  0999 V2000
   -2.5836   -3.7355   -0.4203 H   0  0  0  0  0  0  0  0  0  0  0  0
   -2.6052   -2.6984   -0.7668 C   0  0  0  0  0  0  0  0  0  0  0  0
   -3.4555   -2.1901   -0.3063 H   0  0  0  0  0  0  0  0  0  0  0  0
   -2.7306   -2.6942   -1.8524 H   0  0  0  0  0  0  0  0  0  0  0  0
   -1.3148   -1.9950   -0.3903 C   0  0  0  0  0  0  0  0  0  0  0  0
   -0.4786   -2.5767    0.2782 O   0  0  0  0  0  0  0  0  0  0  0  0
   -1.0985   -0.6956   -0.8064 N   0  0  0  0  0  0  0  0  0  0  0  0
   -1.7533   -0.3511   -1.5067 H   0  0  0  0  0  0  0  0  0  0  0  0
    0.2141   -0.0281   -0.7492 C   0  0  1  0  0  0  0  0  0  0  0  0
    0.9333   -0.6091   -1.3397 H   0  0  0  0  0  0  0  0  0  0  0  0
    0.0552    1.3806   -1.3481 C   0  0  0  0  0  0  0  0  0  0  0  0
   -0.9418    1.7839   -1.1503 H   0  0  0  0  0  0  0  0  0  0  0  0
    0.7783    2.0664   -0.8962 H   0  0  0  0  0  0  0  0  0  0  0  0
    0.3139    1.3441   -2.8421 C   0  0  0  0  0  0  0  0  0  0  0  0
   -0.5170    0.8810   -3.6011 O   0  0  0  0  0  0  0  0  0  0  0  0
    1.5110    1.7176   -3.3820 N   0  0  0  0  0  0  0  0  0  0  0  0
    1.6684    1.4502   -4.3495 H   0  0  0  0  0  0  0  0  0  0  0  0
    2.3013    1.8662   -2.7612 H   0  0  0  0  0  0  0  0  0  0  0  0
    0.8246    0.0872    0.6633 C   0  0  0  0  0  0  0  0  0  0  0  0
    2.0432    0.1144    0.7765 O   0  0  0  0  0  0  0  0  0  0  0  0
    0.0379    0.4884    1.7273 N   0  0  0  0  0  0  0  0  0  0  0  0
   -0.9631    0.3672    1.6079 H   0  0  0  0  0  0  0  0  0  0  0  0
    0.5647    0.6550    3.0759 C   0  0  0  0  0  0  0  0  0  0  0  0
    1.3628    1.4049    3.0871 H   0  0  0  0  0  0  0  0  0  0  0  0
   -0.2278    0.9871    3.7533 H   0  0  0  0  0  0  0  0  0  0  0  0
    0.9667   -0.2932    3.4483 H   0  0  0  0  0  0  0  0  0  0  0  0
  1  2  1  0  0  0  0
  2  3  1  0  0  0  0
  2  4  1  0  0  0  0
  2  5  1  0  0  0  0
  5  6  2  0  0  0  0
  5  7  1  0  0  0  0
  7  8  1  0  0  0  0
  7  9  1  0  0  0  0
  9 10  1  0  0  0  0
  9 11  1  0  0  0  0
  9 19  1  0  0  0  0
 11 12  1  0  0  0  0
 11 13  1  0  0  0  0
 11 14  1  0  0  0  0
 14 15  2  0  0  0  0
 14 16  1  0  0  0  0
 16 17  1  0  0  0  0
 16 18  1  0  0  0  0
 19 20  2  0  0  0  0
 19 21  1  0  0  0  0
 21 22  1  0  0  0  0
 21 23  1  0  0  0  0
 23 24  1  0  0  0  0
 23 25  1  0  0  0  0
 23 26  1  0  0  0  0
M  END
$$$$

  -OEChem-03222214023D

 26 25  0     1  0  0  0  0  0999 V2000
   -2.5907   -3.7308   -0.4116 H   0  0  0  0  0  0  0  0  0  0  0  0
   -2.6106   -2.6918   -0.7528 C   0  0  0  0  0  0  0  0  0  0  0  0
   -3.4463   -2.1787   -0.2712 H   0  0  0  0  0  0  0  0  0  0  0  0
   -2.7600   -2.6809   -1.8353 H   0  0  0  0  0  0  0  0  0  0  0  0
   -1.3056   -2.0019   -0.4024 C   0  0  0  0  0  0  0  0  0  0  0  0
   -0.4571   -2.5950    0.2399 O   0  0  0  0  0  0  0  0  0  0  0  0
   -1.0853   -0.7025   -0.8160 N   0  0  0  0  0  0  0  0  0  0  0  0
   -1.7603   -0.3333   -1.4836 H   0  0  0  0  0  0  0  0  0  0  0  0
    0.2258   -0.0324   -0.7495 C   0  0  1  0  0  0  0  0  0  0  0  0
    0.9495   -0.6170   -1.3306 H   0  0  0  0  0  0  0  0  0  0  0  0
    0.0716    1.3710   -1.3597 C   0  0  0  0  0  0  0  0  0  0  0  0
   -0.9273    1.7761   -1.1749 H   0  0  0  0  0  0  0  0  0  0  0  0
    0.7910    2.0612   -0.9083 H   0  0  0  0  0  0  0  0  0  0  0  0
    0.3479    1.3193   -2.8495 C   0  0  0  0  0  0  0  0  0  0  0  0
   -0.5531    1.1074   -3.6387 O   0  0  0  0  0  0  0  0  0  0  0  0
    1.6100    1.4392   -3.3565 N   0  0  0  0  0  0  0  0  0  0  0  0
    1.7289    1.2048   -4.3380 H   0  0  0  0  0  0  0  0  0  0  0  0
    2.4026    1.4043   -2.7214 H   0  0  0  0  0  0  0  0  0  0  0  0
    0.8276    0.0853    0.6664 C   0  0  0  0  0  0  0  0  0  0  0  0
    2.0456    0.1090    0.7855 O   0  0  0  0  0  0  0  0  0  0  0  0
    0.0352    0.4855    1.7264 N   0  0  0  0  0  0  0  0  0  0  0  0
   -0.9658    0.3727    1.5999 H   0  0  0  0  0  0  0  0  0  0  0  0
    0.5537    0.6536    3.0780 C   0  0  0  0  0  0  0  0  0  0  0  0
    1.3531    1.4018    3.0931 H   0  0  0  0  0  0  0  0  0  0  0  0
   -0.2426    0.9885    3.7494 H   0  0  0  0  0  0  0  0  0  0  0  0
    0.9513   -0.2947    3.4548 H   0  0  0  0  0  0  0  0  0  0  0  0
  1  2  1  0  0  0  0
  2  3  1  0  0  0  0
  2  4  1  0  0  0  0
  2  5  1  0  0  0  0
  5  6  2  0  0  0  0
  5  7  1  0  0  0  0
  7  8  1  0  0  0  0
  7  9  1  0  0  0  0
  9 10  1  0  0  0  0
  9 11  1  0  0  0  0
  9 19  1  0  0  0  0
 11 12  1  0  0  0  0
 11 13  1  0  0  0  0
 11 14  1  0  0  0  0
 14 15  2  0  0  0  0
 14 16  1  0  0  0  0
 16 17  1  0  0  0  0
 16 18  1  0  0  0  0
 19 20  2  0  0  0  0
 19 21  1  0  0  0  0
 21 22  1  0  0  0  0
 21 23  1  0  0  0  0
 23 24  1  0  0  0  0
 23 25  1  0  0  0  0
 23 26  1  0  0  0  0
M  END
$$$$

  -OEChem-03222214023D

 26 25  0     1  0  0  0  0  0999 V2000
   -2.6558   -3.7244   -0.3418 H   0  0  0  0  0  0  0  0  0  0  0  0
   -2.6555   -2.6917   -0.7024 C   0  0  0  0  0  0  0  0  0  0  0  0
   -3.4703   -2.1488   -0.2175 H   0  0  0  0  0  0  0  0  0  0  0  0
   -2.8226   -2.6977   -1.7824 H   0  0  0  0  0  0  0  0  0  0  0  0
   -1.3280   -2.0285   -0.3854 C   0  0  0  0  0  0  0  0  0  0  0  0
   -0.4832   -2.6329    0.2509 O   0  0  0  0  0  0  0  0  0  0  0  0
   -1.0842   -0.7390   -0.8173 N   0  0  0  0  0  0  0  0  0  0  0  0
   -1.7683   -0.3500   -1.4634 H   0  0  0  0  0  0  0  0  0  0  0  0
    0.2359   -0.0857   -0.7527 C   0  0  1  0  0  0  0  0  0  0  0  0
    0.9559   -0.6901   -1.3184 H   0  0  0  0  0  0  0  0  0  0  0  0
    0.1070    1.3113   -1.3845 C   0  0  0  0  0  0  0  0  0  0  0  0
   -0.8862    1.7339   -1.2073 H   0  0  0  0  0  0  0  0  0  0  0  0
    0.8354    1.9958   -0.9392 H   0  0  0  0  0  0  0  0  0  0  0  0
    0.3913    1.2431   -2.8730 C   0  0  0  0  0  0  0  0  0  0  0  0
   -0.5130    1.3093   -3.6833 O   0  0  0  0  0  0  0  0  0  0  0  0
    1.6591    1.1069   -3.3622 N   0  0  0  0  0  0  0  0  0  0  0  0
    1.7809    1.2115   -4.3653 H   0  0  0  0  0  0  0  0  0  0  0  0
    2.4525    1.1857   -2.7320 H   0  0  0  0  0  0  0  0  0  0  0  0
    0.8279    0.0450    0.6663 C   0  0  0  0  0  0  0  0  0  0  0  0
    2.0450    0.0567    0.7961 O   0  0  0  0  0  0  0  0  0  0  0  0
    0.0324    0.4722    1.7134 N   0  0  0  0  0  0  0  0  0  0  0  0
   -0.9692    0.3733    1.5810 H   0  0  0  0  0  0  0  0  0  0  0  0
    0.5437    0.6643    3.0647 C   0  0  0  0  0  0  0  0  0  0  0  0
    1.3442    1.4116    3.0705 H   0  0  0  0  0  0  0  0  0  0  0  0
   -0.2557    1.0125    3.7255 H   0  0  0  0  0  0  0  0  0  0  0  0
    0.9379   -0.2774    3.4611 H   0  0  0  0  0  0  0  0  0  0  0  0
  1  2  1  0  0  0  0
  2  3  1  0  0  0  0
  2  4  1  0  0  0  0
  2  5  1  0  0  0  0
  5  6  2  0  0  0  0
  5  7  1  0  0  0  0
  7  8  1  0  0  0  0
  7  9  1  0  0  0  0
  9 10  1  0  0  0  0
  9 11  1  0  0  0  0
  9 19  1  0  0  0  0
 11 12  1  0  0  0  0
 11 13  1  0  0  0  0
 11 14  1  0  0  0  0
 14 15  2  0  0  0  0
 14 16  1  0  0  0  0
 16 17  1  0  0  0  0
 16 18  1  0  0  0  0
 19 20  2  0  0  0  0
 19 21  1  0  0  0  0
 21 22  1  0  0  0  0
 21 23  1  0  0  0  0
 23 24  1  0  0  0  0
 23 25  1  0  0  0  0
 23 26  1  0  0  0  0
M  END
$$$$

  -OEChem-03222214023D

 26 25  0     1  0  0  0  0  0999 V2000
   -2.6787   -3.7307   -0.3073 H   0  0  0  0  0  0  0  0  0  0  0  0
   -2.6806   -2.6947   -0.6585 C   0  0  0  0  0  0  0  0  0  0  0  0
   -3.4734   -2.1490   -0.1414 H   0  0  0  0  0  0  0  0  0  0  0  0
   -2.8834   -2.6891   -1.7322 H   0  0  0  0  0  0  0  0  0  0  0  0
   -1.3374   -2.0467   -0.3800 C   0  0  0  0  0  0  0  0  0  0  0  0
   -0.4803   -2.6615    0.2292 O   0  0  0  0  0  0  0  0  0  0  0  0
   -1.0898   -0.7606   -0.8200 N   0  0  0  0  0  0  0  0  0  0  0  0
   -1.7946   -0.3501   -1.4287 H   0  0  0  0  0  0  0  0  0  0  0  0
    0.2320   -0.1102   -0.7601 C   0  0  1  0  0  0  0  0  0  0  0  0
    0.9486   -0.7264   -1.3162 H   0  0  0  0  0  0  0  0  0  0  0  0
    0.1139    1.2816   -1.4077 C   0  0  0  0  0  0  0  0  0  0  0  0
   -0.8765    1.7119   -1.2333 H   0  0  0  0  0  0  0  0  0  0  0  0
    0.8468    1.9632   -0.9655 H   0  0  0  0  0  0  0  0  0  0  0  0
    0.4015    1.2126   -2.8969 C   0  0  0  0  0  0  0  0  0  0  0  0
   -0.4367    1.5467   -3.7113 O   0  0  0  0  0  0  0  0  0  0  0  0
    1.6293    0.8642   -3.3838 N   0  0  0  0  0  0  0  0  0  0  0  0
    1.7926    1.0506   -4.3692 H   0  0  0  0  0  0  0  0  0  0  0  0
    2.4128    0.7956   -2.7400 H   0  0  0  0  0  0  0  0  0  0  0  0
    0.8226    0.0271    0.6587 C   0  0  0  0  0  0  0  0  0  0  0  0
    2.0395    0.0273    0.7906 O   0  0  0  0  0  0  0  0  0  0  0  0
    0.0278    0.4625    1.7030 N   0  0  0  0  0  0  0  0  0  0  0  0
   -0.9748    0.3806    1.5673 H   0  0  0  0  0  0  0  0  0  0  0  0
    0.5375    0.6645    3.0533 C   0  0  0  0  0  0  0  0  0  0  0  0
    1.3442    1.4050    3.0528 H   0  0  0  0  0  0  0  0  0  0  0  0
   -0.2605    1.0267    3.7084 H   0  0  0  0  0  0  0  0  0  0  0  0
    0.9227   -0.2760    3.4610 H   0  0  0  0  0  0  0  0  0  0  0  0
  1  2  1  0  0  0  0
  2  3  1  0  0  0  0
  2  4  1  0  0  0  0
  2  5  1  0  0  0  0
  5  6  2  0  0  0  0
  5  7  1  0  0  0  0
  7  8  1  0  0  0  0
  7  9  1  0  0  0  0
  9 10  1  0  0  0  0
  9 11  1  0  0  0  0
  9 19  1  0  0  0  0
 11 12  1  0  0  0  0
 11 13  1  0  0  0  0
 11 14  1  0  0  0  0
 14 15  2  0  0  0  0
 14 16  1  0  0  0  0
 16 17  1  0  0  0  0
 16 18  1  0  0  0  0
 19 20  2  0  0  0  0
 19 21  1  0  0  0  0
 21 22  1  0  0  0  0
 21 23  1  0  0  0  0
 23 24  1  0  0  0  0
 23 25  1  0  0  0  0
 23 26  1  0  0  0  0
M  END
$$$$

  -OEChem-03222214023D

 26 25  0     1  0  0  0  0  0999 V2000
   -2.7151   -3.7308   -0.2550 H   0  0  0  0  0  0  0  0  0  0  0  0
   -2.7096   -2.6990   -0.6180 C   0  0  0  0  0  0  0  0  0  0  0  0
   -3.4837   -2.1364   -0.0906 H   0  0  0  0  0  0  0  0  0  0  0  0
   -2.9349   -2.7025   -1.6873 H   0  0  0  0  0  0  0  0  0  0  0  0
   -1.3517   -2.0674   -0.3750 C   0  0  0  0  0  0  0  0  0  0  0  0
   -0.4850   -2.6924    0.2094 O   0  0  0  0  0  0  0  0  0  0  0  0
   -1.1003   -0.7843   -0.8216 N   0  0  0  0  0  0  0  0  0  0  0  0
   -1.8227   -0.3544   -1.3947 H   0  0  0  0  0  0  0  0  0  0  0  0
    0.2226   -0.1355   -0.7667 C   0  0  1  0  0  0  0  0  0  0  0  0
    0.9359   -0.7606   -1.3160 H   0  0  0  0  0  0  0  0  0  0  0  0
    0.1080    1.2523   -1.4264 C   0  0  0  0  0  0  0  0  0  0  0  0
   -0.8810    1.6853   -1.2510 H   0  0  0  0  0  0  0  0  0  0  0  0
    0.8436    1.9324   -0.9858 H   0  0  0  0  0  0  0  0  0  0  0  0
    0.3936    1.1940   -2.9181 C   0  0  0  0  0  0  0  0  0  0  0  0
   -0.3209    1.7738   -3.7120 O   0  0  0  0  0  0  0  0  0  0  0  0
    1.5429    0.6558   -3.4247 N   0  0  0  0  0  0  0  0  0  0  0  0
    1.7580    0.9019   -4.3868 H   0  0  0  0  0  0  0  0  0  0  0  0
    2.2963    0.4263   -2.7824 H   0  0  0  0  0  0  0  0  0  0  0  0
    0.8153    0.0088    0.6505 C   0  0  0  0  0  0  0  0  0  0  0  0
    2.0320   -0.0024    0.7809 O   0  0  0  0  0  0  0  0  0  0  0  0
    0.0246    0.4513    1.6951 N   0  0  0  0  0  0  0  0  0  0  0  0
   -0.9791    0.3834    1.5609 H   0  0  0  0  0  0  0  0  0  0  0  0
    0.5392    0.6692    3.0413 C   0  0  0  0  0  0  0  0  0  0  0  0
    1.3462    1.4093    3.0287 H   0  0  0  0  0  0  0  0  0  0  0  0
   -0.2563    1.0399    3.6948 H   0  0  0  0  0  0  0  0  0  0  0  0
    0.9252   -0.2665    3.4594 H   0  0  0  0  0  0  0  0  0  0  0  0
  1  2  1  0  0  0  0
  2  3  1  0  0  0  0
  2  4  1  0  0  0  0
  2  5  1  0  0  0  0
  5  6  2  0  0  0  0
  5  7  1  0  0  0  0
  7  8  1  0  0  0  0
  7  9  1  0  0  0  0
  9 10  1  0  0  0  0
  9 11  1  0  0  0  0
  9 19  1  0  0  0  0
 11 12  1  0  0  0  0
 11 13  1  0  0  0  0
 11 14  1  0  0  0  0
 14 15  2  0  0  0  0
 14 16  1  0  0  0  0
 16 17  1  0  0  0  0
 16 18  1  0  0  0  0
 19 20  2  0  0  0  0
 19 21  1  0  0  0  0
 21 22  1  0  0  0  0
 21 23  1  0  0  0  0
 23 24  1  0  0  0  0
 23 25  1  0  0  0  0
 23 26  1  0  0  0  0
M  END
$$$$

  -OEChem-03222214023D

 26 25  0     1  0  0  0  0  0999 V2000
   -2.7351   -3.7271   -0.1937 H   0  0  0  0  0  0  0  0  0  0  0  0
   -2.7267   -2.7006   -0.5716 C   0  0  0  0  0  0  0  0  0  0  0  0
   -3.4835   -2.1227   -0.0358 H   0  0  0  0  0  0  0  0  0  0  0  0
   -2.9751   -2.7170   -1.6356 H   0  0  0  0  0  0  0  0  0  0  0  0
   -1.3575   -2.0800   -0.3664 C   0  0  0  0  0  0  0  0  0  0  0  0
   -0.4805   -2.7110    0.1956 O   0  0  0  0  0  0  0  0  0  0  0  0
   -1.1065   -0.8001   -0.8224 N   0  0  0  0  0  0  0  0  0  0  0  0
   -1.8430   -0.3580   -1.3667 H   0  0  0  0  0  0  0  0  0  0  0  0
    0.2164   -0.1500   -0.7747 C   0  0  1  0  0  0  0  0  0  0  0  0
    0.9304   -0.7805   -1.3155 H   0  0  0  0  0  0  0  0  0  0  0  0
    0.0992    1.2359   -1.4420 C   0  0  0  0  0  0  0  0  0  0  0  0
   -0.8883    1.6690   -1.2592 H   0  0  0  0  0  0  0  0  0  0  0  0
    0.8377    1.9139   -1.0028 H   0  0  0  0  0  0  0  0  0  0  0  0
    0.3761    1.2016   -2.9382 C   0  0  0  0  0  0  0  0  0  0  0  0
   -0.1667    1.9928   -3.6836 O   0  0  0  0  0  0  0  0  0  0  0  0
    1.3855    0.4693   -3.4969 N   0  0  0  0  0  0  0  0  0  0  0  0
    1.6538    0.7506   -4.4360 H   0  0  0  0  0  0  0  0  0  0  0  0
    2.0837    0.0647   -2.8797 H   0  0  0  0  0  0  0  0  0  0  0  0
    0.8073    0.0027    0.6425 C   0  0  0  0  0  0  0  0  0  0  0  0
    2.0230   -0.0243    0.7779 O   0  0  0  0  0  0  0  0  0  0  0  0
    0.0168    0.4510    1.6845 N   0  0  0  0  0  0  0  0  0  0  0  0
   -0.9872    0.3985    1.5462 H   0  0  0  0  0  0  0  0  0  0  0  0
    0.5299    0.6628    3.0322 C   0  0  0  0  0  0  0  0  0  0  0  0
    1.3372    1.4027    3.0239 H   0  0  0  0  0  0  0  0  0  0  0  0
   -0.2663    1.0303    3.6867 H   0  0  0  0  0  0  0  0  0  0  0  0
    0.9156   -0.2750    3.4458 H   0  0  0  0  0  0  0  0  0  0  0  0
  1  2  1  0  0  0  0
  2  3  1  0  0  0  0
  2  4  1  0  0  0  0
  2  5  1  0  0  0  0
  5  6  2  0  0  0  0
  5  7  1  0  0  0  0
  7  8  1  0  0  0  0
  7  9  1  0  0  0  0
  9 10  1  0  0  0  0
  9 11  1  0  0  0  0
  9 19  1  0  0  0  0
 11 12  1  0  0  0  0
 11 13  1  0  0  0  0
 11 14  1  0  0  0  0
 14 15  2  0  0  0  0
 14 16  1  0  0  0  0
 16 17  1  0  0  0  0
 16 18  1  0  0  0  0
 19 20  2  0  0  0  0
 19 21  1  0  0  0  0
 21 22  1  0  0  0  0
 21 23  1  0  0  0  0
 23 24  1  0  0  0  0
 23 25  1  0  0  0  0
 23 26  1  0  0  0  0
M  END
$$$$

  -OEChem-03222214023D

 26 25  0     1  0  0  0  0  0999 V2000
   -2.7207   -3.7190   -0.1658 H   0  0  0  0  0  0  0  0  0  0  0  0
   -2.7118   -2.6950   -0.5504 C   0  0  0  0  0  0  0  0  0  0  0  0
   -3.4555   -2.1087   -0.0055 H   0  0  0  0  0  0  0  0  0  0  0  0
   -2.9785   -2.7162   -1.6099 H   0  0  0  0  0  0  0  0  0  0  0  0
   -1.3351   -2.0826   -0.3735 C   0  0  0  0  0  0  0  0  0  0  0  0
   -0.4456   -2.7242    0.1557 O   0  0  0  0  0  0  0  0  0  0  0  0
   -1.0883   -0.8010   -0.8272 N   0  0  0  0  0  0  0  0  0  0  0  0
   -1.8399   -0.3430   -1.3365 H   0  0  0  0  0  0  0  0  0  0  0  0
    0.2305   -0.1430   -0.7736 C   0  0  1  0  0  0  0  0  0  0  0  0
    0.9564   -0.7667   -1.3046 H   0  0  0  0  0  0  0  0  0  0  0  0
    0.1062    1.2445   -1.4387 C   0  0  0  0  0  0  0  0  0  0  0  0
   -0.8834    1.6700   -1.2509 H   0  0  0  0  0  0  0  0  0  0  0  0
    0.8406    1.9212   -0.9904 H   0  0  0  0  0  0  0  0  0  0  0  0
    0.3816    1.2491   -2.9384 C   0  0  0  0  0  0  0  0  0  0  0  0
    0.0539    2.2031   -3.6152 O   0  0  0  0  0  0  0  0  0  0  0  0
    1.0988    0.2909   -3.5989 N   0  0  0  0  0  0  0  0  0  0  0  0
    1.4026    0.5503   -4.5334 H   0  0  0  0  0  0  0  0  0  0  0  0
    1.6634   -0.3527   -3.0536 H   0  0  0  0  0  0  0  0  0  0  0  0
    0.8058    0.0080    0.6511 C   0  0  0  0  0  0  0  0  0  0  0  0
    2.0185   -0.0339    0.8051 O   0  0  0  0  0  0  0  0  0  0  0  0
    0.0036    0.4486    1.6878 N   0  0  0  0  0  0  0  0  0  0  0  0
   -0.9988    0.4154    1.5347 H   0  0  0  0  0  0  0  0  0  0  0  0
    0.5025    0.6577    3.0412 C   0  0  0  0  0  0  0  0  0  0  0  0
    1.3053    1.4025    3.0431 H   0  0  0  0  0  0  0  0  0  0  0  0
   -0.3014    1.0175    3.6903 H   0  0  0  0  0  0  0  0  0  0  0  0
    0.8901   -0.2795    3.4542 H   0  0  0  0  0  0  0  0  0  0  0  0
  1  2  1  0  0  0  0
  2  3  1  0  0  0  0
  2  4  1  0  0  0  0
  2  5  1  0  0  0  0
  5  6  2  0  0  0  0
  5  7  1  0  0  0  0
  7  8  1  0  0  0  0
  7  9  1  0  0  0  0
  9 10  1  0  0  0  0
  9 11  1  0  0  0  0
  9 19  1  0  0  0  0
 11 12  1  0  0  0  0
 11 13  1  0  0  0  0
 11 14  1  0  0  0  0
 14 15  2  0  0  0  0
 14 16  1  0  0  0  0
 16 17  1  0  0  0  0
 16 18  1  0  0  0  0
 19 20  2  0  0  0  0
 19 21  1  0  0  0  0
 21 22  1  0  0  0  0
 21 23  1  0  0  0  0
 23 24  1  0  0  0  0
 23 25  1  0  0  0  0
 23 26  1  0  0  0  0
M  END
$$$$

  -OEChem-03222214023D

 26 25  0     1  0  0  0  0  0999 V2000
   -2.6683   -3.7137   -0.1707 H   0  0  0  0  0  0  0  0  0  0  0  0
   -2.6721   -2.6804   -0.5296 C   0  0  0  0  0  0  0  0  0  0  0  0
   -3.3803   -2.1030    0.0695 H   0  0  0  0  0  0  0  0  0  0  0  0
   -2.9962   -2.6725   -1.5731 H   0  0  0  0  0  0  0  0  0  0  0  0
   -1.2827   -2.0823   -0.4118 C   0  0  0  0  0  0  0  0  0  0  0  0
   -0.3689   -2.7444    0.0448 O   0  0  0  0  0  0  0  0  0  0  0  0
   -1.0471   -0.7928   -0.8481 N   0  0  0  0  0  0  0  0  0  0  0  0
   -1.8295   -0.2983   -1.2696 H   0  0  0  0  0  0  0  0  0  0  0  0
    0.2618   -0.1160   -0.7728 C   0  0  1  0  0  0  0  0  0  0  0  0
    1.0091   -0.7096   -1.3119 H   0  0  0  0  0  0  0  0  0  0  0  0
    0.1347    1.2720   -1.4258 C   0  0  0  0  0  0  0  0  0  0  0  0
   -0.7513    1.7875   -1.0454 H   0  0  0  0  0  0  0  0  0  0  0  0
    1.0089    1.8724   -1.1543 H   0  0  0  0  0  0  0  0  0  0  0  0
    0.0758    1.2342   -2.9490 C   0  0  0  0  0  0  0  0  0  0  0  0
   -0.0252    2.2623   -3.5874 O   0  0  0  0  0  0  0  0  0  0  0  0
    0.0782    0.0838   -3.6888 N   0  0  0  0  0  0  0  0  0  0  0  0
    0.2124    0.2077   -4.6888 H   0  0  0  0  0  0  0  0  0  0  0  0
    0.3662   -0.7820   -3.2441 H   0  0  0  0  0  0  0  0  0  0  0  0
    0.8141    0.0255    0.6623 C   0  0  0  0  0  0  0  0  0  0  0  0
    2.0224   -0.0181    0.8438 O   0  0  0  0  0  0  0  0  0  0  0  0
   -0.0114    0.4421    1.6910 N   0  0  0  0  0  0  0  0  0  0  0  0
   -1.0100    0.4228    1.5147 H   0  0  0  0  0  0  0  0  0  0  0  0
    0.4595    0.6430    3.0558 C   0  0  0  0  0  0  0  0  0  0  0  0
    1.2528    1.3975    3.0809 H   0  0  0  0  0  0  0  0  0  0  0  0
   -0.3613    0.9862    3.6926 H   0  0  0  0  0  0  0  0  0  0  0  0
    0.8506   -0.2937    3.4670 H   0  0  0  0  0  0  0  0  0  0  0  0
  1  2  1  0  0  0  0
  2  3  1  0  0  0  0
  2  4  1  0  0  0  0
  2  5  1  0  0  0  0
  5  6  2  0  0  0  0
  5  7  1  0  0  0  0
  7  8  1  0  0  0  0
  7  9  1  0  0  0  0
  9 10  1  0  0  0  0
  9 11  1  0  0  0  0
  9 19  1  0  0  0  0
 11 12  1  0  0  0  0
 11 13  1  0  0  0  0
 11 14  1  0  0  0  0
 14 15  2  0  0  0  0
 14 16  1  0  0  0  0
 16 17  1  0  0  0  0
 16 18  1  0  0  0  0
 19 20  2  0  0  0  0
 19 21  1  0  0  0  0
 21 22  1  0  0  0  0
 21 23  1  0  0  0  0
 23 24  1  0  0  0  0
 23 25  1  0  0  0  0
 23 26  1  0  0  0  0
M  END
$$$$

  -OEChem-03222214023D

 26 25  0     1  0  0  0  0  0999 V2000
   -2.6570   -3.7072   -0.1345 H   0  0  0  0  0  0  0  0  0  0  0  0
   -2.6704   -2.6731   -0.4910 C   0  0  0  0  0  0  0  0  0  0  0  0
   -3.3502   -2.0939    0.1385 H   0  0  0  0  0  0  0  0  0  0  0  0
   -3.0377   -2.6617   -1.5201 H   0  0  0  0  0  0  0  0  0  0  0  0
   -1.2739   -2.0830   -0.4299 C   0  0  0  0  0  0  0  0  0  0  0  0
   -0.3437   -2.7551   -0.0246 O   0  0  0  0  0  0  0  0  0  0  0  0
   -1.0500   -0.7894   -0.8609 N   0  0  0  0  0  0  0  0  0  0  0  0
   -1.8539   -0.2726   -1.2090 H   0  0  0  0  0  0  0  0  0  0  0  0
    0.2561   -0.1046   -0.7854 C   0  0  1  0  0  0  0  0  0  0  0  0
    1.0043   -0.6914   -1.3320 H   0  0  0  0  0  0  0  0  0  0  0  0
    0.1285    1.2853   -1.4349 C   0  0  0  0  0  0  0  0  0  0  0  0
   -0.7594    1.7987   -1.0576 H   0  0  0  0  0  0  0  0  0  0  0  0
    1.0014    1.8863   -1.1594 H   0  0  0  0  0  0  0  0  0  0  0  0
    0.0733    1.2445   -2.9579 C   0  0  0  0  0  0  0  0  0  0  0  0
    0.2440    2.2521   -3.6136 O   0  0  0  0  0  0  0  0  0  0  0  0
   -0.2070    0.1156   -3.6769 N   0  0  0  0  0  0  0  0  0  0  0  0
   -0.0306    0.1832   -4.6758 H   0  0  0  0  0  0  0  0  0  0  0  0
   -0.1240   -0.7827   -3.2109 H   0  0  0  0  0  0  0  0  0  0  0  0
    0.8080    0.0304    0.6504 C   0  0  0  0  0  0  0  0  0  0  0  0
    2.0152   -0.0176    0.8359 O   0  0  0  0  0  0  0  0  0  0  0  0
   -0.0201    0.4357    1.6818 N   0  0  0  0  0  0  0  0  0  0  0  0
   -1.0181    0.4247    1.5028 H   0  0  0  0  0  0  0  0  0  0  0  0
    0.4480    0.6210    3.0499 C   0  0  0  0  0  0  0  0  0  0  0  0
    1.2398    1.3767    3.0858 H   0  0  0  0  0  0  0  0  0  0  0  0
   -0.3748    0.9543    3.6895 H   0  0  0  0  0  0  0  0  0  0  0  0
    0.8403   -0.3198    3.4502 H   0  0  0  0  0  0  0  0  0  0  0  0
  1  2  1  0  0  0  0
  2  3  1  0  0  0  0
  2  4  1  0  0  0  0
  2  5  1  0  0  0  0
  5  6  2  0  0  0  0
  5  7  1  0  0  0  0
  7  8  1  0  0  0  0
  7  9  1  0  0  0  0
  9 10  1  0  0  0  0
  9 11  1  0  0  0  0
  9 19  1  0  0  0  0
 11 12  1  0  0  0  0
 11 13  1  0  0  0  0
 11 14  1  0  0  0  0
 14 15  2  0  0  0  0
 14 16  1  0  0  0  0
 16 17  1  0  0  0  0
 16 18  1  0  0  0  0
 19 20  2  0  0  0  0
 19 21  1  0  0  0  0
 21 22  1  0  0  0  0
 21 23  1  0  0  0  0
 23 24  1  0  0  0  0
 23 25  1  0  0  0  0
 23 26  1  0  0  0  0
M  END
$$$$

  -OEChem-03222214023D

 26 25  0     1  0  0  0  0  0999 V2000
   -2.6542   -3.7017   -0.1154 H   0  0  0  0  0  0  0  0  0  0  0  0
   -2.6770   -2.6659   -0.4662 C   0  0  0  0  0  0  0  0  0  0  0  0
   -3.3314   -2.0879    0.1907 H   0  0  0  0  0  0  0  0  0  0  0  0
   -3.0814   -2.6486   -1.4811 H   0  0  0  0  0  0  0  0  0  0  0  0
   -1.2770   -2.0812   -0.4531 C   0  0  0  0  0  0  0  0  0  0  0  0
   -0.3346   -2.7624   -0.0952 O   0  0  0  0  0  0  0  0  0  0  0  0
   -1.0656   -0.7813   -0.8727 N   0  0  0  0  0  0  0  0  0  0  0  0
   -1.8872   -0.2444   -1.1396 H   0  0  0  0  0  0  0  0  0  0  0  0
    0.2388   -0.0916   -0.7958 C   0  0  1  0  0  0  0  0  0  0  0  0
    0.9849   -0.6718   -1.3534 H   0  0  0  0  0  0  0  0  0  0  0  0
    0.1095    1.3021   -1.4369 C   0  0  0  0  0  0  0  0  0  0  0  0
   -0.7791    1.8132   -1.0586 H   0  0  0  0  0  0  0  0  0  0  0  0
    0.9813    1.9031   -1.1570 H   0  0  0  0  0  0  0  0  0  0  0  0
    0.0556    1.2629   -2.9600 C   0  0  0  0  0  0  0  0  0  0  0  0
    0.4811    2.1832   -3.6282 O   0  0  0  0  0  0  0  0  0  0  0  0
   -0.4545    0.2107   -3.6673 N   0  0  0  0  0  0  0  0  0  0  0  0
   -0.2382    0.2229   -4.6606 H   0  0  0  0  0  0  0  0  0  0  0  0
   -0.5373   -0.6798   -3.1867 H   0  0  0  0  0  0  0  0  0  0  0  0
    0.7979    0.0307    0.6387 C   0  0  0  0  0  0  0  0  0  0  0  0
    2.0057   -0.0175    0.8191 O   0  0  0  0  0  0  0  0  0  0  0  0
   -0.0252    0.4217    1.6799 N   0  0  0  0  0  0  0  0  0  0  0  0
   -1.0241    0.4191    1.5066 H   0  0  0  0  0  0  0  0  0  0  0  0
    0.4530    0.6051    3.0449 C   0  0  0  0  0  0  0  0  0  0  0  0
    1.2348    1.3713    3.0777 H   0  0  0  0  0  0  0  0  0  0  0  0
   -0.3680    0.9234    3.6943 H   0  0  0  0  0  0  0  0  0  0  0  0
    0.8619   -0.3325    3.4362 H   0  0  0  0  0  0  0  0  0  0  0  0
  1  2  1  0  0  0  0
  2  3  1  0  0  0  0
  2  4  1  0  0  0  0
  2  5  1  0  0  0  0
  5  6  2  0  0  0  0
  5  7  1  0  0  0  0
  7  8  1  0  0  0  0
  7  9  1  0  0  0  0
  9 10  1  0  0  0  0
  9 11  1  0  0  0  0
  9 19  1  0  0  0  0
 11 12  1  0  0  0  0
 11 13  1  0  0  0  0
 11 14  1  0  0  0  0
 14 15  2  0  0  0  0
 14 16  1  0  0  0  0
 16 17  1  0  0  0  0
 16 18  1  0  0  0  0
 19 20  2  0  0  0  0
 19 21  1  0  0  0  0
 21 22  1  0  0  0  0
 21 23  1  0  0  0  0
 23 24  1  0  0  0  0
 23 25  1  0  0  0  0
 23 26  1  0  0  0  0
M  END
$$$$

  -OEChem-03222214023D

 26 25  0     1  0  0  0  0  0999 V2000
   -2.6428   -3.6811   -0.0756 H   0  0  0  0  0  0  0  0  0  0  0  0
   -2.6714   -2.6489   -0.4371 C   0  0  0  0  0  0  0  0  0  0  0  0
   -3.2977   -2.0593    0.2367 H   0  0  0  0  0  0  0  0  0  0  0  0
   -3.1128   -2.6393   -1.4367 H   0  0  0  0  0  0  0  0  0  0  0  0
   -1.2681   -2.0736   -0.4820 C   0  0  0  0  0  0  0  0  0  0  0  0
   -0.3156   -2.7639   -0.1717 O   0  0  0  0  0  0  0  0  0  0  0  0
   -1.0702   -0.7679   -0.8910 N   0  0  0  0  0  0  0  0  0  0  0  0
   -1.9051   -0.2157   -1.0696 H   0  0  0  0  0  0  0  0  0  0  0  0
    0.2315   -0.0724   -0.8087 C   0  0  1  0  0  0  0  0  0  0  0  0
    0.9784   -0.6434   -1.3747 H   0  0  0  0  0  0  0  0  0  0  0  0
    0.0959    1.3253   -1.4387 C   0  0  0  0  0  0  0  0  0  0  0  0
   -0.7957    1.8300   -1.0588 H   0  0  0  0  0  0  0  0  0  0  0  0
    0.9636    1.9296   -1.1529 H   0  0  0  0  0  0  0  0  0  0  0  0
    0.0440    1.2882   -2.9615 C   0  0  0  0  0  0  0  0  0  0  0  0
    0.6908    2.0622   -3.6373 O   0  0  0  0  0  0  0  0  0  0  0  0
   -0.6808    0.3651   -3.6603 N   0  0  0  0  0  0  0  0  0  0  0  0
   -0.4550    0.3218   -4.6507 H   0  0  0  0  0  0  0  0  0  0  0  0
   -0.9231   -0.4915   -3.1731 H   0  0  0  0  0  0  0  0  0  0  0  0
    0.7919    0.0389    0.6262 C   0  0  0  0  0  0  0  0  0  0  0  0
    1.9990   -0.0146    0.8088 O   0  0  0  0  0  0  0  0  0  0  0  0
   -0.0324    0.4162    1.6718 N   0  0  0  0  0  0  0  0  0  0  0  0
   -1.0308    0.4219    1.4973 H   0  0  0  0  0  0  0  0  0  0  0  0
    0.4448    0.5746    3.0402 C   0  0  0  0  0  0  0  0  0  0  0  0
    1.2360    1.3305    3.0861 H   0  0  0  0  0  0  0  0  0  0  0  0
   -0.3737    0.8937    3.6923 H   0  0  0  0  0  0  0  0  0  0  0  0
    0.8414   -0.3735    3.4184 H   0  0  0  0  0  0  0  0  0  0  0  0
  1  2  1  0  0  0  0
  2  3  1  0  0  0  0
  2  4  1  0  0  0  0
  2  5  1  0  0  0  0
  5  6  2  0  0  0  0
  5  7  1  0  0  0  0
  7  8  1  0  0  0  0
  7  9  1  0  0  0  0
  9 10  1  0  0  0  0
  9 11  1  0  0  0  0
  9 19  1  0  0  0  0
 11 12  1  0  0  0  0
 11 13  1  0  0  0  0
 11 14  1  0  0  0  0
 14 15  2  0  0  0  0
 14 16  1  0  0  0  0
 16 17  1  0  0  0  0
 16 18  1  0  0  0  0
 19 20  2  0  0  0  0
 19 21  1  0  0  0  0
 21 22  1  0  0  0  0
 21 23  1  0  0  0  0
 23 24  1  0  0  0  0
 23 25  1  0  0  0  0
 23 26  1  0  0  0  0
M  END
$$$$

  -OEChem-03222214023D

 26 25  0     1  0  0  0  0  0999 V2000
   -2.6302   -3.6715   -0.0857 H   0  0  0  0  0  0  0  0  0  0  0  0
   -2.6672   -2.6363   -0.4375 C   0  0  0  0  0  0  0  0  0  0  0  0
   -3.2788   -2.0530    0.2549 H   0  0  0  0  0  0  0  0  0  0  0  0
   -3.1300   -2.6188   -1.4271 H   0  0  0  0  0  0  0  0  0  0  0  0
   -1.2654   -2.0604   -0.5085 C   0  0  0  0  0  0  0  0  0  0  0  0
   -0.3071   -2.7538   -0.2245 O   0  0  0  0  0  0  0  0  0  0  0  0
   -1.0784   -0.7484   -0.9028 N   0  0  0  0  0  0  0  0  0  0  0  0
   -1.9191   -0.1880   -1.0122 H   0  0  0  0  0  0  0  0  0  0  0  0
    0.2223   -0.0517   -0.8122 C   0  0  1  0  0  0  0  0  0  0  0  0
    0.9684   -0.6189   -1.3838 H   0  0  0  0  0  0  0  0  0  0  0  0
    0.0916    1.3481   -1.4361 C   0  0  0  0  0  0  0  0  0  0  0  0
   -0.8013    1.8539   -1.0610 H   0  0  0  0  0  0  0  0  0  0  0  0
    0.9583    1.9513   -1.1452 H   0  0  0  0  0  0  0  0  0  0  0  0
    0.0492    1.3055   -2.9585 C   0  0  0  0  0  0  0  0  0  0  0  0
    0.8801    1.8749   -3.6362 O   0  0  0  0  0  0  0  0  0  0  0  0
   -0.8694    0.5740   -3.6554 N   0  0  0  0  0  0  0  0  0  0  0  0
   -0.6461    0.4678   -4.6416 H   0  0  0  0  0  0  0  0  0  0  0  0
   -1.3015   -0.2016   -3.1667 H   0  0  0  0  0  0  0  0  0  0  0  0
    0.7860    0.0436    0.6229 C   0  0  0  0  0  0  0  0  0  0  0  0
    1.9934   -0.0062    0.8029 O   0  0  0  0  0  0  0  0  0  0  0  0
   -0.0352    0.4066    1.6763 N   0  0  0  0  0  0  0  0  0  0  0  0
   -1.0343    0.4114    1.5071 H   0  0  0  0  0  0  0  0  0  0  0  0
    0.4488    0.5568    3.0435 C   0  0  0  0  0  0  0  0  0  0  0  0
    1.2275    1.3254    3.0927 H   0  0  0  0  0  0  0  0  0  0  0  0
   -0.3703    0.8540    3.7052 H   0  0  0  0  0  0  0  0  0  0  0  0
    0.8642   -0.3888    3.4078 H   0  0  0  0  0  0  0  0  0  0  0  0
  1  2  1  0  0  0  0
  2  3  1  0  0  0  0
  2  4  1  0  0  0  0
  2  5  1  0  0  0  0
  5  6  2  0  0  0  0
  5  7  1  0  0  0  0
  7  8  1  0  0  0  0
  7  9  1  0  0  0  0
  9 10  1  0  0  0  0
  9 11  1  0  0  0  0
  9 19  1  0  0  0  0
 11 12  1  0  0  0  0
 11 13  1  0  0  0  0
 11 14  1  0  0  0  0
 14 15  2  0  0  0  0
 14 16  1  0  0  0  0
 16 17  1  0  0  0  0
 16 18  1  0  0  0  0
 19 20  2  0  0  0  0
 19 21  1  0  0  0  0
 21 22  1  0  0  0  0
 21 23  1  0  0  0  0
 23 24  1  0  0  0  0
 23 25  1  0  0  0  0
 23 26  1  0  0  0  0
M  END
$$$$

  -OEChem-03222214023D

 26 25  0     1  0  0  0  0  0999 V2000
   -2.6239   -3.6710   -0.0987 H   0  0  0  0  0  0  0  0  0  0  0  0
   -2.6578   -2.6391   -0.4601 C   0  0  0  0  0  0  0  0  0  0  0  0
   -3.2842   -2.0519    0.2155 H   0  0  0  0  0  0  0  0  0  0  0  0
   -3.1011   -2.6322   -1.4588 H   0  0  0  0  0  0  0  0  0  0  0  0
   -1.2566   -2.0589   -0.5101 C   0  0  0  0  0  0  0  0  0  0  0  0
   -0.3018   -2.7493   -0.2068 O   0  0  0  0  0  0  0  0  0  0  0  0
   -1.0698   -0.7456   -0.9007 N   0  0  0  0  0  0  0  0  0  0  0  0
   -1.9102   -0.1872   -1.0101 H   0  0  0  0  0  0  0  0  0  0  0  0
    0.2303   -0.0496   -0.8073 C   0  0  1  0  0  0  0  0  0  0  0  0
    0.9757   -0.6179   -1.3788 H   0  0  0  0  0  0  0  0  0  0  0  0
    0.1064    1.3513   -1.4291 C   0  0  0  0  0  0  0  0  0  0  0  0
   -0.7835    1.8630   -1.0549 H   0  0  0  0  0  0  0  0  0  0  0  0
    0.9756    1.9511   -1.1389 H   0  0  0  0  0  0  0  0  0  0  0  0
    0.0692    1.2997   -2.9507 C   0  0  0  0  0  0  0  0  0  0  0  0
    1.0271    1.6214   -3.6235 O   0  0  0  0  0  0  0  0  0  0  0  0
   -1.0184    0.8640   -3.6532 N   0  0  0  0  0  0  0  0  0  0  0  0
   -0.8412    0.7023   -4.6414 H   0  0  0  0  0  0  0  0  0  0  0  0
   -1.6943    0.2855   -3.1711 H   0  0  0  0  0  0  0  0  0  0  0  0
    0.7929    0.0417    0.6289 C   0  0  0  0  0  0  0  0  0  0  0  0
    2.0007    0.0042    0.8110 O   0  0  0  0  0  0  0  0  0  0  0  0
   -0.0316    0.4019    1.6808 N   0  0  0  0  0  0  0  0  0  0  0  0
   -1.0307    0.3893    1.5127 H   0  0  0  0  0  0  0  0  0  0  0  0
    0.4507    0.5580    3.0481 C   0  0  0  0  0  0  0  0  0  0  0  0
    1.2311    1.3251    3.0945 H   0  0  0  0  0  0  0  0  0  0  0  0
   -0.3686    0.8607    3.7068 H   0  0  0  0  0  0  0  0  0  0  0  0
    0.8631   -0.3866    3.4183 H   0  0  0  0  0  0  0  0  0  0  0  0
  1  2  1  0  0  0  0
  2  3  1  0  0  0  0
  2  4  1  0  0  0  0
  2  5  1  0  0  0  0
  5  6  2  0  0  0  0
  5  7  1  0  0  0  0
  7  8  1  0  0  0  0
  7  9  1  0  0  0  0
  9 10  1  0  0  0  0
  9 11  1  0  0  0  0
  9 19  1  0  0  0  0
 11 12  1  0  0  0  0
 11 13  1  0  0  0  0
 11 14  1  0  0  0  0
 14 15  2  0  0  0  0
 14 16  1  0  0  0  0
 16 17  1  0  0  0  0
 16 18  1  0  0  0  0
 19 20  2  0  0  0  0
 19 21  1  0  0  0  0
 21 22  1  0  0  0  0
 21 23  1  0  0  0  0
 23 24  1  0  0  0  0
 23 25  1  0  0  0  0
 23 26  1  0  0  0  0
M  END
$$$$

  -OEChem-03222214023D

 26 25  0     1  0  0  0  0  0999 V2000
   -2.6563   -3.7439   -0.1956 H   0  0  0  0  0  0  0  0  0  0  0  0
   -2.6349   -2.7467   -0.6449 C   0  0  0  0  0  0  0  0  0  0  0  0
   -3.4756   -2.1679   -0.2552 H   0  0  0  0  0  0  0  0  0  0  0  0
   -2.7397   -2.8485   -1.7278 H   0  0  0  0  0  0  0  0  0  0  0  0
   -1.3267   -2.0532   -0.3133 C   0  0  0  0  0  0  0  0  0  0  0  0
   -0.4983   -2.6234    0.3722 O   0  0  0  0  0  0  0  0  0  0  0  0
   -1.0921   -0.7755   -0.7871 N   0  0  0  0  0  0  0  0  0  0  0  0
   -1.7601   -0.4433   -1.4761 H   0  0  0  0  0  0  0  0  0  0  0  0
    0.2336   -0.1243   -0.7560 C   0  0  1  0  0  0  0  0  0  0  0  0
    0.9510   -0.7329   -1.3213 H   0  0  0  0  0  0  0  0  0  0  0  0
    0.1228    1.2663   -1.4048 C   0  0  0  0  0  0  0  0  0  0  0  0
   -0.7342    1.8131   -1.0039 H   0  0  0  0  0  0  0  0  0  0  0  0
    1.0216    1.8490   -1.1764 H   0  0  0  0  0  0  0  0  0  0  0  0
    0.0192    1.1529   -2.9161 C   0  0  0  0  0  0  0  0  0  0  0  0
    0.9957    1.1500   -3.6363 O   0  0  0  0  0  0  0  0  0  0  0  0
   -1.1899    1.1213   -3.5529 N   0  0  0  0  0  0  0  0  0  0  0  0
   -1.1301    1.2513   -4.5600 H   0  0  0  0  0  0  0  0  0  0  0  0
   -1.9937    1.4906   -3.0577 H   0  0  0  0  0  0  0  0  0  0  0  0
    0.8259    0.0346    0.6629 C   0  0  0  0  0  0  0  0  0  0  0  0
    2.0385    0.0012    0.8177 O   0  0  0  0  0  0  0  0  0  0  0  0
    0.0278    0.4891    1.6976 N   0  0  0  0  0  0  0  0  0  0  0  0
   -0.9721    0.3830    1.5638 H   0  0  0  0  0  0  0  0  0  0  0  0
    0.5320    0.6689    3.0535 C   0  0  0  0  0  0  0  0  0  0  0  0
    1.3471    1.4002    3.0661 H   0  0  0  0  0  0  0  0  0  0  0  0
   -0.2654    1.0317    3.7090 H   0  0  0  0  0  0  0  0  0  0  0  0
    0.9054   -0.2806    3.4516 H   0  0  0  0  0  0  0  0  0  0  0  0
  1  2  1  0  0  0  0
  2  3  1  0  0  0  0
  2  4  1  0  0  0  0
  2  5  1  0  0  0  0
  5  6  2  0  0  0  0
  5  7  1  0  0  0  0
  7  8  1  0  0  0  0
  7  9  1  0  0  0  0
  9 10  1  0  0  0  0
  9 11  1  0  0  0  0
  9 19  1  0  0  0  0
 11 12  1  0  0  0  0
 11 13  1  0  0  0  0
 11 14  1  0  0  0  0
 14 15  2  0  0  0  0
 14 16  1  0  0  0  0
 16 17  1  0  0  0  0
 16 18  1  0  0  0  0
 19 20  2  0  0  0  0
 19 21  1  0  0  0  0
 21 22  1  0  0  0  0
 21 23  1  0  0  0  0
 23 24  1  0  0  0  0
 23 25  1  0  0  0  0
 23 26  1  0  0  0  0
M  END
$$$$

  -OEChem-03222214023D

 26 25  0     1  0  0  0  0  0999 V2000
   -2.6696   -3.7219   -0.2129 H   0  0  0  0  0  0  0  0  0  0  0  0
   -2.6419   -2.7255   -0.6636 C   0  0  0  0  0  0  0  0  0  0  0  0
   -3.4812   -2.1421   -0.2779 H   0  0  0  0  0  0  0  0  0  0  0  0
   -2.7435   -2.8281   -1.7468 H   0  0  0  0  0  0  0  0  0  0  0  0
   -1.3314   -2.0378   -0.3284 C   0  0  0  0  0  0  0  0  0  0  0  0
   -0.5047   -2.6143    0.3541 O   0  0  0  0  0  0  0  0  0  0  0  0
   -1.0949   -0.7565   -0.7914 N   0  0  0  0  0  0  0  0  0  0  0  0
   -1.7656   -0.4137   -1.4730 H   0  0  0  0  0  0  0  0  0  0  0  0
    0.2320   -0.1076   -0.7579 C   0  0  1  0  0  0  0  0  0  0  0  0
    0.9469   -0.7110   -1.3324 H   0  0  0  0  0  0  0  0  0  0  0  0
    0.1150    1.2885   -1.3925 C   0  0  0  0  0  0  0  0  0  0  0  0
   -0.7411    1.8278   -0.9797 H   0  0  0  0  0  0  0  0  0  0  0  0
    1.0135    1.8714   -1.1644 H   0  0  0  0  0  0  0  0  0  0  0  0
    0.0039    1.1900   -2.9042 C   0  0  0  0  0  0  0  0  0  0  0  0
    0.9555    0.9309   -3.6115 O   0  0  0  0  0  0  0  0  0  0  0  0
   -1.1880    1.3708   -3.5474 N   0  0  0  0  0  0  0  0  0  0  0  0
   -1.1106    1.4549   -4.5580 H   0  0  0  0  0  0  0  0  0  0  0  0
   -1.9167    1.8835   -3.0629 H   0  0  0  0  0  0  0  0  0  0  0  0
    0.8288    0.0382    0.6601 C   0  0  0  0  0  0  0  0  0  0  0  0
    2.0421    0.0092    0.8108 O   0  0  0  0  0  0  0  0  0  0  0  0
    0.0333    0.4852    1.7003 N   0  0  0  0  0  0  0  0  0  0  0  0
   -0.9667    0.3755    1.5691 H   0  0  0  0  0  0  0  0  0  0  0  0
    0.5416    0.6539    3.0560 C   0  0  0  0  0  0  0  0  0  0  0  0
    1.3549    1.3870    3.0725 H   0  0  0  0  0  0  0  0  0  0  0  0
   -0.2544    1.0088    3.7174 H   0  0  0  0  0  0  0  0  0  0  0  0
    0.9181   -0.2985    3.4439 H   0  0  0  0  0  0  0  0  0  0  0  0
  1  2  1  0  0  0  0
  2  3  1  0  0  0  0
  2  4  1  0  0  0  0
  2  5  1  0  0  0  0
  5  6  2  0  0  0  0
  5  7  1  0  0  0  0
  7  8  1  0  0  0  0
  7  9  1  0  0  0  0
  9 10  1  0  0  0  0
  9 11  1  0  0  0  0
  9 19  1  0  0  0  0
 11 12  1  0  0  0  0
 11 13  1  0  0  0  0
 11 14  1  0  0  0  0
 14 15  2  0  0  0  0
 14 16  1  0  0  0  0
 16 17  1  0  0  0  0
 16 18  1  0  0  0  0
 19 20  2  0  0  0  0
 19 21  1  0  0  0  0
 21 22  1  0  0  0  0
 21 23  1  0  0  0  0
 23 24  1  0  0  0  0
 23 25  1  0  0  0  0
 23 26  1  0  0  0  0
M  END
$$$$

  -OEChem-03222214023D

 26 25  0     1  0  0  0  0  0999 V2000
   -2.6799   -3.7137   -0.2287 H   0  0  0  0  0  0  0  0  0  0  0  0
   -2.6473   -2.7161   -0.6760 C   0  0  0  0  0  0  0  0  0  0  0  0
   -3.4854   -2.1307   -0.2903 H   0  0  0  0  0  0  0  0  0  0  0  0
   -2.7470   -2.8147   -1.7597 H   0  0  0  0  0  0  0  0  0  0  0  0
   -1.3353   -2.0340   -0.3354 C   0  0  0  0  0  0  0  0  0  0  0  0
   -0.5137   -2.6132    0.3513 O   0  0  0  0  0  0  0  0  0  0  0  0
   -1.0954   -0.7516   -0.7926 N   0  0  0  0  0  0  0  0  0  0  0  0
   -1.7646   -0.4050   -1.4739 H   0  0  0  0  0  0  0  0  0  0  0  0
    0.2323   -0.1050   -0.7568 C   0  0  1  0  0  0  0  0  0  0  0  0
    0.9459   -0.7081   -1.3330 H   0  0  0  0  0  0  0  0  0  0  0  0
    0.1124    1.2943   -1.3858 C   0  0  0  0  0  0  0  0  0  0  0  0
   -0.7444    1.8273   -0.9660 H   0  0  0  0  0  0  0  0  0  0  0  0
    1.0098    1.8774   -1.1553 H   0  0  0  0  0  0  0  0  0  0  0  0
   -0.0018    1.2138   -2.8994 C   0  0  0  0  0  0  0  0  0  0  0  0
    0.8587    0.7129   -3.5940 O   0  0  0  0  0  0  0  0  0  0  0  0
   -1.1163    1.6513   -3.5572 N   0  0  0  0  0  0  0  0  0  0  0  0
   -1.0195    1.7011   -4.5683 H   0  0  0  0  0  0  0  0  0  0  0  0
   -1.7246    2.3099   -3.0829 H   0  0  0  0  0  0  0  0  0  0  0  0
    0.8312    0.0349    0.6609 C   0  0  0  0  0  0  0  0  0  0  0  0
    2.0454    0.0174    0.8078 O   0  0  0  0  0  0  0  0  0  0  0  0
    0.0363    0.4792    1.7027 N   0  0  0  0  0  0  0  0  0  0  0  0
   -0.9629    0.3568    1.5756 H   0  0  0  0  0  0  0  0  0  0  0  0
    0.5474    0.6534    3.0568 C   0  0  0  0  0  0  0  0  0  0  0  0
    1.3596    1.3879    3.0691 H   0  0  0  0  0  0  0  0  0  0  0  0
   -0.2478    1.0093    3.7187 H   0  0  0  0  0  0  0  0  0  0  0  0
    0.9264   -0.2970    3.4476 H   0  0  0  0  0  0  0  0  0  0  0  0
  1  2  1  0  0  0  0
  2  3  1  0  0  0  0
  2  4  1  0  0  0  0
  2  5  1  0  0  0  0
  5  6  2  0  0  0  0
  5  7  1  0  0  0  0
  7  8  1  0  0  0  0
  7  9  1  0  0  0  0
  9 10  1  0  0  0  0
  9 11  1  0  0  0  0
  9 19  1  0  0  0  0
 11 12  1  0  0  0  0
 11 13  1  0  0  0  0
 11 14  1  0  0  0  0
 14 15  2  0  0  0  0
 14 16  1  0  0  0  0
 16 17  1  0  0  0  0
 16 18  1  0  0  0  0
 19 20  2  0  0  0  0
 19 21  1  0  0  0  0
 21 22  1  0  0  0  0
 21 23  1  0  0  0  0
 23 24  1  0  0  0  0
 23 25  1  0  0  0  0
 23 26  1  0  0  0  0
M  END
$$$$

  -OEChem-03222214023D

 26 25  0     1  0  0  0  0  0999 V2000
   -2.6605   -3.7448   -0.2701 H   0  0  0  0  0  0  0  0  0  0  0  0
   -2.6492   -2.7302   -0.6786 C   0  0  0  0  0  0  0  0  0  0  0  0
   -3.4928   -2.1738   -0.2630 H   0  0  0  0  0  0  0  0  0  0  0  0
   -2.7584   -2.7896   -1.7643 H   0  0  0  0  0  0  0  0  0  0  0  0
   -1.3455   -2.0394   -0.3247 C   0  0  0  0  0  0  0  0  0  0  0  0
   -0.5316   -2.6099    0.3782 O   0  0  0  0  0  0  0  0  0  0  0  0
   -1.1046   -0.7595   -0.7881 N   0  0  0  0  0  0  0  0  0  0  0  0
   -1.7658   -0.4242   -1.4829 H   0  0  0  0  0  0  0  0  0  0  0  0
    0.2252   -0.1169   -0.7568 C   0  0  1  0  0  0  0  0  0  0  0  0
    0.9356   -0.7258   -1.3306 H   0  0  0  0  0  0  0  0  0  0  0  0
    0.1092    1.2838   -1.3867 C   0  0  0  0  0  0  0  0  0  0  0  0
   -0.7457    1.8154   -0.9611 H   0  0  0  0  0  0  0  0  0  0  0  0
    1.0084    1.8630   -1.1542 H   0  0  0  0  0  0  0  0  0  0  0  0
   -0.0109    1.2253   -2.9023 C   0  0  0  0  0  0  0  0  0  0  0  0
    0.6893    0.5130   -3.5934 O   0  0  0  0  0  0  0  0  0  0  0  0
   -0.9552    1.9517   -3.5701 N   0  0  0  0  0  0  0  0  0  0  0  0
   -0.8383    1.9813   -4.5799 H   0  0  0  0  0  0  0  0  0  0  0  0
   -1.3829    2.7386   -3.0934 H   0  0  0  0  0  0  0  0  0  0  0  0
    0.8275    0.0276    0.6591 C   0  0  0  0  0  0  0  0  0  0  0  0
    2.0426    0.0206    0.8008 O   0  0  0  0  0  0  0  0  0  0  0  0
    0.0353    0.4792    1.6999 N   0  0  0  0  0  0  0  0  0  0  0  0
   -0.9636    0.3495    1.5780 H   0  0  0  0  0  0  0  0  0  0  0  0
    0.5501    0.6695    3.0505 C   0  0  0  0  0  0  0  0  0  0  0  0
    1.3621    1.4043    3.0518 H   0  0  0  0  0  0  0  0  0  0  0  0
   -0.2434    1.0333    3.7100 H   0  0  0  0  0  0  0  0  0  0  0  0
    0.9303   -0.2760    3.4518 H   0  0  0  0  0  0  0  0  0  0  0  0
  1  2  1  0  0  0  0
  2  3  1  0  0  0  0
  2  4  1  0  0  0  0
  2  5  1  0  0  0  0
  5  6  2  0  0  0  0
  5  7  1  0  0  0  0
  7  8  1  0  0  0  0
  7  9  1  0  0  0  0
  9 10  1  0  0  0  0
  9 11  1  0  0  0  0
  9 19  1  0  0  0  0
 11 12  1  0  0  0  0
 11 13  1  0  0  0  0
 11 14  1  0  0  0  0
 14 15  2  0  0  0  0
 14 16  1  0  0  0  0
 16 17  1  0  0  0  0
 16 18  1  0  0  0  0
 19 20  2  0  0  0  0
 19 21  1  0  0  0  0
 21 22  1  0  0  0  0
 21 23  1  0  0  0  0
 23 24  1  0  0  0  0
 23 25  1  0  0  0  0
 23 26  1  0  0  0  0
M  END
$$$$

  -OEChem-03222214023D

 26 25  0     1  0  0  0  0  0999 V2000
   -2.6543   -3.7585   -0.2688 H   0  0  0  0  0  0  0  0  0  0  0  0
   -2.6474   -2.7443   -0.6784 C   0  0  0  0  0  0  0  0  0  0  0  0
   -3.5011   -2.1952   -0.2742 H   0  0  0  0  0  0  0  0  0  0  0  0
   -2.7425   -2.8052   -1.7653 H   0  0  0  0  0  0  0  0  0  0  0  0
   -1.3544   -2.0411   -0.3095 C   0  0  0  0  0  0  0  0  0  0  0  0
   -0.5491   -2.5989    0.4140 O   0  0  0  0  0  0  0  0  0  0  0  0
   -1.1163   -0.7634   -0.7807 N   0  0  0  0  0  0  0  0  0  0  0  0
   -1.7642   -0.4488   -1.4975 H   0  0  0  0  0  0  0  0  0  0  0  0
    0.2144   -0.1230   -0.7578 C   0  0  1  0  0  0  0  0  0  0  0  0
    0.9214   -0.7354   -1.3313 H   0  0  0  0  0  0  0  0  0  0  0  0
    0.0990    1.2783   -1.3901 C   0  0  0  0  0  0  0  0  0  0  0  0
   -0.7548    1.8086   -0.9604 H   0  0  0  0  0  0  0  0  0  0  0  0
    0.9993    1.8554   -1.1575 H   0  0  0  0  0  0  0  0  0  0  0  0
   -0.0300    1.2379   -2.9068 C   0  0  0  0  0  0  0  0  0  0  0  0
    0.4574    0.3633   -3.5954 O   0  0  0  0  0  0  0  0  0  0  0  0
   -0.7223    2.2009   -3.5831 N   0  0  0  0  0  0  0  0  0  0  0  0
   -0.5903    2.2004   -4.5911 H   0  0  0  0  0  0  0  0  0  0  0  0
   -0.9304    3.0712   -3.1050 H   0  0  0  0  0  0  0  0  0  0  0  0
    0.8227    0.0269    0.6548 C   0  0  0  0  0  0  0  0  0  0  0  0
    2.0389    0.0245    0.7892 O   0  0  0  0  0  0  0  0  0  0  0  0
    0.0347    0.4843    1.6960 N   0  0  0  0  0  0  0  0  0  0  0  0
   -0.9641    0.3469    1.5793 H   0  0  0  0  0  0  0  0  0  0  0  0
    0.5547    0.6779    3.0440 C   0  0  0  0  0  0  0  0  0  0  0  0
    1.3665    1.4129    3.0411 H   0  0  0  0  0  0  0  0  0  0  0  0
   -0.2365    1.0433    3.7054 H   0  0  0  0  0  0  0  0  0  0  0  0
    0.9366   -0.2666    3.4460 H   0  0  0  0  0  0  0  0  0  0  0  0
  1  2  1  0  0  0  0
  2  3  1  0  0  0  0
  2  4  1  0  0  0  0
  2  5  1  0  0  0  0
  5  6  2  0  0  0  0
  5  7  1  0  0  0  0
  7  8  1  0  0  0  0
  7  9  1  0  0  0  0
  9 10  1  0  0  0  0
  9 11  1  0  0  0  0
  9 19  1  0  0  0  0
 11 12  1  0  0  0  0
 11 13  1  0  0  0  0
 11 14  1  0  0  0  0
 14 15  2  0  0  0  0
 14 16  1  0  0  0  0
 16 17  1  0  0  0  0
 16 18  1  0  0  0  0
 19 20  2  0  0  0  0
 19 21  1  0  0  0  0
 21 22  1  0  0  0  0
 21 23  1  0  0  0  0
 23 24  1  0  0  0  0
 23 25  1  0  0  0  0
 23 26  1  0  0  0  0
M  END
$$$$

  -OEChem-03222214023D

 26 25  0     1  0  0  0  0  0999 V2000
   -2.6704   -3.7468   -0.2399 H   0  0  0  0  0  0  0  0  0  0  0  0
   -2.6440   -2.7502   -0.6896 C   0  0  0  0  0  0  0  0  0  0  0  0
   -3.5107   -2.1836   -0.3411 H   0  0  0  0  0  0  0  0  0  0  0  0
   -2.6969   -2.8541   -1.7763 H   0  0  0  0  0  0  0  0  0  0  0  0
   -1.3640   -2.0348   -0.3001 C   0  0  0  0  0  0  0  0  0  0  0  0
   -0.5687   -2.5814    0.4430 O   0  0  0  0  0  0  0  0  0  0  0  0
   -1.1271   -0.7586   -0.7748 N   0  0  0  0  0  0  0  0  0  0  0  0
   -1.7574   -0.4651   -1.5165 H   0  0  0  0  0  0  0  0  0  0  0  0
    0.2052   -0.1225   -0.7573 C   0  0  1  0  0  0  0  0  0  0  0  0
    0.9078   -0.7368   -1.3345 H   0  0  0  0  0  0  0  0  0  0  0  0
    0.0913    1.2809   -1.3869 C   0  0  0  0  0  0  0  0  0  0  0  0
   -0.7588    1.8131   -0.9521 H   0  0  0  0  0  0  0  0  0  0  0  0
    0.9952    1.8522   -1.1540 H   0  0  0  0  0  0  0  0  0  0  0  0
   -0.0459    1.2560   -2.9038 C   0  0  0  0  0  0  0  0  0  0  0  0
    0.1941    0.2754   -3.5814 O   0  0  0  0  0  0  0  0  0  0  0  0
   -0.4506    2.3624   -3.5938 N   0  0  0  0  0  0  0  0  0  0  0  0
   -0.3268    2.3174   -4.6018 H   0  0  0  0  0  0  0  0  0  0  0  0
   -0.4304    3.2615   -3.1239 H   0  0  0  0  0  0  0  0  0  0  0  0
    0.8200    0.0282    0.6522 C   0  0  0  0  0  0  0  0  0  0  0  0
    2.0373    0.0278    0.7789 O   0  0  0  0  0  0  0  0  0  0  0  0
    0.0380    0.4899    1.6958 N   0  0  0  0  0  0  0  0  0  0  0  0
   -0.9615    0.3534    1.5838 H   0  0  0  0  0  0  0  0  0  0  0  0
    0.5641    0.6801    3.0416 C   0  0  0  0  0  0  0  0  0  0  0  0
    1.3748    1.4162    3.0361 H   0  0  0  0  0  0  0  0  0  0  0  0
   -0.2242    1.0421    3.7083 H   0  0  0  0  0  0  0  0  0  0  0  0
    0.9492   -0.2653    3.4384 H   0  0  0  0  0  0  0  0  0  0  0  0
  1  2  1  0  0  0  0
  2  3  1  0  0  0  0
  2  4  1  0  0  0  0
  2  5  1  0  0  0  0
  5  6  2  0  0  0  0
  5  7  1  0  0  0  0
  7  8  1  0  0  0  0
  7  9  1  0  0  0  0
  9 10  1  0  0  0  0
  9 11  1  0  0  0  0
  9 19  1  0  0  0  0
 11 12  1  0  0  0  0
 11 13  1  0  0  0  0
 11 14  1  0  0  0  0
 14 15  2  0  0  0  0
 14 16  1  0  0  0  0
 16 17  1  0  0  0  0
 16 18  1  0  0  0  0
 19 20  2  0  0  0  0
 19 21  1  0  0  0  0
 21 22  1  0  0  0  0
 21 23  1  0  0  0  0
 23 24  1  0  0  0  0
 23 25  1  0  0  0  0
 23 26  1  0  0  0  0
M  END
$$$$

  -OEChem-03222214023D

 26 25  0     1  0  0  0  0  0999 V2000
   -2.6691   -3.7447   -0.2597 H   0  0  0  0  0  0  0  0  0  0  0  0
   -2.6418   -2.7480   -0.7094 C   0  0  0  0  0  0  0  0  0  0  0  0
   -3.5183   -2.1872   -0.3765 H   0  0  0  0  0  0  0  0  0  0  0  0
   -2.6755   -2.8535   -1.7966 H   0  0  0  0  0  0  0  0  0  0  0  0
   -1.3734   -2.0236   -0.2986 C   0  0  0  0  0  0  0  0  0  0  0  0
   -0.5847   -2.5671    0.4541 O   0  0  0  0  0  0  0  0  0  0  0  0
   -1.1363   -0.7463   -0.7703 N   0  0  0  0  0  0  0  0  0  0  0  0
   -1.7503   -0.4654   -1.5310 H   0  0  0  0  0  0  0  0  0  0  0  0
    0.1977   -0.1145   -0.7521 C   0  0  1  0  0  0  0  0  0  0  0  0
    0.8958   -0.7290   -1.3342 H   0  0  0  0  0  0  0  0  0  0  0  0
    0.0881    1.2900   -1.3801 C   0  0  0  0  0  0  0  0  0  0  0  0
   -0.7603    1.8263   -0.9466 H   0  0  0  0  0  0  0  0  0  0  0  0
    0.9947    1.8560   -1.1447 H   0  0  0  0  0  0  0  0  0  0  0  0
   -0.0494    1.2687   -2.8971 C   0  0  0  0  0  0  0  0  0  0  0  0
   -0.0726    0.2429   -3.5511 O   0  0  0  0  0  0  0  0  0  0  0  0
   -0.1587    2.4268   -3.6112 N   0  0  0  0  0  0  0  0  0  0  0  0
   -0.0530    2.3325   -4.6178 H   0  0  0  0  0  0  0  0  0  0  0  0
    0.0843    3.3018   -3.1580 H   0  0  0  0  0  0  0  0  0  0  0  0
    0.8181    0.0318    0.6549 C   0  0  0  0  0  0  0  0  0  0  0  0
    2.0362    0.0286    0.7742 O   0  0  0  0  0  0  0  0  0  0  0  0
    0.0421    0.4936    1.7026 N   0  0  0  0  0  0  0  0  0  0  0  0
   -0.9584    0.3593    1.5948 H   0  0  0  0  0  0  0  0  0  0  0  0
    0.5755    0.6811    3.0459 C   0  0  0  0  0  0  0  0  0  0  0  0
    1.3891    1.4139    3.0367 H   0  0  0  0  0  0  0  0  0  0  0  0
   -0.2081    1.0459    3.7166 H   0  0  0  0  0  0  0  0  0  0  0  0
    0.9585   -0.2661    3.4403 H   0  0  0  0  0  0  0  0  0  0  0  0
  1  2  1  0  0  0  0
  2  3  1  0  0  0  0
  2  4  1  0  0  0  0
  2  5  1  0  0  0  0
  5  6  2  0  0  0  0
  5  7  1  0  0  0  0
  7  8  1  0  0  0  0
  7  9  1  0  0  0  0
  9 10  1  0  0  0  0
  9 11  1  0  0  0  0
  9 19  1  0  0  0  0
 11 12  1  0  0  0  0
 11 13  1  0  0  0  0
 11 14  1  0  0  0  0
 14 15  2  0  0  0  0
 14 16  1  0  0  0  0
 16 17  1  0  0  0  0
 16 18  1  0  0  0  0
 19 20  2  0  0  0  0
 19 21  1  0  0  0  0
 21 22  1  0  0  0  0
 21 23  1  0  0  0  0
 23 24  1  0  0  0  0
 23 25  1  0  0  0  0
 23 26  1  0  0  0  0
M  END
$$$$

  -OEChem-03222214023D

 26 25  0     1  0  0  0  0  0999 V2000
   -2.6351   -3.7608   -0.3450 H   0  0  0  0  0  0  0  0  0  0  0  0
   -2.6401   -2.7369   -0.7291 C   0  0  0  0  0  0  0  0  0  0  0  0
   -3.5197   -2.2183   -0.3406 H   0  0  0  0  0  0  0  0  0  0  0  0
   -2.6978   -2.7722   -1.8199 H   0  0  0  0  0  0  0  0  0  0  0  0
   -1.3780   -2.0120   -0.3006 C   0  0  0  0  0  0  0  0  0  0  0  0
   -0.5970   -2.5560    0.4604 O   0  0  0  0  0  0  0  0  0  0  0  0
   -1.1368   -0.7341   -0.7675 N   0  0  0  0  0  0  0  0  0  0  0  0
   -1.7370   -0.4593   -1.5429 H   0  0  0  0  0  0  0  0  0  0  0  0
    0.1980   -0.1057   -0.7450 C   0  0  1  0  0  0  0  0  0  0  0  0
    0.8934   -0.7205   -1.3298 H   0  0  0  0  0  0  0  0  0  0  0  0
    0.0921    1.2988   -1.3732 C   0  0  0  0  0  0  0  0  0  0  0  0
   -0.7566    1.8387   -0.9453 H   0  0  0  0  0  0  0  0  0  0  0  0
    0.9992    1.8621   -1.1333 H   0  0  0  0  0  0  0  0  0  0  0  0
   -0.0408    1.2726   -2.8905 C   0  0  0  0  0  0  0  0  0  0  0  0
   -0.3266    0.2649   -3.5111 O   0  0  0  0  0  0  0  0  0  0  0  0
    0.1384    2.4007   -3.6383 N   0  0  0  0  0  0  0  0  0  0  0  0
    0.2045    2.2599   -4.6427 H   0  0  0  0  0  0  0  0  0  0  0  0
    0.5845    3.2050   -3.2092 H   0  0  0  0  0  0  0  0  0  0  0  0
    0.8194    0.0364    0.6616 C   0  0  0  0  0  0  0  0  0  0  0  0
    2.0380    0.0334    0.7771 O   0  0  0  0  0  0  0  0  0  0  0  0
    0.0457    0.4974    1.7112 N   0  0  0  0  0  0  0  0  0  0  0  0
   -0.9554    0.3676    1.6031 H   0  0  0  0  0  0  0  0  0  0  0  0
    0.5796    0.6799    3.0549 C   0  0  0  0  0  0  0  0  0  0  0  0
    1.3989    1.4064    3.0476 H   0  0  0  0  0  0  0  0  0  0  0  0
   -0.2016    1.0504    3.7254 H   0  0  0  0  0  0  0  0  0  0  0  0
    0.9548   -0.2708    3.4483 H   0  0  0  0  0  0  0  0  0  0  0  0
  1  2  1  0  0  0  0
  2  3  1  0  0  0  0
  2  4  1  0  0  0  0
  2  5  1  0  0  0  0
  5  6  2  0  0  0  0
  5  7  1  0  0  0  0
  7  8  1  0  0  0  0
  7  9  1  0  0  0  0
  9 10  1  0  0  0  0
  9 11  1  0  0  0  0
  9 19  1  0  0  0  0
 11 12  1  0  0  0  0
 11 13  1  0  0  0  0
 11 14  1  0  0  0  0
 14 15  2  0  0  0  0
 14 16  1  0  0  0  0
 16 17  1  0  0  0  0
 16 18  1  0  0  0  0
 19 20  2  0  0  0  0
 19 21  1  0  0  0  0
 21 22  1  0  0  0  0
 21 23  1  0  0  0  0
 23 24  1  0  0  0  0
 23 25  1  0  0  0  0
 23 26  1  0  0  0  0
M  END
$$$$

  -OEChem-03222214023D

 26 25  0     1  0  0  0  0  0999 V2000
   -2.6574   -3.7375   -0.3266 H   0  0  0  0  0  0  0  0  0  0  0  0
   -2.6373   -2.7285   -0.7479 C   0  0  0  0  0  0  0  0  0  0  0  0
   -3.5179   -2.1832   -0.4003 H   0  0  0  0  0  0  0  0  0  0  0  0
   -2.6694   -2.8032   -1.8378 H   0  0  0  0  0  0  0  0  0  0  0  0
   -1.3751   -2.0063   -0.3152 C   0  0  0  0  0  0  0  0  0  0  0  0
   -0.5896   -2.5578    0.4357 O   0  0  0  0  0  0  0  0  0  0  0  0
   -1.1352   -0.7243   -0.7704 N   0  0  0  0  0  0  0  0  0  0  0  0
   -1.7328   -0.4429   -1.5470 H   0  0  0  0  0  0  0  0  0  0  0  0
    0.1976   -0.0934   -0.7415 C   0  0  1  0  0  0  0  0  0  0  0  0
    0.8933   -0.7019   -1.3321 H   0  0  0  0  0  0  0  0  0  0  0  0
    0.0866    1.3140   -1.3607 C   0  0  0  0  0  0  0  0  0  0  0  0
   -0.7650    1.8501   -0.9337 H   0  0  0  0  0  0  0  0  0  0  0  0
    0.9904    1.8804   -1.1157 H   0  0  0  0  0  0  0  0  0  0  0  0
   -0.0441    1.2839   -2.8778 C   0  0  0  0  0  0  0  0  0  0  0  0
   -0.5759    0.3600   -3.4672 O   0  0  0  0  0  0  0  0  0  0  0  0
    0.4301    2.2988   -3.6583 N   0  0  0  0  0  0  0  0  0  0  0  0
    0.4646    2.1125   -4.6568 H   0  0  0  0  0  0  0  0  0  0  0  0
    1.0612    2.9791   -3.2469 H   0  0  0  0  0  0  0  0  0  0  0  0
    0.8207    0.0396    0.6648 C   0  0  0  0  0  0  0  0  0  0  0  0
    2.0397    0.0375    0.7766 O   0  0  0  0  0  0  0  0  0  0  0  0
    0.0487    0.4908    1.7197 N   0  0  0  0  0  0  0  0  0  0  0  0
   -0.9529    0.3629    1.6130 H   0  0  0  0  0  0  0  0  0  0  0  0
    0.5865    0.6755    3.0616 C   0  0  0  0  0  0  0  0  0  0  0  0
    1.3981    1.4107    3.0520 H   0  0  0  0  0  0  0  0  0  0  0  0
   -0.1954    1.0361    3.7366 H   0  0  0  0  0  0  0  0  0  0  0  0
    0.9733   -0.2718    3.4517 H   0  0  0  0  0  0  0  0  0  0  0  0
  1  2  1  0  0  0  0
  2  3  1  0  0  0  0
  2  4  1  0  0  0  0
  2  5  1  0  0  0  0
  5  6  2  0  0  0  0
  5  7  1  0  0  0  0
  7  8  1  0  0  0  0
  7  9  1  0  0  0  0
  9 10  1  0  0  0  0
  9 11  1  0  0  0  0
  9 19  1  0  0  0  0
 11 12  1  0  0  0  0
 11 13  1  0  0  0  0
 11 14  1  0  0  0  0
 14 15  2  0  0  0  0
 14 16  1  0  0  0  0
 16 17  1  0  0  0  0
 16 18  1  0  0  0  0
 19 20  2  0  0  0  0
 19 21  1  0  0  0  0
 21 22  1  0  0  0  0
 21 23  1  0  0  0  0
 23 24  1  0  0  0  0
 23 25  1  0  0  0  0
 23 26  1  0  0  0  0
M  END
$$$$

  -OEChem-03222214023D

 26 25  0     1  0  0  0  0  0999 V2000
   -2.6408   -3.7334   -0.3651 H   0  0  0  0  0  0  0  0  0  0  0  0
   -2.6311   -2.7137   -0.7602 C   0  0  0  0  0  0  0  0  0  0  0  0
   -3.5049   -2.1797   -0.3793 H   0  0  0  0  0  0  0  0  0  0  0  0
   -2.6874   -2.7594   -1.8507 H   0  0  0  0  0  0  0  0  0  0  0  0
   -1.3609   -1.9999   -0.3366 C   0  0  0  0  0  0  0  0  0  0  0  0
   -0.5618   -2.5634    0.3907 O   0  0  0  0  0  0  0  0  0  0  0  0
   -1.1251   -0.7123   -0.7767 N   0  0  0  0  0  0  0  0  0  0  0  0
   -1.7336   -0.4128   -1.5391 H   0  0  0  0  0  0  0  0  0  0  0  0
    0.2019   -0.0707   -0.7395 C   0  0  1  0  0  0  0  0  0  0  0  0
    0.9031   -0.6691   -1.3336 H   0  0  0  0  0  0  0  0  0  0  0  0
    0.0781    1.3376   -1.3517 C   0  0  0  0  0  0  0  0  0  0  0  0
   -0.7834    1.8632   -0.9313 H   0  0  0  0  0  0  0  0  0  0  0  0
    0.9717    1.9171   -1.1005 H   0  0  0  0  0  0  0  0  0  0  0  0
   -0.0463    1.2942   -2.8679 C   0  0  0  0  0  0  0  0  0  0  0  0
   -0.7903    0.5066   -3.4255 O   0  0  0  0  0  0  0  0  0  0  0  0
    0.6985    2.1015   -3.6791 N   0  0  0  0  0  0  0  0  0  0  0  0
    0.6946    1.8653   -4.6675 H   0  0  0  0  0  0  0  0  0  0  0  0
    1.4842    2.6060   -3.2807 H   0  0  0  0  0  0  0  0  0  0  0  0
    0.8228    0.0539    0.6679 C   0  0  0  0  0  0  0  0  0  0  0  0
    2.0420    0.0592    0.7788 O   0  0  0  0  0  0  0  0  0  0  0  0
    0.0474    0.4881    1.7271 N   0  0  0  0  0  0  0  0  0  0  0  0
   -0.9541    0.3609    1.6171 H   0  0  0  0  0  0  0  0  0  0  0  0
    0.5828    0.6628    3.0713 C   0  0  0  0  0  0  0  0  0  0  0  0
    1.3906    1.4021    3.0696 H   0  0  0  0  0  0  0  0  0  0  0  0
   -0.2019    1.0133    3.7483 H   0  0  0  0  0  0  0  0  0  0  0  0
    0.9739   -0.2862    3.4530 H   0  0  0  0  0  0  0  0  0  0  0  0
  1  2  1  0  0  0  0
  2  3  1  0  0  0  0
  2  4  1  0  0  0  0
  2  5  1  0  0  0  0
  5  6  2  0  0  0  0
  5  7  1  0  0  0  0
  7  8  1  0  0  0  0
  7  9  1  0  0  0  0
  9 10  1  0  0  0  0
  9 11  1  0  0  0  0
  9 19  1  0  0  0  0
 11 12  1  0  0  0  0
 11 13  1  0  0  0  0
 11 14  1  0  0  0  0
 14 15  2  0  0  0  0
 14 16  1  0  0  0  0
 16 17  1  0  0  0  0
 16 18  1  0  0  0  0
 19 20  2  0  0  0  0
 19 21  1  0  0  0  0
 21 22  1  0  0  0  0
 21 23  1  0  0  0  0
 23 24  1  0  0  0  0
 23 25  1  0  0  0  0
 23 26  1  0  0  0  0
M  END
$$$$

  -OEChem-03222214023D

 26 25  0     1  0  0  0  0  0999 V2000
   -2.6220   -3.7273   -0.4024 H   0  0  0  0  0  0  0  0  0  0  0  0
   -2.6239   -2.6969   -0.7691 C   0  0  0  0  0  0  0  0  0  0  0  0
   -3.4839   -2.1732   -0.3450 H   0  0  0  0  0  0  0  0  0  0  0  0
   -2.7156   -2.7118   -1.8580 H   0  0  0  0  0  0  0  0  0  0  0  0
   -1.3400   -1.9958   -0.3668 C   0  0  0  0  0  0  0  0  0  0  0  0
   -0.5247   -2.5741    0.3302 O   0  0  0  0  0  0  0  0  0  0  0  0
   -1.1072   -0.7029   -0.7925 N   0  0  0  0  0  0  0  0  0  0  0  0
   -1.7342   -0.3763   -1.5291 H   0  0  0  0  0  0  0  0  0  0  0  0
    0.2140   -0.0518   -0.7413 C   0  0  1  0  0  0  0  0  0  0  0  0
    0.9230   -0.6397   -1.3365 H   0  0  0  0  0  0  0  0  0  0  0  0
    0.0763    1.3571   -1.3439 C   0  0  0  0  0  0  0  0  0  0  0  0
   -0.7966    1.8690   -0.9296 H   0  0  0  0  0  0  0  0  0  0  0  0
    0.9581    1.9520   -1.0873 H   0  0  0  0  0  0  0  0  0  0  0  0
   -0.0384    1.2991   -2.8584 C   0  0  0  0  0  0  0  0  0  0  0  0
   -0.9515    0.6970   -3.3952 O   0  0  0  0  0  0  0  0  0  0  0  0
    0.9110    1.8333   -3.6816 N   0  0  0  0  0  0  0  0  0  0  0  0
    0.8570    1.5674   -4.6609 H   0  0  0  0  0  0  0  0  0  0  0  0
    1.7958    2.1319   -3.2827 H   0  0  0  0  0  0  0  0  0  0  0  0
    0.8272    0.0659    0.6697 C   0  0  0  0  0  0  0  0  0  0  0  0
    2.0459    0.0751    0.7850 O   0  0  0  0  0  0  0  0  0  0  0  0
    0.0448    0.4850    1.7300 N   0  0  0  0  0  0  0  0  0  0  0  0
   -0.9566    0.3640    1.6125 H   0  0  0  0  0  0  0  0  0  0  0  0
    0.5725    0.6558    3.0777 C   0  0  0  0  0  0  0  0  0  0  0  0
    1.3774    1.3983    3.0840 H   0  0  0  0  0  0  0  0  0  0  0  0
   -0.2173    0.9999    3.7522 H   0  0  0  0  0  0  0  0  0  0  0  0
    0.9657   -0.2934    3.4569 H   0  0  0  0  0  0  0  0  0  0  0  0
  1  2  1  0  0  0  0
  2  3  1  0  0  0  0
  2  4  1  0  0  0  0
  2  5  1  0  0  0  0
  5  6  2  0  0  0  0
  5  7  1  0  0  0  0
  7  8  1  0  0  0  0
  7  9  1  0  0  0  0
  9 10  1  0  0  0  0
  9 11  1  0  0  0  0
  9 19  1  0  0  0  0
 11 12  1  0  0  0  0
 11 13  1  0  0  0  0
 11 14  1  0  0  0  0
 14 15  2  0  0  0  0
 14 16  1  0  0  0  0
 16 17  1  0  0  0  0
 16 18  1  0  0  0  0
 19 20  2  0  0  0  0
 19 21  1  0  0  0  0
 21 22  1  0  0  0  0
 21 23  1  0  0  0  0
 23 24  1  0  0  0  0
 23 25  1  0  0  0  0
 23 26  1  0  0  0  0
M  END
$$$$

  -OEChem-03222214023D

 26 25  0     1  0  0  0  0  0999 V2000
   -2.6024   -3.7207   -0.4329 H   0  0  0  0  0  0  0  0  0  0  0  0
   -2.6174   -2.6790   -0.7661 C   0  0  0  0  0  0  0  0  0  0  0  0
   -3.4579   -2.1681   -0.2903 H   0  0  0  0  0  0  0  0  0  0  0  0
   -2.7546   -2.6596   -1.8501 H   0  0  0  0  0  0  0  0  0  0  0  0
   -1.3158   -1.9931   -0.3954 C   0  0  0  0  0  0  0  0  0  0  0  0
   -0.4811   -2.5882    0.2631 O   0  0  0  0  0  0  0  0  0  0  0  0
   -1.0837   -0.6966   -0.8100 N   0  0  0  0  0  0  0  0  0  0  0  0
   -1.7348   -0.3395   -1.5106 H   0  0  0  0  0  0  0  0  0  0  0  0
    0.2324   -0.0370   -0.7437 C   0  0  1  0  0  0  0  0  0  0  0  0
    0.9519   -0.6180   -1.3331 H   0  0  0  0  0  0  0  0  0  0  0  0
    0.0827    1.3682   -1.3468 C   0  0  0  0  0  0  0  0  0  0  0  0
   -0.8010    1.8717   -0.9445 H   0  0  0  0  0  0  0  0  0  0  0  0
    0.9541    1.9776   -1.0888 H   0  0  0  0  0  0  0  0  0  0  0  0
   -0.0162    1.2840   -2.8591 C   0  0  0  0  0  0  0  0  0  0  0  0
   -1.0436    0.9018   -3.3902 O   0  0  0  0  0  0  0  0  0  0  0  0
    1.0495    1.5314   -3.6761 N   0  0  0  0  0  0  0  0  0  0  0  0
    0.9477    1.2556   -4.6488 H   0  0  0  0  0  0  0  0  0  0  0  0
    1.9736    1.6341   -3.2673 H   0  0  0  0  0  0  0  0  0  0  0  0
    0.8328    0.0766    0.6731 C   0  0  0  0  0  0  0  0  0  0  0  0
    2.0503    0.0842    0.7990 O   0  0  0  0  0  0  0  0  0  0  0  0
    0.0401    0.4841    1.7301 N   0  0  0  0  0  0  0  0  0  0  0  0
   -0.9609    0.3745    1.6001 H   0  0  0  0  0  0  0  0  0  0  0  0
    0.5548    0.6449    3.0842 C   0  0  0  0  0  0  0  0  0  0  0  0
    1.3679    1.3784    3.1019 H   0  0  0  0  0  0  0  0  0  0  0  0
   -0.2385    0.9962    3.7508 H   0  0  0  0  0  0  0  0  0  0  0  0
    0.9328   -0.3097    3.4652 H   0  0  0  0  0  0  0  0  0  0  0  0
  1  2  1  0  0  0  0
  2  3  1  0  0  0  0
  2  4  1  0  0  0  0
  2  5  1  0  0  0  0
  5  6  2  0  0  0  0
  5  7  1  0  0  0  0
  7  8  1  0  0  0  0
  7  9  1  0  0  0  0
  9 10  1  0  0  0  0
  9 11  1  0  0  0  0
  9 19  1  0  0  0  0
 11 12  1  0  0  0  0
 11 13  1  0  0  0  0
 11 14  1  0  0  0  0
 14 15  2  0  0  0  0
 14 16  1  0  0  0  0
 16 17  1  0  0  0  0
 16 18  1  0  0  0  0
 19 20  2  0  0  0  0
 19 21  1  0  0  0  0
 21 22  1  0  0  0  0
 21 23  1  0  0  0  0
 23 24  1  0  0  0  0
 23 25  1  0  0  0  0
 23 26  1  0  0  0  0
M  END
$$$$

  -OEChem-03222214023D

 26 25  0     1  0  0  0  0  0999 V2000
   -2.6462   -3.7130   -0.3846 H   0  0  0  0  0  0  0  0  0  0  0  0
   -2.6439   -2.6753   -0.7302 C   0  0  0  0  0  0  0  0  0  0  0  0
   -3.4657   -2.1407   -0.2477 H   0  0  0  0  0  0  0  0  0  0  0  0
   -2.7972   -2.6658   -1.8122 H   0  0  0  0  0  0  0  0  0  0  0  0
   -1.3226   -2.0136   -0.3870 C   0  0  0  0  0  0  0  0  0  0  0  0
   -0.4885   -2.6208    0.2611 O   0  0  0  0  0  0  0  0  0  0  0  0
   -1.0708   -0.7248   -0.8144 N   0  0  0  0  0  0  0  0  0  0  0  0
   -1.7374   -0.3426   -1.4854 H   0  0  0  0  0  0  0  0  0  0  0  0
    0.2511   -0.0766   -0.7437 C   0  0  1  0  0  0  0  0  0  0  0  0
    0.9714   -0.6715   -1.3183 H   0  0  0  0  0  0  0  0  0  0  0  0
    0.1161    1.3198   -1.3668 C   0  0  0  0  0  0  0  0  0  0  0  0
   -0.7668    1.8359   -0.9788 H   0  0  0  0  0  0  0  0  0  0  0  0
    0.9902    1.9274   -1.1142 H   0  0  0  0  0  0  0  0  0  0  0  0
    0.0306    1.2056   -2.8770 C   0  0  0  0  0  0  0  0  0  0  0  0
   -1.0497    1.0863   -3.4251 O   0  0  0  0  0  0  0  0  0  0  0  0
    1.1410    1.1711   -3.6713 N   0  0  0  0  0  0  0  0  0  0  0  0
    0.9925    1.2034   -4.6759 H   0  0  0  0  0  0  0  0  0  0  0  0
    2.0521    1.3809   -3.2746 H   0  0  0  0  0  0  0  0  0  0  0  0
    0.8378    0.0486    0.6777 C   0  0  0  0  0  0  0  0  0  0  0  0
    2.0537    0.0466    0.8177 O   0  0  0  0  0  0  0  0  0  0  0  0
    0.0374    0.4767    1.7209 N   0  0  0  0  0  0  0  0  0  0  0  0
   -0.9635    0.3826    1.5800 H   0  0  0  0  0  0  0  0  0  0  0  0
    0.5382    0.6585    3.0774 C   0  0  0  0  0  0  0  0  0  0  0  0
    1.3482    1.3952    3.0920 H   0  0  0  0  0  0  0  0  0  0  0  0
   -0.2630    1.0162    3.7312 H   0  0  0  0  0  0  0  0  0  0  0  0
    0.9157   -0.2891    3.4761 H   0  0  0  0  0  0  0  0  0  0  0  0
  1  2  1  0  0  0  0
  2  3  1  0  0  0  0
  2  4  1  0  0  0  0
  2  5  1  0  0  0  0
  5  6  2  0  0  0  0
  5  7  1  0  0  0  0
  7  8  1  0  0  0  0
  7  9  1  0  0  0  0
  9 10  1  0  0  0  0
  9 11  1  0  0  0  0
  9 19  1  0  0  0  0
 11 12  1  0  0  0  0
 11 13  1  0  0  0  0
 11 14  1  0  0  0  0
 14 15  2  0  0  0  0
 14 16  1  0  0  0  0
 16 17  1  0  0  0  0
 16 18  1  0  0  0  0
 19 20  2  0  0  0  0
 19 21  1  0  0  0  0
 21 22  1  0  0  0  0
 21 23  1  0  0  0  0
 23 24  1  0  0  0  0
 23 25  1  0  0  0  0
 23 26  1  0  0  0  0
M  END
$$$$

  -OEChem-03222214023D

 26 25  0     1  0  0  0  0  0999 V2000
   -2.6654   -3.7167   -0.3414 H   0  0  0  0  0  0  0  0  0  0  0  0
   -2.6615   -2.6805   -0.6916 C   0  0  0  0  0  0  0  0  0  0  0  0
   -3.4641   -2.1354   -0.1892 H   0  0  0  0  0  0  0  0  0  0  0  0
   -2.8446   -2.6737   -1.7689 H   0  0  0  0  0  0  0  0  0  0  0  0
   -1.3240   -2.0318   -0.3883 C   0  0  0  0  0  0  0  0  0  0  0  0
   -0.4762   -2.6466    0.2341 O   0  0  0  0  0  0  0  0  0  0  0  0
   -1.0715   -0.7449   -0.8215 N   0  0  0  0  0  0  0  0  0  0  0  0
   -1.7650   -0.3374   -1.4475 H   0  0  0  0  0  0  0  0  0  0  0  0
    0.2494   -0.0939   -0.7500 C   0  0  1  0  0  0  0  0  0  0  0  0
    0.9712   -0.6956   -1.3153 H   0  0  0  0  0  0  0  0  0  0  0  0
    0.1208    1.2968   -1.3863 C   0  0  0  0  0  0  0  0  0  0  0  0
   -0.7627    1.8174   -1.0055 H   0  0  0  0  0  0  0  0  0  0  0  0
    0.9953    1.9039   -1.1342 H   0  0  0  0  0  0  0  0  0  0  0  0
    0.0458    1.1766   -2.8970 C   0  0  0  0  0  0  0  0  0  0  0  0
   -1.0111    1.3276   -3.4797 O   0  0  0  0  0  0  0  0  0  0  0  0
    1.1447    0.9083   -3.6625 N   0  0  0  0  0  0  0  0  0  0  0  0
    1.0346    1.0114   -4.6674 H   0  0  0  0  0  0  0  0  0  0  0  0
    2.0676    0.9508   -3.2402 H   0  0  0  0  0  0  0  0  0  0  0  0
    0.8323    0.0405    0.6719 C   0  0  0  0  0  0  0  0  0  0  0  0
    2.0478    0.0340    0.8141 O   0  0  0  0  0  0  0  0  0  0  0  0
    0.0310    0.4731    1.7125 N   0  0  0  0  0  0  0  0  0  0  0  0
   -0.9705    0.3862    1.5704 H   0  0  0  0  0  0  0  0  0  0  0  0
    0.5316    0.6611    3.0684 C   0  0  0  0  0  0  0  0  0  0  0  0
    1.3400    1.3996    3.0811 H   0  0  0  0  0  0  0  0  0  0  0  0
   -0.2701    1.0190    3.7211 H   0  0  0  0  0  0  0  0  0  0  0  0
    0.9114   -0.2844    3.4696 H   0  0  0  0  0  0  0  0  0  0  0  0
  1  2  1  0  0  0  0
  2  3  1  0  0  0  0
  2  4  1  0  0  0  0
  2  5  1  0  0  0  0
  5  6  2  0  0  0  0
  5  7  1  0  0  0  0
  7  8  1  0  0  0  0
  7  9  1  0  0  0  0
  9 10  1  0  0  0  0
  9 11  1  0  0  0  0
  9 19  1  0  0  0  0
 11 12  1  0  0  0  0
 11 13  1  0  0  0  0
 11 14  1  0  0  0  0
 14 15  2  0  0  0  0
 14 16  1  0  0  0  0
 16 17  1  0  0  0  0
 16 18  1  0  0  0  0
 19 20  2  0  0  0  0
 19 21  1  0  0  0  0
 21 22  1  0  0  0  0
 21 23  1  0  0  0  0
 23 24  1  0  0  0  0
 23 25  1  0  0  0  0
 23 26  1  0  0  0  0
M  END
$$$$

  -OEChem-03222214023D

 26 25  0     1  0  0  0  0  0999 V2000
   -2.6862   -3.7230   -0.2918 H   0  0  0  0  0  0  0  0  0  0  0  0
   -2.6835   -2.6861   -0.6398 C   0  0  0  0  0  0  0  0  0  0  0  0
   -3.4608   -2.1335   -0.1067 H   0  0  0  0  0  0  0  0  0  0  0  0
   -2.9060   -2.6748   -1.7096 H   0  0  0  0  0  0  0  0  0  0  0  0
   -1.3286   -2.0533   -0.3842 C   0  0  0  0  0  0  0  0  0  0  0  0
   -0.4659   -2.6781    0.2066 O   0  0  0  0  0  0  0  0  0  0  0  0
   -1.0760   -0.7687   -0.8247 N   0  0  0  0  0  0  0  0  0  0  0  0
   -1.7939   -0.3387   -1.4052 H   0  0  0  0  0  0  0  0  0  0  0  0
    0.2441   -0.1155   -0.7579 C   0  0  1  0  0  0  0  0  0  0  0  0
    0.9659   -0.7246   -1.3148 H   0  0  0  0  0  0  0  0  0  0  0  0
    0.1196    1.2707   -1.4077 C   0  0  0  0  0  0  0  0  0  0  0  0
   -0.7623    1.7956   -1.0290 H   0  0  0  0  0  0  0  0  0  0  0  0
    0.9963    1.8759   -1.1578 H   0  0  0  0  0  0  0  0  0  0  0  0
    0.0477    1.1550   -2.9202 C   0  0  0  0  0  0  0  0  0  0  0  0
   -0.9187    1.5661   -3.5325 O   0  0  0  0  0  0  0  0  0  0  0  0
    1.0886    0.6796   -3.6662 N   0  0  0  0  0  0  0  0  0  0  0  0
    1.0333    0.8466   -4.6671 H   0  0  0  0  0  0  0  0  0  0  0  0
    1.9930    0.5526   -3.2216 H   0  0  0  0  0  0  0  0  0  0  0  0
    0.8252    0.0271    0.6641 C   0  0  0  0  0  0  0  0  0  0  0  0
    2.0400    0.0104    0.8094 O   0  0  0  0  0  0  0  0  0  0  0  0
    0.0237    0.4642    1.7027 N   0  0  0  0  0  0  0  0  0  0  0  0
   -0.9784    0.3961    1.5566 H   0  0  0  0  0  0  0  0  0  0  0  0
    0.5226    0.6611    3.0580 C   0  0  0  0  0  0  0  0  0  0  0  0
    1.3323    1.3983    3.0661 H   0  0  0  0  0  0  0  0  0  0  0  0
   -0.2796    1.0250    3.7070 H   0  0  0  0  0  0  0  0  0  0  0  0
    0.9003   -0.2820    3.4669 H   0  0  0  0  0  0  0  0  0  0  0  0
  1  2  1  0  0  0  0
  2  3  1  0  0  0  0
  2  4  1  0  0  0  0
  2  5  1  0  0  0  0
  5  6  2  0  0  0  0
  5  7  1  0  0  0  0
  7  8  1  0  0  0  0
  7  9  1  0  0  0  0
  9 10  1  0  0  0  0
  9 11  1  0  0  0  0
  9 19  1  0  0  0  0
 11 12  1  0  0  0  0
 11 13  1  0  0  0  0
 11 14  1  0  0  0  0
 14 15  2  0  0  0  0
 14 16  1  0  0  0  0
 16 17  1  0  0  0  0
 16 18  1  0  0  0  0
 19 20  2  0  0  0  0
 19 21  1  0  0  0  0
 21 22  1  0  0  0  0
 21 23  1  0  0  0  0
 23 24  1  0  0  0  0
 23 25  1  0  0  0  0
 23 26  1  0  0  0  0
M  END
$$$$

  -OEChem-03222214023D

 26 25  0     1  0  0  0  0  0999 V2000
   -2.7114   -3.7205   -0.2246 H   0  0  0  0  0  0  0  0  0  0  0  0
   -2.7020   -2.6921   -0.5972 C   0  0  0  0  0  0  0  0  0  0  0  0
   -3.4646   -2.1181   -0.0654 H   0  0  0  0  0  0  0  0  0  0  0  0
   -2.9411   -2.7033   -1.6634 H   0  0  0  0  0  0  0  0  0  0  0  0
   -1.3358   -2.0699   -0.3775 C   0  0  0  0  0  0  0  0  0  0  0  0
   -0.4617   -2.7019    0.1879 O   0  0  0  0  0  0  0  0  0  0  0  0
   -1.0846   -0.7872   -0.8247 N   0  0  0  0  0  0  0  0  0  0  0  0
   -1.8188   -0.3435   -1.3723 H   0  0  0  0  0  0  0  0  0  0  0  0
    0.2353   -0.1326   -0.7635 C   0  0  1  0  0  0  0  0  0  0  0  0
    0.9571   -0.7464   -1.3140 H   0  0  0  0  0  0  0  0  0  0  0  0
    0.1115    1.2520   -1.4201 C   0  0  0  0  0  0  0  0  0  0  0  0
   -0.7677    1.7781   -1.0372 H   0  0  0  0  0  0  0  0  0  0  0  0
    0.9910    1.8538   -1.1714 H   0  0  0  0  0  0  0  0  0  0  0  0
    0.0364    1.1539   -2.9351 C   0  0  0  0  0  0  0  0  0  0  0  0
   -0.7802    1.7997   -3.5617 O   0  0  0  0  0  0  0  0  0  0  0  0
    0.9600    0.4732   -3.6770 N   0  0  0  0  0  0  0  0  0  0  0  0
    0.9655    0.6831   -4.6714 H   0  0  0  0  0  0  0  0  0  0  0  0
    1.8141    0.1619   -3.2237 H   0  0  0  0  0  0  0  0  0  0  0  0
    0.8168    0.0166    0.6577 C   0  0  0  0  0  0  0  0  0  0  0  0
    2.0313   -0.0089    0.8038 O   0  0  0  0  0  0  0  0  0  0  0  0
    0.0170    0.4577    1.6960 N   0  0  0  0  0  0  0  0  0  0  0  0
   -0.9857    0.4055    1.5487 H   0  0  0  0  0  0  0  0  0  0  0  0
    0.5186    0.6609    3.0494 C   0  0  0  0  0  0  0  0  0  0  0  0
    1.3217    1.4055    3.0535 H   0  0  0  0  0  0  0  0  0  0  0  0
   -0.2845    1.0183    3.7009 H   0  0  0  0  0  0  0  0  0  0  0  0
    0.9064   -0.2780    3.4583 H   0  0  0  0  0  0  0  0  0  0  0  0
  1  2  1  0  0  0  0
  2  3  1  0  0  0  0
  2  4  1  0  0  0  0
  2  5  1  0  0  0  0
  5  6  2  0  0  0  0
  5  7  1  0  0  0  0
  7  8  1  0  0  0  0
  7  9  1  0  0  0  0
  9 10  1  0  0  0  0
  9 11  1  0  0  0  0
  9 19  1  0  0  0  0
 11 12  1  0  0  0  0
 11 13  1  0  0  0  0
 11 14  1  0  0  0  0
 14 15  2  0  0  0  0
 14 16  1  0  0  0  0
 16 17  1  0  0  0  0
 16 18  1  0  0  0  0
 19 20  2  0  0  0  0
 19 21  1  0  0  0  0
 21 22  1  0  0  0  0
 21 23  1  0  0  0  0
 23 24  1  0  0  0  0
 23 25  1  0  0  0  0
 23 26  1  0  0  0  0
M  END
$$$$

  -OEChem-03222214023D

 26 25  0     1  0  0  0  0  0999 V2000
   -2.7144   -3.7274   -0.1937 H   0  0  0  0  0  0  0  0  0  0  0  0
   -2.7092   -2.6990   -0.5666 C   0  0  0  0  0  0  0  0  0  0  0  0
   -3.4589   -2.1228   -0.0192 H   0  0  0  0  0  0  0  0  0  0  0  0
   -2.9707   -2.7100   -1.6276 H   0  0  0  0  0  0  0  0  0  0  0  0
   -1.3365   -2.0812   -0.3754 C   0  0  0  0  0  0  0  0  0  0  0  0
   -0.4496   -2.7201    0.1616 O   0  0  0  0  0  0  0  0  0  0  0  0
   -1.0898   -0.7979   -0.8238 N   0  0  0  0  0  0  0  0  0  0  0  0
   -1.8398   -0.3399   -1.3362 H   0  0  0  0  0  0  0  0  0  0  0  0
    0.2286   -0.1398   -0.7657 C   0  0  1  0  0  0  0  0  0  0  0  0
    0.9529   -0.7548   -1.3106 H   0  0  0  0  0  0  0  0  0  0  0  0
    0.1062    1.2457   -1.4237 C   0  0  0  0  0  0  0  0  0  0  0  0
   -0.7702    1.7725   -1.0356 H   0  0  0  0  0  0  0  0  0  0  0  0
    0.9882    1.8423   -1.1715 H   0  0  0  0  0  0  0  0  0  0  0  0
    0.0288    1.1778   -2.9425 C   0  0  0  0  0  0  0  0  0  0  0  0
   -0.5842    2.0190   -3.5687 O   0  0  0  0  0  0  0  0  0  0  0  0
    0.7478    0.2925   -3.6955 N   0  0  0  0  0  0  0  0  0  0  0  0
    0.8130    0.5177   -4.6844 H   0  0  0  0  0  0  0  0  0  0  0  0
    1.5012   -0.2215   -3.2497 H   0  0  0  0  0  0  0  0  0  0  0  0
    0.8091    0.0097    0.6562 C   0  0  0  0  0  0  0  0  0  0  0  0
    2.0228   -0.0220    0.8054 O   0  0  0  0  0  0  0  0  0  0  0  0
    0.0087    0.4484    1.6950 N   0  0  0  0  0  0  0  0  0  0  0  0
   -0.9942    0.4076    1.5458 H   0  0  0  0  0  0  0  0  0  0  0  0
    0.5114    0.6653    3.0458 C   0  0  0  0  0  0  0  0  0  0  0  0
    1.3132    1.4113    3.0421 H   0  0  0  0  0  0  0  0  0  0  0  0
   -0.2917    1.0275    3.6947 H   0  0  0  0  0  0  0  0  0  0  0  0
    0.9015   -0.2690    3.4632 H   0  0  0  0  0  0  0  0  0  0  0  0
  1  2  1  0  0  0  0
  2  3  1  0  0  0  0
  2  4  1  0  0  0  0
  2  5  1  0  0  0  0
  5  6  2  0  0  0  0
  5  7  1  0  0  0  0
  7  8  1  0  0  0  0
  7  9  1  0  0  0  0
  9 10  1  0  0  0  0
  9 11  1  0  0  0  0
  9 19  1  0  0  0  0
 11 12  1  0  0  0  0
 11 13  1  0  0  0  0
 11 14  1  0  0  0  0
 14 15  2  0  0  0  0
 14 16  1  0  0  0  0
 16 17  1  0  0  0  0
 16 18  1  0  0  0  0
 19 20  2  0  0  0  0
 19 21  1  0  0  0  0
 21 22  1  0  0  0  0
 21 23  1  0  0  0  0
 23 24  1  0  0  0  0
 23 25  1  0  0  0  0
 23 26  1  0  0  0  0
M  END
$$$$

  -OEChem-03222214023D

 26 25  0     1  0  0  0  0  0999 V2000
   -2.6883   -3.7194   -0.1810 H   0  0  0  0  0  0  0  0  0  0  0  0
   -2.6874   -2.6890   -0.5479 C   0  0  0  0  0  0  0  0  0  0  0  0
   -3.4173   -2.1118    0.0246 H   0  0  0  0  0  0  0  0  0  0  0  0
   -2.9790   -2.6917   -1.6010 H   0  0  0  0  0  0  0  0  0  0  0  0
   -1.3061   -2.0812   -0.3924 C   0  0  0  0  0  0  0  0  0  0  0  0
   -0.4057   -2.7313    0.1068 O   0  0  0  0  0  0  0  0  0  0  0  0
   -1.0650   -0.7949   -0.8350 N   0  0  0  0  0  0  0  0  0  0  0  0
   -1.8305   -0.3198   -1.3070 H   0  0  0  0  0  0  0  0  0  0  0  0
    0.2480   -0.1265   -0.7674 C   0  0  1  0  0  0  0  0  0  0  0  0
    0.9865   -0.7304   -1.3057 H   0  0  0  0  0  0  0  0  0  0  0  0
    0.1212    1.2601   -1.4231 C   0  0  0  0  0  0  0  0  0  0  0  0
   -0.7598    1.7796   -1.0360 H   0  0  0  0  0  0  0  0  0  0  0  0
    0.9992    1.8583   -1.1599 H   0  0  0  0  0  0  0  0  0  0  0  0
    0.0521    1.2182   -2.9454 C   0  0  0  0  0  0  0  0  0  0  0  0
   -0.3180    2.1917   -3.5701 O   0  0  0  0  0  0  0  0  0  0  0  0
    0.4185    0.1418   -3.7048 N   0  0  0  0  0  0  0  0  0  0  0  0
    0.5181    0.3241   -4.6998 H   0  0  0  0  0  0  0  0  0  0  0  0
    0.9609   -0.5992   -3.2731 H   0  0  0  0  0  0  0  0  0  0  0  0
    0.8117    0.0195    0.6625 C   0  0  0  0  0  0  0  0  0  0  0  0
    2.0225   -0.0187    0.8300 O   0  0  0  0  0  0  0  0  0  0  0  0
   -0.0032    0.4467    1.6952 N   0  0  0  0  0  0  0  0  0  0  0  0
   -1.0038    0.4128    1.5315 H   0  0  0  0  0  0  0  0  0  0  0  0
    0.4810    0.6551    3.0540 C   0  0  0  0  0  0  0  0  0  0  0  0
    1.2803    1.4038    3.0660 H   0  0  0  0  0  0  0  0  0  0  0  0
   -0.3316    1.0099    3.6950 H   0  0  0  0  0  0  0  0  0  0  0  0
    0.8685   -0.2811    3.4696 H   0  0  0  0  0  0  0  0  0  0  0  0
  1  2  1  0  0  0  0
  2  3  1  0  0  0  0
  2  4  1  0  0  0  0
  2  5  1  0  0  0  0
  5  6  2  0  0  0  0
  5  7  1  0  0  0  0
  7  8  1  0  0  0  0
  7  9  1  0  0  0  0
  9 10  1  0  0  0  0
  9 11  1  0  0  0  0
  9 19  1  0  0  0  0
 11 12  1  0  0  0  0
 11 13  1  0  0  0  0
 11 14  1  0  0  0  0
 14 15  2  0  0  0  0
 14 16  1  0  0  0  0
 16 17  1  0  0  0  0
 16 18  1  0  0  0  0
 19 20  2  0  0  0  0
 19 21  1  0  0  0  0
 21 22  1  0  0  0  0
 21 23  1  0  0  0  0
 23 24  1  0  0  0  0
 23 25  1  0  0  0  0
 23 26  1  0  0  0  0
M  END
$$$$

  -OEChem-03222214023D

 26 25  0     1  0  0  0  0  0999 V2000
   -2.6703   -3.7352   -0.1249 H   0  0  0  0  0  0  0  0  0  0  0  0
   -2.6874   -2.7015   -0.4822 C   0  0  0  0  0  0  0  0  0  0  0  0
   -3.3865   -2.1293    0.1324 H   0  0  0  0  0  0  0  0  0  0  0  0
   -3.0330   -2.6942   -1.5188 H   0  0  0  0  0  0  0  0  0  0  0  0
   -1.2995   -2.0954   -0.3926 C   0  0  0  0  0  0  0  0  0  0  0  0
   -0.3712   -2.7545    0.0378 O   0  0  0  0  0  0  0  0  0  0  0  0
   -1.0818   -0.8021   -0.8266 N   0  0  0  0  0  0  0  0  0  0  0  0
   -1.8802   -0.3053   -1.2150 H   0  0  0  0  0  0  0  0  0  0  0  0
    0.2232   -0.1135   -0.7660 C   0  0  1  0  0  0  0  0  0  0  0  0
    0.9568   -0.7106   -1.3208 H   0  0  0  0  0  0  0  0  0  0  0  0
    0.1136    1.2712   -1.4315 C   0  0  0  0  0  0  0  0  0  0  0  0
   -0.6100    1.8829   -0.8856 H   0  0  0  0  0  0  0  0  0  0  0  0
    1.0858    1.7702   -1.3665 H   0  0  0  0  0  0  0  0  0  0  0  0
   -0.2941    1.2419   -2.9013 C   0  0  0  0  0  0  0  0  0  0  0  0
   -0.4139    2.2735   -3.5301 O   0  0  0  0  0  0  0  0  0  0  0  0
   -0.4842    0.0962   -3.6233 N   0  0  0  0  0  0  0  0  0  0  0  0
   -0.5121    0.2205   -4.6320 H   0  0  0  0  0  0  0  0  0  0  0  0
   -0.1440   -0.7778   -3.2340 H   0  0  0  0  0  0  0  0  0  0  0  0
    0.7994    0.0300    0.6589 C   0  0  0  0  0  0  0  0  0  0  0  0
    2.0109   -0.0046    0.8204 O   0  0  0  0  0  0  0  0  0  0  0  0
   -0.0123    0.4371    1.7024 N   0  0  0  0  0  0  0  0  0  0  0  0
   -1.0136    0.4124    1.5427 H   0  0  0  0  0  0  0  0  0  0  0  0
    0.4799    0.6386    3.0596 C   0  0  0  0  0  0  0  0  0  0  0  0
    1.2662    1.4008    3.0735 H   0  0  0  0  0  0  0  0  0  0  0  0
   -0.3332    0.9717    3.7115 H   0  0  0  0  0  0  0  0  0  0  0  0
    0.8875   -0.2951    3.4614 H   0  0  0  0  0  0  0  0  0  0  0  0
  1  2  1  0  0  0  0
  2  3  1  0  0  0  0
  2  4  1  0  0  0  0
  2  5  1  0  0  0  0
  5  6  2  0  0  0  0
  5  7  1  0  0  0  0
  7  8  1  0  0  0  0
  7  9  1  0  0  0  0
  9 10  1  0  0  0  0
  9 11  1  0  0  0  0
  9 19  1  0  0  0  0
 11 12  1  0  0  0  0
 11 13  1  0  0  0  0
 11 14  1  0  0  0  0
 14 15  2  0  0  0  0
 14 16  1  0  0  0  0
 16 17  1  0  0  0  0
 16 18  1  0  0  0  0
 19 20  2  0  0  0  0
 19 21  1  0  0  0  0
 21 22  1  0  0  0  0
 21 23  1  0  0  0  0
 23 24  1  0  0  0  0
 23 25  1  0  0  0  0
 23 26  1  0  0  0  0
M  END
$$$$

  -OEChem-03222214023D

 26 25  0     1  0  0  0  0  0999 V2000
   -2.6598   -3.7326   -0.0748 H   0  0  0  0  0  0  0  0  0  0  0  0
   -2.6878   -2.6995   -0.4334 C   0  0  0  0  0  0  0  0  0  0  0  0
   -3.3570   -2.1231    0.2098 H   0  0  0  0  0  0  0  0  0  0  0  0
   -3.0776   -2.6930   -1.4542 H   0  0  0  0  0  0  0  0  0  0  0  0
   -1.2944   -2.1003   -0.4049 C   0  0  0  0  0  0  0  0  0  0  0  0
   -0.3500   -2.7672   -0.0255 O   0  0  0  0  0  0  0  0  0  0  0  0
   -1.0909   -0.8026   -0.8341 N   0  0  0  0  0  0  0  0  0  0  0  0
   -1.9109   -0.2835   -1.1402 H   0  0  0  0  0  0  0  0  0  0  0  0
    0.2104   -0.1051   -0.7762 C   0  0  1  0  0  0  0  0  0  0  0  0
    0.9437   -0.6969   -1.3381 H   0  0  0  0  0  0  0  0  0  0  0  0
    0.1021    1.2832   -1.4369 C   0  0  0  0  0  0  0  0  0  0  0  0
   -0.6211    1.8919   -0.8880 H   0  0  0  0  0  0  0  0  0  0  0  0
    1.0750    1.7803   -1.3659 H   0  0  0  0  0  0  0  0  0  0  0  0
   -0.3033    1.2726   -2.9085 C   0  0  0  0  0  0  0  0  0  0  0  0
   -0.1614    2.2624   -3.5971 O   0  0  0  0  0  0  0  0  0  0  0  0
   -0.7465    0.1654   -3.5766 N   0  0  0  0  0  0  0  0  0  0  0  0
   -0.7279    0.2456   -4.5900 H   0  0  0  0  0  0  0  0  0  0  0  0
   -0.5807   -0.7389   -3.1453 H   0  0  0  0  0  0  0  0  0  0  0  0
    0.7896    0.0326    0.6483 C   0  0  0  0  0  0  0  0  0  0  0  0
    2.0008   -0.0008    0.8091 O   0  0  0  0  0  0  0  0  0  0  0  0
   -0.0214    0.4273    1.6974 N   0  0  0  0  0  0  0  0  0  0  0  0
   -1.0229    0.4040    1.5402 H   0  0  0  0  0  0  0  0  0  0  0  0
    0.4740    0.6193    3.0549 C   0  0  0  0  0  0  0  0  0  0  0  0
    1.2587    1.3831    3.0727 H   0  0  0  0  0  0  0  0  0  0  0  0
   -0.3379    0.9454    3.7117 H   0  0  0  0  0  0  0  0  0  0  0  0
    0.8845   -0.3167    3.4482 H   0  0  0  0  0  0  0  0  0  0  0  0
  1  2  1  0  0  0  0
  2  3  1  0  0  0  0
  2  4  1  0  0  0  0
  2  5  1  0  0  0  0
  5  6  2  0  0  0  0
  5  7  1  0  0  0  0
  7  8  1  0  0  0  0
  7  9  1  0  0  0  0
  9 10  1  0  0  0  0
  9 11  1  0  0  0  0
  9 19  1  0  0  0  0
 11 12  1  0  0  0  0
 11 13  1  0  0  0  0
 11 14  1  0  0  0  0
 14 15  2  0  0  0  0
 14 16  1  0  0  0  0
 16 17  1  0  0  0  0
 16 18  1  0  0  0  0
 19 20  2  0  0  0  0
 19 21  1  0  0  0  0
 21 22  1  0  0  0  0
 21 23  1  0  0  0  0
 23 24  1  0  0  0  0
 23 25  1  0  0  0  0
 23 26  1  0  0  0  0
M  END
$$$$

  -OEChem-03222214023D

 26 25  0     1  0  0  0  0  0999 V2000
   -2.6467   -3.7273   -0.0437 H   0  0  0  0  0  0  0  0  0  0  0  0
   -2.6861   -2.6926   -0.3970 C   0  0  0  0  0  0  0  0  0  0  0  0
   -3.3230   -2.1161    0.2782 H   0  0  0  0  0  0  0  0  0  0  0  0
   -3.1228   -2.6806   -1.3986 H   0  0  0  0  0  0  0  0  0  0  0  0
   -1.2896   -2.1004   -0.4312 C   0  0  0  0  0  0  0  0  0  0  0  0
   -0.3311   -2.7786   -0.1128 O   0  0  0  0  0  0  0  0  0  0  0  0
   -1.1015   -0.7957   -0.8476 N   0  0  0  0  0  0  0  0  0  0  0  0
   -1.9392   -0.2529   -1.0444 H   0  0  0  0  0  0  0  0  0  0  0  0
    0.1968   -0.0916   -0.7849 C   0  0  1  0  0  0  0  0  0  0  0  0
    0.9293   -0.6776   -1.3540 H   0  0  0  0  0  0  0  0  0  0  0  0
    0.0938    1.3012   -1.4385 C   0  0  0  0  0  0  0  0  0  0  0  0
   -0.6322    1.9067   -0.8901 H   0  0  0  0  0  0  0  0  0  0  0  0
    1.0666    1.7974   -1.3552 H   0  0  0  0  0  0  0  0  0  0  0  0
   -0.3034    1.3040   -2.9133 C   0  0  0  0  0  0  0  0  0  0  0  0
    0.0802    2.1817   -3.6592 O   0  0  0  0  0  0  0  0  0  0  0  0
   -0.9932    0.2977   -3.5283 N   0  0  0  0  0  0  0  0  0  0  0  0
   -0.9514    0.3280   -4.5438 H   0  0  0  0  0  0  0  0  0  0  0  0
   -0.9939   -0.6047   -3.0629 H   0  0  0  0  0  0  0  0  0  0  0  0
    0.7794    0.0326    0.6397 C   0  0  0  0  0  0  0  0  0  0  0  0
    1.9907    0.0003    0.7987 O   0  0  0  0  0  0  0  0  0  0  0  0
   -0.0298    0.4109    1.6968 N   0  0  0  0  0  0  0  0  0  0  0  0
   -1.0317    0.3964    1.5426 H   0  0  0  0  0  0  0  0  0  0  0  0
    0.4714    0.6004    3.0528 C   0  0  0  0  0  0  0  0  0  0  0  0
    1.2417    1.3787    3.0717 H   0  0  0  0  0  0  0  0  0  0  0  0
   -0.3419    0.9055    3.7182 H   0  0  0  0  0  0  0  0  0  0  0  0
    0.9021   -0.3310    3.4353 H   0  0  0  0  0  0  0  0  0  0  0  0
  1  2  1  0  0  0  0
  2  3  1  0  0  0  0
  2  4  1  0  0  0  0
  2  5  1  0  0  0  0
  5  6  2  0  0  0  0
  5  7  1  0  0  0  0
  7  8  1  0  0  0  0
  7  9  1  0  0  0  0
  9 10  1  0  0  0  0
  9 11  1  0  0  0  0
  9 19  1  0  0  0  0
 11 12  1  0  0  0  0
 11 13  1  0  0  0  0
 11 14  1  0  0  0  0
 14 15  2  0  0  0  0
 14 16  1  0  0  0  0
 16 17  1  0  0  0  0
 16 18  1  0  0  0  0
 19 20  2  0  0  0  0
 19 21  1  0  0  0  0
 21 22  1  0  0  0  0
 21 23  1  0  0  0  0
 23 24  1  0  0  0  0
 23 25  1  0  0  0  0
 23 26  1  0  0  0  0
M  END
$$$$

  -OEChem-03222214023D

 26 25  0     1  0  0  0  0  0999 V2000
   -2.6236   -3.7175   -0.0329 H   0  0  0  0  0  0  0  0  0  0  0  0
   -2.6750   -2.6790   -0.3729 C   0  0  0  0  0  0  0  0  0  0  0  0
   -3.2769   -2.1075    0.3375 H   0  0  0  0  0  0  0  0  0  0  0  0
   -3.1574   -2.6546   -1.3531 H   0  0  0  0  0  0  0  0  0  0  0  0
   -1.2788   -2.0924   -0.4656 C   0  0  0  0  0  0  0  0  0  0  0  0
   -0.3107   -2.7784   -0.1970 O   0  0  0  0  0  0  0  0  0  0  0  0
   -1.1061   -0.7808   -0.8681 N   0  0  0  0  0  0  0  0  0  0  0  0
   -1.9519   -0.2238   -0.9619 H   0  0  0  0  0  0  0  0  0  0  0  0
    0.1906   -0.0740   -0.7931 C   0  0  1  0  0  0  0  0  0  0  0  0
    0.9245   -0.6563   -1.3648 H   0  0  0  0  0  0  0  0  0  0  0  0
    0.0967    1.3218   -1.4407 C   0  0  0  0  0  0  0  0  0  0  0  0
   -0.6332    1.9267   -0.8974 H   0  0  0  0  0  0  0  0  0  0  0  0
    1.0691    1.8166   -1.3453 H   0  0  0  0  0  0  0  0  0  0  0  0
   -0.2860    1.3255   -2.9191 C   0  0  0  0  0  0  0  0  0  0  0  0
    0.3033    2.0255   -3.7173 O   0  0  0  0  0  0  0  0  0  0  0  0
   -1.2184    0.4966   -3.4745 N   0  0  0  0  0  0  0  0  0  0  0  0
   -1.1849    0.4724   -4.4905 H   0  0  0  0  0  0  0  0  0  0  0  0
   -1.4021   -0.3670   -2.9752 H   0  0  0  0  0  0  0  0  0  0  0  0
    0.7710    0.0345    0.6340 C   0  0  0  0  0  0  0  0  0  0  0  0
    1.9817    0.0025    0.7968 O   0  0  0  0  0  0  0  0  0  0  0  0
   -0.0401    0.3976    1.6952 N   0  0  0  0  0  0  0  0  0  0  0  0
   -1.0416    0.3926    1.5398 H   0  0  0  0  0  0  0  0  0  0  0  0
    0.4622    0.5753    3.0525 C   0  0  0  0  0  0  0  0  0  0  0  0
    1.2150    1.3702    3.0820 H   0  0  0  0  0  0  0  0  0  0  0  0
   -0.3548    0.8496    3.7265 H   0  0  0  0  0  0  0  0  0  0  0  0
    0.9160   -0.3525    3.4170 H   0  0  0  0  0  0  0  0  0  0  0  0
  1  2  1  0  0  0  0
  2  3  1  0  0  0  0
  2  4  1  0  0  0  0
  2  5  1  0  0  0  0
  5  6  2  0  0  0  0
  5  7  1  0  0  0  0
  7  8  1  0  0  0  0
  7  9  1  0  0  0  0
  9 10  1  0  0  0  0
  9 11  1  0  0  0  0
  9 19  1  0  0  0  0
 11 12  1  0  0  0  0
 11 13  1  0  0  0  0
 11 14  1  0  0  0  0
 14 15  2  0  0  0  0
 14 16  1  0  0  0  0
 16 17  1  0  0  0  0
 16 18  1  0  0  0  0
 19 20  2  0  0  0  0
 19 21  1  0  0  0  0
 21 22  1  0  0  0  0
 21 23  1  0  0  0  0
 23 24  1  0  0  0  0
 23 25  1  0  0  0  0
 23 26  1  0  0  0  0
M  END
$$$$

  -OEChem-03222214023D

 26 25  0     1  0  0  0  0  0999 V2000
   -2.5946   -3.7032   -0.0141 H   0  0  0  0  0  0  0  0  0  0  0  0
   -2.6535   -2.6716   -0.3737 C   0  0  0  0  0  0  0  0  0  0  0  0
   -3.2494   -2.0886    0.3325 H   0  0  0  0  0  0  0  0  0  0  0  0
   -3.1473   -2.6686   -1.3484 H   0  0  0  0  0  0  0  0  0  0  0  0
   -1.2601   -2.0830   -0.4951 C   0  0  0  0  0  0  0  0  0  0  0  0
   -0.2870   -2.7714   -0.2518 O   0  0  0  0  0  0  0  0  0  0  0  0
   -1.0992   -0.7658   -0.8859 N   0  0  0  0  0  0  0  0  0  0  0  0
   -1.9461   -0.2051   -0.9009 H   0  0  0  0  0  0  0  0  0  0  0  0
    0.1961   -0.0586   -0.7973 C   0  0  1  0  0  0  0  0  0  0  0  0
    0.9325   -0.6382   -1.3691 H   0  0  0  0  0  0  0  0  0  0  0  0
    0.1097    1.3366   -1.4433 C   0  0  0  0  0  0  0  0  0  0  0  0
   -0.6239    1.9461   -0.9100 H   0  0  0  0  0  0  0  0  0  0  0  0
    1.0816    1.8311   -1.3426 H   0  0  0  0  0  0  0  0  0  0  0  0
   -0.2586    1.3193   -2.9242 C   0  0  0  0  0  0  0  0  0  0  0  0
    0.4842    1.7857   -3.7638 O   0  0  0  0  0  0  0  0  0  0  0  0
   -1.4050    0.7688   -3.4219 N   0  0  0  0  0  0  0  0  0  0  0  0
   -1.4078    0.6870   -4.4355 H   0  0  0  0  0  0  0  0  0  0  0  0
   -1.8269    0.0286   -2.8758 H   0  0  0  0  0  0  0  0  0  0  0  0
    0.7715    0.0372    0.6330 C   0  0  0  0  0  0  0  0  0  0  0  0
    1.9813    0.0078    0.8021 O   0  0  0  0  0  0  0  0  0  0  0  0
   -0.0447    0.3892    1.6944 N   0  0  0  0  0  0  0  0  0  0  0  0
   -1.0453    0.3859    1.5352 H   0  0  0  0  0  0  0  0  0  0  0  0
    0.4505    0.5526    3.0562 C   0  0  0  0  0  0  0  0  0  0  0  0
    1.2191    1.3318    3.0942 H   0  0  0  0  0  0  0  0  0  0  0  0
   -0.3661    0.8423    3.7245 H   0  0  0  0  0  0  0  0  0  0  0  0
    0.8821   -0.3854    3.4214 H   0  0  0  0  0  0  0  0  0  0  0  0
  1  2  1  0  0  0  0
  2  3  1  0  0  0  0
  2  4  1  0  0  0  0
  2  5  1  0  0  0  0
  5  6  2  0  0  0  0
  5  7  1  0  0  0  0
  7  8  1  0  0  0  0
  7  9  1  0  0  0  0
  9 10  1  0  0  0  0
  9 11  1  0  0  0  0
  9 19  1  0  0  0  0
 11 12  1  0  0  0  0
 11 13  1  0  0  0  0
 11 14  1  0  0  0  0
 14 15  2  0  0  0  0
 14 16  1  0  0  0  0
 16 17  1  0  0  0  0
 16 18  1  0  0  0  0
 19 20  2  0  0  0  0
 19 21  1  0  0  0  0
 21 22  1  0  0  0  0
 21 23  1  0  0  0  0
 23 24  1  0  0  0  0
 23 25  1  0  0  0  0
 23 26  1  0  0  0  0
M  END
$$$$

  -OEChem-03222214023D

 26 25  0     1  0  0  0  0  0999 V2000
   -2.6354   -3.7948   -0.1708 H   0  0  0  0  0  0  0  0  0  0  0  0
   -2.6174   -2.8051   -0.6364 C   0  0  0  0  0  0  0  0  0  0  0  0
   -3.4758   -2.2327   -0.2774 H   0  0  0  0  0  0  0  0  0  0  0  0
   -2.6946   -2.9261   -1.7196 H   0  0  0  0  0  0  0  0  0  0  0  0
   -1.3281   -2.0866   -0.2853 C   0  0  0  0  0  0  0  0  0  0  0  0
   -0.5048   -2.6341    0.4244 O   0  0  0  0  0  0  0  0  0  0  0  0
   -1.1043   -0.8114   -0.7709 N   0  0  0  0  0  0  0  0  0  0  0  0
   -1.7534   -0.5138   -1.4944 H   0  0  0  0  0  0  0  0  0  0  0  0
    0.2181   -0.1522   -0.7422 C   0  0  1  0  0  0  0  0  0  0  0  0
    0.9291   -0.7731   -1.3017 H   0  0  0  0  0  0  0  0  0  0  0  0
    0.1324    1.2293   -1.4162 C   0  0  0  0  0  0  0  0  0  0  0  0
   -0.5610    1.8732   -0.8694 H   0  0  0  0  0  0  0  0  0  0  0  0
    1.1178    1.7063   -1.3882 H   0  0  0  0  0  0  0  0  0  0  0  0
   -0.3099    1.1271   -2.8666 C   0  0  0  0  0  0  0  0  0  0  0  0
    0.4613    1.2658   -3.7931 O   0  0  0  0  0  0  0  0  0  0  0  0
   -1.6314    1.0516   -3.2101 N   0  0  0  0  0  0  0  0  0  0  0  0
   -1.8043    1.2425   -4.1946 H   0  0  0  0  0  0  0  0  0  0  0  0
   -2.3051    1.3823   -2.5278 H   0  0  0  0  0  0  0  0  0  0  0  0
    0.8170    0.0280    0.6706 C   0  0  0  0  0  0  0  0  0  0  0  0
    2.0315    0.0090    0.8140 O   0  0  0  0  0  0  0  0  0  0  0  0
    0.0233    0.4903    1.7052 N   0  0  0  0  0  0  0  0  0  0  0  0
   -0.9765    0.3691    1.5834 H   0  0  0  0  0  0  0  0  0  0  0  0
    0.5386    0.6986    3.0529 C   0  0  0  0  0  0  0  0  0  0  0  0
    1.3461    1.4386    3.0452 H   0  0  0  0  0  0  0  0  0  0  0  0
   -0.2562    1.0643    3.7099 H   0  0  0  0  0  0  0  0  0  0  0  0
    0.9255   -0.2403    3.4633 H   0  0  0  0  0  0  0  0  0  0  0  0
  1  2  1  0  0  0  0
  2  3  1  0  0  0  0
  2  4  1  0  0  0  0
  2  5  1  0  0  0  0
  5  6  2  0  0  0  0
  5  7  1  0  0  0  0
  7  8  1  0  0  0  0
  7  9  1  0  0  0  0
  9 10  1  0  0  0  0
  9 11  1  0  0  0  0
  9 19  1  0  0  0  0
 11 12  1  0  0  0  0
 11 13  1  0  0  0  0
 11 14  1  0  0  0  0
 14 15  2  0  0  0  0
 14 16  1  0  0  0  0
 16 17  1  0  0  0  0
 16 18  1  0  0  0  0
 19 20  2  0  0  0  0
 19 21  1  0  0  0  0
 21 22  1  0  0  0  0
 21 23  1  0  0  0  0
 23 24  1  0  0  0  0
 23 25  1  0  0  0  0
 23 26  1  0  0  0  0
M  END
$$$$

  -OEChem-03222214023D

 26 25  0     1  0  0  0  0  0999 V2000
   -2.6445   -3.7682   -0.2261 H   0  0  0  0  0  0  0  0  0  0  0  0
   -2.6360   -2.7625   -0.6564 C   0  0  0  0  0  0  0  0  0  0  0  0
   -3.4839   -2.2019   -0.2555 H   0  0  0  0  0  0  0  0  0  0  0  0
   -2.7404   -2.8448   -1.7409 H   0  0  0  0  0  0  0  0  0  0  0  0
   -1.3364   -2.0589   -0.3122 C   0  0  0  0  0  0  0  0  0  0  0  0
   -0.5091   -2.6229    0.3800 O   0  0  0  0  0  0  0  0  0  0  0  0
   -1.1090   -0.7771   -0.7780 N   0  0  0  0  0  0  0  0  0  0  0  0
   -1.7695   -0.4538   -1.4803 H   0  0  0  0  0  0  0  0  0  0  0  0
    0.2154   -0.1219   -0.7449 C   0  0  1  0  0  0  0  0  0  0  0  0
    0.9228   -0.7342   -1.3183 H   0  0  0  0  0  0  0  0  0  0  0  0
    0.1222    1.2668   -1.4001 C   0  0  0  0  0  0  0  0  0  0  0  0
   -0.5684    1.9034   -0.8414 H   0  0  0  0  0  0  0  0  0  0  0  0
    1.1063    1.7462   -1.3773 H   0  0  0  0  0  0  0  0  0  0  0  0
   -0.3289    1.1690   -2.8471 C   0  0  0  0  0  0  0  0  0  0  0  0
    0.4536    1.0499   -3.7668 O   0  0  0  0  0  0  0  0  0  0  0  0
   -1.6494    1.2511   -3.1920 N   0  0  0  0  0  0  0  0  0  0  0  0
   -1.8078    1.3782   -4.1890 H   0  0  0  0  0  0  0  0  0  0  0  0
   -2.2763    1.7043   -2.5355 H   0  0  0  0  0  0  0  0  0  0  0  0
    0.8207    0.0344    0.6681 C   0  0  0  0  0  0  0  0  0  0  0  0
    2.0359    0.0201    0.8062 O   0  0  0  0  0  0  0  0  0  0  0  0
    0.0302    0.4824    1.7116 N   0  0  0  0  0  0  0  0  0  0  0  0
   -0.9694    0.3566    1.5921 H   0  0  0  0  0  0  0  0  0  0  0  0
    0.5494    0.6718    3.0607 C   0  0  0  0  0  0  0  0  0  0  0  0
    1.3582    1.4101    3.0608 H   0  0  0  0  0  0  0  0  0  0  0  0
   -0.2431    1.0305    3.7242 H   0  0  0  0  0  0  0  0  0  0  0  0
    0.9353   -0.2730    3.4581 H   0  0  0  0  0  0  0  0  0  0  0  0
  1  2  1  0  0  0  0
  2  3  1  0  0  0  0
  2  4  1  0  0  0  0
  2  5  1  0  0  0  0
  5  6  2  0  0  0  0
  5  7  1  0  0  0  0
  7  8  1  0  0  0  0
  7  9  1  0  0  0  0
  9 10  1  0  0  0  0
  9 11  1  0  0  0  0
  9 19  1  0  0  0  0
 11 12  1  0  0  0  0
 11 13  1  0  0  0  0
 11 14  1  0  0  0  0
 14 15  2  0  0  0  0
 14 16  1  0  0  0  0
 16 17  1  0  0  0  0
 16 18  1  0  0  0  0
 19 20  2  0  0  0  0
 19 21  1  0  0  0  0
 21 22  1  0  0  0  0
 21 23  1  0  0  0  0
 23 24  1  0  0  0  0
 23 25  1  0  0  0  0
 23 26  1  0  0  0  0
M  END
$$$$

  -OEChem-03222214023D

 26 25  0     1  0  0  0  0  0999 V2000
   -2.6661   -3.7405   -0.2563 H   0  0  0  0  0  0  0  0  0  0  0  0
   -2.6464   -2.7351   -0.6869 C   0  0  0  0  0  0  0  0  0  0  0  0
   -3.4978   -2.1700   -0.3004 H   0  0  0  0  0  0  0  0  0  0  0  0
   -2.7337   -2.8179   -1.7731 H   0  0  0  0  0  0  0  0  0  0  0  0
   -1.3496   -2.0364   -0.3227 C   0  0  0  0  0  0  0  0  0  0  0  0
   -0.5337   -2.6034    0.3809 O   0  0  0  0  0  0  0  0  0  0  0  0
   -1.1149   -0.7529   -0.7791 N   0  0  0  0  0  0  0  0  0  0  0  0
   -1.7738   -0.4209   -1.4788 H   0  0  0  0  0  0  0  0  0  0  0  0
    0.2134   -0.1057   -0.7430 C   0  0  1  0  0  0  0  0  0  0  0  0
    0.9158   -0.7169   -1.3241 H   0  0  0  0  0  0  0  0  0  0  0  0
    0.1203    1.2876   -1.3871 C   0  0  0  0  0  0  0  0  0  0  0  0
   -0.5667    1.9201   -0.8194 H   0  0  0  0  0  0  0  0  0  0  0  0
    1.1050    1.7657   -1.3659 H   0  0  0  0  0  0  0  0  0  0  0  0
   -0.3363    1.2002   -2.8330 C   0  0  0  0  0  0  0  0  0  0  0  0
    0.3970    0.8250   -3.7243 O   0  0  0  0  0  0  0  0  0  0  0  0
   -1.6226    1.4854   -3.1959 N   0  0  0  0  0  0  0  0  0  0  0  0
   -1.7668    1.5604   -4.2001 H   0  0  0  0  0  0  0  0  0  0  0  0
   -2.1685    2.0734   -2.5747 H   0  0  0  0  0  0  0  0  0  0  0  0
    0.8245    0.0382    0.6684 C   0  0  0  0  0  0  0  0  0  0  0  0
    2.0404    0.0244    0.8008 O   0  0  0  0  0  0  0  0  0  0  0  0
    0.0398    0.4838    1.7171 N   0  0  0  0  0  0  0  0  0  0  0  0
   -0.9599    0.3538    1.6024 H   0  0  0  0  0  0  0  0  0  0  0  0
    0.5649    0.6604    3.0656 C   0  0  0  0  0  0  0  0  0  0  0  0
    1.3743    1.3981    3.0692 H   0  0  0  0  0  0  0  0  0  0  0  0
   -0.2246    1.0134    3.7359 H   0  0  0  0  0  0  0  0  0  0  0  0
    0.9517   -0.2884    3.4522 H   0  0  0  0  0  0  0  0  0  0  0  0
  1  2  1  0  0  0  0
  2  3  1  0  0  0  0
  2  4  1  0  0  0  0
  2  5  1  0  0  0  0
  5  6  2  0  0  0  0
  5  7  1  0  0  0  0
  7  8  1  0  0  0  0
  7  9  1  0  0  0  0
  9 10  1  0  0  0  0
  9 11  1  0  0  0  0
  9 19  1  0  0  0  0
 11 12  1  0  0  0  0
 11 13  1  0  0  0  0
 11 14  1  0  0  0  0
 14 15  2  0  0  0  0
 14 16  1  0  0  0  0
 16 17  1  0  0  0  0
 16 18  1  0  0  0  0
 19 20  2  0  0  0  0
 19 21  1  0  0  0  0
 21 22  1  0  0  0  0
 21 23  1  0  0  0  0
 23 24  1  0  0  0  0
 23 25  1  0  0  0  0
 23 26  1  0  0  0  0
M  END
$$$$

  -OEChem-03222214023D

 26 25  0     1  0  0  0  0  0999 V2000
   -2.6622   -3.7426   -0.2943 H   0  0  0  0  0  0  0  0  0  0  0  0
   -2.6538   -2.7245   -0.6946 C   0  0  0  0  0  0  0  0  0  0  0  0
   -3.5003   -2.1749   -0.2766 H   0  0  0  0  0  0  0  0  0  0  0  0
   -2.7599   -2.7748   -1.7812 H   0  0  0  0  0  0  0  0  0  0  0  0
   -1.3537   -2.0314   -0.3318 C   0  0  0  0  0  0  0  0  0  0  0  0
   -0.5380   -2.6042    0.3676 O   0  0  0  0  0  0  0  0  0  0  0  0
   -1.1169   -0.7461   -0.7818 N   0  0  0  0  0  0  0  0  0  0  0  0
   -1.7771   -0.4069   -1.4765 H   0  0  0  0  0  0  0  0  0  0  0  0
    0.2122   -0.1015   -0.7421 C   0  0  1  0  0  0  0  0  0  0  0  0
    0.9127   -0.7130   -1.3249 H   0  0  0  0  0  0  0  0  0  0  0  0
    0.1231    1.2944   -1.3823 C   0  0  0  0  0  0  0  0  0  0  0  0
   -0.5650    1.9227   -0.8109 H   0  0  0  0  0  0  0  0  0  0  0  0
    1.1079    1.7715   -1.3562 H   0  0  0  0  0  0  0  0  0  0  0  0
   -0.3310    1.2206   -2.8307 C   0  0  0  0  0  0  0  0  0  0  0  0
    0.2912    0.6114   -3.6768 O   0  0  0  0  0  0  0  0  0  0  0  0
   -1.5217    1.7533   -3.2365 N   0  0  0  0  0  0  0  0  0  0  0  0
   -1.6495    1.7880   -4.2448 H   0  0  0  0  0  0  0  0  0  0  0  0
   -1.9453    2.4708   -2.6574 H   0  0  0  0  0  0  0  0  0  0  0  0
    0.8239    0.0350    0.6696 C   0  0  0  0  0  0  0  0  0  0  0  0
    2.0404    0.0305    0.7993 O   0  0  0  0  0  0  0  0  0  0  0  0
    0.0398    0.4772    1.7204 N   0  0  0  0  0  0  0  0  0  0  0  0
   -0.9597    0.3420    1.6085 H   0  0  0  0  0  0  0  0  0  0  0  0
    0.5681    0.6605    3.0668 C   0  0  0  0  0  0  0  0  0  0  0  0
    1.3803    1.3951    3.0645 H   0  0  0  0  0  0  0  0  0  0  0  0
   -0.2183    1.0213    3.7364 H   0  0  0  0  0  0  0  0  0  0  0  0
    0.9521   -0.2871    3.4591 H   0  0  0  0  0  0  0  0  0  0  0  0
  1  2  1  0  0  0  0
  2  3  1  0  0  0  0
  2  4  1  0  0  0  0
  2  5  1  0  0  0  0
  5  6  2  0  0  0  0
  5  7  1  0  0  0  0
  7  8  1  0  0  0  0
  7  9  1  0  0  0  0
  9 10  1  0  0  0  0
  9 11  1  0  0  0  0
  9 19  1  0  0  0  0
 11 12  1  0  0  0  0
 11 13  1  0  0  0  0
 11 14  1  0  0  0  0
 14 15  2  0  0  0  0
 14 16  1  0  0  0  0
 16 17  1  0  0  0  0
 16 18  1  0  0  0  0
 19 20  2  0  0  0  0
 19 21  1  0  0  0  0
 21 22  1  0  0  0  0
 21 23  1  0  0  0  0
 23 24  1  0  0  0  0
 23 25  1  0  0  0  0
 23 26  1  0  0  0  0
M  END
$$$$

  -OEChem-03222214023D

 26 25  0     1  0  0  0  0  0999 V2000
   -2.6786   -3.7367   -0.2421 H   0  0  0  0  0  0  0  0  0  0  0  0
   -2.6471   -2.7418   -0.6956 C   0  0  0  0  0  0  0  0  0  0  0  0
   -3.5095   -2.1688   -0.3471 H   0  0  0  0  0  0  0  0  0  0  0  0
   -2.7033   -2.8496   -1.7816 H   0  0  0  0  0  0  0  0  0  0  0  0
   -1.3617   -2.0329   -0.3117 C   0  0  0  0  0  0  0  0  0  0  0  0
   -0.5587   -2.5895    0.4153 O   0  0  0  0  0  0  0  0  0  0  0  0
   -1.1272   -0.7511   -0.7725 N   0  0  0  0  0  0  0  0  0  0  0  0
   -1.7696   -0.4401   -1.4966 H   0  0  0  0  0  0  0  0  0  0  0  0
    0.2037   -0.1103   -0.7433 C   0  0  1  0  0  0  0  0  0  0  0  0
    0.9001   -0.7260   -1.3263 H   0  0  0  0  0  0  0  0  0  0  0  0
    0.1139    1.2869   -1.3838 C   0  0  0  0  0  0  0  0  0  0  0  0
   -0.5710    1.9113   -0.8043 H   0  0  0  0  0  0  0  0  0  0  0  0
    1.0992    1.7623   -1.3600 H   0  0  0  0  0  0  0  0  0  0  0  0
   -0.3510    1.2330   -2.8307 C   0  0  0  0  0  0  0  0  0  0  0  0
    0.0891    0.4321   -3.6310 O   0  0  0  0  0  0  0  0  0  0  0  0
   -1.3429    2.0494   -3.2940 N   0  0  0  0  0  0  0  0  0  0  0  0
   -1.4568    2.0578   -4.3044 H   0  0  0  0  0  0  0  0  0  0  0  0
   -1.5693    2.8813   -2.7588 H   0  0  0  0  0  0  0  0  0  0  0  0
    0.8214    0.0333    0.6649 C   0  0  0  0  0  0  0  0  0  0  0  0
    2.0386    0.0311    0.7893 O   0  0  0  0  0  0  0  0  0  0  0  0
    0.0409    0.4844    1.7142 N   0  0  0  0  0  0  0  0  0  0  0  0
   -0.9582    0.3440    1.6051 H   0  0  0  0  0  0  0  0  0  0  0  0
    0.5711    0.6634    3.0601 C   0  0  0  0  0  0  0  0  0  0  0  0
    1.3794    1.4023    3.0593 H   0  0  0  0  0  0  0  0  0  0  0  0
   -0.2160    1.0163    3.7330 H   0  0  0  0  0  0  0  0  0  0  0  0
    0.9607   -0.2844    3.4464 H   0  0  0  0  0  0  0  0  0  0  0  0
  1  2  1  0  0  0  0
  2  3  1  0  0  0  0
  2  4  1  0  0  0  0
  2  5  1  0  0  0  0
  5  6  2  0  0  0  0
  5  7  1  0  0  0  0
  7  8  1  0  0  0  0
  7  9  1  0  0  0  0
  9 10  1  0  0  0  0
  9 11  1  0  0  0  0
  9 19  1  0  0  0  0
 11 12  1  0  0  0  0
 11 13  1  0  0  0  0
 11 14  1  0  0  0  0
 14 15  2  0  0  0  0
 14 16  1  0  0  0  0
 16 17  1  0  0  0  0
 16 18  1  0  0  0  0
 19 20  2  0  0  0  0
 19 21  1  0  0  0  0
 21 22  1  0  0  0  0
 21 23  1  0  0  0  0
 23 24  1  0  0  0  0
 23 25  1  0  0  0  0
 23 26  1  0  0  0  0
M  END
$$$$

  -OEChem-03222214023D

 26 25  0     1  0  0  0  0  0999 V2000
   -2.6449   -3.7740   -0.2824 H   0  0  0  0  0  0  0  0  0  0  0  0
   -2.6432   -2.7617   -0.6965 C   0  0  0  0  0  0  0  0  0  0  0  0
   -3.5181   -2.2255   -0.3214 H   0  0  0  0  0  0  0  0  0  0  0  0
   -2.7030   -2.8290   -1.7857 H   0  0  0  0  0  0  0  0  0  0  0  0
   -1.3749   -2.0345   -0.2915 C   0  0  0  0  0  0  0  0  0  0  0  0
   -0.5830   -2.5748    0.4600 O   0  0  0  0  0  0  0  0  0  0  0  0
   -1.1442   -0.7556   -0.7620 N   0  0  0  0  0  0  0  0  0  0  0  0
   -1.7665   -0.4734   -1.5154 H   0  0  0  0  0  0  0  0  0  0  0  0
    0.1882   -0.1184   -0.7424 C   0  0  1  0  0  0  0  0  0  0  0  0
    0.8794   -0.7386   -1.3266 H   0  0  0  0  0  0  0  0  0  0  0  0
    0.0988    1.2788   -1.3856 C   0  0  0  0  0  0  0  0  0  0  0  0
   -0.5826    1.9028   -0.8012 H   0  0  0  0  0  0  0  0  0  0  0  0
    1.0860    1.7503   -1.3632 H   0  0  0  0  0  0  0  0  0  0  0  0
   -0.3744    1.2454   -2.8317 C   0  0  0  0  0  0  0  0  0  0  0  0
   -0.1607    0.3086   -3.5765 O   0  0  0  0  0  0  0  0  0  0  0  0
   -1.0864    2.2784   -3.3702 N   0  0  0  0  0  0  0  0  0  0  0  0
   -1.1875    2.2568   -4.3815 H   0  0  0  0  0  0  0  0  0  0  0  0
   -1.0874    3.1695   -2.8843 H   0  0  0  0  0  0  0  0  0  0  0  0
    0.8140    0.0319    0.6614 C   0  0  0  0  0  0  0  0  0  0  0  0
    2.0323    0.0307    0.7775 O   0  0  0  0  0  0  0  0  0  0  0  0
    0.0400    0.4912    1.7118 N   0  0  0  0  0  0  0  0  0  0  0  0
   -0.9597    0.3481    1.6088 H   0  0  0  0  0  0  0  0  0  0  0  0
    0.5768    0.6778    3.0541 C   0  0  0  0  0  0  0  0  0  0  0  0
    1.3891    1.4121    3.0444 H   0  0  0  0  0  0  0  0  0  0  0  0
   -0.2059    1.0400    3.7274 H   0  0  0  0  0  0  0  0  0  0  0  0
    0.9630   -0.2690    3.4465 H   0  0  0  0  0  0  0  0  0  0  0  0
  1  2  1  0  0  0  0
  2  3  1  0  0  0  0
  2  4  1  0  0  0  0
  2  5  1  0  0  0  0
  5  6  2  0  0  0  0
  5  7  1  0  0  0  0
  7  8  1  0  0  0  0
  7  9  1  0  0  0  0
  9 10  1  0  0  0  0
  9 11  1  0  0  0  0
  9 19  1  0  0  0  0
 11 12  1  0  0  0  0
 11 13  1  0  0  0  0
 11 14  1  0  0  0  0
 14 15  2  0  0  0  0
 14 16  1  0  0  0  0
 16 17  1  0  0  0  0
 16 18  1  0  0  0  0
 19 20  2  0  0  0  0
 19 21  1  0  0  0  0
 21 22  1  0  0  0  0
 21 23  1  0  0  0  0
 23 24  1  0  0  0  0
 23 25  1  0  0  0  0
 23 26  1  0  0  0  0
M  END
$$$$

  -OEChem-03222214023D

 26 25  0     1  0  0  0  0  0999 V2000
   -2.6534   -3.7706   -0.2637 H   0  0  0  0  0  0  0  0  0  0  0  0
   -2.6403   -2.7685   -0.7015 C   0  0  0  0  0  0  0  0  0  0  0  0
   -3.5234   -2.2231   -0.3604 H   0  0  0  0  0  0  0  0  0  0  0  0
   -2.6748   -2.8611   -1.7899 H   0  0  0  0  0  0  0  0  0  0  0  0
   -1.3811   -2.0324   -0.2842 C   0  0  0  0  0  0  0  0  0  0  0  0
   -0.5931   -2.5662    0.4764 O   0  0  0  0  0  0  0  0  0  0  0  0
   -1.1536   -0.7539   -0.7563 N   0  0  0  0  0  0  0  0  0  0  0  0
   -1.7592   -0.4905   -1.5310 H   0  0  0  0  0  0  0  0  0  0  0  0
    0.1784   -0.1170   -0.7417 C   0  0  1  0  0  0  0  0  0  0  0  0
    0.8668   -0.7365   -1.3295 H   0  0  0  0  0  0  0  0  0  0  0  0
    0.0875    1.2814   -1.3847 C   0  0  0  0  0  0  0  0  0  0  0  0
   -0.5928    1.9041   -0.7975 H   0  0  0  0  0  0  0  0  0  0  0  0
    1.0757    1.7507   -1.3603 H   0  0  0  0  0  0  0  0  0  0  0  0
   -0.3901    1.2651   -2.8310 C   0  0  0  0  0  0  0  0  0  0  0  0
   -0.4248    0.2563   -3.5105 O   0  0  0  0  0  0  0  0  0  0  0  0
   -0.8040    2.4085   -3.4513 N   0  0  0  0  0  0  0  0  0  0  0  0
   -0.9122    2.3455   -4.4601 H   0  0  0  0  0  0  0  0  0  0  0  0
   -0.5807    3.3012   -3.0231 H   0  0  0  0  0  0  0  0  0  0  0  0
    0.8099    0.0341    0.6593 C   0  0  0  0  0  0  0  0  0  0  0  0
    2.0290    0.0354    0.7678 O   0  0  0  0  0  0  0  0  0  0  0  0
    0.0407    0.4940    1.7130 N   0  0  0  0  0  0  0  0  0  0  0  0
   -0.9593    0.3484    1.6149 H   0  0  0  0  0  0  0  0  0  0  0  0
    0.5835    0.6818    3.0525 C   0  0  0  0  0  0  0  0  0  0  0  0
    1.3971    1.4146    3.0385 H   0  0  0  0  0  0  0  0  0  0  0  0
   -0.1957    1.0468    3.7283 H   0  0  0  0  0  0  0  0  0  0  0  0
    0.9693   -0.2654    3.4442 H   0  0  0  0  0  0  0  0  0  0  0  0
  1  2  1  0  0  0  0
  2  3  1  0  0  0  0
  2  4  1  0  0  0  0
  2  5  1  0  0  0  0
  5  6  2  0  0  0  0
  5  7  1  0  0  0  0
  7  8  1  0  0  0  0
  7  9  1  0  0  0  0
  9 10  1  0  0  0  0
  9 11  1  0  0  0  0
  9 19  1  0  0  0  0
 11 12  1  0  0  0  0
 11 13  1  0  0  0  0
 11 14  1  0  0  0  0
 14 15  2  0  0  0  0
 14 16  1  0  0  0  0
 16 17  1  0  0  0  0
 16 18  1  0  0  0  0
 19 20  2  0  0  0  0
 19 21  1  0  0  0  0
 21 22  1  0  0  0  0
 21 23  1  0  0  0  0
 23 24  1  0  0  0  0
 23 25  1  0  0  0  0
 23 26  1  0  0  0  0
M  END
$$$$

  -OEChem-03222214023D

 26 25  0     1  0  0  0  0  0999 V2000
   -2.6617   -3.7684   -0.2736 H   0  0  0  0  0  0  0  0  0  0  0  0
   -2.6423   -2.7671   -0.7135 C   0  0  0  0  0  0  0  0  0  0  0  0
   -3.5289   -2.2199   -0.3849 H   0  0  0  0  0  0  0  0  0  0  0  0
   -2.6631   -2.8618   -1.8022 H   0  0  0  0  0  0  0  0  0  0  0  0
   -1.3882   -2.0300   -0.2825 C   0  0  0  0  0  0  0  0  0  0  0  0
   -0.6058   -2.5635    0.4844 O   0  0  0  0  0  0  0  0  0  0  0  0
   -1.1558   -0.7528   -0.7549 N   0  0  0  0  0  0  0  0  0  0  0  0
   -1.7473   -0.4971   -1.5447 H   0  0  0  0  0  0  0  0  0  0  0  0
    0.1768   -0.1191   -0.7393 C   0  0  1  0  0  0  0  0  0  0  0  0
    0.8628   -0.7407   -1.3274 H   0  0  0  0  0  0  0  0  0  0  0  0
    0.0887    1.2804   -1.3821 C   0  0  0  0  0  0  0  0  0  0  0  0
   -0.5893    1.9052   -0.7947 H   0  0  0  0  0  0  0  0  0  0  0  0
    1.0792    1.7443   -1.3524 H   0  0  0  0  0  0  0  0  0  0  0  0
   -0.3873    1.2799   -2.8304 C   0  0  0  0  0  0  0  0  0  0  0  0
   -0.6784    0.2666   -3.4398 O   0  0  0  0  0  0  0  0  0  0  0  0
   -0.5150    2.4453   -3.5297 N   0  0  0  0  0  0  0  0  0  0  0  0
   -0.6559    2.3472   -4.5314 H   0  0  0  0  0  0  0  0  0  0  0  0
   -0.0846    3.2863   -3.1589 H   0  0  0  0  0  0  0  0  0  0  0  0
    0.8100    0.0337    0.6603 C   0  0  0  0  0  0  0  0  0  0  0  0
    2.0295    0.0347    0.7653 O   0  0  0  0  0  0  0  0  0  0  0  0
    0.0436    0.4972    1.7141 N   0  0  0  0  0  0  0  0  0  0  0  0
   -0.9577    0.3608    1.6161 H   0  0  0  0  0  0  0  0  0  0  0  0
    0.5891    0.6912    3.0514 C   0  0  0  0  0  0  0  0  0  0  0  0
    1.4016    1.4250    3.0321 H   0  0  0  0  0  0  0  0  0  0  0  0
   -0.1889    1.0580    3.7275 H   0  0  0  0  0  0  0  0  0  0  0  0
    0.9771   -0.2536    3.4464 H   0  0  0  0  0  0  0  0  0  0  0  0
  1  2  1  0  0  0  0
  2  3  1  0  0  0  0
  2  4  1  0  0  0  0
  2  5  1  0  0  0  0
  5  6  2  0  0  0  0
  5  7  1  0  0  0  0
  7  8  1  0  0  0  0
  7  9  1  0  0  0  0
  9 10  1  0  0  0  0
  9 11  1  0  0  0  0
  9 19  1  0  0  0  0
 11 12  1  0  0  0  0
 11 13  1  0  0  0  0
 11 14  1  0  0  0  0
 14 15  2  0  0  0  0
 14 16  1  0  0  0  0
 16 17  1  0  0  0  0
 16 18  1  0  0  0  0
 19 20  2  0  0  0  0
 19 21  1  0  0  0  0
 21 22  1  0  0  0  0
 21 23  1  0  0  0  0
 23 24  1  0  0  0  0
 23 25  1  0  0  0  0
 23 26  1  0  0  0  0
M  END
$$$$

  -OEChem-03222214023D

 26 25  0     1  0  0  0  0  0999 V2000
   -2.6543   -3.7705   -0.3005 H   0  0  0  0  0  0  0  0  0  0  0  0
   -2.6453   -2.7590   -0.7163 C   0  0  0  0  0  0  0  0  0  0  0  0
   -3.5279   -2.2229   -0.3598 H   0  0  0  0  0  0  0  0  0  0  0  0
   -2.6845   -2.8271   -1.8065 H   0  0  0  0  0  0  0  0  0  0  0  0
   -1.3864   -2.0282   -0.2885 C   0  0  0  0  0  0  0  0  0  0  0  0
   -0.5980   -2.5694    0.4670 O   0  0  0  0  0  0  0  0  0  0  0  0
   -1.1524   -0.7496   -0.7550 N   0  0  0  0  0  0  0  0  0  0  0  0
   -1.7457   -0.4849   -1.5423 H   0  0  0  0  0  0  0  0  0  0  0  0
    0.1777   -0.1126   -0.7366 C   0  0  1  0  0  0  0  0  0  0  0  0
    0.8643   -0.7348   -1.3229 H   0  0  0  0  0  0  0  0  0  0  0  0
    0.0924    1.2858   -1.3842 C   0  0  0  0  0  0  0  0  0  0  0  0
   -0.5875    1.9144   -0.8028 H   0  0  0  0  0  0  0  0  0  0  0  0
    1.0838    1.7473   -1.3476 H   0  0  0  0  0  0  0  0  0  0  0  0
   -0.3755    1.2893   -2.8363 C   0  0  0  0  0  0  0  0  0  0  0  0
   -0.9110    0.3341   -3.3709 O   0  0  0  0  0  0  0  0  0  0  0  0
   -0.2253    2.3953   -3.6220 N   0  0  0  0  0  0  0  0  0  0  0  0
   -0.3991    2.2632   -4.6145 H   0  0  0  0  0  0  0  0  0  0  0  0
    0.3884    3.1402   -3.3082 H   0  0  0  0  0  0  0  0  0  0  0  0
    0.8099    0.0373    0.6636 C   0  0  0  0  0  0  0  0  0  0  0  0
    2.0296    0.0408    0.7672 O   0  0  0  0  0  0  0  0  0  0  0  0
    0.0433    0.4952    1.7196 N   0  0  0  0  0  0  0  0  0  0  0  0
   -0.9583    0.3601    1.6211 H   0  0  0  0  0  0  0  0  0  0  0  0
    0.5890    0.6893    3.0568 C   0  0  0  0  0  0  0  0  0  0  0  0
    1.4012    1.4237    3.0375 H   0  0  0  0  0  0  0  0  0  0  0  0
   -0.1892    1.0555    3.7330 H   0  0  0  0  0  0  0  0  0  0  0  0
    0.9774   -0.2555    3.4513 H   0  0  0  0  0  0  0  0  0  0  0  0
  1  2  1  0  0  0  0
  2  3  1  0  0  0  0
  2  4  1  0  0  0  0
  2  5  1  0  0  0  0
  5  6  2  0  0  0  0
  5  7  1  0  0  0  0
  7  8  1  0  0  0  0
  7  9  1  0  0  0  0
  9 10  1  0  0  0  0
  9 11  1  0  0  0  0
  9 19  1  0  0  0  0
 11 12  1  0  0  0  0
 11 13  1  0  0  0  0
 11 14  1  0  0  0  0
 14 15  2  0  0  0  0
 14 16  1  0  0  0  0
 16 17  1  0  0  0  0
 16 18  1  0  0  0  0
 19 20  2  0  0  0  0
 19 21  1  0  0  0  0
 21 22  1  0  0  0  0
 21 23  1  0  0  0  0
 23 24  1  0  0  0  0
 23 25  1  0  0  0  0
 23 26  1  0  0  0  0
M  END
$$$$

  -OEChem-03222214023D

 26 25  0     1  0  0  0  0  0999 V2000
   -2.6375   -3.7745   -0.3389 H   0  0  0  0  0  0  0  0  0  0  0  0
   -2.6475   -2.7470   -0.7133 C   0  0  0  0  0  0  0  0  0  0  0  0
   -3.5187   -2.2304   -0.3036 H   0  0  0  0  0  0  0  0  0  0  0  0
   -2.7260   -2.7710   -1.8032 H   0  0  0  0  0  0  0  0  0  0  0  0
   -1.3770   -2.0273   -0.3017 C   0  0  0  0  0  0  0  0  0  0  0  0
   -0.5747   -2.5816    0.4293 O   0  0  0  0  0  0  0  0  0  0  0  0
   -1.1433   -0.7458   -0.7594 N   0  0  0  0  0  0  0  0  0  0  0  0
   -1.7535   -0.4571   -1.5265 H   0  0  0  0  0  0  0  0  0  0  0  0
    0.1830   -0.1021   -0.7364 C   0  0  1  0  0  0  0  0  0  0  0  0
    0.8727   -0.7216   -1.3216 H   0  0  0  0  0  0  0  0  0  0  0  0
    0.0977    1.2964   -1.3842 C   0  0  0  0  0  0  0  0  0  0  0  0
   -0.5871    1.9247   -0.8084 H   0  0  0  0  0  0  0  0  0  0  0  0
    1.0878    1.7598   -1.3394 H   0  0  0  0  0  0  0  0  0  0  0  0
   -0.3626    1.2962   -2.8391 C   0  0  0  0  0  0  0  0  0  0  0  0
   -1.1179    0.4571   -3.2992 O   0  0  0  0  0  0  0  0  0  0  0  0
    0.0499    2.2603   -3.7134 N   0  0  0  0  0  0  0  0  0  0  0  0
   -0.1646    2.0982   -4.6934 H   0  0  0  0  0  0  0  0  0  0  0  0
    0.8242    2.8631   -3.4537 H   0  0  0  0  0  0  0  0  0  0  0  0
    0.8113    0.0429    0.6657 C   0  0  0  0  0  0  0  0  0  0  0  0
    2.0309    0.0502    0.7713 O   0  0  0  0  0  0  0  0  0  0  0  0
    0.0403    0.4907    1.7227 N   0  0  0  0  0  0  0  0  0  0  0  0
   -0.9613    0.3584    1.6192 H   0  0  0  0  0  0  0  0  0  0  0  0
    0.5813    0.6812    3.0625 C   0  0  0  0  0  0  0  0  0  0  0  0
    1.3934    1.4156    3.0478 H   0  0  0  0  0  0  0  0  0  0  0  0
   -0.1994    1.0457    3.7370 H   0  0  0  0  0  0  0  0  0  0  0  0
    0.9683   -0.2647    3.4561 H   0  0  0  0  0  0  0  0  0  0  0  0
  1  2  1  0  0  0  0
  2  3  1  0  0  0  0
  2  4  1  0  0  0  0
  2  5  1  0  0  0  0
  5  6  2  0  0  0  0
  5  7  1  0  0  0  0
  7  8  1  0  0  0  0
  7  9  1  0  0  0  0
  9 10  1  0  0  0  0
  9 11  1  0  0  0  0
  9 19  1  0  0  0  0
 11 12  1  0  0  0  0
 11 13  1  0  0  0  0
 11 14  1  0  0  0  0
 14 15  2  0  0  0  0
 14 16  1  0  0  0  0
 16 17  1  0  0  0  0
 16 18  1  0  0  0  0
 19 20  2  0  0  0  0
 19 21  1  0  0  0  0
 21 22  1  0  0  0  0
 21 23  1  0  0  0  0
 23 24  1  0  0  0  0
 23 25  1  0  0  0  0
 23 26  1  0  0  0  0
M  END
$$$$

  -OEChem-03222214023D

 26 25  0     1  0  0  0  0  0999 V2000
   -2.6379   -3.7590   -0.3543 H   0  0  0  0  0  0  0  0  0  0  0  0
   -2.6467   -2.7280   -0.7190 C   0  0  0  0  0  0  0  0  0  0  0  0
   -3.5029   -2.2067   -0.2844 H   0  0  0  0  0  0  0  0  0  0  0  0
   -2.7512   -2.7406   -1.8069 H   0  0  0  0  0  0  0  0  0  0  0  0
   -1.3598   -2.0246   -0.3308 C   0  0  0  0  0  0  0  0  0  0  0  0
   -0.5400   -2.5963    0.3665 O   0  0  0  0  0  0  0  0  0  0  0  0
   -1.1286   -0.7372   -0.7718 N   0  0  0  0  0  0  0  0  0  0  0  0
   -1.7611   -0.4173   -1.5087 H   0  0  0  0  0  0  0  0  0  0  0  0
    0.1914   -0.0828   -0.7375 C   0  0  1  0  0  0  0  0  0  0  0  0
    0.8882   -0.6919   -1.3251 H   0  0  0  0  0  0  0  0  0  0  0  0
    0.0952    1.3182   -1.3757 C   0  0  0  0  0  0  0  0  0  0  0  0
   -0.6019    1.9361   -0.8033 H   0  0  0  0  0  0  0  0  0  0  0  0
    1.0781    1.7954   -1.3221 H   0  0  0  0  0  0  0  0  0  0  0  0
   -0.3593    1.3062   -2.8314 C   0  0  0  0  0  0  0  0  0  0  0  0
   -1.2942    0.6276   -3.2216 O   0  0  0  0  0  0  0  0  0  0  0  0
    0.2866    2.0351   -3.7882 N   0  0  0  0  0  0  0  0  0  0  0  0
    0.0369    1.8339   -4.7525 H   0  0  0  0  0  0  0  0  0  0  0  0
    1.1874    2.4487   -3.5695 H   0  0  0  0  0  0  0  0  0  0  0  0
    0.8143    0.0526    0.6676 C   0  0  0  0  0  0  0  0  0  0  0  0
    2.0335    0.0645    0.7762 O   0  0  0  0  0  0  0  0  0  0  0  0
    0.0379    0.4824    1.7281 N   0  0  0  0  0  0  0  0  0  0  0  0
   -0.9639    0.3575    1.6183 H   0  0  0  0  0  0  0  0  0  0  0  0
    0.5745    0.6661    3.0707 C   0  0  0  0  0  0  0  0  0  0  0  0
    1.3808    1.4072    3.0643 H   0  0  0  0  0  0  0  0  0  0  0  0
   -0.2103    1.0186    3.7467 H   0  0  0  0  0  0  0  0  0  0  0  0
    0.9685   -0.2798    3.4572 H   0  0  0  0  0  0  0  0  0  0  0  0
  1  2  1  0  0  0  0
  2  3  1  0  0  0  0
  2  4  1  0  0  0  0
  2  5  1  0  0  0  0
  5  6  2  0  0  0  0
  5  7  1  0  0  0  0
  7  8  1  0  0  0  0
  7  9  1  0  0  0  0
  9 10  1  0  0  0  0
  9 11  1  0  0  0  0
  9 19  1  0  0  0  0
 11 12  1  0  0  0  0
 11 13  1  0  0  0  0
 11 14  1  0  0  0  0
 14 15  2  0  0  0  0
 14 16  1  0  0  0  0
 16 17  1  0  0  0  0
 16 18  1  0  0  0  0
 19 20  2  0  0  0  0
 19 21  1  0  0  0  0
 21 22  1  0  0  0  0
 21 23  1  0  0  0  0
 23 24  1  0  0  0  0
 23 25  1  0  0  0  0
 23 26  1  0  0  0  0
M  END
$$$$

  -OEChem-03222214023D

 26 25  0     1  0  0  0  0  0999 V2000
   -2.6276   -3.7398   -0.3801 H   0  0  0  0  0  0  0  0  0  0  0  0
   -2.6411   -2.7012   -0.7224 C   0  0  0  0  0  0  0  0  0  0  0  0
   -3.4758   -2.1830   -0.2445 H   0  0  0  0  0  0  0  0  0  0  0  0
   -2.7866   -2.6897   -1.8055 H   0  0  0  0  0  0  0  0  0  0  0  0
   -1.3342   -2.0167   -0.3682 C   0  0  0  0  0  0  0  0  0  0  0  0
   -0.4938   -2.6104    0.2848 O   0  0  0  0  0  0  0  0  0  0  0  0
   -1.1038   -0.7231   -0.7916 N   0  0  0  0  0  0  0  0  0  0  0  0
   -1.7641   -0.3648   -1.4856 H   0  0  0  0  0  0  0  0  0  0  0  0
    0.2110   -0.0590   -0.7415 C   0  0  1  0  0  0  0  0  0  0  0  0
    0.9175   -0.6558   -1.3303 H   0  0  0  0  0  0  0  0  0  0  0  0
    0.0998    1.3441   -1.3680 C   0  0  0  0  0  0  0  0  0  0  0  0
   -0.6118    1.9494   -0.7998 H   0  0  0  0  0  0  0  0  0  0  0  0
    1.0728    1.8410   -1.3098 H   0  0  0  0  0  0  0  0  0  0  0  0
   -0.3484    1.3067   -2.8229 C   0  0  0  0  0  0  0  0  0  0  0  0
   -1.4183    0.8234   -3.1521 O   0  0  0  0  0  0  0  0  0  0  0  0
    0.4578    1.7354   -3.8380 N   0  0  0  0  0  0  0  0  0  0  0  0
    0.1635    1.4966   -4.7809 H   0  0  0  0  0  0  0  0  0  0  0  0
    1.4322    1.9434   -3.6431 H   0  0  0  0  0  0  0  0  0  0  0  0
    0.8225    0.0648    0.6691 C   0  0  0  0  0  0  0  0  0  0  0  0
    2.0407    0.0753    0.7885 O   0  0  0  0  0  0  0  0  0  0  0  0
    0.0348    0.4767    1.7281 N   0  0  0  0  0  0  0  0  0  0  0  0
   -0.9664    0.3607    1.6047 H   0  0  0  0  0  0  0  0  0  0  0  0
    0.5566    0.6470    3.0781 C   0  0  0  0  0  0  0  0  0  0  0  0
    1.3645    1.3864    3.0874 H   0  0  0  0  0  0  0  0  0  0  0  0
   -0.2351    0.9951    3.7482 H   0  0  0  0  0  0  0  0  0  0  0  0
    0.9441   -0.3032    3.4604 H   0  0  0  0  0  0  0  0  0  0  0  0
  1  2  1  0  0  0  0
  2  3  1  0  0  0  0
  2  4  1  0  0  0  0
  2  5  1  0  0  0  0
  5  6  2  0  0  0  0
  5  7  1  0  0  0  0
  7  8  1  0  0  0  0
  7  9  1  0  0  0  0
  9 10  1  0  0  0  0
  9 11  1  0  0  0  0
  9 19  1  0  0  0  0
 11 12  1  0  0  0  0
 11 13  1  0  0  0  0
 11 14  1  0  0  0  0
 14 15  2  0  0  0  0
 14 16  1  0  0  0  0
 16 17  1  0  0  0  0
 16 18  1  0  0  0  0
 19 20  2  0  0  0  0
 19 21  1  0  0  0  0
 21 22  1  0  0  0  0
 21 23  1  0  0  0  0
 23 24  1  0  0  0  0
 23 25  1  0  0  0  0
 23 26  1  0  0  0  0
M  END
$$$$

  -OEChem-03222214023D

 26 25  0     1  0  0  0  0  0999 V2000
   -2.6603   -3.7209   -0.3631 H   0  0  0  0  0  0  0  0  0  0  0  0
   -2.6551   -2.6845   -0.7128 C   0  0  0  0  0  0  0  0  0  0  0  0
   -3.4732   -2.1447   -0.2297 H   0  0  0  0  0  0  0  0  0  0  0  0
   -2.8125   -2.6778   -1.7942 H   0  0  0  0  0  0  0  0  0  0  0  0
   -1.3301   -2.0257   -0.3776 C   0  0  0  0  0  0  0  0  0  0  0  0
   -0.4935   -2.6322    0.2682 O   0  0  0  0  0  0  0  0  0  0  0  0
   -1.0802   -0.7373   -0.8053 N   0  0  0  0  0  0  0  0  0  0  0  0
   -1.7505   -0.3526   -1.4748 H   0  0  0  0  0  0  0  0  0  0  0  0
    0.2388   -0.0822   -0.7395 C   0  0  1  0  0  0  0  0  0  0  0  0
    0.9516   -0.6842   -1.3157 H   0  0  0  0  0  0  0  0  0  0  0  0
    0.1297    1.3126   -1.3780 C   0  0  0  0  0  0  0  0  0  0  0  0
   -0.5923    1.9228   -0.8279 H   0  0  0  0  0  0  0  0  0  0  0  0
    1.0985    1.8173   -1.3220 H   0  0  0  0  0  0  0  0  0  0  0  0
   -0.3038    1.2258   -2.8324 C   0  0  0  0  0  0  0  0  0  0  0  0
   -1.4591    0.9751   -3.1286 O   0  0  0  0  0  0  0  0  0  0  0  0
    0.5838    1.3444   -3.8632 N   0  0  0  0  0  0  0  0  0  0  0  0
    0.1998    1.3724   -4.8035 H   0  0  0  0  0  0  0  0  0  0  0  0
    1.5312    1.6605   -3.6801 H   0  0  0  0  0  0  0  0  0  0  0  0
    0.8317    0.0487    0.6781 C   0  0  0  0  0  0  0  0  0  0  0  0
    2.0481    0.0504    0.8141 O   0  0  0  0  0  0  0  0  0  0  0  0
    0.0336    0.4743    1.7238 N   0  0  0  0  0  0  0  0  0  0  0  0
   -0.9673    0.3715    1.5876 H   0  0  0  0  0  0  0  0  0  0  0  0
    0.5402    0.6560    3.0782 C   0  0  0  0  0  0  0  0  0  0  0  0
    1.3489    1.3943    3.0899 H   0  0  0  0  0  0  0  0  0  0  0  0
   -0.2588    1.0112    3.7361 H   0  0  0  0  0  0  0  0  0  0  0  0
    0.9220   -0.2914    3.4732 H   0  0  0  0  0  0  0  0  0  0  0  0
  1  2  1  0  0  0  0
  2  3  1  0  0  0  0
  2  4  1  0  0  0  0
  2  5  1  0  0  0  0
  5  6  2  0  0  0  0
  5  7  1  0  0  0  0
  7  8  1  0  0  0  0
  7  9  1  0  0  0  0
  9 10  1  0  0  0  0
  9 11  1  0  0  0  0
  9 19  1  0  0  0  0
 11 12  1  0  0  0  0
 11 13  1  0  0  0  0
 11 14  1  0  0  0  0
 14 15  2  0  0  0  0
 14 16  1  0  0  0  0
 16 17  1  0  0  0  0
 16 18  1  0  0  0  0
 19 20  2  0  0  0  0
 19 21  1  0  0  0  0
 21 22  1  0  0  0  0
 21 23  1  0  0  0  0
 23 24  1  0  0  0  0
 23 25  1  0  0  0  0
 23 26  1  0  0  0  0
M  END
$$$$

  -OEChem-03222214023D

 26 25  0     1  0  0  0  0  0999 V2000
   -2.6657   -3.7120   -0.3507 H   0  0  0  0  0  0  0  0  0  0  0  0
   -2.6593   -2.6747   -0.6971 C   0  0  0  0  0  0  0  0  0  0  0  0
   -3.4583   -2.1284   -0.1902 H   0  0  0  0  0  0  0  0  0  0  0  0
   -2.8460   -2.6626   -1.7738 H   0  0  0  0  0  0  0  0  0  0  0  0
   -1.3188   -2.0312   -0.3964 C   0  0  0  0  0  0  0  0  0  0  0  0
   -0.4674   -2.6518    0.2156 O   0  0  0  0  0  0  0  0  0  0  0  0
   -1.0679   -0.7415   -0.8197 N   0  0  0  0  0  0  0  0  0  0  0  0
   -1.7654   -0.3256   -1.4392 H   0  0  0  0  0  0  0  0  0  0  0  0
    0.2493   -0.0827   -0.7441 C   0  0  1  0  0  0  0  0  0  0  0  0
    0.9680   -0.6813   -1.3159 H   0  0  0  0  0  0  0  0  0  0  0  0
    0.1308    1.3077   -1.3849 C   0  0  0  0  0  0  0  0  0  0  0  0
   -0.5991    1.9148   -0.8413 H   0  0  0  0  0  0  0  0  0  0  0  0
    1.0945    1.8228   -1.3329 H   0  0  0  0  0  0  0  0  0  0  0  0
   -0.2947    1.1923   -2.8376 C   0  0  0  0  0  0  0  0  0  0  0  0
   -1.4740    1.1921   -3.1411 O   0  0  0  0  0  0  0  0  0  0  0  0
    0.6081    1.0352   -3.8501 N   0  0  0  0  0  0  0  0  0  0  0  0
    0.2479    1.0982   -4.7982 H   0  0  0  0  0  0  0  0  0  0  0  0
    1.5964    1.1766   -3.6646 H   0  0  0  0  0  0  0  0  0  0  0  0
    0.8342    0.0486    0.6767 C   0  0  0  0  0  0  0  0  0  0  0  0
    2.0496    0.0470    0.8196 O   0  0  0  0  0  0  0  0  0  0  0  0
    0.0305    0.4710    1.7197 N   0  0  0  0  0  0  0  0  0  0  0  0
   -0.9705    0.3814    1.5760 H   0  0  0  0  0  0  0  0  0  0  0  0
    0.5296    0.6531    3.0769 C   0  0  0  0  0  0  0  0  0  0  0  0
    1.3356    1.3942    3.0938 H   0  0  0  0  0  0  0  0  0  0  0  0
   -0.2738    1.0047    3.7311 H   0  0  0  0  0  0  0  0  0  0  0  0
    0.9126   -0.2932    3.4733 H   0  0  0  0  0  0  0  0  0  0  0  0
  1  2  1  0  0  0  0
  2  3  1  0  0  0  0
  2  4  1  0  0  0  0
  2  5  1  0  0  0  0
  5  6  2  0  0  0  0
  5  7  1  0  0  0  0
  7  8  1  0  0  0  0
  7  9  1  0  0  0  0
  9 10  1  0  0  0  0
  9 11  1  0  0  0  0
  9 19  1  0  0  0  0
 11 12  1  0  0  0  0
 11 13  1  0  0  0  0
 11 14  1  0  0  0  0
 14 15  2  0  0  0  0
 14 16  1  0  0  0  0
 16 17  1  0  0  0  0
 16 18  1  0  0  0  0
 19 20  2  0  0  0  0
 19 21  1  0  0  0  0
 21 22  1  0  0  0  0
 21 23  1  0  0  0  0
 23 24  1  0  0  0  0
 23 25  1  0  0  0  0
 23 26  1  0  0  0  0
M  END
$$$$

  -OEChem-03222214023D

 26 25  0     1  0  0  0  0  0999 V2000
   -2.6704   -3.7193   -0.3256 H   0  0  0  0  0  0  0  0  0  0  0  0
   -2.6696   -2.6787   -0.6628 C   0  0  0  0  0  0  0  0  0  0  0  0
   -3.4495   -2.1334   -0.1260 H   0  0  0  0  0  0  0  0  0  0  0  0
   -2.8898   -2.6561   -1.7329 H   0  0  0  0  0  0  0  0  0  0  0  0
   -1.3169   -2.0449   -0.3981 C   0  0  0  0  0  0  0  0  0  0  0  0
   -0.4517   -2.6739    0.1850 O   0  0  0  0  0  0  0  0  0  0  0  0
   -1.0678   -0.7557   -0.8250 N   0  0  0  0  0  0  0  0  0  0  0  0
   -1.7910   -0.3161   -1.3946 H   0  0  0  0  0  0  0  0  0  0  0  0
    0.2484   -0.0945   -0.7490 C   0  0  1  0  0  0  0  0  0  0  0  0
    0.9690   -0.6969   -1.3147 H   0  0  0  0  0  0  0  0  0  0  0  0
    0.1300    1.2906   -1.3993 C   0  0  0  0  0  0  0  0  0  0  0  0
   -0.6005    1.9013   -0.8601 H   0  0  0  0  0  0  0  0  0  0  0  0
    1.0934    1.8063   -1.3506 H   0  0  0  0  0  0  0  0  0  0  0  0
   -0.2900    1.1656   -2.8530 C   0  0  0  0  0  0  0  0  0  0  0  0
   -1.4263    1.4281   -3.1987 O   0  0  0  0  0  0  0  0  0  0  0  0
    0.5777    0.7700   -3.8306 N   0  0  0  0  0  0  0  0  0  0  0  0
    0.2608    0.8865   -4.7890 H   0  0  0  0  0  0  0  0  0  0  0  0
    1.5706    0.7265   -3.6224 H   0  0  0  0  0  0  0  0  0  0  0  0
    0.8302    0.0419    0.6727 C   0  0  0  0  0  0  0  0  0  0  0  0
    2.0450    0.0312    0.8195 O   0  0  0  0  0  0  0  0  0  0  0  0
    0.0251    0.4664    1.7139 N   0  0  0  0  0  0  0  0  0  0  0  0
   -0.9764    0.3928    1.5659 H   0  0  0  0  0  0  0  0  0  0  0  0
    0.5212    0.6547    3.0713 C   0  0  0  0  0  0  0  0  0  0  0  0
    1.3285    1.3944    3.0863 H   0  0  0  0  0  0  0  0  0  0  0  0
   -0.2832    1.0112    3.7217 H   0  0  0  0  0  0  0  0  0  0  0  0
    0.9014   -0.2903    3.4734 H   0  0  0  0  0  0  0  0  0  0  0  0
  1  2  1  0  0  0  0
  2  3  1  0  0  0  0
  2  4  1  0  0  0  0
  2  5  1  0  0  0  0
  5  6  2  0  0  0  0
  5  7  1  0  0  0  0
  7  8  1  0  0  0  0
  7  9  1  0  0  0  0
  9 10  1  0  0  0  0
  9 11  1  0  0  0  0
  9 19  1  0  0  0  0
 11 12  1  0  0  0  0
 11 13  1  0  0  0  0
 11 14  1  0  0  0  0
 14 15  2  0  0  0  0
 14 16  1  0  0  0  0
 16 17  1  0  0  0  0
 16 18  1  0  0  0  0
 19 20  2  0  0  0  0
 19 21  1  0  0  0  0
 21 22  1  0  0  0  0
 21 23  1  0  0  0  0
 23 24  1  0  0  0  0
 23 25  1  0  0  0  0
 23 26  1  0  0  0  0
M  END
$$$$

  -OEChem-03222214023D

 26 25  0     1  0  0  0  0  0999 V2000
   -2.6847   -3.7216   -0.2562 H   0  0  0  0  0  0  0  0  0  0  0  0
   -2.6846   -2.6866   -0.6101 C   0  0  0  0  0  0  0  0  0  0  0  0
   -3.4419   -2.1257   -0.0573 H   0  0  0  0  0  0  0  0  0  0  0  0
   -2.9386   -2.6791   -1.6729 H   0  0  0  0  0  0  0  0  0  0  0  0
   -1.3178   -2.0630   -0.3983 C   0  0  0  0  0  0  0  0  0  0  0  0
   -0.4345   -2.7000    0.1472 O   0  0  0  0  0  0  0  0  0  0  0  0
   -1.0750   -0.7735   -0.8293 N   0  0  0  0  0  0  0  0  0  0  0  0
   -1.8210   -0.3163   -1.3514 H   0  0  0  0  0  0  0  0  0  0  0  0
    0.2394   -0.1075   -0.7568 C   0  0  1  0  0  0  0  0  0  0  0  0
    0.9613   -0.7132   -1.3170 H   0  0  0  0  0  0  0  0  0  0  0  0
    0.1256    1.2757   -1.4139 C   0  0  0  0  0  0  0  0  0  0  0  0
   -0.6026    1.8895   -0.8753 H   0  0  0  0  0  0  0  0  0  0  0  0
    1.0916    1.7868   -1.3649 H   0  0  0  0  0  0  0  0  0  0  0  0
   -0.2901    1.1596   -2.8704 C   0  0  0  0  0  0  0  0  0  0  0  0
   -1.3157    1.6729   -3.2728 O   0  0  0  0  0  0  0  0  0  0  0  0
    0.4921    0.5436   -3.8056 N   0  0  0  0  0  0  0  0  0  0  0  0
    0.2379    0.7070   -4.7759 H   0  0  0  0  0  0  0  0  0  0  0  0
    1.4505    0.3095   -3.5648 H   0  0  0  0  0  0  0  0  0  0  0  0
    0.8206    0.0334    0.6649 C   0  0  0  0  0  0  0  0  0  0  0  0
    2.0350    0.0184    0.8131 O   0  0  0  0  0  0  0  0  0  0  0  0
    0.0152    0.4571    1.7060 N   0  0  0  0  0  0  0  0  0  0  0  0
   -0.9866    0.3932    1.5564 H   0  0  0  0  0  0  0  0  0  0  0  0
    0.5114    0.6516    3.0626 C   0  0  0  0  0  0  0  0  0  0  0  0
    1.3129    1.3979    3.0756 H   0  0  0  0  0  0  0  0  0  0  0  0
   -0.2952    1.0025    3.7134 H   0  0  0  0  0  0  0  0  0  0  0  0
    0.8997   -0.2897    3.4659 H   0  0  0  0  0  0  0  0  0  0  0  0
  1  2  1  0  0  0  0
  2  3  1  0  0  0  0
  2  4  1  0  0  0  0
  2  5  1  0  0  0  0
  5  6  2  0  0  0  0
  5  7  1  0  0  0  0
  7  8  1  0  0  0  0
  7  9  1  0  0  0  0
  9 10  1  0  0  0  0
  9 11  1  0  0  0  0
  9 19  1  0  0  0  0
 11 12  1  0  0  0  0
 11 13  1  0  0  0  0
 11 14  1  0  0  0  0
 14 15  2  0  0  0  0
 14 16  1  0  0  0  0
 16 17  1  0  0  0  0
 16 18  1  0  0  0  0
 19 20  2  0  0  0  0
 19 21  1  0  0  0  0
 21 22  1  0  0  0  0
 21 23  1  0  0  0  0
 23 24  1  0  0  0  0
 23 25  1  0  0  0  0
 23 26  1  0  0  0  0
M  END
$$$$

  -OEChem-03222214023D

 26 25  0     1  0  0  0  0  0999 V2000
   -2.6937   -3.7301   -0.2170 H   0  0  0  0  0  0  0  0  0  0  0  0
   -2.6958   -2.6953   -0.5715 C   0  0  0  0  0  0  0  0  0  0  0  0
   -3.4362   -2.1295   -0.0010 H   0  0  0  0  0  0  0  0  0  0  0  0
   -2.9753   -2.6872   -1.6279 H   0  0  0  0  0  0  0  0  0  0  0  0
   -1.3206   -2.0796   -0.3928 C   0  0  0  0  0  0  0  0  0  0  0  0
   -0.4267   -2.7226    0.1277 O   0  0  0  0  0  0  0  0  0  0  0  0
   -1.0815   -0.7906   -0.8277 N   0  0  0  0  0  0  0  0  0  0  0  0
   -1.8433   -0.3207   -1.3128 H   0  0  0  0  0  0  0  0  0  0  0  0
    0.2315   -0.1212   -0.7594 C   0  0  1  0  0  0  0  0  0  0  0  0
    0.9551   -0.7286   -1.3149 H   0  0  0  0  0  0  0  0  0  0  0  0
    0.1186    1.2616   -1.4203 C   0  0  0  0  0  0  0  0  0  0  0  0
   -0.6063    1.8759   -0.8783 H   0  0  0  0  0  0  0  0  0  0  0  0
    1.0870    1.7681   -1.3702 H   0  0  0  0  0  0  0  0  0  0  0  0
   -0.2971    1.1678   -2.8802 C   0  0  0  0  0  0  0  0  0  0  0  0
   -1.1539    1.8990   -3.3356 O   0  0  0  0  0  0  0  0  0  0  0  0
    0.3334    0.3524   -3.7771 N   0  0  0  0  0  0  0  0  0  0  0  0
    0.1409    0.5446   -4.7563 H   0  0  0  0  0  0  0  0  0  0  0  0
    1.2158   -0.0735   -3.5113 H   0  0  0  0  0  0  0  0  0  0  0  0
    0.8121    0.0233    0.6626 C   0  0  0  0  0  0  0  0  0  0  0  0
    2.0260    0.0051    0.8121 O   0  0  0  0  0  0  0  0  0  0  0  0
    0.0068    0.4471    1.7040 N   0  0  0  0  0  0  0  0  0  0  0  0
   -0.9954    0.3954    1.5536 H   0  0  0  0  0  0  0  0  0  0  0  0
    0.5051    0.6558    3.0577 C   0  0  0  0  0  0  0  0  0  0  0  0
    1.3054    1.4034    3.0613 H   0  0  0  0  0  0  0  0  0  0  0  0
   -0.3005    1.0122    3.7065 H   0  0  0  0  0  0  0  0  0  0  0  0
    0.8953   -0.2807    3.4700 H   0  0  0  0  0  0  0  0  0  0  0  0
  1  2  1  0  0  0  0
  2  3  1  0  0  0  0
  2  4  1  0  0  0  0
  2  5  1  0  0  0  0
  5  6  2  0  0  0  0
  5  7  1  0  0  0  0
  7  8  1  0  0  0  0
  7  9  1  0  0  0  0
  9 10  1  0  0  0  0
  9 11  1  0  0  0  0
  9 19  1  0  0  0  0
 11 12  1  0  0  0  0
 11 13  1  0  0  0  0
 11 14  1  0  0  0  0
 14 15  2  0  0  0  0
 14 16  1  0  0  0  0
 16 17  1  0  0  0  0
 16 18  1  0  0  0  0
 19 20  2  0  0  0  0
 19 21  1  0  0  0  0
 21 22  1  0  0  0  0
 21 23  1  0  0  0  0
 23 24  1  0  0  0  0
 23 25  1  0  0  0  0
 23 26  1  0  0  0  0
M  END
$$$$

  -OEChem-03222214023D

 26 25  0     1  0  0  0  0  0999 V2000
   -2.6894   -3.7316   -0.1838 H   0  0  0  0  0  0  0  0  0  0  0  0
   -2.6946   -2.6984   -0.5428 C   0  0  0  0  0  0  0  0  0  0  0  0
   -3.4248   -2.1286    0.0367 H   0  0  0  0  0  0  0  0  0  0  0  0
   -2.9903   -2.6942   -1.5948 H   0  0  0  0  0  0  0  0  0  0  0  0
   -1.3155   -2.0854   -0.3884 C   0  0  0  0  0  0  0  0  0  0  0  0
   -0.4107   -2.7336    0.1056 O   0  0  0  0  0  0  0  0  0  0  0  0
   -1.0825   -0.7958   -0.8252 N   0  0  0  0  0  0  0  0  0  0  0  0
   -1.8547   -0.3199   -1.2861 H   0  0  0  0  0  0  0  0  0  0  0  0
    0.2282   -0.1217   -0.7599 C   0  0  1  0  0  0  0  0  0  0  0  0
    0.9552   -0.7277   -1.3119 H   0  0  0  0  0  0  0  0  0  0  0  0
    0.1160    1.2608   -1.4237 C   0  0  0  0  0  0  0  0  0  0  0  0
   -0.6076    1.8742   -0.8791 H   0  0  0  0  0  0  0  0  0  0  0  0
    1.0858    1.7642   -1.3697 H   0  0  0  0  0  0  0  0  0  0  0  0
   -0.2983    1.1922   -2.8873 C   0  0  0  0  0  0  0  0  0  0  0  0
   -0.9368    2.0912   -3.3965 O   0  0  0  0  0  0  0  0  0  0  0  0
    0.0938    0.1943   -3.7348 N   0  0  0  0  0  0  0  0  0  0  0  0
   -0.0413    0.3840   -4.7242 H   0  0  0  0  0  0  0  0  0  0  0  0
    0.8366   -0.4313   -3.4396 H   0  0  0  0  0  0  0  0  0  0  0  0
    0.8069    0.0245    0.6629 C   0  0  0  0  0  0  0  0  0  0  0  0
    2.0200   -0.0022    0.8164 O   0  0  0  0  0  0  0  0  0  0  0  0
   -0.0002    0.4455    1.7042 N   0  0  0  0  0  0  0  0  0  0  0  0
   -1.0022    0.4038    1.5504 H   0  0  0  0  0  0  0  0  0  0  0  0
    0.4955    0.6528    3.0592 C   0  0  0  0  0  0  0  0  0  0  0  0
    1.2913    1.4052    3.0665 H   0  0  0  0  0  0  0  0  0  0  0  0
   -0.3130    1.0020    3.7085 H   0  0  0  0  0  0  0  0  0  0  0  0
    0.8913   -0.2825    3.4688 H   0  0  0  0  0  0  0  0  0  0  0  0
  1  2  1  0  0  0  0
  2  3  1  0  0  0  0
  2  4  1  0  0  0  0
  2  5  1  0  0  0  0
  5  6  2  0  0  0  0
  5  7  1  0  0  0  0
  7  8  1  0  0  0  0
  7  9  1  0  0  0  0
  9 10  1  0  0  0  0
  9 11  1  0  0  0  0
  9 19  1  0  0  0  0
 11 12  1  0  0  0  0
 11 13  1  0  0  0  0
 11 14  1  0  0  0  0
 14 15  2  0  0  0  0
 14 16  1  0  0  0  0
 16 17  1  0  0  0  0
 16 18  1  0  0  0  0
 19 20  2  0  0  0  0
 19 21  1  0  0  0  0
 21 22  1  0  0  0  0
 21 23  1  0  0  0  0
 23 24  1  0  0  0  0
 23 25  1  0  0  0  0
 23 26  1  0  0  0  0
M  END
$$$$

  -OEChem-03222214023D

 26 25  0     1  0  0  0  0  0999 V2000
   -2.6791   -3.7316   -0.1545 H   0  0  0  0  0  0  0  0  0  0  0  0
   -2.6885   -2.6987   -0.5147 C   0  0  0  0  0  0  0  0  0  0  0  0
   -3.4057   -2.1265    0.0786 H   0  0  0  0  0  0  0  0  0  0  0  0
   -3.0045   -2.6946   -1.5607 H   0  0  0  0  0  0  0  0  0  0  0  0
   -1.3051   -2.0891   -0.3880 C   0  0  0  0  0  0  0  0  0  0  0  0
   -0.3899   -2.7417    0.0797 O   0  0  0  0  0  0  0  0  0  0  0  0
   -1.0782   -0.7988   -0.8260 N   0  0  0  0  0  0  0  0  0  0  0  0
   -1.8596   -0.3179   -1.2652 H   0  0  0  0  0  0  0  0  0  0  0  0
    0.2296   -0.1177   -0.7621 C   0  0  1  0  0  0  0  0  0  0  0  0
    0.9623   -0.7191   -1.3123 H   0  0  0  0  0  0  0  0  0  0  0  0
    0.1169    1.2653   -1.4273 C   0  0  0  0  0  0  0  0  0  0  0  0
   -0.6069    1.8773   -0.8818 H   0  0  0  0  0  0  0  0  0  0  0  0
    1.0875    1.7669   -1.3685 H   0  0  0  0  0  0  0  0  0  0  0  0
   -0.2942    1.2185   -2.8942 C   0  0  0  0  0  0  0  0  0  0  0  0
   -0.6819    2.2201   -3.4607 O   0  0  0  0  0  0  0  0  0  0  0  0
   -0.1957    0.1032   -3.6791 N   0  0  0  0  0  0  0  0  0  0  0  0
   -0.2775    0.2660   -4.6792 H   0  0  0  0  0  0  0  0  0  0  0  0
    0.3515   -0.6819   -3.3404 H   0  0  0  0  0  0  0  0  0  0  0  0
    0.8042    0.0304    0.6626 C   0  0  0  0  0  0  0  0  0  0  0  0
    2.0160   -0.0043    0.8232 O   0  0  0  0  0  0  0  0  0  0  0  0
   -0.0068    0.4471    1.7028 N   0  0  0  0  0  0  0  0  0  0  0  0
   -1.0082    0.4157    1.5433 H   0  0  0  0  0  0  0  0  0  0  0  0
    0.4846    0.6450    3.0608 C   0  0  0  0  0  0  0  0  0  0  0  0
    1.2774    1.4005    3.0763 H   0  0  0  0  0  0  0  0  0  0  0  0
   -0.3269    0.9849    3.7111 H   0  0  0  0  0  0  0  0  0  0  0  0
    0.8834   -0.2924    3.4628 H   0  0  0  0  0  0  0  0  0  0  0  0
  1  2  1  0  0  0  0
  2  3  1  0  0  0  0
  2  4  1  0  0  0  0
  2  5  1  0  0  0  0
  5  6  2  0  0  0  0
  5  7  1  0  0  0  0
  7  8  1  0  0  0  0
  7  9  1  0  0  0  0
  9 10  1  0  0  0  0
  9 11  1  0  0  0  0
  9 19  1  0  0  0  0
 11 12  1  0  0  0  0
 11 13  1  0  0  0  0
 11 14  1  0  0  0  0
 14 15  2  0  0  0  0
 14 16  1  0  0  0  0
 16 17  1  0  0  0  0
 16 18  1  0  0  0  0
 19 20  2  0  0  0  0
 19 21  1  0  0  0  0
 21 22  1  0  0  0  0
 21 23  1  0  0  0  0
 23 24  1  0  0  0  0
 23 25  1  0  0  0  0
 23 26  1  0  0  0  0
M  END
$$$$

  -OEChem-03222214023D

 26 25  0     1  0  0  0  0  0999 V2000
   -2.6554   -3.7762   -0.0564 H   0  0  0  0  0  0  0  0  0  0  0  0
   -2.6926   -2.7434   -0.4150 C   0  0  0  0  0  0  0  0  0  0  0  0
   -3.3835   -2.1779    0.2148 H   0  0  0  0  0  0  0  0  0  0  0  0
   -3.0622   -2.7419   -1.4434 H   0  0  0  0  0  0  0  0  0  0  0  0
   -1.3099   -2.1217   -0.3590 C   0  0  0  0  0  0  0  0  0  0  0  0
   -0.3620   -2.7725    0.0399 O   0  0  0  0  0  0  0  0  0  0  0  0
   -1.1203   -0.8227   -0.7894 N   0  0  0  0  0  0  0  0  0  0  0  0
   -1.9387   -0.3279   -1.1372 H   0  0  0  0  0  0  0  0  0  0  0  0
    0.1746   -0.1131   -0.7490 C   0  0  1  0  0  0  0  0  0  0  0  0
    0.8944   -0.7164   -1.3150 H   0  0  0  0  0  0  0  0  0  0  0  0
    0.0853    1.2683   -1.4329 C   0  0  0  0  0  0  0  0  0  0  0  0
   -0.4341    1.9602   -0.7638 H   0  0  0  0  0  0  0  0  0  0  0  0
    1.1000    1.6512   -1.5786 H   0  0  0  0  0  0  0  0  0  0  0  0
   -0.6350    1.3150   -2.7780 C   0  0  0  0  0  0  0  0  0  0  0  0
   -0.7506    2.3629   -3.3799 O   0  0  0  0  0  0  0  0  0  0  0  0
   -1.0168    0.2097   -3.4860 N   0  0  0  0  0  0  0  0  0  0  0  0
   -1.1921    0.3794   -4.4731 H   0  0  0  0  0  0  0  0  0  0  0  0
   -0.6369   -0.6862   -3.1951 H   0  0  0  0  0  0  0  0  0  0  0  0
    0.7805    0.0353    0.6631 C   0  0  0  0  0  0  0  0  0  0  0  0
    1.9958    0.0254    0.7965 O   0  0  0  0  0  0  0  0  0  0  0  0
   -0.0139    0.4252    1.7264 N   0  0  0  0  0  0  0  0  0  0  0  0
   -1.0180    0.3773    1.5918 H   0  0  0  0  0  0  0  0  0  0  0  0
    0.5072    0.6370    3.0714 C   0  0  0  0  0  0  0  0  0  0  0  0
    1.2816    1.4117    3.0664 H   0  0  0  0  0  0  0  0  0  0  0  0
   -0.2956    0.9584    3.7418 H   0  0  0  0  0  0  0  0  0  0  0  0
    0.9390   -0.2896    3.4643 H   0  0  0  0  0  0  0  0  0  0  0  0
  1  2  1  0  0  0  0
  2  3  1  0  0  0  0
  2  4  1  0  0  0  0
  2  5  1  0  0  0  0
  5  6  2  0  0  0  0
  5  7  1  0  0  0  0
  7  8  1  0  0  0  0
  7  9  1  0  0  0  0
  9 10  1  0  0  0  0
  9 11  1  0  0  0  0
  9 19  1  0  0  0  0
 11 12  1  0  0  0  0
 11 13  1  0  0  0  0
 11 14  1  0  0  0  0
 14 15  2  0  0  0  0
 14 16  1  0  0  0  0
 16 17  1  0  0  0  0
 16 18  1  0  0  0  0
 19 20  2  0  0  0  0
 19 21  1  0  0  0  0
 21 22  1  0  0  0  0
 21 23  1  0  0  0  0
 23 24  1  0  0  0  0
 23 25  1  0  0  0  0
 23 26  1  0  0  0  0
M  END
$$$$

  -OEChem-03222214023D

 26 25  0     1  0  0  0  0  0999 V2000
   -2.6355   -3.7778   -0.0032 H   0  0  0  0  0  0  0  0  0  0  0  0
   -2.6874   -2.7449   -0.3598 C   0  0  0  0  0  0  0  0  0  0  0  0
   -3.3436   -2.1772    0.3043 H   0  0  0  0  0  0  0  0  0  0  0  0
   -3.1094   -2.7426   -1.3678 H   0  0  0  0  0  0  0  0  0  0  0  0
   -1.3011   -2.1287   -0.3742 C   0  0  0  0  0  0  0  0  0  0  0  0
   -0.3362   -2.7872   -0.0340 O   0  0  0  0  0  0  0  0  0  0  0  0
   -1.1300   -0.8238   -0.7959 N   0  0  0  0  0  0  0  0  0  0  0  0
   -1.9703   -0.3064   -1.0448 H   0  0  0  0  0  0  0  0  0  0  0  0
    0.1597   -0.1034   -0.7569 C   0  0  1  0  0  0  0  0  0  0  0  0
    0.8799   -0.6998   -1.3302 H   0  0  0  0  0  0  0  0  0  0  0  0
    0.0731    1.2842   -1.4327 C   0  0  0  0  0  0  0  0  0  0  0  0
   -0.4447    1.9704   -0.7570 H   0  0  0  0  0  0  0  0  0  0  0  0
    1.0906    1.6646   -1.5685 H   0  0  0  0  0  0  0  0  0  0  0  0
   -0.6409    1.3630   -2.7814 C   0  0  0  0  0  0  0  0  0  0  0  0
   -0.5158    2.3432   -3.4867 O   0  0  0  0  0  0  0  0  0  0  0  0
   -1.2579    0.3119   -3.3991 N   0  0  0  0  0  0  0  0  0  0  0  0
   -1.3943    0.4426   -4.3983 H   0  0  0  0  0  0  0  0  0  0  0  0
   -1.0353   -0.6159   -3.0507 H   0  0  0  0  0  0  0  0  0  0  0  0
    0.7696    0.0361    0.6544 C   0  0  0  0  0  0  0  0  0  0  0  0
    1.9849    0.0310    0.7854 O   0  0  0  0  0  0  0  0  0  0  0  0
   -0.0231    0.4091    1.7252 N   0  0  0  0  0  0  0  0  0  0  0  0
   -1.0278    0.3700    1.5934 H   0  0  0  0  0  0  0  0  0  0  0  0
    0.5046    0.6163    3.0684 C   0  0  0  0  0  0  0  0  0  0  0  0
    1.2638    1.4056    3.0648 H   0  0  0  0  0  0  0  0  0  0  0  0
   -0.2982    0.9146    3.7492 H   0  0  0  0  0  0  0  0  0  0  0  0
    0.9574   -0.3060    3.4474 H   0  0  0  0  0  0  0  0  0  0  0  0
  1  2  1  0  0  0  0
  2  3  1  0  0  0  0
  2  4  1  0  0  0  0
  2  5  1  0  0  0  0
  5  6  2  0  0  0  0
  5  7  1  0  0  0  0
  7  8  1  0  0  0  0
  7  9  1  0  0  0  0
  9 10  1  0  0  0  0
  9 11  1  0  0  0  0
  9 19  1  0  0  0  0
 11 12  1  0  0  0  0
 11 13  1  0  0  0  0
 11 14  1  0  0  0  0
 14 15  2  0  0  0  0
 14 16  1  0  0  0  0
 16 17  1  0  0  0  0
 16 18  1  0  0  0  0
 19 20  2  0  0  0  0
 19 21  1  0  0  0  0
 21 22  1  0  0  0  0
 21 23  1  0  0  0  0
 23 24  1  0  0  0  0
 23 25  1  0  0  0  0
 23 26  1  0  0  0  0
M  END
$$$$

  -OEChem-03222214023D

 26 25  0     1  0  0  0  0  0999 V2000
   -2.5984   -3.7682    0.0500 H   0  0  0  0  0  0  0  0  0  0  0  0
   -2.6668   -2.7375   -0.3104 C   0  0  0  0  0  0  0  0  0  0  0  0
   -3.2815   -2.1625    0.3864 H   0  0  0  0  0  0  0  0  0  0  0  0
   -3.1455   -2.7407   -1.2928 H   0  0  0  0  0  0  0  0  0  0  0  0
   -1.2812   -2.1274   -0.4085 C   0  0  0  0  0  0  0  0  0  0  0  0
   -0.3001   -2.7949   -0.1404 O   0  0  0  0  0  0  0  0  0  0  0  0
   -1.1324   -0.8148   -0.8169 N   0  0  0  0  0  0  0  0  0  0  0  0
   -1.9879   -0.2748   -0.9270 H   0  0  0  0  0  0  0  0  0  0  0  0
    0.1529   -0.0860   -0.7688 C   0  0  1  0  0  0  0  0  0  0  0  0
    0.8753   -0.6773   -1.3454 H   0  0  0  0  0  0  0  0  0  0  0  0
    0.0776    1.3058   -1.4392 C   0  0  0  0  0  0  0  0  0  0  0  0
   -0.4466    1.9882   -0.7648 H   0  0  0  0  0  0  0  0  0  0  0  0
    1.0982    1.6847   -1.5562 H   0  0  0  0  0  0  0  0  0  0  0  0
   -0.6193    1.4047   -2.7970 C   0  0  0  0  0  0  0  0  0  0  0  0
   -0.2789    2.2457   -3.6039 O   0  0  0  0  0  0  0  0  0  0  0  0
   -1.5005    0.4908   -3.3002 N   0  0  0  0  0  0  0  0  0  0  0  0
   -1.6371    0.5748   -4.3044 H   0  0  0  0  0  0  0  0  0  0  0  0
   -1.4561   -0.4384   -2.8944 H   0  0  0  0  0  0  0  0  0  0  0  0
    0.7603    0.0387    0.6454 C   0  0  0  0  0  0  0  0  0  0  0  0
    1.9748    0.0326    0.7812 O   0  0  0  0  0  0  0  0  0  0  0  0
   -0.0359    0.3922    1.7207 N   0  0  0  0  0  0  0  0  0  0  0  0
   -1.0402    0.3609    1.5863 H   0  0  0  0  0  0  0  0  0  0  0  0
    0.4891    0.5821    3.0675 C   0  0  0  0  0  0  0  0  0  0  0  0
    1.2480    1.3717    3.0757 H   0  0  0  0  0  0  0  0  0  0  0  0
   -0.3153    0.8711    3.7505 H   0  0  0  0  0  0  0  0  0  0  0  0
    0.9414   -0.3451    3.4354 H   0  0  0  0  0  0  0  0  0  0  0  0
  1  2  1  0  0  0  0
  2  3  1  0  0  0  0
  2  4  1  0  0  0  0
  2  5  1  0  0  0  0
  5  6  2  0  0  0  0
  5  7  1  0  0  0  0
  7  8  1  0  0  0  0
  7  9  1  0  0  0  0
  9 10  1  0  0  0  0
  9 11  1  0  0  0  0
  9 19  1  0  0  0  0
 11 12  1  0  0  0  0
 11 13  1  0  0  0  0
 11 14  1  0  0  0  0
 14 15  2  0  0  0  0
 14 16  1  0  0  0  0
 16 17  1  0  0  0  0
 16 18  1  0  0  0  0
 19 20  2  0  0  0  0
 19 21  1  0  0  0  0
 21 22  1  0  0  0  0
 21 23  1  0  0  0  0
 23 24  1  0  0  0  0
 23 25  1  0  0  0  0
 23 26  1  0  0  0  0
M  END
$$$$

  -OEChem-03222214023D

 26 25  0     1  0  0  0  0  0999 V2000
   -2.5626   -3.7595    0.0537 H   0  0  0  0  0  0  0  0  0  0  0  0
   -2.6434   -2.7251   -0.2930 C   0  0  0  0  0  0  0  0  0  0  0  0
   -3.2252   -2.1562    0.4360 H   0  0  0  0  0  0  0  0  0  0  0  0
   -3.1648   -2.7172   -1.2532 H   0  0  0  0  0  0  0  0  0  0  0  0
   -1.2612   -2.1186   -0.4475 C   0  0  0  0  0  0  0  0  0  0  0  0
   -0.2726   -2.7932   -0.2292 O   0  0  0  0  0  0  0  0  0  0  0  0
   -1.1285   -0.7994   -0.8424 N   0  0  0  0  0  0  0  0  0  0  0  0
   -1.9841   -0.2501   -0.8326 H   0  0  0  0  0  0  0  0  0  0  0  0
    0.1559   -0.0699   -0.7776 C   0  0  1  0  0  0  0  0  0  0  0  0
    0.8808   -0.6595   -1.3534 H   0  0  0  0  0  0  0  0  0  0  0  0
    0.0949    1.3218   -1.4466 C   0  0  0  0  0  0  0  0  0  0  0  0
   -0.4354    2.0073   -0.7805 H   0  0  0  0  0  0  0  0  0  0  0  0
    1.1184    1.6974   -1.5495 H   0  0  0  0  0  0  0  0  0  0  0  0
   -0.5832    1.4145   -2.8142 C   0  0  0  0  0  0  0  0  0  0  0  0
   -0.0752    2.0494   -3.7160 O   0  0  0  0  0  0  0  0  0  0  0  0
   -1.7120    0.7419   -3.1853 N   0  0  0  0  0  0  0  0  0  0  0  0
   -1.8839    0.7835   -4.1868 H   0  0  0  0  0  0  0  0  0  0  0  0
   -1.8744   -0.1382   -2.7107 H   0  0  0  0  0  0  0  0  0  0  0  0
    0.7563    0.0386    0.6411 C   0  0  0  0  0  0  0  0  0  0  0  0
    1.9695    0.0298    0.7858 O   0  0  0  0  0  0  0  0  0  0  0  0
   -0.0452    0.3786    1.7173 N   0  0  0  0  0  0  0  0  0  0  0  0
   -1.0486    0.3662    1.5759 H   0  0  0  0  0  0  0  0  0  0  0  0
    0.4731    0.5506    3.0694 C   0  0  0  0  0  0  0  0  0  0  0  0
    1.2155    1.3553    3.0960 H   0  0  0  0  0  0  0  0  0  0  0  0
   -0.3385    0.8079    3.7567 H   0  0  0  0  0  0  0  0  0  0  0  0
    0.9434   -0.3746    3.4190 H   0  0  0  0  0  0  0  0  0  0  0  0
  1  2  1  0  0  0  0
  2  3  1  0  0  0  0
  2  4  1  0  0  0  0
  2  5  1  0  0  0  0
  5  6  2  0  0  0  0
  5  7  1  0  0  0  0
  7  8  1  0  0  0  0
  7  9  1  0  0  0  0
  9 10  1  0  0  0  0
  9 11  1  0  0  0  0
  9 19  1  0  0  0  0
 11 12  1  0  0  0  0
 11 13  1  0  0  0  0
 11 14  1  0  0  0  0
 14 15  2  0  0  0  0
 14 16  1  0  0  0  0
 16 17  1  0  0  0  0
 16 18  1  0  0  0  0
 19 20  2  0  0  0  0
 19 21  1  0  0  0  0
 21 22  1  0  0  0  0
 21 23  1  0  0  0  0
 23 24  1  0  0  0  0
 23 25  1  0  0  0  0
 23 26  1  0  0  0  0
M  END
$$$$

  -OEChem-03222214023D

 26 25  0     1  0  0  0  0  0999 V2000
   -2.5709   -3.8800   -0.1435 H   0  0  0  0  0  0  0  0  0  0  0  0
   -2.5863   -2.8849   -0.5976 C   0  0  0  0  0  0  0  0  0  0  0  0
   -3.4538   -2.3396   -0.2186 H   0  0  0  0  0  0  0  0  0  0  0  0
   -2.6772   -2.9952   -1.6810 H   0  0  0  0  0  0  0  0  0  0  0  0
   -1.3106   -2.1370   -0.2576 C   0  0  0  0  0  0  0  0  0  0  0  0
   -0.4729   -2.6616    0.4526 O   0  0  0  0  0  0  0  0  0  0  0  0
   -1.1135   -0.8607   -0.7518 N   0  0  0  0  0  0  0  0  0  0  0  0
   -1.7723   -0.5798   -1.4747 H   0  0  0  0  0  0  0  0  0  0  0  0
    0.1970   -0.1766   -0.7337 C   0  0  1  0  0  0  0  0  0  0  0  0
    0.9051   -0.8096   -1.2825 H   0  0  0  0  0  0  0  0  0  0  0  0
    0.1369    1.1932   -1.4441 C   0  0  0  0  0  0  0  0  0  0  0  0
   -0.3567    1.9216   -0.7953 H   0  0  0  0  0  0  0  0  0  0  0  0
    1.1579    1.5488   -1.6173 H   0  0  0  0  0  0  0  0  0  0  0  0
   -0.6040    1.1627   -2.7724 C   0  0  0  0  0  0  0  0  0  0  0  0
   -0.0679    1.4648   -3.8182 O   0  0  0  0  0  0  0  0  0  0  0  0
   -1.9685    1.0915   -2.8356 N   0  0  0  0  0  0  0  0  0  0  0  0
   -2.3412    1.3919   -3.7338 H   0  0  0  0  0  0  0  0  0  0  0  0
   -2.4760    1.3483   -1.9953 H   0  0  0  0  0  0  0  0  0  0  0  0
    0.8027    0.0248    0.6731 C   0  0  0  0  0  0  0  0  0  0  0  0
    2.0187    0.0410    0.8031 O   0  0  0  0  0  0  0  0  0  0  0  0
    0.0076    0.4791    1.7101 N   0  0  0  0  0  0  0  0  0  0  0  0
   -0.9894    0.3267    1.6012 H   0  0  0  0  0  0  0  0  0  0  0  0
    0.5310    0.7159    3.0499 C   0  0  0  0  0  0  0  0  0  0  0  0
    1.3186    1.4764    3.0254 H   0  0  0  0  0  0  0  0  0  0  0  0
   -0.2664    1.0686    3.7108 H   0  0  0  0  0  0  0  0  0  0  0  0
    0.9460   -0.2078    3.4671 H   0  0  0  0  0  0  0  0  0  0  0  0
  1  2  1  0  0  0  0
  2  3  1  0  0  0  0
  2  4  1  0  0  0  0
  2  5  1  0  0  0  0
  5  6  2  0  0  0  0
  5  7  1  0  0  0  0
  7  8  1  0  0  0  0
  7  9  1  0  0  0  0
  9 10  1  0  0  0  0
  9 11  1  0  0  0  0
  9 19  1  0  0  0  0
 11 12  1  0  0  0  0
 11 13  1  0  0  0  0
 11 14  1  0  0  0  0
 14 15  2  0  0  0  0
 14 16  1  0  0  0  0
 16 17  1  0  0  0  0
 16 18  1  0  0  0  0
 19 20  2  0  0  0  0
 19 21  1  0  0  0  0
 21 22  1  0  0  0  0
 21 23  1  0  0  0  0
 23 24  1  0  0  0  0
 23 25  1  0  0  0  0
 23 26  1  0  0  0  0
M  END
$$$$

  -OEChem-03222214023D

 26 25  0     1  0  0  0  0  0999 V2000
   -2.5914   -3.8455   -0.2117 H   0  0  0  0  0  0  0  0  0  0  0  0
   -2.6140   -2.8316   -0.6219 C   0  0  0  0  0  0  0  0  0  0  0  0
   -3.4672   -2.2986   -0.1958 H   0  0  0  0  0  0  0  0  0  0  0  0
   -2.7358   -2.8957   -1.7060 H   0  0  0  0  0  0  0  0  0  0  0  0
   -1.3254   -2.1045   -0.2858 C   0  0  0  0  0  0  0  0  0  0  0  0
   -0.4850   -2.6498    0.4059 O   0  0  0  0  0  0  0  0  0  0  0  0
   -1.1215   -0.8210   -0.7573 N   0  0  0  0  0  0  0  0  0  0  0  0
   -1.7930   -0.5097   -1.4560 H   0  0  0  0  0  0  0  0  0  0  0  0
    0.1924   -0.1430   -0.7327 C   0  0  1  0  0  0  0  0  0  0  0  0
    0.8959   -0.7666   -1.2979 H   0  0  0  0  0  0  0  0  0  0  0  0
    0.1219    1.2357   -1.4211 C   0  0  0  0  0  0  0  0  0  0  0  0
   -0.3686    1.9544   -0.7597 H   0  0  0  0  0  0  0  0  0  0  0  0
    1.1390    1.5984   -1.6025 H   0  0  0  0  0  0  0  0  0  0  0  0
   -0.6317    1.2046   -2.7411 C   0  0  0  0  0  0  0  0  0  0  0  0
   -0.0666    1.2541   -3.8137 O   0  0  0  0  0  0  0  0  0  0  0  0
   -1.9972    1.2664   -2.7927 N   0  0  0  0  0  0  0  0  0  0  0  0
   -2.3596    1.5009   -3.7142 H   0  0  0  0  0  0  0  0  0  0  0  0
   -2.4735    1.6345   -1.9756 H   0  0  0  0  0  0  0  0  0  0  0  0
    0.8069    0.0320    0.6737 C   0  0  0  0  0  0  0  0  0  0  0  0
    2.0236    0.0461    0.7975 O   0  0  0  0  0  0  0  0  0  0  0  0
    0.0184    0.4722    1.7218 N   0  0  0  0  0  0  0  0  0  0  0  0
   -0.9786    0.3169    1.6167 H   0  0  0  0  0  0  0  0  0  0  0  0
    0.5486    0.6826    3.0635 C   0  0  0  0  0  0  0  0  0  0  0  0
    1.3422    1.4371    3.0492 H   0  0  0  0  0  0  0  0  0  0  0  0
   -0.2435    1.0302    3.7332 H   0  0  0  0  0  0  0  0  0  0  0  0
    0.9580   -0.2512    3.4633 H   0  0  0  0  0  0  0  0  0  0  0  0
  1  2  1  0  0  0  0
  2  3  1  0  0  0  0
  2  4  1  0  0  0  0
  2  5  1  0  0  0  0
  5  6  2  0  0  0  0
  5  7  1  0  0  0  0
  7  8  1  0  0  0  0
  7  9  1  0  0  0  0
  9 10  1  0  0  0  0
  9 11  1  0  0  0  0
  9 19  1  0  0  0  0
 11 12  1  0  0  0  0
 11 13  1  0  0  0  0
 11 14  1  0  0  0  0
 14 15  2  0  0  0  0
 14 16  1  0  0  0  0
 16 17  1  0  0  0  0
 16 18  1  0  0  0  0
 19 20  2  0  0  0  0
 19 21  1  0  0  0  0
 21 22  1  0  0  0  0
 21 23  1  0  0  0  0
 23 24  1  0  0  0  0
 23 25  1  0  0  0  0
 23 26  1  0  0  0  0
M  END
$$$$

  -OEChem-03222214023D

 26 25  0     1  0  0  0  0  0999 V2000
   -2.6338   -3.7950   -0.2473 H   0  0  0  0  0  0  0  0  0  0  0  0
   -2.6395   -2.7807   -0.6564 C   0  0  0  0  0  0  0  0  0  0  0  0
   -3.4886   -2.2366   -0.2363 H   0  0  0  0  0  0  0  0  0  0  0  0
   -2.7540   -2.8417   -1.7415 H   0  0  0  0  0  0  0  0  0  0  0  0
   -1.3435   -2.0716   -0.3102 C   0  0  0  0  0  0  0  0  0  0  0  0
   -0.5084   -2.6350    0.3735 O   0  0  0  0  0  0  0  0  0  0  0  0
   -1.1273   -0.7839   -0.7633 N   0  0  0  0  0  0  0  0  0  0  0  0
   -1.8030   -0.4483   -1.4465 H   0  0  0  0  0  0  0  0  0  0  0  0
    0.1925   -0.1181   -0.7314 C   0  0  1  0  0  0  0  0  0  0  0  0
    0.8894   -0.7380   -1.3091 H   0  0  0  0  0  0  0  0  0  0  0  0
    0.1225    1.2685   -1.4007 C   0  0  0  0  0  0  0  0  0  0  0  0
   -0.3629    1.9805   -0.7284 H   0  0  0  0  0  0  0  0  0  0  0  0
    1.1383    1.6323   -1.5855 H   0  0  0  0  0  0  0  0  0  0  0  0
   -0.6390    1.2434   -2.7152 C   0  0  0  0  0  0  0  0  0  0  0  0
   -0.0929    1.0335   -3.7781 O   0  0  0  0  0  0  0  0  0  0  0  0
   -1.9897    1.4502   -2.7678 N   0  0  0  0  0  0  0  0  0  0  0  0
   -2.3482    1.6128   -3.7060 H   0  0  0  0  0  0  0  0  0  0  0  0
   -2.4182    1.9383   -1.9876 H   0  0  0  0  0  0  0  0  0  0  0  0
    0.8130    0.0330    0.6747 C   0  0  0  0  0  0  0  0  0  0  0  0
    2.0302    0.0443    0.7940 O   0  0  0  0  0  0  0  0  0  0  0  0
    0.0301    0.4663    1.7298 N   0  0  0  0  0  0  0  0  0  0  0  0
   -0.9677    0.3132    1.6279 H   0  0  0  0  0  0  0  0  0  0  0  0
    0.5668    0.6687    3.0699 C   0  0  0  0  0  0  0  0  0  0  0  0
    1.3620    1.4215    3.0551 H   0  0  0  0  0  0  0  0  0  0  0  0
   -0.2213    1.0152    3.7451 H   0  0  0  0  0  0  0  0  0  0  0  0
    0.9760   -0.2679    3.4631 H   0  0  0  0  0  0  0  0  0  0  0  0
  1  2  1  0  0  0  0
  2  3  1  0  0  0  0
  2  4  1  0  0  0  0
  2  5  1  0  0  0  0
  5  6  2  0  0  0  0
  5  7  1  0  0  0  0
  7  8  1  0  0  0  0
  7  9  1  0  0  0  0
  9 10  1  0  0  0  0
  9 11  1  0  0  0  0
  9 19  1  0  0  0  0
 11 12  1  0  0  0  0
 11 13  1  0  0  0  0
 11 14  1  0  0  0  0
 14 15  2  0  0  0  0
 14 16  1  0  0  0  0
 16 17  1  0  0  0  0
 16 18  1  0  0  0  0
 19 20  2  0  0  0  0
 19 21  1  0  0  0  0
 21 22  1  0  0  0  0
 21 23  1  0  0  0  0
 23 24  1  0  0  0  0
 23 25  1  0  0  0  0
 23 26  1  0  0  0  0
M  END
$$$$

  -OEChem-03222214023D

 26 25  0     1  0  0  0  0  0999 V2000
   -2.6488   -3.7705   -0.2892 H   0  0  0  0  0  0  0  0  0  0  0  0
   -2.6535   -2.7477   -0.6771 C   0  0  0  0  0  0  0  0  0  0  0  0
   -3.4992   -2.2098   -0.2423 H   0  0  0  0  0  0  0  0  0  0  0  0
   -2.7727   -2.7856   -1.7628 H   0  0  0  0  0  0  0  0  0  0  0  0
   -1.3545   -2.0483   -0.3223 C   0  0  0  0  0  0  0  0  0  0  0  0
   -0.5269   -2.6188    0.3651 O   0  0  0  0  0  0  0  0  0  0  0  0
   -1.1302   -0.7592   -0.7673 N   0  0  0  0  0  0  0  0  0  0  0  0
   -1.8016   -0.4185   -1.4519 H   0  0  0  0  0  0  0  0  0  0  0  0
    0.1937   -0.1017   -0.7313 C   0  0  1  0  0  0  0  0  0  0  0  0
    0.8858   -0.7221   -1.3141 H   0  0  0  0  0  0  0  0  0  0  0  0
    0.1300    1.2882   -1.3932 C   0  0  0  0  0  0  0  0  0  0  0  0
   -0.3510    1.9988   -0.7159 H   0  0  0  0  0  0  0  0  0  0  0  0
    1.1464    1.6482   -1.5802 H   0  0  0  0  0  0  0  0  0  0  0  0
   -0.6326    1.2685   -2.7066 C   0  0  0  0  0  0  0  0  0  0  0  0
   -0.1584    0.8057   -3.7235 O   0  0  0  0  0  0  0  0  0  0  0  0
   -1.9349    1.6746   -2.7864 N   0  0  0  0  0  0  0  0  0  0  0  0
   -2.2869    1.7773   -3.7352 H   0  0  0  0  0  0  0  0  0  0  0  0
   -2.2820    2.2935   -2.0605 H   0  0  0  0  0  0  0  0  0  0  0  0
    0.8162    0.0375    0.6749 C   0  0  0  0  0  0  0  0  0  0  0  0
    2.0338    0.0469    0.7925 O   0  0  0  0  0  0  0  0  0  0  0  0
    0.0362    0.4694    1.7329 N   0  0  0  0  0  0  0  0  0  0  0  0
   -0.9622    0.3197    1.6303 H   0  0  0  0  0  0  0  0  0  0  0  0
    0.5744    0.6584    3.0746 C   0  0  0  0  0  0  0  0  0  0  0  0
    1.3777    1.4027    3.0646 H   0  0  0  0  0  0  0  0  0  0  0  0
   -0.2104    1.0096    3.7512 H   0  0  0  0  0  0  0  0  0  0  0  0
    0.9728   -0.2848    3.4633 H   0  0  0  0  0  0  0  0  0  0  0  0
  1  2  1  0  0  0  0
  2  3  1  0  0  0  0
  2  4  1  0  0  0  0
  2  5  1  0  0  0  0
  5  6  2  0  0  0  0
  5  7  1  0  0  0  0
  7  8  1  0  0  0  0
  7  9  1  0  0  0  0
  9 10  1  0  0  0  0
  9 11  1  0  0  0  0
  9 19  1  0  0  0  0
 11 12  1  0  0  0  0
 11 13  1  0  0  0  0
 11 14  1  0  0  0  0
 14 15  2  0  0  0  0
 14 16  1  0  0  0  0
 16 17  1  0  0  0  0
 16 18  1  0  0  0  0
 19 20  2  0  0  0  0
 19 21  1  0  0  0  0
 21 22  1  0  0  0  0
 21 23  1  0  0  0  0
 23 24  1  0  0  0  0
 23 25  1  0  0  0  0
 23 26  1  0  0  0  0
M  END
$$$$

  -OEChem-03222214023D

 26 25  0     1  0  0  0  0  0999 V2000
   -2.6736   -3.7497   -0.2550 H   0  0  0  0  0  0  0  0  0  0  0  0
   -2.6514   -2.7484   -0.6946 C   0  0  0  0  0  0  0  0  0  0  0  0
   -3.5141   -2.1850   -0.3311 H   0  0  0  0  0  0  0  0  0  0  0  0
   -2.7162   -2.8413   -1.7816 H   0  0  0  0  0  0  0  0  0  0  0  0
   -1.3668   -2.0378   -0.3117 C   0  0  0  0  0  0  0  0  0  0  0  0
   -0.5549   -2.5967    0.4036 O   0  0  0  0  0  0  0  0  0  0  0  0
   -1.1407   -0.7508   -0.7615 N   0  0  0  0  0  0  0  0  0  0  0  0
   -1.7913   -0.4329   -1.4761 H   0  0  0  0  0  0  0  0  0  0  0  0
    0.1874   -0.1022   -0.7301 C   0  0  1  0  0  0  0  0  0  0  0  0
    0.8738   -0.7270   -1.3148 H   0  0  0  0  0  0  0  0  0  0  0  0
    0.1286    1.2894   -1.3903 C   0  0  0  0  0  0  0  0  0  0  0  0
   -0.3481    1.9969   -0.7067 H   0  0  0  0  0  0  0  0  0  0  0  0
    1.1457    1.6467   -1.5777 H   0  0  0  0  0  0  0  0  0  0  0  0
   -0.6393    1.2835   -2.7018 C   0  0  0  0  0  0  0  0  0  0  0  0
   -0.3008    0.5996   -3.6464 O   0  0  0  0  0  0  0  0  0  0  0  0
   -1.8202    1.9542   -2.8477 N   0  0  0  0  0  0  0  0  0  0  0  0
   -2.1627    2.0157   -3.8032 H   0  0  0  0  0  0  0  0  0  0  0  0
   -2.0271    2.7041   -2.1957 H   0  0  0  0  0  0  0  0  0  0  0  0
    0.8152    0.0362    0.6737 C   0  0  0  0  0  0  0  0  0  0  0  0
    2.0336    0.0440    0.7860 O   0  0  0  0  0  0  0  0  0  0  0  0
    0.0409    0.4754    1.7327 N   0  0  0  0  0  0  0  0  0  0  0  0
   -0.9578    0.3220    1.6348 H   0  0  0  0  0  0  0  0  0  0  0  0
    0.5841    0.6578    3.0731 C   0  0  0  0  0  0  0  0  0  0  0  0
    1.3877    1.4020    3.0643 H   0  0  0  0  0  0  0  0  0  0  0  0
   -0.1983    1.0056    3.7542 H   0  0  0  0  0  0  0  0  0  0  0  0
    0.9836   -0.2877    3.4551 H   0  0  0  0  0  0  0  0  0  0  0  0
  1  2  1  0  0  0  0
  2  3  1  0  0  0  0
  2  4  1  0  0  0  0
  2  5  1  0  0  0  0
  5  6  2  0  0  0  0
  5  7  1  0  0  0  0
  7  8  1  0  0  0  0
  7  9  1  0  0  0  0
  9 10  1  0  0  0  0
  9 11  1  0  0  0  0
  9 19  1  0  0  0  0
 11 12  1  0  0  0  0
 11 13  1  0  0  0  0
 11 14  1  0  0  0  0
 14 15  2  0  0  0  0
 14 16  1  0  0  0  0
 16 17  1  0  0  0  0
 16 18  1  0  0  0  0
 19 20  2  0  0  0  0
 19 21  1  0  0  0  0
 21 22  1  0  0  0  0
 21 23  1  0  0  0  0
 23 24  1  0  0  0  0
 23 25  1  0  0  0  0
 23 26  1  0  0  0  0
M  END
$$$$

  -OEChem-03222214023D

 26 25  0     1  0  0  0  0  0999 V2000
   -2.6436   -3.7818   -0.2660 H   0  0  0  0  0  0  0  0  0  0  0  0
   -2.6406   -2.7737   -0.6901 C   0  0  0  0  0  0  0  0  0  0  0  0
   -3.5188   -2.2355   -0.3255 H   0  0  0  0  0  0  0  0  0  0  0  0
   -2.6938   -2.8513   -1.7788 H   0  0  0  0  0  0  0  0  0  0  0  0
   -1.3759   -2.0400   -0.2852 C   0  0  0  0  0  0  0  0  0  0  0  0
   -0.5761   -2.5787    0.4592 O   0  0  0  0  0  0  0  0  0  0  0  0
   -1.1555   -0.7569   -0.7490 N   0  0  0  0  0  0  0  0  0  0  0  0
   -1.7801   -0.4784   -1.5027 H   0  0  0  0  0  0  0  0  0  0  0  0
    0.1737   -0.1109   -0.7303 C   0  0  1  0  0  0  0  0  0  0  0  0
    0.8557   -0.7391   -1.3164 H   0  0  0  0  0  0  0  0  0  0  0  0
    0.1117    1.2811   -1.3926 C   0  0  0  0  0  0  0  0  0  0  0  0
   -0.3604    1.9855   -0.7023 H   0  0  0  0  0  0  0  0  0  0  0  0
    1.1281    1.6373   -1.5845 H   0  0  0  0  0  0  0  0  0  0  0  0
   -0.6659    1.2936   -2.6998 C   0  0  0  0  0  0  0  0  0  0  0  0
   -0.5192    0.4417   -3.5541 O   0  0  0  0  0  0  0  0  0  0  0  0
   -1.6178    2.2371   -2.9606 N   0  0  0  0  0  0  0  0  0  0  0  0
   -1.9464    2.2691   -3.9221 H   0  0  0  0  0  0  0  0  0  0  0  0
   -1.6228    3.0840   -2.4013 H   0  0  0  0  0  0  0  0  0  0  0  0
    0.8087    0.0378    0.6692 C   0  0  0  0  0  0  0  0  0  0  0  0
    2.0278    0.0412    0.7757 O   0  0  0  0  0  0  0  0  0  0  0  0
    0.0395    0.4876    1.7272 N   0  0  0  0  0  0  0  0  0  0  0  0
   -0.9602    0.3399    1.6299 H   0  0  0  0  0  0  0  0  0  0  0  0
    0.5842    0.6624    3.0675 C   0  0  0  0  0  0  0  0  0  0  0  0
    1.3917    1.4021    3.0605 H   0  0  0  0  0  0  0  0  0  0  0  0
   -0.1965    1.0118    3.7498 H   0  0  0  0  0  0  0  0  0  0  0  0
    0.9787   -0.2866    3.4461 H   0  0  0  0  0  0  0  0  0  0  0  0
  1  2  1  0  0  0  0
  2  3  1  0  0  0  0
  2  4  1  0  0  0  0
  2  5  1  0  0  0  0
  5  6  2  0  0  0  0
  5  7  1  0  0  0  0
  7  8  1  0  0  0  0
  7  9  1  0  0  0  0
  9 10  1  0  0  0  0
  9 11  1  0  0  0  0
  9 19  1  0  0  0  0
 11 12  1  0  0  0  0
 11 13  1  0  0  0  0
 11 14  1  0  0  0  0
 14 15  2  0  0  0  0
 14 16  1  0  0  0  0
 16 17  1  0  0  0  0
 16 18  1  0  0  0  0
 19 20  2  0  0  0  0
 19 21  1  0  0  0  0
 21 22  1  0  0  0  0
 21 23  1  0  0  0  0
 23 24  1  0  0  0  0
 23 25  1  0  0  0  0
 23 26  1  0  0  0  0
M  END
$$$$

  -OEChem-03222214023D

 26 25  0     1  0  0  0  0  0999 V2000
   -2.6223   -3.8118   -0.3012 H   0  0  0  0  0  0  0  0  0  0  0  0
   -2.6375   -2.7931   -0.6990 C   0  0  0  0  0  0  0  0  0  0  0  0
   -3.5272   -2.2813   -0.3247 H   0  0  0  0  0  0  0  0  0  0  0  0
   -2.6854   -2.8433   -1.7898 H   0  0  0  0  0  0  0  0  0  0  0  0
   -1.3889   -2.0455   -0.2705 C   0  0  0  0  0  0  0  0  0  0  0  0
   -0.5988   -2.5732    0.4923 O   0  0  0  0  0  0  0  0  0  0  0  0
   -1.1704   -0.7644   -0.7393 N   0  0  0  0  0  0  0  0  0  0  0  0
   -1.7729   -0.5104   -1.5207 H   0  0  0  0  0  0  0  0  0  0  0  0
    0.1587   -0.1204   -0.7267 C   0  0  1  0  0  0  0  0  0  0  0  0
    0.8373   -0.7503   -1.3145 H   0  0  0  0  0  0  0  0  0  0  0  0
    0.0930    1.2727   -1.3897 C   0  0  0  0  0  0  0  0  0  0  0  0
   -0.3775    1.9734   -0.6947 H   0  0  0  0  0  0  0  0  0  0  0  0
    1.1101    1.6276   -1.5805 H   0  0  0  0  0  0  0  0  0  0  0  0
   -0.6879    1.3095   -2.6968 C   0  0  0  0  0  0  0  0  0  0  0  0
   -0.7641    0.3557   -3.4484 O   0  0  0  0  0  0  0  0  0  0  0  0
   -1.3630    2.4285   -3.0916 N   0  0  0  0  0  0  0  0  0  0  0  0
   -1.6898    2.4285   -4.0541 H   0  0  0  0  0  0  0  0  0  0  0  0
   -1.1568    3.3081   -2.6290 H   0  0  0  0  0  0  0  0  0  0  0  0
    0.8005    0.0331    0.6692 C   0  0  0  0  0  0  0  0  0  0  0  0
    2.0204    0.0429    0.7666 O   0  0  0  0  0  0  0  0  0  0  0  0
    0.0377    0.4877    1.7298 N   0  0  0  0  0  0  0  0  0  0  0  0
   -0.9622    0.3341    1.6420 H   0  0  0  0  0  0  0  0  0  0  0  0
    0.5927    0.6853    3.0629 C   0  0  0  0  0  0  0  0  0  0  0  0
    1.4006    1.4241    3.0371 H   0  0  0  0  0  0  0  0  0  0  0  0
   -0.1820    1.0475    3.7451 H   0  0  0  0  0  0  0  0  0  0  0  0
    0.9891   -0.2574    3.4547 H   0  0  0  0  0  0  0  0  0  0  0  0
  1  2  1  0  0  0  0
  2  3  1  0  0  0  0
  2  4  1  0  0  0  0
  2  5  1  0  0  0  0
  5  6  2  0  0  0  0
  5  7  1  0  0  0  0
  7  8  1  0  0  0  0
  7  9  1  0  0  0  0
  9 10  1  0  0  0  0
  9 11  1  0  0  0  0
  9 19  1  0  0  0  0
 11 12  1  0  0  0  0
 11 13  1  0  0  0  0
 11 14  1  0  0  0  0
 14 15  2  0  0  0  0
 14 16  1  0  0  0  0
 16 17  1  0  0  0  0
 16 18  1  0  0  0  0
 19 20  2  0  0  0  0
 19 21  1  0  0  0  0
 21 22  1  0  0  0  0
 21 23  1  0  0  0  0
 23 24  1  0  0  0  0
 23 25  1  0  0  0  0
 23 26  1  0  0  0  0
M  END
$$$$

  -OEChem-03222214023D

 26 25  0     1  0  0  0  0  0999 V2000
   -2.6068   -3.8284   -0.3115 H   0  0  0  0  0  0  0  0  0  0  0  0
   -2.6360   -2.8037   -0.6929 C   0  0  0  0  0  0  0  0  0  0  0  0
   -3.5283   -2.3072   -0.3047 H   0  0  0  0  0  0  0  0  0  0  0  0
   -2.6915   -2.8372   -1.7840 H   0  0  0  0  0  0  0  0  0  0  0  0
   -1.3927   -2.0492   -0.2610 C   0  0  0  0  0  0  0  0  0  0  0  0
   -0.6007   -2.5724    0.5032 O   0  0  0  0  0  0  0  0  0  0  0  0
   -1.1778   -0.7689   -0.7325 N   0  0  0  0  0  0  0  0  0  0  0  0
   -1.7750   -0.5216   -1.5222 H   0  0  0  0  0  0  0  0  0  0  0  0
    0.1483   -0.1202   -0.7259 C   0  0  1  0  0  0  0  0  0  0  0  0
    0.8261   -0.7516   -1.3128 H   0  0  0  0  0  0  0  0  0  0  0  0
    0.0807    1.2715   -1.3953 C   0  0  0  0  0  0  0  0  0  0  0  0
   -0.3905    1.9726   -0.7008 H   0  0  0  0  0  0  0  0  0  0  0  0
    1.0997    1.6234   -1.5805 H   0  0  0  0  0  0  0  0  0  0  0  0
   -0.6963    1.3314   -2.7064 C   0  0  0  0  0  0  0  0  0  0  0  0
   -1.0104    0.3449   -3.3481 O   0  0  0  0  0  0  0  0  0  0  0  0
   -1.0835    2.5260   -3.2413 N   0  0  0  0  0  0  0  0  0  0  0  0
   -1.4247    2.4934   -4.1982 H   0  0  0  0  0  0  0  0  0  0  0  0
   -0.6706    3.3796   -2.8791 H   0  0  0  0  0  0  0  0  0  0  0  0
    0.7951    0.0393    0.6667 C   0  0  0  0  0  0  0  0  0  0  0  0
    2.0156    0.0545    0.7577 O   0  0  0  0  0  0  0  0  0  0  0  0
    0.0349    0.4936    1.7289 N   0  0  0  0  0  0  0  0  0  0  0  0
   -0.9652    0.3393    1.6432 H   0  0  0  0  0  0  0  0  0  0  0  0
    0.5933    0.6907    3.0606 C   0  0  0  0  0  0  0  0  0  0  0  0
    1.4020    1.4286    3.0333 H   0  0  0  0  0  0  0  0  0  0  0  0
   -0.1794    1.0536    3.7448 H   0  0  0  0  0  0  0  0  0  0  0  0
    0.9903   -0.2522    3.4515 H   0  0  0  0  0  0  0  0  0  0  0  0
  1  2  1  0  0  0  0
  2  3  1  0  0  0  0
  2  4  1  0  0  0  0
  2  5  1  0  0  0  0
  5  6  2  0  0  0  0
  5  7  1  0  0  0  0
  7  8  1  0  0  0  0
  7  9  1  0  0  0  0
  9 10  1  0  0  0  0
  9 11  1  0  0  0  0
  9 19  1  0  0  0  0
 11 12  1  0  0  0  0
 11 13  1  0  0  0  0
 11 14  1  0  0  0  0
 14 15  2  0  0  0  0
 14 16  1  0  0  0  0
 16 17  1  0  0  0  0
 16 18  1  0  0  0  0
 19 20  2  0  0  0  0
 19 21  1  0  0  0  0
 21 22  1  0  0  0  0
 21 23  1  0  0  0  0
 23 24  1  0  0  0  0
 23 25  1  0  0  0  0
 23 26  1  0  0  0  0
M  END
$$$$

  -OEChem-03222214023D

 26 25  0     1  0  0  0  0  0999 V2000
   -2.6335   -3.8162   -0.2523 H   0  0  0  0  0  0  0  0  0  0  0  0
   -2.6410   -2.8065   -0.6724 C   0  0  0  0  0  0  0  0  0  0  0  0
   -3.5232   -2.2774   -0.3042 H   0  0  0  0  0  0  0  0  0  0  0  0
   -2.6972   -2.8794   -1.7615 H   0  0  0  0  0  0  0  0  0  0  0  0
   -1.3825   -2.0617   -0.2684 C   0  0  0  0  0  0  0  0  0  0  0  0
   -0.5736   -2.5935    0.4721 O   0  0  0  0  0  0  0  0  0  0  0  0
   -1.1712   -0.7802   -0.7373 N   0  0  0  0  0  0  0  0  0  0  0  0
   -1.7827   -0.5180   -1.5127 H   0  0  0  0  0  0  0  0  0  0  0  0
    0.1490   -0.1221   -0.7327 C   0  0  1  0  0  0  0  0  0  0  0  0
    0.8294   -0.7516   -1.3177 H   0  0  0  0  0  0  0  0  0  0  0  0
    0.0815    1.2701   -1.4046 C   0  0  0  0  0  0  0  0  0  0  0  0
   -0.3917    1.9700   -0.7105 H   0  0  0  0  0  0  0  0  0  0  0  0
    1.1033    1.6196   -1.5796 H   0  0  0  0  0  0  0  0  0  0  0  0
   -0.6864    1.3542   -2.7221 C   0  0  0  0  0  0  0  0  0  0  0  0
   -1.2344    0.4053   -3.2554 O   0  0  0  0  0  0  0  0  0  0  0  0
   -0.8065    2.5415   -3.3848 N   0  0  0  0  0  0  0  0  0  0  0  0
   -1.1731    2.4888   -4.3311 H   0  0  0  0  0  0  0  0  0  0  0  0
   -0.2128    3.3183   -3.1118 H   0  0  0  0  0  0  0  0  0  0  0  0
    0.7934    0.0389    0.6605 C   0  0  0  0  0  0  0  0  0  0  0  0
    2.0139    0.0624    0.7516 O   0  0  0  0  0  0  0  0  0  0  0  0
    0.0295    0.4855    1.7232 N   0  0  0  0  0  0  0  0  0  0  0  0
   -0.9709    0.3357    1.6339 H   0  0  0  0  0  0  0  0  0  0  0  0
    0.5846    0.6946    3.0544 C   0  0  0  0  0  0  0  0  0  0  0  0
    1.3785    1.4483    3.0250 H   0  0  0  0  0  0  0  0  0  0  0  0
   -0.1950    1.0432    3.7384 H   0  0  0  0  0  0  0  0  0  0  0  0
    0.9998   -0.2399    3.4466 H   0  0  0  0  0  0  0  0  0  0  0  0
  1  2  1  0  0  0  0
  2  3  1  0  0  0  0
  2  4  1  0  0  0  0
  2  5  1  0  0  0  0
  5  6  2  0  0  0  0
  5  7  1  0  0  0  0
  7  8  1  0  0  0  0
  7  9  1  0  0  0  0
  9 10  1  0  0  0  0
  9 11  1  0  0  0  0
  9 19  1  0  0  0  0
 11 12  1  0  0  0  0
 11 13  1  0  0  0  0
 11 14  1  0  0  0  0
 14 15  2  0  0  0  0
 14 16  1  0  0  0  0
 16 17  1  0  0  0  0
 16 18  1  0  0  0  0
 19 20  2  0  0  0  0
 19 21  1  0  0  0  0
 21 22  1  0  0  0  0
 21 23  1  0  0  0  0
 23 24  1  0  0  0  0
 23 25  1  0  0  0  0
 23 26  1  0  0  0  0
M  END
$$$$

  -OEChem-03222214023D

 26 25  0     1  0  0  0  0  0999 V2000
   -2.6249   -3.8206   -0.2583 H   0  0  0  0  0  0  0  0  0  0  0  0
   -2.6465   -2.8009   -0.6532 C   0  0  0  0  0  0  0  0  0  0  0  0
   -3.5130   -2.2800   -0.2393 H   0  0  0  0  0  0  0  0  0  0  0  0
   -2.7436   -2.8474   -1.7409 H   0  0  0  0  0  0  0  0  0  0  0  0
   -1.3724   -2.0677   -0.2783 C   0  0  0  0  0  0  0  0  0  0  0  0
   -0.5435   -2.6130    0.4294 O   0  0  0  0  0  0  0  0  0  0  0  0
   -1.1644   -0.7839   -0.7413 N   0  0  0  0  0  0  0  0  0  0  0  0
   -1.8017   -0.4943   -1.4868 H   0  0  0  0  0  0  0  0  0  0  0  0
    0.1496   -0.1151   -0.7359 C   0  0  1  0  0  0  0  0  0  0  0  0
    0.8339   -0.7437   -1.3174 H   0  0  0  0  0  0  0  0  0  0  0  0
    0.0849    1.2752   -1.4138 C   0  0  0  0  0  0  0  0  0  0  0  0
   -0.3913    1.9787   -0.7253 H   0  0  0  0  0  0  0  0  0  0  0  0
    1.1096    1.6206   -1.5792 H   0  0  0  0  0  0  0  0  0  0  0  0
   -0.6715    1.3667   -2.7387 C   0  0  0  0  0  0  0  0  0  0  0  0
   -1.4319    0.5107   -3.1575 O   0  0  0  0  0  0  0  0  0  0  0  0
   -0.5384    2.4628   -3.5414 N   0  0  0  0  0  0  0  0  0  0  0  0
   -0.9358    2.3866   -4.4736 H   0  0  0  0  0  0  0  0  0  0  0  0
    0.2133    3.1201   -3.3591 H   0  0  0  0  0  0  0  0  0  0  0  0
    0.7919    0.0465    0.6579 C   0  0  0  0  0  0  0  0  0  0  0  0
    2.0122    0.0766    0.7501 O   0  0  0  0  0  0  0  0  0  0  0  0
    0.0244    0.4833    1.7222 N   0  0  0  0  0  0  0  0  0  0  0  0
   -0.9759    0.3347    1.6293 H   0  0  0  0  0  0  0  0  0  0  0  0
    0.5759    0.6874    3.0557 C   0  0  0  0  0  0  0  0  0  0  0  0
    1.3693    1.4420    3.0318 H   0  0  0  0  0  0  0  0  0  0  0  0
   -0.2056    1.0323    3.7393 H   0  0  0  0  0  0  0  0  0  0  0  0
    0.9910   -0.2485    3.4445 H   0  0  0  0  0  0  0  0  0  0  0  0
  1  2  1  0  0  0  0
  2  3  1  0  0  0  0
  2  4  1  0  0  0  0
  2  5  1  0  0  0  0
  5  6  2  0  0  0  0
  5  7  1  0  0  0  0
  7  8  1  0  0  0  0
  7  9  1  0  0  0  0
  9 10  1  0  0  0  0
  9 11  1  0  0  0  0
  9 19  1  0  0  0  0
 11 12  1  0  0  0  0
 11 13  1  0  0  0  0
 11 14  1  0  0  0  0
 14 15  2  0  0  0  0
 14 16  1  0  0  0  0
 16 17  1  0  0  0  0
 16 18  1  0  0  0  0
 19 20  2  0  0  0  0
 19 21  1  0  0  0  0
 21 22  1  0  0  0  0
 21 23  1  0  0  0  0
 23 24  1  0  0  0  0
 23 25  1  0  0  0  0
 23 26  1  0  0  0  0
M  END
$$$$

  -OEChem-03222214023D

 26 25  0     1  0  0  0  0  0999 V2000
   -2.6267   -3.8108   -0.2692 H   0  0  0  0  0  0  0  0  0  0  0  0
   -2.6525   -2.7823   -0.6405 C   0  0  0  0  0  0  0  0  0  0  0  0
   -3.4979   -2.2627   -0.1832 H   0  0  0  0  0  0  0  0  0  0  0  0
   -2.7900   -2.8027   -1.7245 H   0  0  0  0  0  0  0  0  0  0  0  0
   -1.3585   -2.0692   -0.2970 C   0  0  0  0  0  0  0  0  0  0  0  0
   -0.5120   -2.6329    0.3746 O   0  0  0  0  0  0  0  0  0  0  0  0
   -1.1492   -0.7826   -0.7507 N   0  0  0  0  0  0  0  0  0  0  0  0
   -1.8142   -0.4590   -1.4577 H   0  0  0  0  0  0  0  0  0  0  0  0
    0.1597   -0.1054   -0.7397 C   0  0  1  0  0  0  0  0  0  0  0  0
    0.8492   -0.7296   -1.3198 H   0  0  0  0  0  0  0  0  0  0  0  0
    0.0938    1.2853   -1.4163 C   0  0  0  0  0  0  0  0  0  0  0  0
   -0.3901    1.9879   -0.7322 H   0  0  0  0  0  0  0  0  0  0  0  0
    1.1182    1.6354   -1.5728 H   0  0  0  0  0  0  0  0  0  0  0  0
   -0.6562    1.3709   -2.7456 C   0  0  0  0  0  0  0  0  0  0  0  0
   -1.5954    0.6545   -3.0483 O   0  0  0  0  0  0  0  0  0  0  0  0
   -0.3060    2.2940   -3.6887 N   0  0  0  0  0  0  0  0  0  0  0  0
   -0.7398    2.1936   -4.6021 H   0  0  0  0  0  0  0  0  0  0  0  0
    0.5688    2.7992   -3.5893 H   0  0  0  0  0  0  0  0  0  0  0  0
    0.7949    0.0512    0.6575 C   0  0  0  0  0  0  0  0  0  0  0  0
    2.0147    0.0791    0.7562 O   0  0  0  0  0  0  0  0  0  0  0  0
    0.0213    0.4764    1.7219 N   0  0  0  0  0  0  0  0  0  0  0  0
   -0.9802    0.3424    1.6192 H   0  0  0  0  0  0  0  0  0  0  0  0
    0.5653    0.6729    3.0596 C   0  0  0  0  0  0  0  0  0  0  0  0
    1.3571    1.4293    3.0447 H   0  0  0  0  0  0  0  0  0  0  0  0
   -0.2204    1.0114    3.7418 H   0  0  0  0  0  0  0  0  0  0  0  0
    0.9806   -0.2648    3.4443 H   0  0  0  0  0  0  0  0  0  0  0  0
  1  2  1  0  0  0  0
  2  3  1  0  0  0  0
  2  4  1  0  0  0  0
  2  5  1  0  0  0  0
  5  6  2  0  0  0  0
  5  7  1  0  0  0  0
  7  8  1  0  0  0  0
  7  9  1  0  0  0  0
  9 10  1  0  0  0  0
  9 11  1  0  0  0  0
  9 19  1  0  0  0  0
 11 12  1  0  0  0  0
 11 13  1  0  0  0  0
 11 14  1  0  0  0  0
 14 15  2  0  0  0  0
 14 16  1  0  0  0  0
 16 17  1  0  0  0  0
 16 18  1  0  0  0  0
 19 20  2  0  0  0  0
 19 21  1  0  0  0  0
 21 22  1  0  0  0  0
 21 23  1  0  0  0  0
 23 24  1  0  0  0  0
 23 25  1  0  0  0  0
 23 26  1  0  0  0  0
M  END
$$$$

  -OEChem-03222214023D

 26 25  0     1  0  0  0  0  0999 V2000
   -2.6370   -3.7847   -0.2813 H   0  0  0  0  0  0  0  0  0  0  0  0
   -2.6565   -2.7538   -0.6455 C   0  0  0  0  0  0  0  0  0  0  0  0
   -3.4808   -2.2239   -0.1623 H   0  0  0  0  0  0  0  0  0  0  0  0
   -2.8234   -2.7656   -1.7254 H   0  0  0  0  0  0  0  0  0  0  0  0
   -1.3426   -2.0632   -0.3325 C   0  0  0  0  0  0  0  0  0  0  0  0
   -0.4794   -2.6504    0.2964 O   0  0  0  0  0  0  0  0  0  0  0  0
   -1.1309   -0.7707   -0.7672 N   0  0  0  0  0  0  0  0  0  0  0  0
   -1.8246   -0.4044   -1.4242 H   0  0  0  0  0  0  0  0  0  0  0  0
    0.1739   -0.0867   -0.7416 C   0  0  1  0  0  0  0  0  0  0  0  0
    0.8702   -0.7009   -1.3241 H   0  0  0  0  0  0  0  0  0  0  0  0
    0.1001    1.3079   -1.4066 C   0  0  0  0  0  0  0  0  0  0  0  0
   -0.3971    2.0021   -0.7236 H   0  0  0  0  0  0  0  0  0  0  0  0
    1.1204    1.6729   -1.5544 H   0  0  0  0  0  0  0  0  0  0  0  0
   -0.6473    1.3758   -2.7371 C   0  0  0  0  0  0  0  0  0  0  0  0
   -1.7232    0.8351   -2.9310 O   0  0  0  0  0  0  0  0  0  0  0  0
   -0.1209    2.0337   -3.8114 N   0  0  0  0  0  0  0  0  0  0  0  0
   -0.5909    1.8973   -4.7019 H   0  0  0  0  0  0  0  0  0  0  0  0
    0.8464    2.3401   -3.7829 H   0  0  0  0  0  0  0  0  0  0  0  0
    0.8012    0.0561    0.6604 C   0  0  0  0  0  0  0  0  0  0  0  0
    2.0204    0.0864    0.7655 O   0  0  0  0  0  0  0  0  0  0  0  0
    0.0207    0.4636    1.7266 N   0  0  0  0  0  0  0  0  0  0  0  0
   -0.9809    0.3388    1.6149 H   0  0  0  0  0  0  0  0  0  0  0  0
    0.5566    0.6545    3.0683 C   0  0  0  0  0  0  0  0  0  0  0  0
    1.3413    1.4183    3.0631 H   0  0  0  0  0  0  0  0  0  0  0  0
   -0.2355    0.9804    3.7492 H   0  0  0  0  0  0  0  0  0  0  0  0
    0.9788   -0.2821    3.4477 H   0  0  0  0  0  0  0  0  0  0  0  0
  1  2  1  0  0  0  0
  2  3  1  0  0  0  0
  2  4  1  0  0  0  0
  2  5  1  0  0  0  0
  5  6  2  0  0  0  0
  5  7  1  0  0  0  0
  7  8  1  0  0  0  0
  7  9  1  0  0  0  0
  9 10  1  0  0  0  0
  9 11  1  0  0  0  0
  9 19  1  0  0  0  0
 11 12  1  0  0  0  0
 11 13  1  0  0  0  0
 11 14  1  0  0  0  0
 14 15  2  0  0  0  0
 14 16  1  0  0  0  0
 16 17  1  0  0  0  0
 16 18  1  0  0  0  0
 19 20  2  0  0  0  0
 19 21  1  0  0  0  0
 21 22  1  0  0  0  0
 21 23  1  0  0  0  0
 23 24  1  0  0  0  0
 23 25  1  0  0  0  0
 23 26  1  0  0  0  0
M  END
$$$$

  -OEChem-03222214023D

 26 25  0     1  0  0  0  0  0999 V2000
   -2.6571   -3.7421   -0.2736 H   0  0  0  0  0  0  0  0  0  0  0  0
   -2.6579   -2.7172   -0.6552 C   0  0  0  0  0  0  0  0  0  0  0  0
   -3.4581   -2.1584   -0.1641 H   0  0  0  0  0  0  0  0  0  0  0  0
   -2.8484   -2.7422   -1.7310 H   0  0  0  0  0  0  0  0  0  0  0  0
   -1.3203   -2.0560   -0.3816 C   0  0  0  0  0  0  0  0  0  0  0  0
   -0.4423   -2.6703    0.1989 O   0  0  0  0  0  0  0  0  0  0  0  0
   -1.1021   -0.7579   -0.7954 N   0  0  0  0  0  0  0  0  0  0  0  0
   -1.8236   -0.3448   -1.3923 H   0  0  0  0  0  0  0  0  0  0  0  0
    0.2003   -0.0705   -0.7462 C   0  0  1  0  0  0  0  0  0  0  0  0
    0.9061   -0.6724   -1.3302 H   0  0  0  0  0  0  0  0  0  0  0  0
    0.1138    1.3288   -1.3944 C   0  0  0  0  0  0  0  0  0  0  0  0
   -0.4020    2.0103   -0.7122 H   0  0  0  0  0  0  0  0  0  0  0  0
    1.1266    1.7168   -1.5368 H   0  0  0  0  0  0  0  0  0  0  0  0
   -0.6312    1.3656   -2.7243 C   0  0  0  0  0  0  0  0  0  0  0  0
   -1.7986    1.0278   -2.8283 O   0  0  0  0  0  0  0  0  0  0  0  0
   -0.0049    1.7153   -3.8861 N   0  0  0  0  0  0  0  0  0  0  0  0
   -0.5152    1.5460   -4.7484 H   0  0  0  0  0  0  0  0  0  0  0  0
    1.0052    1.8169   -3.8976 H   0  0  0  0  0  0  0  0  0  0  0  0
    0.8122    0.0565    0.6635 C   0  0  0  0  0  0  0  0  0  0  0  0
    2.0300    0.0840    0.7825 O   0  0  0  0  0  0  0  0  0  0  0  0
    0.0195    0.4485    1.7266 N   0  0  0  0  0  0  0  0  0  0  0  0
   -0.9821    0.3388    1.6005 H   0  0  0  0  0  0  0  0  0  0  0  0
    0.5403    0.6396    3.0742 C   0  0  0  0  0  0  0  0  0  0  0  0
    1.3189    1.4098    3.0793 H   0  0  0  0  0  0  0  0  0  0  0  0
   -0.2613    0.9571    3.7480 H   0  0  0  0  0  0  0  0  0  0  0  0
    0.9662   -0.2947    3.4552 H   0  0  0  0  0  0  0  0  0  0  0  0
  1  2  1  0  0  0  0
  2  3  1  0  0  0  0
  2  4  1  0  0  0  0
  2  5  1  0  0  0  0
  5  6  2  0  0  0  0
  5  7  1  0  0  0  0
  7  8  1  0  0  0  0
  7  9  1  0  0  0  0
  9 10  1  0  0  0  0
  9 11  1  0  0  0  0
  9 19  1  0  0  0  0
 11 12  1  0  0  0  0
 11 13  1  0  0  0  0
 11 14  1  0  0  0  0
 14 15  2  0  0  0  0
 14 16  1  0  0  0  0
 16 17  1  0  0  0  0
 16 18  1  0  0  0  0
 19 20  2  0  0  0  0
 19 21  1  0  0  0  0
 21 22  1  0  0  0  0
 21 23  1  0  0  0  0
 23 24  1  0  0  0  0
 23 25  1  0  0  0  0
 23 26  1  0  0  0  0
M  END
$$$$

  -OEChem-03222214023D

 26 25  0     1  0  0  0  0  0999 V2000
   -2.6563   -3.7415   -0.3088 H   0  0  0  0  0  0  0  0  0  0  0  0
   -2.6654   -2.7000   -0.6425 C   0  0  0  0  0  0  0  0  0  0  0  0
   -3.4472   -2.1626   -0.1005 H   0  0  0  0  0  0  0  0  0  0  0  0
   -2.8908   -2.6754   -1.7115 H   0  0  0  0  0  0  0  0  0  0  0  0
   -1.3168   -2.0554   -0.3826 C   0  0  0  0  0  0  0  0  0  0  0  0
   -0.4428   -2.6786    0.1942 O   0  0  0  0  0  0  0  0  0  0  0  0
   -1.0814   -0.7632   -0.8063 N   0  0  0  0  0  0  0  0  0  0  0  0
   -1.8115   -0.3270   -1.3747 H   0  0  0  0  0  0  0  0  0  0  0  0
    0.2268   -0.0854   -0.7448 C   0  0  1  0  0  0  0  0  0  0  0  0
    0.9381   -0.6954   -1.3141 H   0  0  0  0  0  0  0  0  0  0  0  0
    0.1422    1.3018   -1.4118 C   0  0  0  0  0  0  0  0  0  0  0  0
   -0.3840    1.9955   -0.7497 H   0  0  0  0  0  0  0  0  0  0  0  0
    1.1522    1.6939   -1.5614 H   0  0  0  0  0  0  0  0  0  0  0  0
   -0.5952    1.2747   -2.7427 C   0  0  0  0  0  0  0  0  0  0  0  0
   -1.8091    1.1743   -2.7938 O   0  0  0  0  0  0  0  0  0  0  0  0
    0.0657    1.2920   -3.9375 N   0  0  0  0  0  0  0  0  0  0  0  0
   -0.5028    1.3956   -4.7734 H   0  0  0  0  0  0  0  0  0  0  0  0
    1.0569    1.5112   -3.9580 H   0  0  0  0  0  0  0  0  0  0  0  0
    0.8205    0.0520    0.6717 C   0  0  0  0  0  0  0  0  0  0  0  0
    2.0364    0.0616    0.8093 O   0  0  0  0  0  0  0  0  0  0  0  0
    0.0173    0.4618    1.7201 N   0  0  0  0  0  0  0  0  0  0  0  0
   -0.9837    0.3673    1.5783 H   0  0  0  0  0  0  0  0  0  0  0  0
    0.5194    0.6417    3.0765 C   0  0  0  0  0  0  0  0  0  0  0  0
    1.3229    1.3857    3.0938 H   0  0  0  0  0  0  0  0  0  0  0  0
   -0.2840    0.9885    3.7335 H   0  0  0  0  0  0  0  0  0  0  0  0
    0.9068   -0.3045    3.4687 H   0  0  0  0  0  0  0  0  0  0  0  0
  1  2  1  0  0  0  0
  2  3  1  0  0  0  0
  2  4  1  0  0  0  0
  2  5  1  0  0  0  0
  5  6  2  0  0  0  0
  5  7  1  0  0  0  0
  7  8  1  0  0  0  0
  7  9  1  0  0  0  0
  9 10  1  0  0  0  0
  9 11  1  0  0  0  0
  9 19  1  0  0  0  0
 11 12  1  0  0  0  0
 11 13  1  0  0  0  0
 11 14  1  0  0  0  0
 14 15  2  0  0  0  0
 14 16  1  0  0  0  0
 16 17  1  0  0  0  0
 16 18  1  0  0  0  0
 19 20  2  0  0  0  0
 19 21  1  0  0  0  0
 21 22  1  0  0  0  0
 21 23  1  0  0  0  0
 23 24  1  0  0  0  0
 23 25  1  0  0  0  0
 23 26  1  0  0  0  0
M  END
$$$$

  -OEChem-03222214023D

 26 25  0     1  0  0  0  0  0999 V2000
   -2.6630   -3.7289   -0.3045 H   0  0  0  0  0  0  0  0  0  0  0  0
   -2.6685   -2.6864   -0.6352 C   0  0  0  0  0  0  0  0  0  0  0  0
   -3.4323   -2.1427   -0.0742 H   0  0  0  0  0  0  0  0  0  0  0  0
   -2.9171   -2.6562   -1.6989 H   0  0  0  0  0  0  0  0  0  0  0  0
   -1.3080   -2.0570   -0.4027 C   0  0  0  0  0  0  0  0  0  0  0  0
   -0.4257   -2.6928    0.1466 O   0  0  0  0  0  0  0  0  0  0  0  0
   -1.0705   -0.7635   -0.8215 N   0  0  0  0  0  0  0  0  0  0  0  0
   -1.8184   -0.3033   -1.3437 H   0  0  0  0  0  0  0  0  0  0  0  0
    0.2375   -0.0851   -0.7474 C   0  0  1  0  0  0  0  0  0  0  0  0
    0.9541   -0.6915   -1.3139 H   0  0  0  0  0  0  0  0  0  0  0  0
    0.1424    1.2993   -1.4133 C   0  0  0  0  0  0  0  0  0  0  0  0
   -0.3932    1.9905   -0.7558 H   0  0  0  0  0  0  0  0  0  0  0  0
    1.1471    1.7031   -1.5671 H   0  0  0  0  0  0  0  0  0  0  0  0
   -0.5920    1.2372   -2.7423 C   0  0  0  0  0  0  0  0  0  0  0  0
   -1.7995    1.3842   -2.7988 O   0  0  0  0  0  0  0  0  0  0  0  0
    0.0523    0.9763   -3.9175 N   0  0  0  0  0  0  0  0  0  0  0  0
   -0.4874    1.1071   -4.7685 H   0  0  0  0  0  0  0  0  0  0  0  0
    1.0665    1.0110   -3.9445 H   0  0  0  0  0  0  0  0  0  0  0  0
    0.8230    0.0513    0.6725 C   0  0  0  0  0  0  0  0  0  0  0  0
    2.0380    0.0527    0.8174 O   0  0  0  0  0  0  0  0  0  0  0  0
    0.0153    0.4594    1.7182 N   0  0  0  0  0  0  0  0  0  0  0  0
   -0.9860    0.3802    1.5702 H   0  0  0  0  0  0  0  0  0  0  0  0
    0.5116    0.6407    3.0765 C   0  0  0  0  0  0  0  0  0  0  0  0
    1.3141    1.3857    3.0966 H   0  0  0  0  0  0  0  0  0  0  0  0
   -0.2941    0.9863    3.7311 H   0  0  0  0  0  0  0  0  0  0  0  0
    0.8989   -0.3050    3.4700 H   0  0  0  0  0  0  0  0  0  0  0  0
  1  2  1  0  0  0  0
  2  3  1  0  0  0  0
  2  4  1  0  0  0  0
  2  5  1  0  0  0  0
  5  6  2  0  0  0  0
  5  7  1  0  0  0  0
  7  8  1  0  0  0  0
  7  9  1  0  0  0  0
  9 10  1  0  0  0  0
  9 11  1  0  0  0  0
  9 19  1  0  0  0  0
 11 12  1  0  0  0  0
 11 13  1  0  0  0  0
 11 14  1  0  0  0  0
 14 15  2  0  0  0  0
 14 16  1  0  0  0  0
 16 17  1  0  0  0  0
 16 18  1  0  0  0  0
 19 20  2  0  0  0  0
 19 21  1  0  0  0  0
 21 22  1  0  0  0  0
 21 23  1  0  0  0  0
 23 24  1  0  0  0  0
 23 25  1  0  0  0  0
 23 26  1  0  0  0  0
M  END
$$$$

  -OEChem-03222214023D

 26 25  0     1  0  0  0  0  0999 V2000
   -2.6688   -3.7296   -0.2613 H   0  0  0  0  0  0  0  0  0  0  0  0
   -2.6761   -2.6895   -0.5991 C   0  0  0  0  0  0  0  0  0  0  0  0
   -3.4192   -2.1361   -0.0198 H   0  0  0  0  0  0  0  0  0  0  0  0
   -2.9553   -2.6652   -1.6554 H   0  0  0  0  0  0  0  0  0  0  0  0
   -1.3043   -2.0698   -0.4106 C   0  0  0  0  0  0  0  0  0  0  0  0
   -0.4084   -2.7139    0.1057 O   0  0  0  0  0  0  0  0  0  0  0  0
   -1.0723   -0.7750   -0.8296 N   0  0  0  0  0  0  0  0  0  0  0  0
   -1.8403   -0.2976   -1.3020 H   0  0  0  0  0  0  0  0  0  0  0  0
    0.2346   -0.0935   -0.7525 C   0  0  1  0  0  0  0  0  0  0  0  0
    0.9539   -0.6996   -1.3157 H   0  0  0  0  0  0  0  0  0  0  0  0
    0.1393    1.2881   -1.4214 C   0  0  0  0  0  0  0  0  0  0  0  0
   -0.3987    1.9797   -0.7661 H   0  0  0  0  0  0  0  0  0  0  0  0
    1.1435    1.6932   -1.5753 H   0  0  0  0  0  0  0  0  0  0  0  0
   -0.5897    1.2204   -2.7526 C   0  0  0  0  0  0  0  0  0  0  0  0
   -1.7318    1.6231   -2.8649 O   0  0  0  0  0  0  0  0  0  0  0  0
   -0.0035    0.7177   -3.8789 N   0  0  0  0  0  0  0  0  0  0  0  0
   -0.4950    0.8838   -4.7528 H   0  0  0  0  0  0  0  0  0  0  0  0
    0.9988    0.5548   -3.8812 H   0  0  0  0  0  0  0  0  0  0  0  0
    0.8172    0.0441    0.6686 C   0  0  0  0  0  0  0  0  0  0  0  0
    2.0317    0.0393    0.8165 O   0  0  0  0  0  0  0  0  0  0  0  0
    0.0083    0.4505    1.7141 N   0  0  0  0  0  0  0  0  0  0  0  0
   -0.9935    0.3874    1.5626 H   0  0  0  0  0  0  0  0  0  0  0  0
    0.5035    0.6404    3.0715 C   0  0  0  0  0  0  0  0  0  0  0  0
    1.3010    1.3908    3.0880 H   0  0  0  0  0  0  0  0  0  0  0  0
   -0.3046    0.9835    3.7244 H   0  0  0  0  0  0  0  0  0  0  0  0
    0.8964   -0.3011    3.4695 H   0  0  0  0  0  0  0  0  0  0  0  0
  1  2  1  0  0  0  0
  2  3  1  0  0  0  0
  2  4  1  0  0  0  0
  2  5  1  0  0  0  0
  5  6  2  0  0  0  0
  5  7  1  0  0  0  0
  7  8  1  0  0  0  0
  7  9  1  0  0  0  0
  9 10  1  0  0  0  0
  9 11  1  0  0  0  0
  9 19  1  0  0  0  0
 11 12  1  0  0  0  0
 11 13  1  0  0  0  0
 11 14  1  0  0  0  0
 14 15  2  0  0  0  0
 14 16  1  0  0  0  0
 16 17  1  0  0  0  0
 16 18  1  0  0  0  0
 19 20  2  0  0  0  0
 19 21  1  0  0  0  0
 21 22  1  0  0  0  0
 21 23  1  0  0  0  0
 23 24  1  0  0  0  0
 23 25  1  0  0  0  0
 23 26  1  0  0  0  0
M  END
$$$$

  -OEChem-03222214023D

 26 25  0     1  0  0  0  0  0999 V2000
   -2.6697   -3.7354   -0.2050 H   0  0  0  0  0  0  0  0  0  0  0  0
   -2.6820   -2.6987   -0.5533 C   0  0  0  0  0  0  0  0  0  0  0  0
   -3.4071   -2.1367    0.0402 H   0  0  0  0  0  0  0  0  0  0  0  0
   -2.9894   -2.6840   -1.6017 H   0  0  0  0  0  0  0  0  0  0  0  0
   -1.3031   -2.0828   -0.4080 C   0  0  0  0  0  0  0  0  0  0  0  0
   -0.3932   -2.7302    0.0783 O   0  0  0  0  0  0  0  0  0  0  0  0
   -1.0796   -0.7871   -0.8303 N   0  0  0  0  0  0  0  0  0  0  0  0
   -1.8631   -0.3005   -1.2633 H   0  0  0  0  0  0  0  0  0  0  0  0
    0.2261   -0.1020   -0.7573 C   0  0  1  0  0  0  0  0  0  0  0  0
    0.9460   -0.7101   -1.3174 H   0  0  0  0  0  0  0  0  0  0  0  0
    0.1356    1.2787   -1.4300 C   0  0  0  0  0  0  0  0  0  0  0  0
   -0.3976    1.9731   -0.7735 H   0  0  0  0  0  0  0  0  0  0  0  0
    1.1421    1.6779   -1.5843 H   0  0  0  0  0  0  0  0  0  0  0  0
   -0.5906    1.2237   -2.7645 C   0  0  0  0  0  0  0  0  0  0  0  0
   -1.6057    1.8634   -2.9577 O   0  0  0  0  0  0  0  0  0  0  0  0
   -0.1175    0.5027   -3.8239 N   0  0  0  0  0  0  0  0  0  0  0  0
   -0.5486    0.6979   -4.7234 H   0  0  0  0  0  0  0  0  0  0  0  0
    0.8283    0.1357   -3.7834 H   0  0  0  0  0  0  0  0  0  0  0  0
    0.8086    0.0367    0.6640 C   0  0  0  0  0  0  0  0  0  0  0  0
    2.0227    0.0287    0.8138 O   0  0  0  0  0  0  0  0  0  0  0  0
   -0.0011    0.4413    1.7097 N   0  0  0  0  0  0  0  0  0  0  0  0
   -1.0029    0.3877    1.5562 H   0  0  0  0  0  0  0  0  0  0  0  0
    0.4929    0.6368    3.0668 C   0  0  0  0  0  0  0  0  0  0  0  0
    1.2866    1.3912    3.0815 H   0  0  0  0  0  0  0  0  0  0  0  0
   -0.3171    0.9776    3.7186 H   0  0  0  0  0  0  0  0  0  0  0  0
    0.8905   -0.3016    3.4676 H   0  0  0  0  0  0  0  0  0  0  0  0
  1  2  1  0  0  0  0
  2  3  1  0  0  0  0
  2  4  1  0  0  0  0
  2  5  1  0  0  0  0
  5  6  2  0  0  0  0
  5  7  1  0  0  0  0
  7  8  1  0  0  0  0
  7  9  1  0  0  0  0
  9 10  1  0  0  0  0
  9 11  1  0  0  0  0
  9 19  1  0  0  0  0
 11 12  1  0  0  0  0
 11 13  1  0  0  0  0
 11 14  1  0  0  0  0
 14 15  2  0  0  0  0
 14 16  1  0  0  0  0
 16 17  1  0  0  0  0
 16 18  1  0  0  0  0
 19 20  2  0  0  0  0
 19 21  1  0  0  0  0
 21 22  1  0  0  0  0
 21 23  1  0  0  0  0
 23 24  1  0  0  0  0
 23 25  1  0  0  0  0
 23 26  1  0  0  0  0
M  END
$$$$

  -OEChem-03222214023D

 26 25  0     1  0  0  0  0  0999 V2000
   -2.6734   -3.7531   -0.1754 H   0  0  0  0  0  0  0  0  0  0  0  0
   -2.6920   -2.7170   -0.5258 C   0  0  0  0  0  0  0  0  0  0  0  0
   -3.4153   -2.1568    0.0715 H   0  0  0  0  0  0  0  0  0  0  0  0
   -3.0069   -2.7063   -1.5721 H   0  0  0  0  0  0  0  0  0  0  0  0
   -1.3144   -2.0960   -0.3905 C   0  0  0  0  0  0  0  0  0  0  0  0
   -0.3985   -2.7414    0.0867 O   0  0  0  0  0  0  0  0  0  0  0  0
   -1.0970   -0.8006   -0.8181 N   0  0  0  0  0  0  0  0  0  0  0  0
   -1.8850   -0.3176   -1.2450 H   0  0  0  0  0  0  0  0  0  0  0  0
    0.2081   -0.1135   -0.7528 C   0  0  1  0  0  0  0  0  0  0  0  0
    0.9268   -0.7251   -1.3107 H   0  0  0  0  0  0  0  0  0  0  0  0
    0.1235    1.2658   -1.4318 C   0  0  0  0  0  0  0  0  0  0  0  0
   -0.4038    1.9640   -0.7749 H   0  0  0  0  0  0  0  0  0  0  0  0
    1.1338    1.6559   -1.5857 H   0  0  0  0  0  0  0  0  0  0  0  0
   -0.6001    1.2314   -2.7697 C   0  0  0  0  0  0  0  0  0  0  0  0
   -1.4331    2.0667   -3.0594 O   0  0  0  0  0  0  0  0  0  0  0  0
   -0.2852    0.3375   -3.7536 N   0  0  0  0  0  0  0  0  0  0  0  0
   -0.6430    0.5594   -4.6787 H   0  0  0  0  0  0  0  0  0  0  0  0
    0.5670   -0.2062   -3.6599 H   0  0  0  0  0  0  0  0  0  0  0  0
    0.7973    0.0303    0.6658 C   0  0  0  0  0  0  0  0  0  0  0  0
    2.0119    0.0175    0.8091 O   0  0  0  0  0  0  0  0  0  0  0  0
   -0.0052    0.4368    1.7165 N   0  0  0  0  0  0  0  0  0  0  0  0
   -1.0083    0.3904    1.5703 H   0  0  0  0  0  0  0  0  0  0  0  0
    0.5008    0.6469    3.0673 C   0  0  0  0  0  0  0  0  0  0  0  0
    1.2891    1.4072    3.0680 H   0  0  0  0  0  0  0  0  0  0  0  0
   -0.3049    0.9871    3.7247 H   0  0  0  0  0  0  0  0  0  0  0  0
    0.9098   -0.2849    3.4718 H   0  0  0  0  0  0  0  0  0  0  0  0
  1  2  1  0  0  0  0
  2  3  1  0  0  0  0
  2  4  1  0  0  0  0
  2  5  1  0  0  0  0
  5  6  2  0  0  0  0
  5  7  1  0  0  0  0
  7  8  1  0  0  0  0
  7  9  1  0  0  0  0
  9 10  1  0  0  0  0
  9 11  1  0  0  0  0
  9 19  1  0  0  0  0
 11 12  1  0  0  0  0
 11 13  1  0  0  0  0
 11 14  1  0  0  0  0
 14 15  2  0  0  0  0
 14 16  1  0  0  0  0
 16 17  1  0  0  0  0
 16 18  1  0  0  0  0
 19 20  2  0  0  0  0
 19 21  1  0  0  0  0
 21 22  1  0  0  0  0
 21 23  1  0  0  0  0
 23 24  1  0  0  0  0
 23 25  1  0  0  0  0
 23 26  1  0  0  0  0
M  END
$$$$

  -OEChem-03222214023D

 26 25  0     1  0  0  0  0  0999 V2000
   -2.6749   -3.7637   -0.1531 H   0  0  0  0  0  0  0  0  0  0  0  0
   -2.6967   -2.7281   -0.5047 C   0  0  0  0  0  0  0  0  0  0  0  0
   -3.4201   -2.1689    0.0935 H   0  0  0  0  0  0  0  0  0  0  0  0
   -3.0140   -2.7192   -1.5504 H   0  0  0  0  0  0  0  0  0  0  0  0
   -1.3203   -2.1035   -0.3733 C   0  0  0  0  0  0  0  0  0  0  0  0
   -0.4000   -2.7469    0.0976 O   0  0  0  0  0  0  0  0  0  0  0  0
   -1.1067   -0.8088   -0.8046 N   0  0  0  0  0  0  0  0  0  0  0  0
   -1.8950   -0.3326   -1.2372 H   0  0  0  0  0  0  0  0  0  0  0  0
    0.1976   -0.1187   -0.7470 C   0  0  1  0  0  0  0  0  0  0  0  0
    0.9162   -0.7298   -1.3054 H   0  0  0  0  0  0  0  0  0  0  0  0
    0.1125    1.2605   -1.4291 C   0  0  0  0  0  0  0  0  0  0  0  0
   -0.4119    1.9575   -0.7685 H   0  0  0  0  0  0  0  0  0  0  0  0
    1.1242    1.6476   -1.5818 H   0  0  0  0  0  0  0  0  0  0  0  0
   -0.6117    1.2498   -2.7688 C   0  0  0  0  0  0  0  0  0  0  0  0
   -1.2246    2.2225   -3.1595 O   0  0  0  0  0  0  0  0  0  0  0  0
   -0.5112    0.2204   -3.6625 N   0  0  0  0  0  0  0  0  0  0  0  0
   -0.8038    0.4384   -4.6113 H   0  0  0  0  0  0  0  0  0  0  0  0
    0.2025   -0.4848   -3.5064 H   0  0  0  0  0  0  0  0  0  0  0  0
    0.7926    0.0293    0.6686 C   0  0  0  0  0  0  0  0  0  0  0  0
    2.0075    0.0128    0.8081 O   0  0  0  0  0  0  0  0  0  0  0  0
   -0.0053    0.4364    1.7223 N   0  0  0  0  0  0  0  0  0  0  0  0
   -1.0090    0.3954    1.5797 H   0  0  0  0  0  0  0  0  0  0  0  0
    0.5075    0.6528    3.0694 C   0  0  0  0  0  0  0  0  0  0  0  0
    1.2844    1.4247    3.0645 H   0  0  0  0  0  0  0  0  0  0  0  0
   -0.2984    0.9802    3.7332 H   0  0  0  0  0  0  0  0  0  0  0  0
    0.9334   -0.2734    3.4697 H   0  0  0  0  0  0  0  0  0  0  0  0
  1  2  1  0  0  0  0
  2  3  1  0  0  0  0
  2  4  1  0  0  0  0
  2  5  1  0  0  0  0
  5  6  2  0  0  0  0
  5  7  1  0  0  0  0
  7  8  1  0  0  0  0
  7  9  1  0  0  0  0
  9 10  1  0  0  0  0
  9 11  1  0  0  0  0
  9 19  1  0  0  0  0
 11 12  1  0  0  0  0
 11 13  1  0  0  0  0
 11 14  1  0  0  0  0
 14 15  2  0  0  0  0
 14 16  1  0  0  0  0
 16 17  1  0  0  0  0
 16 18  1  0  0  0  0
 19 20  2  0  0  0  0
 19 21  1  0  0  0  0
 21 22  1  0  0  0  0
 21 23  1  0  0  0  0
 23 24  1  0  0  0  0
 23 25  1  0  0  0  0
 23 26  1  0  0  0  0
M  END
$$$$

  -OEChem-03222214023D

 26 25  0     1  0  0  0  0  0999 V2000
   -2.6662   -3.7685   -0.1002 H   0  0  0  0  0  0  0  0  0  0  0  0
   -2.6949   -2.7349   -0.4571 C   0  0  0  0  0  0  0  0  0  0  0  0
   -3.4027   -2.1715    0.1556 H   0  0  0  0  0  0  0  0  0  0  0  0
   -3.0373   -2.7309   -1.4948 H   0  0  0  0  0  0  0  0  0  0  0  0
   -1.3147   -2.1123   -0.3627 C   0  0  0  0  0  0  0  0  0  0  0  0
   -0.3810   -2.7589    0.0756 O   0  0  0  0  0  0  0  0  0  0  0  0
   -1.1120   -0.8164   -0.7960 N   0  0  0  0  0  0  0  0  0  0  0  0
   -1.9126   -0.3357   -1.2002 H   0  0  0  0  0  0  0  0  0  0  0  0
    0.1876   -0.1166   -0.7475 C   0  0  1  0  0  0  0  0  0  0  0  0
    0.9079   -0.7240   -1.3080 H   0  0  0  0  0  0  0  0  0  0  0  0
    0.0970    1.2621   -1.4330 C   0  0  0  0  0  0  0  0  0  0  0  0
   -0.4253    1.9571   -0.7690 H   0  0  0  0  0  0  0  0  0  0  0  0
    1.1091    1.6487   -1.5847 H   0  0  0  0  0  0  0  0  0  0  0  0
   -0.6265    1.2766   -2.7751 C   0  0  0  0  0  0  0  0  0  0  0  0
   -0.9966    2.3211   -3.2711 O   0  0  0  0  0  0  0  0  0  0  0  0
   -0.7568    0.1778   -3.5783 N   0  0  0  0  0  0  0  0  0  0  0  0
   -0.9844    0.3794   -4.5485 H   0  0  0  0  0  0  0  0  0  0  0  0
   -0.2043   -0.6442   -3.3545 H   0  0  0  0  0  0  0  0  0  0  0  0
    0.7864    0.0341    0.6670 C   0  0  0  0  0  0  0  0  0  0  0  0
    2.0012    0.0176    0.8055 O   0  0  0  0  0  0  0  0  0  0  0  0
   -0.0104    0.4345    1.7245 N   0  0  0  0  0  0  0  0  0  0  0  0
   -1.0143    0.3918    1.5850 H   0  0  0  0  0  0  0  0  0  0  0  0
    0.5058    0.6436    3.0716 C   0  0  0  0  0  0  0  0  0  0  0  0
    1.2895    1.4086    3.0681 H   0  0  0  0  0  0  0  0  0  0  0  0
   -0.2964    0.9765    3.7371 H   0  0  0  0  0  0  0  0  0  0  0  0
    0.9238   -0.2874    3.4690 H   0  0  0  0  0  0  0  0  0  0  0  0
  1  2  1  0  0  0  0
  2  3  1  0  0  0  0
  2  4  1  0  0  0  0
  2  5  1  0  0  0  0
  5  6  2  0  0  0  0
  5  7  1  0  0  0  0
  7  8  1  0  0  0  0
  7  9  1  0  0  0  0
  9 10  1  0  0  0  0
  9 11  1  0  0  0  0
  9 19  1  0  0  0  0
 11 12  1  0  0  0  0
 11 13  1  0  0  0  0
 11 14  1  0  0  0  0
 14 15  2  0  0  0  0
 14 16  1  0  0  0  0
 16 17  1  0  0  0  0
 16 18  1  0  0  0  0
 19 20  2  0  0  0  0
 19 21  1  0  0  0  0
 21 22  1  0  0  0  0
 21 23  1  0  0  0  0
 23 24  1  0  0  0  0
 23 25  1  0  0  0  0
 23 26  1  0  0  0  0
M  END
$$$$

  -OEChem-03222214023D

 26 25  0     1  0  0  0  0  0999 V2000
   -2.6021   -3.8285    0.0253 H   0  0  0  0  0  0  0  0  0  0  0  0
   -2.6703   -2.7976   -0.3343 C   0  0  0  0  0  0  0  0  0  0  0  0
   -3.3486   -2.2430    0.3184 H   0  0  0  0  0  0  0  0  0  0  0  0
   -3.0766   -2.8061   -1.3487 H   0  0  0  0  0  0  0  0  0  0  0  0
   -1.2972   -2.1519   -0.3281 C   0  0  0  0  0  0  0  0  0  0  0  0
   -0.3252   -2.7885    0.0336 O   0  0  0  0  0  0  0  0  0  0  0  0
   -1.1464   -0.8450   -0.7511 N   0  0  0  0  0  0  0  0  0  0  0  0
   -1.9884   -0.3556   -1.0482 H   0  0  0  0  0  0  0  0  0  0  0  0
    0.1337   -0.1071   -0.7310 C   0  0  1  0  0  0  0  0  0  0  0  0
    0.8463   -0.7095   -1.3074 H   0  0  0  0  0  0  0  0  0  0  0  0
    0.0528    1.2762   -1.4248 C   0  0  0  0  0  0  0  0  0  0  0  0
   -0.2249    2.0228   -0.6751 H   0  0  0  0  0  0  0  0  0  0  0  0
    1.0513    1.5386   -1.7872 H   0  0  0  0  0  0  0  0  0  0  0  0
   -0.9320    1.4465   -2.5802 C   0  0  0  0  0  0  0  0  0  0  0  0
   -1.0310    2.5136   -3.1502 O   0  0  0  0  0  0  0  0  0  0  0  0
   -1.5122    0.4121   -3.2596 N   0  0  0  0  0  0  0  0  0  0  0  0
   -1.8289    0.6606   -4.1937 H   0  0  0  0  0  0  0  0  0  0  0  0
   -1.1190   -0.5118   -3.1056 H   0  0  0  0  0  0  0  0  0  0  0  0
    0.7651    0.0420    0.6703 C   0  0  0  0  0  0  0  0  0  0  0  0
    1.9826    0.0593    0.7792 O   0  0  0  0  0  0  0  0  0  0  0  0
   -0.0150    0.4047    1.7540 N   0  0  0  0  0  0  0  0  0  0  0  0
   -1.0210    0.3455    1.6388 H   0  0  0  0  0  0  0  0  0  0  0  0
    0.5305    0.6171    3.0893 C   0  0  0  0  0  0  0  0  0  0  0  0
    1.2833    1.4123    3.0747 H   0  0  0  0  0  0  0  0  0  0  0  0
   -0.2650    0.9097    3.7812 H   0  0  0  0  0  0  0  0  0  0  0  0
    0.9956   -0.3013    3.4629 H   0  0  0  0  0  0  0  0  0  0  0  0
  1  2  1  0  0  0  0
  2  3  1  0  0  0  0
  2  4  1  0  0  0  0
  2  5  1  0  0  0  0
  5  6  2  0  0  0  0
  5  7  1  0  0  0  0
  7  8  1  0  0  0  0
  7  9  1  0  0  0  0
  9 10  1  0  0  0  0
  9 11  1  0  0  0  0
  9 19  1  0  0  0  0
 11 12  1  0  0  0  0
 11 13  1  0  0  0  0
 11 14  1  0  0  0  0
 14 15  2  0  0  0  0
 14 16  1  0  0  0  0
 16 17  1  0  0  0  0
 16 18  1  0  0  0  0
 19 20  2  0  0  0  0
 19 21  1  0  0  0  0
 21 22  1  0  0  0  0
 21 23  1  0  0  0  0
 23 24  1  0  0  0  0
 23 25  1  0  0  0  0
 23 26  1  0  0  0  0
M  END
$$$$

  -OEChem-03222214023D

 26 25  0     1  0  0  0  0  0999 V2000
   -2.5636   -3.8255    0.0805 H   0  0  0  0  0  0  0  0  0  0  0  0
   -2.6492   -2.7945   -0.2748 C   0  0  0  0  0  0  0  0  0  0  0  0
   -3.2846   -2.2368    0.4172 H   0  0  0  0  0  0  0  0  0  0  0  0
   -3.1156   -2.8015   -1.2629 H   0  0  0  0  0  0  0  0  0  0  0  0
   -1.2757   -2.1544   -0.3524 C   0  0  0  0  0  0  0  0  0  0  0  0
   -0.2846   -2.7995   -0.0660 O   0  0  0  0  0  0  0  0  0  0  0  0
   -1.1492   -0.8401   -0.7623 N   0  0  0  0  0  0  0  0  0  0  0  0
   -2.0131   -0.3247   -0.9188 H   0  0  0  0  0  0  0  0  0  0  0  0
    0.1235   -0.0894   -0.7411 C   0  0  1  0  0  0  0  0  0  0  0  0
    0.8375   -0.6836   -1.3248 H   0  0  0  0  0  0  0  0  0  0  0  0
    0.0468    1.3001   -1.4268 C   0  0  0  0  0  0  0  0  0  0  0  0
   -0.2316    2.0387   -0.6697 H   0  0  0  0  0  0  0  0  0  0  0  0
    1.0507    1.5614   -1.7758 H   0  0  0  0  0  0  0  0  0  0  0  0
   -0.9249    1.5067   -2.5900 C   0  0  0  0  0  0  0  0  0  0  0  0
   -0.8176    2.4795   -3.3081 O   0  0  0  0  0  0  0  0  0  0  0  0
   -1.7370    0.5448   -3.1204 N   0  0  0  0  0  0  0  0  0  0  0  0
   -2.0369    0.7529   -4.0697 H   0  0  0  0  0  0  0  0  0  0  0  0
   -1.4981   -0.4148   -2.8888 H   0  0  0  0  0  0  0  0  0  0  0  0
    0.7575    0.0461    0.6605 C   0  0  0  0  0  0  0  0  0  0  0  0
    1.9747    0.0661    0.7699 O   0  0  0  0  0  0  0  0  0  0  0  0
   -0.0231    0.3862    1.7512 N   0  0  0  0  0  0  0  0  0  0  0  0
   -1.0290    0.3314    1.6363 H   0  0  0  0  0  0  0  0  0  0  0  0
    0.5238    0.5801    3.0888 C   0  0  0  0  0  0  0  0  0  0  0  0
    1.2665    1.3849    3.0871 H   0  0  0  0  0  0  0  0  0  0  0  0
   -0.2732    0.8491    3.7884 H   0  0  0  0  0  0  0  0  0  0  0  0
    1.0017   -0.3393    3.4432 H   0  0  0  0  0  0  0  0  0  0  0  0
  1  2  1  0  0  0  0
  2  3  1  0  0  0  0
  2  4  1  0  0  0  0
  2  5  1  0  0  0  0
  5  6  2  0  0  0  0
  5  7  1  0  0  0  0
  7  8  1  0  0  0  0
  7  9  1  0  0  0  0
  9 10  1  0  0  0  0
  9 11  1  0  0  0  0
  9 19  1  0  0  0  0
 11 12  1  0  0  0  0
 11 13  1  0  0  0  0
 11 14  1  0  0  0  0
 14 15  2  0  0  0  0
 14 16  1  0  0  0  0
 16 17  1  0  0  0  0
 16 18  1  0  0  0  0
 19 20  2  0  0  0  0
 19 21  1  0  0  0  0
 21 22  1  0  0  0  0
 21 23  1  0  0  0  0
 23 24  1  0  0  0  0
 23 25  1  0  0  0  0
 23 26  1  0  0  0  0
M  END
$$$$

  -OEChem-03222214023D

 26 25  0     1  0  0  0  0  0999 V2000
   -2.5211   -3.8155    0.1130 H   0  0  0  0  0  0  0  0  0  0  0  0
   -2.6244   -2.7840   -0.2364 C   0  0  0  0  0  0  0  0  0  0  0  0
   -3.2153   -2.2251    0.4930 H   0  0  0  0  0  0  0  0  0  0  0  0
   -3.1492   -2.7896   -1.1948 H   0  0  0  0  0  0  0  0  0  0  0  0
   -1.2557   -2.1494   -0.3975 C   0  0  0  0  0  0  0  0  0  0  0  0
   -0.2523   -2.8044   -0.1866 O   0  0  0  0  0  0  0  0  0  0  0  0
   -1.1508   -0.8269   -0.7888 N   0  0  0  0  0  0  0  0  0  0  0  0
   -2.0186   -0.2956   -0.7972 H   0  0  0  0  0  0  0  0  0  0  0  0
    0.1188   -0.0713   -0.7512 C   0  0  1  0  0  0  0  0  0  0  0  0
    0.8355   -0.6608   -1.3369 H   0  0  0  0  0  0  0  0  0  0  0  0
    0.0585    1.3216   -1.4315 C   0  0  0  0  0  0  0  0  0  0  0  0
   -0.2296    2.0552   -0.6735 H   0  0  0  0  0  0  0  0  0  0  0  0
    1.0711    1.5805   -1.7579 H   0  0  0  0  0  0  0  0  0  0  0  0
   -0.8903    1.5500   -2.6111 C   0  0  0  0  0  0  0  0  0  0  0  0
   -0.6100    2.3601   -3.4708 O   0  0  0  0  0  0  0  0  0  0  0  0
   -1.9448    0.7562   -2.9611 N   0  0  0  0  0  0  0  0  0  0  0  0
   -2.2632    0.9301   -3.9114 H   0  0  0  0  0  0  0  0  0  0  0  0
   -1.8811   -0.2081   -2.6527 H   0  0  0  0  0  0  0  0  0  0  0  0
    0.7496    0.0450    0.6540 C   0  0  0  0  0  0  0  0  0  0  0  0
    1.9661    0.0654    0.7685 O   0  0  0  0  0  0  0  0  0  0  0  0
   -0.0336    0.3646    1.7496 N   0  0  0  0  0  0  0  0  0  0  0  0
   -1.0395    0.3235    1.6321 H   0  0  0  0  0  0  0  0  0  0  0  0
    0.5124    0.5415    3.0900 C   0  0  0  0  0  0  0  0  0  0  0  0
    1.2450    1.3554    3.1020 H   0  0  0  0  0  0  0  0  0  0  0  0
   -0.2868    0.7876    3.7954 H   0  0  0  0  0  0  0  0  0  0  0  0
    1.0023   -0.3779    3.4276 H   0  0  0  0  0  0  0  0  0  0  0  0
  1  2  1  0  0  0  0
  2  3  1  0  0  0  0
  2  4  1  0  0  0  0
  2  5  1  0  0  0  0
  5  6  2  0  0  0  0
  5  7  1  0  0  0  0
  7  8  1  0  0  0  0
  7  9  1  0  0  0  0
  9 10  1  0  0  0  0
  9 11  1  0  0  0  0
  9 19  1  0  0  0  0
 11 12  1  0  0  0  0
 11 13  1  0  0  0  0
 11 14  1  0  0  0  0
 14 15  2  0  0  0  0
 14 16  1  0  0  0  0
 16 17  1  0  0  0  0
 16 18  1  0  0  0  0
 19 20  2  0  0  0  0
 19 21  1  0  0  0  0
 21 22  1  0  0  0  0
 21 23  1  0  0  0  0
 23 24  1  0  0  0  0
 23 25  1  0  0  0  0
 23 26  1  0  0  0  0
M  END
$$$$

  -OEChem-03222214023D

 26 25  0     1  0  0  0  0  0999 V2000
   -2.5069   -3.9527   -0.1127 H   0  0  0  0  0  0  0  0  0  0  0  0
   -2.5451   -2.9599   -0.5705 C   0  0  0  0  0  0  0  0  0  0  0  0
   -3.4156   -2.4265   -0.1810 H   0  0  0  0  0  0  0  0  0  0  0  0
   -2.6505   -3.0767   -1.6519 H   0  0  0  0  0  0  0  0  0  0  0  0
   -1.2769   -2.1900   -0.2522 C   0  0  0  0  0  0  0  0  0  0  0  0
   -0.4159   -2.7001    0.4407 O   0  0  0  0  0  0  0  0  0  0  0  0
   -1.1120   -0.9082   -0.7438 N   0  0  0  0  0  0  0  0  0  0  0  0
   -1.7959   -0.6269   -1.4438 H   0  0  0  0  0  0  0  0  0  0  0  0
    0.1808   -0.1903   -0.7320 C   0  0  1  0  0  0  0  0  0  0  0  0
    0.8946   -0.8235   -1.2728 H   0  0  0  0  0  0  0  0  0  0  0  0
    0.1296    1.1726   -1.4682 C   0  0  0  0  0  0  0  0  0  0  0  0
   -0.1383    1.9564   -0.7541 H   0  0  0  0  0  0  0  0  0  0  0  0
    1.1316    1.4065   -1.8423 H   0  0  0  0  0  0  0  0  0  0  0  0
   -0.8605    1.2649   -2.6220 C   0  0  0  0  0  0  0  0  0  0  0  0
   -0.5543    1.7621   -3.6858 O   0  0  0  0  0  0  0  0  0  0  0  0
   -2.2124    1.1800   -2.4308 N   0  0  0  0  0  0  0  0  0  0  0  0
   -2.7449    1.6091   -3.1846 H   0  0  0  0  0  0  0  0  0  0  0  0
   -2.5406    1.3105   -1.4792 H   0  0  0  0  0  0  0  0  0  0  0  0
    0.7892    0.0238    0.6720 C   0  0  0  0  0  0  0  0  0  0  0  0
    2.0050    0.0803    0.7921 O   0  0  0  0  0  0  0  0  0  0  0  0
   -0.0113    0.4552    1.7147 N   0  0  0  0  0  0  0  0  0  0  0  0
   -1.0032    0.2656    1.6174 H   0  0  0  0  0  0  0  0  0  0  0  0
    0.5166    0.7140    3.0490 C   0  0  0  0  0  0  0  0  0  0  0  0
    1.2743    1.5041    3.0155 H   0  0  0  0  0  0  0  0  0  0  0  0
   -0.2866    1.0368    3.7179 H   0  0  0  0  0  0  0  0  0  0  0  0
    0.9710   -0.1924    3.4631 H   0  0  0  0  0  0  0  0  0  0  0  0
  1  2  1  0  0  0  0
  2  3  1  0  0  0  0
  2  4  1  0  0  0  0
  2  5  1  0  0  0  0
  5  6  2  0  0  0  0
  5  7  1  0  0  0  0
  7  8  1  0  0  0  0
  7  9  1  0  0  0  0
  9 10  1  0  0  0  0
  9 11  1  0  0  0  0
  9 19  1  0  0  0  0
 11 12  1  0  0  0  0
 11 13  1  0  0  0  0
 11 14  1  0  0  0  0
 14 15  2  0  0  0  0
 14 16  1  0  0  0  0
 16 17  1  0  0  0  0
 16 18  1  0  0  0  0
 19 20  2  0  0  0  0
 19 21  1  0  0  0  0
 21 22  1  0  0  0  0
 21 23  1  0  0  0  0
 23 24  1  0  0  0  0
 23 25  1  0  0  0  0
 23 26  1  0  0  0  0
M  END
$$$$

  -OEChem-03222214023D

 26 25  0     1  0  0  0  0  0999 V2000
   -2.5342   -3.9155   -0.1818 H   0  0  0  0  0  0  0  0  0  0  0  0
   -2.5813   -2.8993   -0.5840 C   0  0  0  0  0  0  0  0  0  0  0  0
   -3.4279   -2.3795   -0.1291 H   0  0  0  0  0  0  0  0  0  0  0  0
   -2.7351   -2.9577   -1.6643 H   0  0  0  0  0  0  0  0  0  0  0  0
   -1.2921   -2.1582   -0.2818 C   0  0  0  0  0  0  0  0  0  0  0  0
   -0.4236   -2.6962    0.3802 O   0  0  0  0  0  0  0  0  0  0  0  0
   -1.1189   -0.8683   -0.7473 N   0  0  0  0  0  0  0  0  0  0  0  0
   -1.8219   -0.5490   -1.4113 H   0  0  0  0  0  0  0  0  0  0  0  0
    0.1774   -0.1566   -0.7286 C   0  0  1  0  0  0  0  0  0  0  0  0
    0.8858   -0.7805   -1.2871 H   0  0  0  0  0  0  0  0  0  0  0  0
    0.1161    1.2165   -1.4406 C   0  0  0  0  0  0  0  0  0  0  0  0
   -0.1464    1.9911   -0.7148 H   0  0  0  0  0  0  0  0  0  0  0  0
    1.1117    1.4597   -1.8258 H   0  0  0  0  0  0  0  0  0  0  0  0
   -0.8901    1.3009   -2.5792 C   0  0  0  0  0  0  0  0  0  0  0  0
   -0.5564    1.5542   -3.7179 O   0  0  0  0  0  0  0  0  0  0  0  0
   -2.2392    1.3394   -2.3556 N   0  0  0  0  0  0  0  0  0  0  0  0
   -2.7702    1.7023   -3.1442 H   0  0  0  0  0  0  0  0  0  0  0  0
   -2.5413    1.5786   -1.4164 H   0  0  0  0  0  0  0  0  0  0  0  0
    0.7952    0.0274    0.6751 C   0  0  0  0  0  0  0  0  0  0  0  0
    2.0116    0.0828    0.7894 O   0  0  0  0  0  0  0  0  0  0  0  0
    0.0009    0.4421    1.7293 N   0  0  0  0  0  0  0  0  0  0  0  0
   -0.9912    0.2523    1.6342 H   0  0  0  0  0  0  0  0  0  0  0  0
    0.5359    0.6760    3.0653 C   0  0  0  0  0  0  0  0  0  0  0  0
    1.3062    1.4541    3.0397 H   0  0  0  0  0  0  0  0  0  0  0  0
   -0.2606    1.0036    3.7401 H   0  0  0  0  0  0  0  0  0  0  0  0
    0.9768   -0.2425    3.4669 H   0  0  0  0  0  0  0  0  0  0  0  0
  1  2  1  0  0  0  0
  2  3  1  0  0  0  0
  2  4  1  0  0  0  0
  2  5  1  0  0  0  0
  5  6  2  0  0  0  0
  5  7  1  0  0  0  0
  7  8  1  0  0  0  0
  7  9  1  0  0  0  0
  9 10  1  0  0  0  0
  9 11  1  0  0  0  0
  9 19  1  0  0  0  0
 11 12  1  0  0  0  0
 11 13  1  0  0  0  0
 11 14  1  0  0  0  0
 14 15  2  0  0  0  0
 14 16  1  0  0  0  0
 16 17  1  0  0  0  0
 16 18  1  0  0  0  0
 19 20  2  0  0  0  0
 19 21  1  0  0  0  0
 21 22  1  0  0  0  0
 21 23  1  0  0  0  0
 23 24  1  0  0  0  0
 23 25  1  0  0  0  0
 23 26  1  0  0  0  0
M  END
$$$$

  -OEChem-03222214023D

 26 25  0     1  0  0  0  0  0999 V2000
   -2.5647   -3.8705   -0.2299 H   0  0  0  0  0  0  0  0  0  0  0  0
   -2.6106   -2.8424   -0.6008 C   0  0  0  0  0  0  0  0  0  0  0  0
   -3.4450   -2.3301   -0.1162 H   0  0  0  0  0  0  0  0  0  0  0  0
   -2.7829   -2.8669   -1.6798 H   0  0  0  0  0  0  0  0  0  0  0  0
   -1.3115   -2.1197   -0.2982 C   0  0  0  0  0  0  0  0  0  0  0  0
   -0.4454   -2.6747    0.3529 O   0  0  0  0  0  0  0  0  0  0  0  0
   -1.1273   -0.8265   -0.7491 N   0  0  0  0  0  0  0  0  0  0  0  0
   -1.8362   -0.4848   -1.3955 H   0  0  0  0  0  0  0  0  0  0  0  0
    0.1756   -0.1270   -0.7274 C   0  0  1  0  0  0  0  0  0  0  0  0
    0.8758   -0.7493   -1.2981 H   0  0  0  0  0  0  0  0  0  0  0  0
    0.1157    1.2524   -1.4238 C   0  0  0  0  0  0  0  0  0  0  0  0
   -0.1393    2.0224   -0.6904 H   0  0  0  0  0  0  0  0  0  0  0  0
    1.1074    1.4977   -1.8169 H   0  0  0  0  0  0  0  0  0  0  0  0
   -0.9014    1.3343   -2.5509 C   0  0  0  0  0  0  0  0  0  0  0  0
   -0.5765    1.3249   -3.7200 O   0  0  0  0  0  0  0  0  0  0  0  0
   -2.2358    1.5138   -2.3102 N   0  0  0  0  0  0  0  0  0  0  0  0
   -2.7669    1.8084   -3.1265 H   0  0  0  0  0  0  0  0  0  0  0  0
   -2.4989    1.8749   -1.3986 H   0  0  0  0  0  0  0  0  0  0  0  0
    0.8005    0.0351    0.6755 C   0  0  0  0  0  0  0  0  0  0  0  0
    2.0177    0.0799    0.7864 O   0  0  0  0  0  0  0  0  0  0  0  0
    0.0128    0.4448    1.7366 N   0  0  0  0  0  0  0  0  0  0  0  0
   -0.9808    0.2630    1.6406 H   0  0  0  0  0  0  0  0  0  0  0  0
    0.5516    0.6497    3.0758 C   0  0  0  0  0  0  0  0  0  0  0  0
    1.3344    1.4155    3.0621 H   0  0  0  0  0  0  0  0  0  0  0  0
   -0.2396    0.9803    3.7554 H   0  0  0  0  0  0  0  0  0  0  0  0
    0.9772   -0.2821    3.4631 H   0  0  0  0  0  0  0  0  0  0  0  0
  1  2  1  0  0  0  0
  2  3  1  0  0  0  0
  2  4  1  0  0  0  0
  2  5  1  0  0  0  0
  5  6  2  0  0  0  0
  5  7  1  0  0  0  0
  7  8  1  0  0  0  0
  7  9  1  0  0  0  0
  9 10  1  0  0  0  0
  9 11  1  0  0  0  0
  9 19  1  0  0  0  0
 11 12  1  0  0  0  0
 11 13  1  0  0  0  0
 11 14  1  0  0  0  0
 14 15  2  0  0  0  0
 14 16  1  0  0  0  0
 16 17  1  0  0  0  0
 16 18  1  0  0  0  0
 19 20  2  0  0  0  0
 19 21  1  0  0  0  0
 21 22  1  0  0  0  0
 21 23  1  0  0  0  0
 23 24  1  0  0  0  0
 23 25  1  0  0  0  0
 23 26  1  0  0  0  0
M  END
$$$$

  -OEChem-03222214023D

 26 25  0     1  0  0  0  0  0999 V2000
   -2.6010   -3.8289   -0.2690 H   0  0  0  0  0  0  0  0  0  0  0  0
   -2.6358   -2.7978   -0.6326 C   0  0  0  0  0  0  0  0  0  0  0  0
   -3.4743   -2.2842   -0.1563 H   0  0  0  0  0  0  0  0  0  0  0  0
   -2.7926   -2.8133   -1.7141 H   0  0  0  0  0  0  0  0  0  0  0  0
   -1.3363   -2.0852   -0.3071 C   0  0  0  0  0  0  0  0  0  0  0  0
   -0.4836   -2.6494    0.3542 O   0  0  0  0  0  0  0  0  0  0  0  0
   -1.1369   -0.7914   -0.7495 N   0  0  0  0  0  0  0  0  0  0  0  0
   -1.8362   -0.4434   -1.4027 H   0  0  0  0  0  0  0  0  0  0  0  0
    0.1747   -0.1084   -0.7232 C   0  0  1  0  0  0  0  0  0  0  0  0
    0.8668   -0.7334   -1.3007 H   0  0  0  0  0  0  0  0  0  0  0  0
    0.1229    1.2755   -1.4100 C   0  0  0  0  0  0  0  0  0  0  0  0
   -0.1231    2.0431   -0.6712 H   0  0  0  0  0  0  0  0  0  0  0  0
    1.1133    1.5164   -1.8085 H   0  0  0  0  0  0  0  0  0  0  0  0
   -0.8992    1.3621   -2.5312 C   0  0  0  0  0  0  0  0  0  0  0  0
   -0.6234    1.0908   -3.6814 O   0  0  0  0  0  0  0  0  0  0  0  0
   -2.2000    1.7113   -2.2982 N   0  0  0  0  0  0  0  0  0  0  0  0
   -2.7321    1.9338   -3.1362 H   0  0  0  0  0  0  0  0  0  0  0  0
   -2.4063    2.2071   -1.4367 H   0  0  0  0  0  0  0  0  0  0  0  0
    0.8050    0.0386    0.6787 C   0  0  0  0  0  0  0  0  0  0  0  0
    2.0230    0.0732    0.7857 O   0  0  0  0  0  0  0  0  0  0  0  0
    0.0248    0.4522    1.7436 N   0  0  0  0  0  0  0  0  0  0  0  0
   -0.9703    0.2769    1.6501 H   0  0  0  0  0  0  0  0  0  0  0  0
    0.5702    0.6437    3.0820 C   0  0  0  0  0  0  0  0  0  0  0  0
    1.3605    1.4018    3.0702 H   0  0  0  0  0  0  0  0  0  0  0  0
   -0.2153    0.9776    3.7666 H   0  0  0  0  0  0  0  0  0  0  0  0
    0.9884   -0.2945    3.4618 H   0  0  0  0  0  0  0  0  0  0  0  0
  1  2  1  0  0  0  0
  2  3  1  0  0  0  0
  2  4  1  0  0  0  0
  2  5  1  0  0  0  0
  5  6  2  0  0  0  0
  5  7  1  0  0  0  0
  7  8  1  0  0  0  0
  7  9  1  0  0  0  0
  9 10  1  0  0  0  0
  9 11  1  0  0  0  0
  9 19  1  0  0  0  0
 11 12  1  0  0  0  0
 11 13  1  0  0  0  0
 11 14  1  0  0  0  0
 14 15  2  0  0  0  0
 14 16  1  0  0  0  0
 16 17  1  0  0  0  0
 16 18  1  0  0  0  0
 19 20  2  0  0  0  0
 19 21  1  0  0  0  0
 21 22  1  0  0  0  0
 21 23  1  0  0  0  0
 23 24  1  0  0  0  0
 23 25  1  0  0  0  0
 23 26  1  0  0  0  0
M  END
$$$$

  -OEChem-03222214023D

 26 25  0     1  0  0  0  0  0999 V2000
   -2.6207   -3.8051   -0.2859 H   0  0  0  0  0  0  0  0  0  0  0  0
   -2.6456   -2.7767   -0.6578 C   0  0  0  0  0  0  0  0  0  0  0  0
   -3.4950   -2.2592   -0.2056 H   0  0  0  0  0  0  0  0  0  0  0  0
   -2.7758   -2.7995   -1.7427 H   0  0  0  0  0  0  0  0  0  0  0  0
   -1.3540   -2.0627   -0.3057 C   0  0  0  0  0  0  0  0  0  0  0  0
   -0.5168   -2.6249    0.3771 O   0  0  0  0  0  0  0  0  0  0  0  0
   -1.1451   -0.7711   -0.7496 N   0  0  0  0  0  0  0  0  0  0  0  0
   -1.8213   -0.4401   -1.4349 H   0  0  0  0  0  0  0  0  0  0  0  0
    0.1741   -0.1031   -0.7235 C   0  0  1  0  0  0  0  0  0  0  0  0
    0.8589   -0.7328   -1.3043 H   0  0  0  0  0  0  0  0  0  0  0  0
    0.1317    1.2838   -1.4040 C   0  0  0  0  0  0  0  0  0  0  0  0
   -0.1032    2.0497   -0.6600 H   0  0  0  0  0  0  0  0  0  0  0  0
    1.1213    1.5173   -1.8079 H   0  0  0  0  0  0  0  0  0  0  0  0
   -0.8953    1.3809   -2.5198 C   0  0  0  0  0  0  0  0  0  0  0  0
   -0.7187    0.8674   -3.6056 O   0  0  0  0  0  0  0  0  0  0  0  0
   -2.1210    1.9523   -2.3252 N   0  0  0  0  0  0  0  0  0  0  0  0
   -2.6554    2.1182   -3.1744 H   0  0  0  0  0  0  0  0  0  0  0  0
   -2.2318    2.5827   -1.5373 H   0  0  0  0  0  0  0  0  0  0  0  0
    0.8069    0.0373    0.6778 C   0  0  0  0  0  0  0  0  0  0  0  0
    2.0254    0.0642    0.7835 O   0  0  0  0  0  0  0  0  0  0  0  0
    0.0305    0.4602    1.7419 N   0  0  0  0  0  0  0  0  0  0  0  0
   -0.9664    0.2948    1.6474 H   0  0  0  0  0  0  0  0  0  0  0  0
    0.5768    0.6472    3.0804 C   0  0  0  0  0  0  0  0  0  0  0  0
    1.3746    1.3975    3.0687 H   0  0  0  0  0  0  0  0  0  0  0  0
   -0.2061    0.9895    3.7638 H   0  0  0  0  0  0  0  0  0  0  0  0
    0.9854   -0.2947    3.4615 H   0  0  0  0  0  0  0  0  0  0  0  0
  1  2  1  0  0  0  0
  2  3  1  0  0  0  0
  2  4  1  0  0  0  0
  2  5  1  0  0  0  0
  5  6  2  0  0  0  0
  5  7  1  0  0  0  0
  7  8  1  0  0  0  0
  7  9  1  0  0  0  0
  9 10  1  0  0  0  0
  9 11  1  0  0  0  0
  9 19  1  0  0  0  0
 11 12  1  0  0  0  0
 11 13  1  0  0  0  0
 11 14  1  0  0  0  0
 14 15  2  0  0  0  0
 14 16  1  0  0  0  0
 16 17  1  0  0  0  0
 16 18  1  0  0  0  0
 19 20  2  0  0  0  0
 19 21  1  0  0  0  0
 21 22  1  0  0  0  0
 21 23  1  0  0  0  0
 23 24  1  0  0  0  0
 23 25  1  0  0  0  0
 23 26  1  0  0  0  0
M  END
$$$$

  -OEChem-03222214023D

 26 25  0     1  0  0  0  0  0999 V2000
   -2.6109   -3.8177   -0.3134 H   0  0  0  0  0  0  0  0  0  0  0  0
   -2.6413   -2.7872   -0.6790 C   0  0  0  0  0  0  0  0  0  0  0  0
   -3.5102   -2.2851   -0.2474 H   0  0  0  0  0  0  0  0  0  0  0  0
   -2.7419   -2.8048   -1.7671 H   0  0  0  0  0  0  0  0  0  0  0  0
   -1.3709   -2.0559   -0.2872 C   0  0  0  0  0  0  0  0  0  0  0  0
   -0.5561   -2.6016    0.4355 O   0  0  0  0  0  0  0  0  0  0  0  0
   -1.1585   -0.7683   -0.7416 N   0  0  0  0  0  0  0  0  0  0  0  0
   -1.7984   -0.4768   -1.4784 H   0  0  0  0  0  0  0  0  0  0  0  0
    0.1660   -0.1110   -0.7220 C   0  0  1  0  0  0  0  0  0  0  0  0
    0.8446   -0.7454   -1.3048 H   0  0  0  0  0  0  0  0  0  0  0  0
    0.1251    1.2783   -1.4003 C   0  0  0  0  0  0  0  0  0  0  0  0
   -0.1019    2.0405   -0.6498 H   0  0  0  0  0  0  0  0  0  0  0  0
    1.1130    1.5093   -1.8097 H   0  0  0  0  0  0  0  0  0  0  0  0
   -0.9091    1.3898   -2.5092 C   0  0  0  0  0  0  0  0  0  0  0  0
   -0.8819    0.6754   -3.4916 O   0  0  0  0  0  0  0  0  0  0  0  0
   -1.9833    2.2276   -2.4142 N   0  0  0  0  0  0  0  0  0  0  0  0
   -2.5151    2.3511   -3.2719 H   0  0  0  0  0  0  0  0  0  0  0  0
   -1.9458    2.9817   -1.7357 H   0  0  0  0  0  0  0  0  0  0  0  0
    0.8039    0.0338    0.6767 C   0  0  0  0  0  0  0  0  0  0  0  0
    2.0231    0.0529    0.7775 O   0  0  0  0  0  0  0  0  0  0  0  0
    0.0340    0.4702    1.7400 N   0  0  0  0  0  0  0  0  0  0  0  0
   -0.9645    0.3115    1.6479 H   0  0  0  0  0  0  0  0  0  0  0  0
    0.5838    0.6608    3.0765 C   0  0  0  0  0  0  0  0  0  0  0  0
    1.3887    1.4032    3.0592 H   0  0  0  0  0  0  0  0  0  0  0  0
   -0.1949    1.0152    3.7585 H   0  0  0  0  0  0  0  0  0  0  0  0
    0.9835   -0.2825    3.4635 H   0  0  0  0  0  0  0  0  0  0  0  0
  1  2  1  0  0  0  0
  2  3  1  0  0  0  0
  2  4  1  0  0  0  0
  2  5  1  0  0  0  0
  5  6  2  0  0  0  0
  5  7  1  0  0  0  0
  7  8  1  0  0  0  0
  7  9  1  0  0  0  0
  9 10  1  0  0  0  0
  9 11  1  0  0  0  0
  9 19  1  0  0  0  0
 11 12  1  0  0  0  0
 11 13  1  0  0  0  0
 11 14  1  0  0  0  0
 14 15  2  0  0  0  0
 14 16  1  0  0  0  0
 16 17  1  0  0  0  0
 16 18  1  0  0  0  0
 19 20  2  0  0  0  0
 19 21  1  0  0  0  0
 21 22  1  0  0  0  0
 21 23  1  0  0  0  0
 23 24  1  0  0  0  0
 23 25  1  0  0  0  0
 23 26  1  0  0  0  0
M  END
$$$$

  -OEChem-03222214023D

 26 25  0     1  0  0  0  0  0999 V2000
   -2.6147   -3.8257   -0.2797 H   0  0  0  0  0  0  0  0  0  0  0  0
   -2.6329   -2.8080   -0.6805 C   0  0  0  0  0  0  0  0  0  0  0  0
   -3.5157   -2.2923   -0.2953 H   0  0  0  0  0  0  0  0  0  0  0  0
   -2.6971   -2.8612   -1.7703 H   0  0  0  0  0  0  0  0  0  0  0  0
   -1.3765   -2.0623   -0.2715 C   0  0  0  0  0  0  0  0  0  0  0  0
   -0.5692   -2.5948    0.4695 O   0  0  0  0  0  0  0  0  0  0  0  0
   -1.1692   -0.7765   -0.7320 N   0  0  0  0  0  0  0  0  0  0  0  0
   -1.7870   -0.5134   -1.4997 H   0  0  0  0  0  0  0  0  0  0  0  0
    0.1538   -0.1175   -0.7206 C   0  0  1  0  0  0  0  0  0  0  0  0
    0.8308   -0.7510   -1.3060 H   0  0  0  0  0  0  0  0  0  0  0  0
    0.1034    1.2734   -1.3985 C   0  0  0  0  0  0  0  0  0  0  0  0
   -0.1236    2.0290   -0.6412 H   0  0  0  0  0  0  0  0  0  0  0  0
    1.0896    1.5098   -1.8084 H   0  0  0  0  0  0  0  0  0  0  0  0
   -0.9350    1.4042   -2.5043 C   0  0  0  0  0  0  0  0  0  0  0  0
   -1.0923    0.5511   -3.3573 O   0  0  0  0  0  0  0  0  0  0  0  0
   -1.7834    2.4720   -2.5711 N   0  0  0  0  0  0  0  0  0  0  0  0
   -2.3112    2.5617   -3.4352 H   0  0  0  0  0  0  0  0  0  0  0  0
   -1.5658    3.2996   -2.0250 H   0  0  0  0  0  0  0  0  0  0  0  0
    0.7980    0.0336    0.6746 C   0  0  0  0  0  0  0  0  0  0  0  0
    2.0178    0.0587    0.7686 O   0  0  0  0  0  0  0  0  0  0  0  0
    0.0321    0.4729    1.7394 N   0  0  0  0  0  0  0  0  0  0  0  0
   -0.9667    0.3130    1.6504 H   0  0  0  0  0  0  0  0  0  0  0  0
    0.5866    0.6674    3.0735 C   0  0  0  0  0  0  0  0  0  0  0  0
    1.3857    1.4158    3.0522 H   0  0  0  0  0  0  0  0  0  0  0  0
   -0.1914    1.0156    3.7596 H   0  0  0  0  0  0  0  0  0  0  0  0
    0.9951   -0.2730    3.4585 H   0  0  0  0  0  0  0  0  0  0  0  0
  1  2  1  0  0  0  0
  2  3  1  0  0  0  0
  2  4  1  0  0  0  0
  2  5  1  0  0  0  0
  5  6  2  0  0  0  0
  5  7  1  0  0  0  0
  7  8  1  0  0  0  0
  7  9  1  0  0  0  0
  9 10  1  0  0  0  0
  9 11  1  0  0  0  0
  9 19  1  0  0  0  0
 11 12  1  0  0  0  0
 11 13  1  0  0  0  0
 11 14  1  0  0  0  0
 14 15  2  0  0  0  0
 14 16  1  0  0  0  0
 16 17  1  0  0  0  0
 16 18  1  0  0  0  0
 19 20  2  0  0  0  0
 19 21  1  0  0  0  0
 21 22  1  0  0  0  0
 21 23  1  0  0  0  0
 23 24  1  0  0  0  0
 23 25  1  0  0  0  0
 23 26  1  0  0  0  0
M  END
$$$$

  -OEChem-03222214023D

 26 25  0     1  0  0  0  0  0999 V2000
   -2.5787   -3.8595   -0.2902 H   0  0  0  0  0  0  0  0  0  0  0  0
   -2.6240   -2.8318   -0.6618 C   0  0  0  0  0  0  0  0  0  0  0  0
   -3.5085   -2.3443   -0.2450 H   0  0  0  0  0  0  0  0  0  0  0  0
   -2.7096   -2.8563   -1.7511 H   0  0  0  0  0  0  0  0  0  0  0  0
   -1.3739   -2.0733   -0.2568 C   0  0  0  0  0  0  0  0  0  0  0  0
   -0.5574   -2.5989    0.4794 O   0  0  0  0  0  0  0  0  0  0  0  0
   -1.1797   -0.7866   -0.7198 N   0  0  0  0  0  0  0  0  0  0  0  0
   -1.8006   -0.5288   -1.4886 H   0  0  0  0  0  0  0  0  0  0  0  0
    0.1356   -0.1153   -0.7188 C   0  0  1  0  0  0  0  0  0  0  0  0
    0.8139   -0.7467   -1.3047 H   0  0  0  0  0  0  0  0  0  0  0  0
    0.0761    1.2737   -1.4039 C   0  0  0  0  0  0  0  0  0  0  0  0
   -0.1552    2.0263   -0.6447 H   0  0  0  0  0  0  0  0  0  0  0  0
    1.0643    1.5118   -1.8075 H   0  0  0  0  0  0  0  0  0  0  0  0
   -0.9564    1.4302   -2.5158 C   0  0  0  0  0  0  0  0  0  0  0  0
   -1.3209    0.5097   -3.2255 O   0  0  0  0  0  0  0  0  0  0  0  0
   -1.5337    2.6383   -2.7818 N   0  0  0  0  0  0  0  0  0  0  0  0
   -2.0568    2.6973   -3.6513 H   0  0  0  0  0  0  0  0  0  0  0  0
   -1.1212    3.4749   -2.3812 H   0  0  0  0  0  0  0  0  0  0  0  0
    0.7865    0.0436    0.6721 C   0  0  0  0  0  0  0  0  0  0  0  0
    2.0069    0.0779    0.7580 O   0  0  0  0  0  0  0  0  0  0  0  0
    0.0235    0.4764    1.7415 N   0  0  0  0  0  0  0  0  0  0  0  0
   -0.9750    0.3113    1.6570 H   0  0  0  0  0  0  0  0  0  0  0  0
    0.5831    0.6666    3.0738 C   0  0  0  0  0  0  0  0  0  0  0  0
    1.3827    1.4144    3.0517 H   0  0  0  0  0  0  0  0  0  0  0  0
   -0.1920    1.0130    3.7639 H   0  0  0  0  0  0  0  0  0  0  0  0
    0.9922   -0.2757    3.4533 H   0  0  0  0  0  0  0  0  0  0  0  0
  1  2  1  0  0  0  0
  2  3  1  0  0  0  0
  2  4  1  0  0  0  0
  2  5  1  0  0  0  0
  5  6  2  0  0  0  0
  5  7  1  0  0  0  0
  7  8  1  0  0  0  0
  7  9  1  0  0  0  0
  9 10  1  0  0  0  0
  9 11  1  0  0  0  0
  9 19  1  0  0  0  0
 11 12  1  0  0  0  0
 11 13  1  0  0  0  0
 11 14  1  0  0  0  0
 14 15  2  0  0  0  0
 14 16  1  0  0  0  0
 16 17  1  0  0  0  0
 16 18  1  0  0  0  0
 19 20  2  0  0  0  0
 19 21  1  0  0  0  0
 21 22  1  0  0  0  0
 21 23  1  0  0  0  0
 23 24  1  0  0  0  0
 23 25  1  0  0  0  0
 23 26  1  0  0  0  0
M  END
$$$$

  -OEChem-03222214023D

 26 25  0     1  0  0  0  0  0999 V2000
   -2.5644   -3.8758   -0.2767 H   0  0  0  0  0  0  0  0  0  0  0  0
   -2.6224   -2.8438   -0.6341 C   0  0  0  0  0  0  0  0  0  0  0  0
   -3.4947   -2.3628   -0.1852 H   0  0  0  0  0  0  0  0  0  0  0  0
   -2.7400   -2.8547   -1.7207 H   0  0  0  0  0  0  0  0  0  0  0  0
   -1.3625   -2.0875   -0.2572 C   0  0  0  0  0  0  0  0  0  0  0  0
   -0.5254   -2.6174    0.4526 O   0  0  0  0  0  0  0  0  0  0  0  0
   -1.1793   -0.7991   -0.7179 N   0  0  0  0  0  0  0  0  0  0  0  0
   -1.8223   -0.5258   -1.4643 H   0  0  0  0  0  0  0  0  0  0  0  0
    0.1260   -0.1113   -0.7225 C   0  0  1  0  0  0  0  0  0  0  0  0
    0.8085   -0.7405   -1.3058 H   0  0  0  0  0  0  0  0  0  0  0  0
    0.0618    1.2752   -1.4156 C   0  0  0  0  0  0  0  0  0  0  0  0
   -0.1760    2.0263   -0.6568 H   0  0  0  0  0  0  0  0  0  0  0  0
    1.0550    1.5127   -1.8070 H   0  0  0  0  0  0  0  0  0  0  0  0
   -0.9574    1.4573   -2.5397 C   0  0  0  0  0  0  0  0  0  0  0  0
   -1.5319    0.5411   -3.1022 O   0  0  0  0  0  0  0  0  0  0  0  0
   -1.2774    2.7035   -2.9953 N   0  0  0  0  0  0  0  0  0  0  0  0
   -1.8130    2.7376   -3.8583 H   0  0  0  0  0  0  0  0  0  0  0  0
   -0.6918    3.4886   -2.7289 H   0  0  0  0  0  0  0  0  0  0  0  0
    0.7784    0.0535    0.6668 C   0  0  0  0  0  0  0  0  0  0  0  0
    1.9987    0.0999    0.7499 O   0  0  0  0  0  0  0  0  0  0  0  0
    0.0136    0.4749    1.7392 N   0  0  0  0  0  0  0  0  0  0  0  0
   -0.9846    0.3090    1.6537 H   0  0  0  0  0  0  0  0  0  0  0  0
    0.5727    0.6667    3.0713 C   0  0  0  0  0  0  0  0  0  0  0  0
    1.3678    1.4193    3.0500 H   0  0  0  0  0  0  0  0  0  0  0  0
   -0.2043    1.0074    3.7623 H   0  0  0  0  0  0  0  0  0  0  0  0
    0.9876   -0.2735    3.4495 H   0  0  0  0  0  0  0  0  0  0  0  0
  1  2  1  0  0  0  0
  2  3  1  0  0  0  0
  2  4  1  0  0  0  0
  2  5  1  0  0  0  0
  5  6  2  0  0  0  0
  5  7  1  0  0  0  0
  7  8  1  0  0  0  0
  7  9  1  0  0  0  0
  9 10  1  0  0  0  0
  9 11  1  0  0  0  0
  9 19  1  0  0  0  0
 11 12  1  0  0  0  0
 11 13  1  0  0  0  0
 11 14  1  0  0  0  0
 14 15  2  0  0  0  0
 14 16  1  0  0  0  0
 16 17  1  0  0  0  0
 16 18  1  0  0  0  0
 19 20  2  0  0  0  0
 19 21  1  0  0  0  0
 21 22  1  0  0  0  0
 21 23  1  0  0  0  0
 23 24  1  0  0  0  0
 23 25  1  0  0  0  0
 23 26  1  0  0  0  0
M  END
$$$$

  -OEChem-03222214023D

 26 25  0     1  0  0  0  0  0999 V2000
   -2.5830   -3.8710   -0.2233 H   0  0  0  0  0  0  0  0  0  0  0  0
   -2.6287   -2.8477   -0.6066 C   0  0  0  0  0  0  0  0  0  0  0  0
   -3.4860   -2.3402   -0.1585 H   0  0  0  0  0  0  0  0  0  0  0  0
   -2.7623   -2.8835   -1.6907 H   0  0  0  0  0  0  0  0  0  0  0  0
   -1.3505   -2.1044   -0.2675 C   0  0  0  0  0  0  0  0  0  0  0  0
   -0.4906   -2.6472    0.4042 O   0  0  0  0  0  0  0  0  0  0  0  0
   -1.1730   -0.8135   -0.7230 N   0  0  0  0  0  0  0  0  0  0  0  0
   -1.8473   -0.5117   -1.4306 H   0  0  0  0  0  0  0  0  0  0  0  0
    0.1237   -0.1121   -0.7306 C   0  0  1  0  0  0  0  0  0  0  0  0
    0.8100   -0.7382   -1.3124 H   0  0  0  0  0  0  0  0  0  0  0  0
    0.0600    1.2743   -1.4277 C   0  0  0  0  0  0  0  0  0  0  0  0
   -0.1804    2.0261   -0.6704 H   0  0  0  0  0  0  0  0  0  0  0  0
    1.0581    1.5073   -1.8094 H   0  0  0  0  0  0  0  0  0  0  0  0
   -0.9467    1.4783   -2.5618 C   0  0  0  0  0  0  0  0  0  0  0  0
   -1.7188    0.6293   -2.9737 O   0  0  0  0  0  0  0  0  0  0  0  0
   -1.0339    2.6833   -3.1972 N   0  0  0  0  0  0  0  0  0  0  0  0
   -1.5949    2.7041   -4.0443 H   0  0  0  0  0  0  0  0  0  0  0  0
   -0.3033    3.3725   -3.0511 H   0  0  0  0  0  0  0  0  0  0  0  0
    0.7754    0.0540    0.6587 C   0  0  0  0  0  0  0  0  0  0  0  0
    1.9952    0.1137    0.7408 O   0  0  0  0  0  0  0  0  0  0  0  0
    0.0066    0.4631    1.7331 N   0  0  0  0  0  0  0  0  0  0  0  0
   -0.9914    0.2959    1.6463 H   0  0  0  0  0  0  0  0  0  0  0  0
    0.5637    0.6724    3.0636 C   0  0  0  0  0  0  0  0  0  0  0  0
    1.3364    1.4479    3.0389 H   0  0  0  0  0  0  0  0  0  0  0  0
   -0.2207    0.9915    3.7564 H   0  0  0  0  0  0  0  0  0  0  0  0
    1.0071   -0.2547    3.4421 H   0  0  0  0  0  0  0  0  0  0  0  0
  1  2  1  0  0  0  0
  2  3  1  0  0  0  0
  2  4  1  0  0  0  0
  2  5  1  0  0  0  0
  5  6  2  0  0  0  0
  5  7  1  0  0  0  0
  7  8  1  0  0  0  0
  7  9  1  0  0  0  0
  9 10  1  0  0  0  0
  9 11  1  0  0  0  0
  9 19  1  0  0  0  0
 11 12  1  0  0  0  0
 11 13  1  0  0  0  0
 11 14  1  0  0  0  0
 14 15  2  0  0  0  0
 14 16  1  0  0  0  0
 16 17  1  0  0  0  0
 16 18  1  0  0  0  0
 19 20  2  0  0  0  0
 19 21  1  0  0  0  0
 21 22  1  0  0  0  0
 21 23  1  0  0  0  0
 23 24  1  0  0  0  0
 23 25  1  0  0  0  0
 23 26  1  0  0  0  0
M  END
$$$$

  -OEChem-03222214023D

 26 25  0     1  0  0  0  0  0999 V2000
   -2.5771   -3.8712   -0.2304 H   0  0  0  0  0  0  0  0  0  0  0  0
   -2.6351   -2.8367   -0.5803 C   0  0  0  0  0  0  0  0  0  0  0  0
   -3.4655   -2.3384   -0.0744 H   0  0  0  0  0  0  0  0  0  0  0  0
   -2.8231   -2.8396   -1.6570 H   0  0  0  0  0  0  0  0  0  0  0  0
   -1.3369   -2.1100   -0.2835 C   0  0  0  0  0  0  0  0  0  0  0  0
   -0.4565   -2.6675    0.3485 O   0  0  0  0  0  0  0  0  0  0  0  0
   -1.1622   -0.8168   -0.7322 N   0  0  0  0  0  0  0  0  0  0  0  0
   -1.8688   -0.4807   -1.3917 H   0  0  0  0  0  0  0  0  0  0  0  0
    0.1272   -0.1037   -0.7362 C   0  0  1  0  0  0  0  0  0  0  0  0
    0.8191   -0.7275   -1.3140 H   0  0  0  0  0  0  0  0  0  0  0  0
    0.0641    1.2807   -1.4386 C   0  0  0  0  0  0  0  0  0  0  0  0
   -0.1841    2.0353   -0.6867 H   0  0  0  0  0  0  0  0  0  0  0  0
    1.0663    1.5134   -1.8091 H   0  0  0  0  0  0  0  0  0  0  0  0
   -0.9315    1.4852   -2.5834 C   0  0  0  0  0  0  0  0  0  0  0  0
   -1.8680    0.7476   -2.8395 O   0  0  0  0  0  0  0  0  0  0  0  0
   -0.8199    2.5674   -3.4081 N   0  0  0  0  0  0  0  0  0  0  0  0
   -1.4083    2.5664   -4.2366 H   0  0  0  0  0  0  0  0  0  0  0  0
    0.0259    3.1278   -3.3804 H   0  0  0  0  0  0  0  0  0  0  0  0
    0.7744    0.0629    0.6548 C   0  0  0  0  0  0  0  0  0  0  0  0
    1.9937    0.1261    0.7396 O   0  0  0  0  0  0  0  0  0  0  0  0
    0.0021    0.4608    1.7307 N   0  0  0  0  0  0  0  0  0  0  0  0
   -0.9967    0.3029    1.6372 H   0  0  0  0  0  0  0  0  0  0  0  0
    0.5548    0.6594    3.0648 C   0  0  0  0  0  0  0  0  0  0  0  0
    1.3409    1.4217    3.0462 H   0  0  0  0  0  0  0  0  0  0  0  0
   -0.2282    0.9911    3.7531 H   0  0  0  0  0  0  0  0  0  0  0  0
    0.9800   -0.2756    3.4447 H   0  0  0  0  0  0  0  0  0  0  0  0
  1  2  1  0  0  0  0
  2  3  1  0  0  0  0
  2  4  1  0  0  0  0
  2  5  1  0  0  0  0
  5  6  2  0  0  0  0
  5  7  1  0  0  0  0
  7  8  1  0  0  0  0
  7  9  1  0  0  0  0
  9 10  1  0  0  0  0
  9 11  1  0  0  0  0
  9 19  1  0  0  0  0
 11 12  1  0  0  0  0
 11 13  1  0  0  0  0
 11 14  1  0  0  0  0
 14 15  2  0  0  0  0
 14 16  1  0  0  0  0
 16 17  1  0  0  0  0
 16 18  1  0  0  0  0
 19 20  2  0  0  0  0
 19 21  1  0  0  0  0
 21 22  1  0  0  0  0
 21 23  1  0  0  0  0
 23 24  1  0  0  0  0
 23 25  1  0  0  0  0
 23 26  1  0  0  0  0
M  END
$$$$

  -OEChem-03222214023D

 26 25  0     1  0  0  0  0  0999 V2000
   -2.5969   -3.8464   -0.2093 H   0  0  0  0  0  0  0  0  0  0  0  0
   -2.6447   -2.8128   -0.5642 C   0  0  0  0  0  0  0  0  0  0  0  0
   -3.4501   -2.2955   -0.0373 H   0  0  0  0  0  0  0  0  0  0  0  0
   -2.8640   -2.8178   -1.6349 H   0  0  0  0  0  0  0  0  0  0  0  0
   -1.3245   -2.1102   -0.3097 C   0  0  0  0  0  0  0  0  0  0  0  0
   -0.4289   -2.6890    0.2804 O   0  0  0  0  0  0  0  0  0  0  0  0
   -1.1446   -0.8147   -0.7493 N   0  0  0  0  0  0  0  0  0  0  0  0
   -1.8817   -0.4367   -1.3501 H   0  0  0  0  0  0  0  0  0  0  0  0
    0.1424   -0.0981   -0.7443 C   0  0  1  0  0  0  0  0  0  0  0  0
    0.8389   -0.7177   -1.3210 H   0  0  0  0  0  0  0  0  0  0  0  0
    0.0800    1.2891   -1.4394 C   0  0  0  0  0  0  0  0  0  0  0  0
   -0.1747    2.0418   -0.6878 H   0  0  0  0  0  0  0  0  0  0  0  0
    1.0838    1.5263   -1.8029 H   0  0  0  0  0  0  0  0  0  0  0  0
   -0.9141    1.4860   -2.5861 C   0  0  0  0  0  0  0  0  0  0  0  0
   -1.9802    0.9028   -2.6889 O   0  0  0  0  0  0  0  0  0  0  0  0
   -0.6483    2.3709   -3.5912 N   0  0  0  0  0  0  0  0  0  0  0  0
   -1.2722    2.3490   -4.3928 H   0  0  0  0  0  0  0  0  0  0  0  0
    0.2820    2.7681   -3.6739 H   0  0  0  0  0  0  0  0  0  0  0  0
    0.7801    0.0615    0.6513 C   0  0  0  0  0  0  0  0  0  0  0  0
    1.9990    0.1213    0.7458 O   0  0  0  0  0  0  0  0  0  0  0  0
   -0.0003    0.4509    1.7243 N   0  0  0  0  0  0  0  0  0  0  0  0
   -1.0002    0.3083    1.6194 H   0  0  0  0  0  0  0  0  0  0  0  0
    0.5421    0.6459    3.0628 C   0  0  0  0  0  0  0  0  0  0  0  0
    1.3188    1.4178    3.0540 H   0  0  0  0  0  0  0  0  0  0  0  0
   -0.2490    0.9624    3.7491 H   0  0  0  0  0  0  0  0  0  0  0  0
    0.9765   -0.2868    3.4378 H   0  0  0  0  0  0  0  0  0  0  0  0
  1  2  1  0  0  0  0
  2  3  1  0  0  0  0
  2  4  1  0  0  0  0
  2  5  1  0  0  0  0
  5  6  2  0  0  0  0
  5  7  1  0  0  0  0
  7  8  1  0  0  0  0
  7  9  1  0  0  0  0
  9 10  1  0  0  0  0
  9 11  1  0  0  0  0
  9 19  1  0  0  0  0
 11 12  1  0  0  0  0
 11 13  1  0  0  0  0
 11 14  1  0  0  0  0
 14 15  2  0  0  0  0
 14 16  1  0  0  0  0
 16 17  1  0  0  0  0
 16 18  1  0  0  0  0
 19 20  2  0  0  0  0
 19 21  1  0  0  0  0
 21 22  1  0  0  0  0
 21 23  1  0  0  0  0
 23 24  1  0  0  0  0
 23 25  1  0  0  0  0
 23 26  1  0  0  0  0
M  END
$$$$

  -OEChem-03222214023D

 26 25  0     1  0  0  0  0  0999 V2000
   -2.6112   -3.8102   -0.2239 H   0  0  0  0  0  0  0  0  0  0  0  0
   -2.6510   -2.7713   -0.5635 C   0  0  0  0  0  0  0  0  0  0  0  0
   -3.4240   -2.2446    0.0010 H   0  0  0  0  0  0  0  0  0  0  0  0
   -2.9122   -2.7574   -1.6245 H   0  0  0  0  0  0  0  0  0  0  0  0
   -1.3073   -2.0995   -0.3526 C   0  0  0  0  0  0  0  0  0  0  0  0
   -0.3974   -2.7064    0.1850 O   0  0  0  0  0  0  0  0  0  0  0  0
   -1.1199   -0.7991   -0.7735 N   0  0  0  0  0  0  0  0  0  0  0  0
   -1.8846   -0.3740   -1.3045 H   0  0  0  0  0  0  0  0  0  0  0  0
    0.1658   -0.0809   -0.7482 C   0  0  1  0  0  0  0  0  0  0  0  0
    0.8692   -0.6915   -1.3257 H   0  0  0  0  0  0  0  0  0  0  0  0
    0.0979    1.3104   -1.4311 C   0  0  0  0  0  0  0  0  0  0  0  0
   -0.1731    2.0575   -0.6795 H   0  0  0  0  0  0  0  0  0  0  0  0
    1.0998    1.5647   -1.7876 H   0  0  0  0  0  0  0  0  0  0  0  0
   -0.8978    1.4795   -2.5786 C   0  0  0  0  0  0  0  0  0  0  0  0
   -2.0488    1.0774   -2.5418 O   0  0  0  0  0  0  0  0  0  0  0  0
   -0.5305    2.0788   -3.7492 N   0  0  0  0  0  0  0  0  0  0  0  0
   -1.1907    2.0199   -4.5194 H   0  0  0  0  0  0  0  0  0  0  0  0
    0.4486    2.2818   -3.9236 H   0  0  0  0  0  0  0  0  0  0  0  0
    0.7900    0.0624    0.6551 C   0  0  0  0  0  0  0  0  0  0  0  0
    2.0080    0.1126    0.7639 O   0  0  0  0  0  0  0  0  0  0  0  0
   -0.0008    0.4378    1.7256 N   0  0  0  0  0  0  0  0  0  0  0  0
   -1.0016    0.3144    1.6056 H   0  0  0  0  0  0  0  0  0  0  0  0
    0.5263    0.6243    3.0714 C   0  0  0  0  0  0  0  0  0  0  0  0
    1.3144    1.3847    3.0738 H   0  0  0  0  0  0  0  0  0  0  0  0
   -0.2694    0.9528    3.7466 H   0  0  0  0  0  0  0  0  0  0  0  0
    0.9412   -0.3147    3.4524 H   0  0  0  0  0  0  0  0  0  0  0  0
  1  2  1  0  0  0  0
  2  3  1  0  0  0  0
  2  4  1  0  0  0  0
  2  5  1  0  0  0  0
  5  6  2  0  0  0  0
  5  7  1  0  0  0  0
  7  8  1  0  0  0  0
  7  9  1  0  0  0  0
  9 10  1  0  0  0  0
  9 11  1  0  0  0  0
  9 19  1  0  0  0  0
 11 12  1  0  0  0  0
 11 13  1  0  0  0  0
 11 14  1  0  0  0  0
 14 15  2  0  0  0  0
 14 16  1  0  0  0  0
 16 17  1  0  0  0  0
 16 18  1  0  0  0  0
 19 20  2  0  0  0  0
 19 21  1  0  0  0  0
 21 22  1  0  0  0  0
 21 23  1  0  0  0  0
 23 24  1  0  0  0  0
 23 25  1  0  0  0  0
 23 26  1  0  0  0  0
M  END
$$$$

  -OEChem-03222214023D

 26 25  0     1  0  0  0  0  0999 V2000
   -2.6372   -3.7831   -0.2097 H   0  0  0  0  0  0  0  0  0  0  0  0
   -2.6626   -2.7452   -0.5532 C   0  0  0  0  0  0  0  0  0  0  0  0
   -3.4157   -2.2015    0.0222 H   0  0  0  0  0  0  0  0  0  0  0  0
   -2.9413   -2.7307   -1.6099 H   0  0  0  0  0  0  0  0  0  0  0  0
   -1.3022   -2.0999   -0.3679 C   0  0  0  0  0  0  0  0  0  0  0  0
   -0.3954   -2.7244    0.1542 O   0  0  0  0  0  0  0  0  0  0  0  0
   -1.0943   -0.8045   -0.7950 N   0  0  0  0  0  0  0  0  0  0  0  0
   -1.8682   -0.3472   -1.2841 H   0  0  0  0  0  0  0  0  0  0  0  0
    0.1987   -0.0988   -0.7530 C   0  0  1  0  0  0  0  0  0  0  0  0
    0.9078   -0.7154   -1.3178 H   0  0  0  0  0  0  0  0  0  0  0  0
    0.1357    1.2855   -1.4450 C   0  0  0  0  0  0  0  0  0  0  0  0
   -0.1485    2.0413   -0.7072 H   0  0  0  0  0  0  0  0  0  0  0  0
    1.1367    1.5446   -1.8009 H   0  0  0  0  0  0  0  0  0  0  0  0
   -0.8600    1.4020   -2.5951 C   0  0  0  0  0  0  0  0  0  0  0  0
   -2.0569    1.2196   -2.4469 O   0  0  0  0  0  0  0  0  0  0  0  0
   -0.4532    1.6672   -3.8712 N   0  0  0  0  0  0  0  0  0  0  0  0
   -1.1827    1.8576   -4.5525 H   0  0  0  0  0  0  0  0  0  0  0  0
    0.4998    1.9741   -4.0382 H   0  0  0  0  0  0  0  0  0  0  0  0
    0.8014    0.0496    0.6589 C   0  0  0  0  0  0  0  0  0  0  0  0
    2.0177    0.0781    0.7904 O   0  0  0  0  0  0  0  0  0  0  0  0
   -0.0027    0.4417    1.7133 N   0  0  0  0  0  0  0  0  0  0  0  0
   -1.0038    0.3461    1.5732 H   0  0  0  0  0  0  0  0  0  0  0  0
    0.5027    0.6299    3.0670 C   0  0  0  0  0  0  0  0  0  0  0  0
    1.2921    1.3889    3.0804 H   0  0  0  0  0  0  0  0  0  0  0  0
   -0.3030    0.9605    3.7293 H   0  0  0  0  0  0  0  0  0  0  0  0
    0.9104   -0.3091    3.4561 H   0  0  0  0  0  0  0  0  0  0  0  0
  1  2  1  0  0  0  0
  2  3  1  0  0  0  0
  2  4  1  0  0  0  0
  2  5  1  0  0  0  0
  5  6  2  0  0  0  0
  5  7  1  0  0  0  0
  7  8  1  0  0  0  0
  7  9  1  0  0  0  0
  9 10  1  0  0  0  0
  9 11  1  0  0  0  0
  9 19  1  0  0  0  0
 11 12  1  0  0  0  0
 11 13  1  0  0  0  0
 11 14  1  0  0  0  0
 14 15  2  0  0  0  0
 14 16  1  0  0  0  0
 16 17  1  0  0  0  0
 16 18  1  0  0  0  0
 19 20  2  0  0  0  0
 19 21  1  0  0  0  0
 21 22  1  0  0  0  0
 21 23  1  0  0  0  0
 23 24  1  0  0  0  0
 23 25  1  0  0  0  0
 23 26  1  0  0  0  0
M  END
$$$$

  -OEChem-03222214023D

 26 25  0     1  0  0  0  0  0999 V2000
   -2.6483   -3.7524   -0.2181 H   0  0  0  0  0  0  0  0  0  0  0  0
   -2.6648   -2.7135   -0.5595 C   0  0  0  0  0  0  0  0  0  0  0  0
   -3.3952   -2.1590    0.0344 H   0  0  0  0  0  0  0  0  0  0  0  0
   -2.9682   -2.6927   -1.6092 H   0  0  0  0  0  0  0  0  0  0  0  0
   -1.2903   -2.0903   -0.4050 C   0  0  0  0  0  0  0  0  0  0  0  0
   -0.3776   -2.7342    0.0819 O   0  0  0  0  0  0  0  0  0  0  0  0
   -1.0755   -0.7920   -0.8199 N   0  0  0  0  0  0  0  0  0  0  0  0
   -1.8651   -0.3022   -1.2474 H   0  0  0  0  0  0  0  0  0  0  0  0
    0.2200   -0.0897   -0.7552 C   0  0  1  0  0  0  0  0  0  0  0  0
    0.9360   -0.6988   -1.3193 H   0  0  0  0  0  0  0  0  0  0  0  0
    0.1468    1.2957   -1.4372 C   0  0  0  0  0  0  0  0  0  0  0  0
   -0.1534    2.0472   -0.7010 H   0  0  0  0  0  0  0  0  0  0  0  0
    1.1416    1.5740   -1.7955 H   0  0  0  0  0  0  0  0  0  0  0  0
   -0.8519    1.3665   -2.5836 C   0  0  0  0  0  0  0  0  0  0  0  0
   -2.0527    1.4159   -2.3797 O   0  0  0  0  0  0  0  0  0  0  0  0
   -0.4590    1.3182   -3.8905 N   0  0  0  0  0  0  0  0  0  0  0  0
   -1.1731    1.5099   -4.5876 H   0  0  0  0  0  0  0  0  0  0  0  0
    0.5240    1.4280   -4.1190 H   0  0  0  0  0  0  0  0  0  0  0  0
    0.8083    0.0487    0.6636 C   0  0  0  0  0  0  0  0  0  0  0  0
    2.0233    0.0651    0.8079 O   0  0  0  0  0  0  0  0  0  0  0  0
   -0.0038    0.4364    1.7136 N   0  0  0  0  0  0  0  0  0  0  0  0
   -1.0049    0.3638    1.5607 H   0  0  0  0  0  0  0  0  0  0  0  0
    0.4898    0.6219    3.0722 C   0  0  0  0  0  0  0  0  0  0  0  0
    1.2795    1.3804    3.0941 H   0  0  0  0  0  0  0  0  0  0  0  0
   -0.3219    0.9520    3.7274 H   0  0  0  0  0  0  0  0  0  0  0  0
    0.8929   -0.3181    3.4634 H   0  0  0  0  0  0  0  0  0  0  0  0
  1  2  1  0  0  0  0
  2  3  1  0  0  0  0
  2  4  1  0  0  0  0
  2  5  1  0  0  0  0
  5  6  2  0  0  0  0
  5  7  1  0  0  0  0
  7  8  1  0  0  0  0
  7  9  1  0  0  0  0
  9 10  1  0  0  0  0
  9 11  1  0  0  0  0
  9 19  1  0  0  0  0
 11 12  1  0  0  0  0
 11 13  1  0  0  0  0
 11 14  1  0  0  0  0
 14 15  2  0  0  0  0
 14 16  1  0  0  0  0
 16 17  1  0  0  0  0
 16 18  1  0  0  0  0
 19 20  2  0  0  0  0
 19 21  1  0  0  0  0
 21 22  1  0  0  0  0
 21 23  1  0  0  0  0
 23 24  1  0  0  0  0
 23 25  1  0  0  0  0
 23 26  1  0  0  0  0
M  END
$$$$

  -OEChem-03222214023D

 26 25  0     1  0  0  0  0  0999 V2000
   -2.6522   -3.7432   -0.2129 H   0  0  0  0  0  0  0  0  0  0  0  0
   -2.6682   -2.7037   -0.5526 C   0  0  0  0  0  0  0  0  0  0  0  0
   -3.3847   -2.1452    0.0545 H   0  0  0  0  0  0  0  0  0  0  0  0
   -2.9895   -2.6799   -1.5968 H   0  0  0  0  0  0  0  0  0  0  0  0
   -1.2869   -2.0907   -0.4212 C   0  0  0  0  0  0  0  0  0  0  0  0
   -0.3688   -2.7448    0.0410 O   0  0  0  0  0  0  0  0  0  0  0  0
   -1.0708   -0.7908   -0.8322 N   0  0  0  0  0  0  0  0  0  0  0  0
   -1.8712   -0.2851   -1.2154 H   0  0  0  0  0  0  0  0  0  0  0  0
    0.2268   -0.0909   -0.7568 C   0  0  1  0  0  0  0  0  0  0  0  0
    0.9456   -0.6982   -1.3193 H   0  0  0  0  0  0  0  0  0  0  0  0
    0.1507    1.2932   -1.4357 C   0  0  0  0  0  0  0  0  0  0  0  0
   -0.1552    2.0450   -0.7018 H   0  0  0  0  0  0  0  0  0  0  0  0
    1.1423    1.5782   -1.7975 H   0  0  0  0  0  0  0  0  0  0  0  0
   -0.8484    1.3377   -2.5805 C   0  0  0  0  0  0  0  0  0  0  0  0
   -2.0123    1.6390   -2.3897 O   0  0  0  0  0  0  0  0  0  0  0  0
   -0.5029    1.0099   -3.8602 N   0  0  0  0  0  0  0  0  0  0  0  0
   -1.1853    1.2263   -4.5816 H   0  0  0  0  0  0  0  0  0  0  0  0
    0.4796    0.9159   -4.0980 H   0  0  0  0  0  0  0  0  0  0  0  0
    0.8095    0.0443    0.6645 C   0  0  0  0  0  0  0  0  0  0  0  0
    2.0236    0.0516    0.8147 O   0  0  0  0  0  0  0  0  0  0  0  0
   -0.0055    0.4319    1.7123 N   0  0  0  0  0  0  0  0  0  0  0  0
   -1.0067    0.3786    1.5535 H   0  0  0  0  0  0  0  0  0  0  0  0
    0.4833    0.6243    3.0715 C   0  0  0  0  0  0  0  0  0  0  0  0
    1.2679    1.3879    3.0935 H   0  0  0  0  0  0  0  0  0  0  0  0
   -0.3322    0.9508    3.7239 H   0  0  0  0  0  0  0  0  0  0  0  0
    0.8909   -0.3122    3.4664 H   0  0  0  0  0  0  0  0  0  0  0  0
  1  2  1  0  0  0  0
  2  3  1  0  0  0  0
  2  4  1  0  0  0  0
  2  5  1  0  0  0  0
  5  6  2  0  0  0  0
  5  7  1  0  0  0  0
  7  8  1  0  0  0  0
  7  9  1  0  0  0  0
  9 10  1  0  0  0  0
  9 11  1  0  0  0  0
  9 19  1  0  0  0  0
 11 12  1  0  0  0  0
 11 13  1  0  0  0  0
 11 14  1  0  0  0  0
 14 15  2  0  0  0  0
 14 16  1  0  0  0  0
 16 17  1  0  0  0  0
 16 18  1  0  0  0  0
 19 20  2  0  0  0  0
 19 21  1  0  0  0  0
 21 22  1  0  0  0  0
 21 23  1  0  0  0  0
 23 24  1  0  0  0  0
 23 25  1  0  0  0  0
 23 26  1  0  0  0  0
M  END
$$$$

  -OEChem-03222214023D

 26 25  0     1  0  0  0  0  0999 V2000
   -2.6522   -3.7501   -0.1817 H   0  0  0  0  0  0  0  0  0  0  0  0
   -2.6720   -2.7127   -0.5277 C   0  0  0  0  0  0  0  0  0  0  0  0
   -3.3774   -2.1495    0.0880 H   0  0  0  0  0  0  0  0  0  0  0  0
   -3.0107   -2.6954   -1.5666 H   0  0  0  0  0  0  0  0  0  0  0  0
   -1.2879   -2.1006   -0.4231 C   0  0  0  0  0  0  0  0  0  0  0  0
   -0.3602   -2.7571    0.0151 O   0  0  0  0  0  0  0  0  0  0  0  0
   -1.0789   -0.7990   -0.8335 N   0  0  0  0  0  0  0  0  0  0  0  0
   -1.8877   -0.2902   -1.1897 H   0  0  0  0  0  0  0  0  0  0  0  0
    0.2189   -0.0982   -0.7566 C   0  0  1  0  0  0  0  0  0  0  0  0
    0.9381   -0.7065   -1.3174 H   0  0  0  0  0  0  0  0  0  0  0  0
    0.1468    1.2847   -1.4378 C   0  0  0  0  0  0  0  0  0  0  0  0
   -0.1573    2.0376   -0.7040 H   0  0  0  0  0  0  0  0  0  0  0  0
    1.1390    1.5671   -1.8002 H   0  0  0  0  0  0  0  0  0  0  0  0
   -0.8485    1.3290   -2.5860 C   0  0  0  0  0  0  0  0  0  0  0  0
   -1.9260    1.8799   -2.4688 O   0  0  0  0  0  0  0  0  0  0  0  0
   -0.5840    0.7615   -3.7997 N   0  0  0  0  0  0  0  0  0  0  0  0
   -1.2174    1.0053   -4.5561 H   0  0  0  0  0  0  0  0  0  0  0  0
    0.3640    0.4624   -4.0060 H   0  0  0  0  0  0  0  0  0  0  0  0
    0.8017    0.0350    0.6653 C   0  0  0  0  0  0  0  0  0  0  0  0
    2.0156    0.0352    0.8160 O   0  0  0  0  0  0  0  0  0  0  0  0
   -0.0114    0.4204    1.7155 N   0  0  0  0  0  0  0  0  0  0  0  0
   -1.0132    0.3875    1.5558 H   0  0  0  0  0  0  0  0  0  0  0  0
    0.4821    0.6294    3.0708 C   0  0  0  0  0  0  0  0  0  0  0  0
    1.2578    1.4026    3.0818 H   0  0  0  0  0  0  0  0  0  0  0  0
   -0.3335    0.9515    3.7252 H   0  0  0  0  0  0  0  0  0  0  0  0
    0.9035   -0.2988    3.4713 H   0  0  0  0  0  0  0  0  0  0  0  0
  1  2  1  0  0  0  0
  2  3  1  0  0  0  0
  2  4  1  0  0  0  0
  2  5  1  0  0  0  0
  5  6  2  0  0  0  0
  5  7  1  0  0  0  0
  7  8  1  0  0  0  0
  7  9  1  0  0  0  0
  9 10  1  0  0  0  0
  9 11  1  0  0  0  0
  9 19  1  0  0  0  0
 11 12  1  0  0  0  0
 11 13  1  0  0  0  0
 11 14  1  0  0  0  0
 14 15  2  0  0  0  0
 14 16  1  0  0  0  0
 16 17  1  0  0  0  0
 16 18  1  0  0  0  0
 19 20  2  0  0  0  0
 19 21  1  0  0  0  0
 21 22  1  0  0  0  0
 21 23  1  0  0  0  0
 23 24  1  0  0  0  0
 23 25  1  0  0  0  0
 23 26  1  0  0  0  0
M  END
$$$$

  -OEChem-03222214023D

 26 25  0     1  0  0  0  0  0999 V2000
   -2.6482   -3.7671   -0.1421 H   0  0  0  0  0  0  0  0  0  0  0  0
   -2.6767   -2.7309   -0.4915 C   0  0  0  0  0  0  0  0  0  0  0  0
   -3.3780   -2.1694    0.1304 H   0  0  0  0  0  0  0  0  0  0  0  0
   -3.0268   -2.7189   -1.5264 H   0  0  0  0  0  0  0  0  0  0  0  0
   -1.2939   -2.1126   -0.4041 C   0  0  0  0  0  0  0  0  0  0  0  0
   -0.3598   -2.7641    0.0275 O   0  0  0  0  0  0  0  0  0  0  0  0
   -1.0933   -0.8115   -0.8215 N   0  0  0  0  0  0  0  0  0  0  0  0
   -1.9054   -0.3114   -1.1788 H   0  0  0  0  0  0  0  0  0  0  0  0
    0.2032   -0.1066   -0.7531 C   0  0  1  0  0  0  0  0  0  0  0  0
    0.9216   -0.7185   -1.3113 H   0  0  0  0  0  0  0  0  0  0  0  0
    0.1355    1.2730   -1.4424 C   0  0  0  0  0  0  0  0  0  0  0  0
   -0.1638    2.0289   -0.7097 H   0  0  0  0  0  0  0  0  0  0  0  0
    1.1298    1.5476   -1.8053 H   0  0  0  0  0  0  0  0  0  0  0  0
   -0.8559    1.3295   -2.5942 C   0  0  0  0  0  0  0  0  0  0  0  0
   -1.7955    2.0996   -2.5890 O   0  0  0  0  0  0  0  0  0  0  0  0
   -0.7072    0.5697   -3.7194 N   0  0  0  0  0  0  0  0  0  0  0  0
   -1.2722    0.8472   -4.5174 H   0  0  0  0  0  0  0  0  0  0  0  0
    0.1751    0.0898   -3.8673 H   0  0  0  0  0  0  0  0  0  0  0  0
    0.7921    0.0342    0.6657 C   0  0  0  0  0  0  0  0  0  0  0  0
    2.0066    0.0344    0.8106 O   0  0  0  0  0  0  0  0  0  0  0  0
   -0.0160    0.4217    1.7190 N   0  0  0  0  0  0  0  0  0  0  0  0
   -1.0186    0.3821    1.5670 H   0  0  0  0  0  0  0  0  0  0  0  0
    0.4853    0.6314    3.0714 C   0  0  0  0  0  0  0  0  0  0  0  0
    1.2664    1.3989    3.0770 H   0  0  0  0  0  0  0  0  0  0  0  0
   -0.3249    0.9611    3.7285 H   0  0  0  0  0  0  0  0  0  0  0  0
    0.9018   -0.2986    3.4723 H   0  0  0  0  0  0  0  0  0  0  0  0
  1  2  1  0  0  0  0
  2  3  1  0  0  0  0
  2  4  1  0  0  0  0
  2  5  1  0  0  0  0
  5  6  2  0  0  0  0
  5  7  1  0  0  0  0
  7  8  1  0  0  0  0
  7  9  1  0  0  0  0
  9 10  1  0  0  0  0
  9 11  1  0  0  0  0
  9 19  1  0  0  0  0
 11 12  1  0  0  0  0
 11 13  1  0  0  0  0
 11 14  1  0  0  0  0
 14 15  2  0  0  0  0
 14 16  1  0  0  0  0
 16 17  1  0  0  0  0
 16 18  1  0  0  0  0
 19 20  2  0  0  0  0
 19 21  1  0  0  0  0
 21 22  1  0  0  0  0
 21 23  1  0  0  0  0
 23 24  1  0  0  0  0
 23 25  1  0  0  0  0
 23 26  1  0  0  0  0
M  END
$$$$

  -OEChem-03222214023D

 26 25  0     1  0  0  0  0  0999 V2000
   -2.6479   -3.7883   -0.1206 H   0  0  0  0  0  0  0  0  0  0  0  0
   -2.6823   -2.7527   -0.4714 C   0  0  0  0  0  0  0  0  0  0  0  0
   -3.3929   -2.1965    0.1449 H   0  0  0  0  0  0  0  0  0  0  0  0
   -3.0251   -2.7445   -1.5090 H   0  0  0  0  0  0  0  0  0  0  0  0
   -1.3053   -2.1229   -0.3753 C   0  0  0  0  0  0  0  0  0  0  0  0
   -0.3682   -2.7665    0.0611 O   0  0  0  0  0  0  0  0  0  0  0  0
   -1.1113   -0.8227   -0.7987 N   0  0  0  0  0  0  0  0  0  0  0  0
   -1.9205   -0.3374   -1.1806 H   0  0  0  0  0  0  0  0  0  0  0  0
    0.1844   -0.1152   -0.7422 C   0  0  1  0  0  0  0  0  0  0  0  0
    0.9002   -0.7299   -1.3007 H   0  0  0  0  0  0  0  0  0  0  0  0
    0.1187    1.2620   -1.4389 C   0  0  0  0  0  0  0  0  0  0  0  0
   -0.1726    2.0207   -0.7058 H   0  0  0  0  0  0  0  0  0  0  0  0
    1.1142    1.5284   -1.8050 H   0  0  0  0  0  0  0  0  0  0  0  0
   -0.8713    1.3378   -2.5922 C   0  0  0  0  0  0  0  0  0  0  0  0
   -1.6294    2.2779   -2.7195 O   0  0  0  0  0  0  0  0  0  0  0  0
   -0.8767    0.4312   -3.6146 N   0  0  0  0  0  0  0  0  0  0  0  0
   -1.3716    0.7236   -4.4530 H   0  0  0  0  0  0  0  0  0  0  0  0
   -0.0943   -0.2114   -3.6914 H   0  0  0  0  0  0  0  0  0  0  0  0
    0.7836    0.0311    0.6723 C   0  0  0  0  0  0  0  0  0  0  0  0
    1.9991    0.0305    0.8077 O   0  0  0  0  0  0  0  0  0  0  0  0
   -0.0151    0.4203    1.7325 N   0  0  0  0  0  0  0  0  0  0  0  0
   -1.0191    0.3818    1.5912 H   0  0  0  0  0  0  0  0  0  0  0  0
    0.5012    0.6419    3.0775 C   0  0  0  0  0  0  0  0  0  0  0  0
    1.2723    1.4197    3.0688 H   0  0  0  0  0  0  0  0  0  0  0  0
   -0.3042    0.9640    3.7443 H   0  0  0  0  0  0  0  0  0  0  0  0
    0.9353   -0.2807    3.4770 H   0  0  0  0  0  0  0  0  0  0  0  0
  1  2  1  0  0  0  0
  2  3  1  0  0  0  0
  2  4  1  0  0  0  0
  2  5  1  0  0  0  0
  5  6  2  0  0  0  0
  5  7  1  0  0  0  0
  7  8  1  0  0  0  0
  7  9  1  0  0  0  0
  9 10  1  0  0  0  0
  9 11  1  0  0  0  0
  9 19  1  0  0  0  0
 11 12  1  0  0  0  0
 11 13  1  0  0  0  0
 11 14  1  0  0  0  0
 14 15  2  0  0  0  0
 14 16  1  0  0  0  0
 16 17  1  0  0  0  0
 16 18  1  0  0  0  0
 19 20  2  0  0  0  0
 19 21  1  0  0  0  0
 21 22  1  0  0  0  0
 21 23  1  0  0  0  0
 23 24  1  0  0  0  0
 23 25  1  0  0  0  0
 23 26  1  0  0  0  0
M  END
$$$$

  -OEChem-03222214023D

 26 25  0     1  0  0  0  0  0999 V2000
   -2.6436   -3.8064   -0.0918 H   0  0  0  0  0  0  0  0  0  0  0  0
   -2.6828   -2.7719   -0.4452 C   0  0  0  0  0  0  0  0  0  0  0  0
   -3.4013   -2.2189    0.1647 H   0  0  0  0  0  0  0  0  0  0  0  0
   -3.0185   -2.7690   -1.4851 H   0  0  0  0  0  0  0  0  0  0  0  0
   -1.3112   -2.1319   -0.3406 C   0  0  0  0  0  0  0  0  0  0  0  0
   -0.3727   -2.7667    0.1047 O   0  0  0  0  0  0  0  0  0  0  0  0
   -1.1237   -0.8331   -0.7717 N   0  0  0  0  0  0  0  0  0  0  0  0
   -1.9295   -0.3643   -1.1800 H   0  0  0  0  0  0  0  0  0  0  0  0
    0.1704   -0.1216   -0.7330 C   0  0  1  0  0  0  0  0  0  0  0  0
    0.8829   -0.7365   -1.2955 H   0  0  0  0  0  0  0  0  0  0  0  0
    0.0994    1.2554   -1.4332 C   0  0  0  0  0  0  0  0  0  0  0  0
   -0.1827    2.0134   -0.6962 H   0  0  0  0  0  0  0  0  0  0  0  0
    1.0942    1.5173   -1.8043 H   0  0  0  0  0  0  0  0  0  0  0  0
   -0.8949    1.3584   -2.5833 C   0  0  0  0  0  0  0  0  0  0  0  0
   -1.4421    2.4083   -2.8521 O   0  0  0  0  0  0  0  0  0  0  0  0
   -1.0862    0.3570   -3.4940 N   0  0  0  0  0  0  0  0  0  0  0  0
   -1.5173    0.6494   -4.3672 H   0  0  0  0  0  0  0  0  0  0  0  0
   -0.4236   -0.4127   -3.4984 H   0  0  0  0  0  0  0  0  0  0  0  0
    0.7818    0.0309    0.6760 C   0  0  0  0  0  0  0  0  0  0  0  0
    1.9982    0.0307    0.8020 O   0  0  0  0  0  0  0  0  0  0  0  0
   -0.0097    0.4215    1.7409 N   0  0  0  0  0  0  0  0  0  0  0  0
   -1.0145    0.3757    1.6080 H   0  0  0  0  0  0  0  0  0  0  0  0
    0.5155    0.6476    3.0816 C   0  0  0  0  0  0  0  0  0  0  0  0
    1.2793    1.4323    3.0674 H   0  0  0  0  0  0  0  0  0  0  0  0
   -0.2877    0.9621    3.7547 H   0  0  0  0  0  0  0  0  0  0  0  0
    0.9615   -0.2709    3.4776 H   0  0  0  0  0  0  0  0  0  0  0  0
  1  2  1  0  0  0  0
  2  3  1  0  0  0  0
  2  4  1  0  0  0  0
  2  5  1  0  0  0  0
  5  6  2  0  0  0  0
  5  7  1  0  0  0  0
  7  8  1  0  0  0  0
  7  9  1  0  0  0  0
  9 10  1  0  0  0  0
  9 11  1  0  0  0  0
  9 19  1  0  0  0  0
 11 12  1  0  0  0  0
 11 13  1  0  0  0  0
 11 14  1  0  0  0  0
 14 15  2  0  0  0  0
 14 16  1  0  0  0  0
 16 17  1  0  0  0  0
 16 18  1  0  0  0  0
 19 20  2  0  0  0  0
 19 21  1  0  0  0  0
 21 22  1  0  0  0  0
 21 23  1  0  0  0  0
 23 24  1  0  0  0  0
 23 25  1  0  0  0  0
 23 26  1  0  0  0  0
M  END
$$$$

  -OEChem-03222214023D

 26 25  0     1  0  0  0  0  0999 V2000
   -2.6246   -3.8217   -0.0350 H   0  0  0  0  0  0  0  0  0  0  0  0
   -2.6778   -2.7893   -0.3929 C   0  0  0  0  0  0  0  0  0  0  0  0
   -3.3862   -2.2379    0.2300 H   0  0  0  0  0  0  0  0  0  0  0  0
   -3.0367   -2.7941   -1.4250 H   0  0  0  0  0  0  0  0  0  0  0  0
   -1.3078   -2.1411   -0.3214 C   0  0  0  0  0  0  0  0  0  0  0  0
   -0.3555   -2.7717    0.0992 O   0  0  0  0  0  0  0  0  0  0  0  0
   -1.1364   -0.8402   -0.7546 N   0  0  0  0  0  0  0  0  0  0  0  0
   -1.9537   -0.3721   -1.1407 H   0  0  0  0  0  0  0  0  0  0  0  0
    0.1523   -0.1176   -0.7299 C   0  0  1  0  0  0  0  0  0  0  0  0
    0.8638   -0.7295   -1.2972 H   0  0  0  0  0  0  0  0  0  0  0  0
    0.0776    1.2609   -1.4306 C   0  0  0  0  0  0  0  0  0  0  0  0
   -0.1983    2.0164   -0.6886 H   0  0  0  0  0  0  0  0  0  0  0  0
    1.0739    1.5193   -1.8010 H   0  0  0  0  0  0  0  0  0  0  0  0
   -0.9143    1.3964   -2.5816 C   0  0  0  0  0  0  0  0  0  0  0  0
   -1.2351    2.4890   -3.0019 O   0  0  0  0  0  0  0  0  0  0  0  0
   -1.3003    0.3536   -3.3768 N   0  0  0  0  0  0  0  0  0  0  0  0
   -1.6716    0.6310   -4.2820 H   0  0  0  0  0  0  0  0  0  0  0  0
   -0.7709   -0.5100   -3.3023 H   0  0  0  0  0  0  0  0  0  0  0  0
    0.7739    0.0372    0.6746 C   0  0  0  0  0  0  0  0  0  0  0  0
    1.9910    0.0439    0.7921 O   0  0  0  0  0  0  0  0  0  0  0  0
   -0.0118    0.4194    1.7471 N   0  0  0  0  0  0  0  0  0  0  0  0
   -1.0173    0.3653    1.6228 H   0  0  0  0  0  0  0  0  0  0  0  0
    0.5228    0.6358    3.0858 C   0  0  0  0  0  0  0  0  0  0  0  0
    1.2859    1.4210    3.0721 H   0  0  0  0  0  0  0  0  0  0  0  0
   -0.2757    0.9446    3.7670 H   0  0  0  0  0  0  0  0  0  0  0  0
    0.9722   -0.2852    3.4716 H   0  0  0  0  0  0  0  0  0  0  0  0
  1  2  1  0  0  0  0
  2  3  1  0  0  0  0
  2  4  1  0  0  0  0
  2  5  1  0  0  0  0
  5  6  2  0  0  0  0
  5  7  1  0  0  0  0
  7  8  1  0  0  0  0
  7  9  1  0  0  0  0
  9 10  1  0  0  0  0
  9 11  1  0  0  0  0
  9 19  1  0  0  0  0
 11 12  1  0  0  0  0
 11 13  1  0  0  0  0
 11 14  1  0  0  0  0
 14 15  2  0  0  0  0
 14 16  1  0  0  0  0
 16 17  1  0  0  0  0
 16 18  1  0  0  0  0
 19 20  2  0  0  0  0
 19 21  1  0  0  0  0
 21 22  1  0  0  0  0
 21 23  1  0  0  0  0
 23 24  1  0  0  0  0
 23 25  1  0  0  0  0
 23 26  1  0  0  0  0
M  END
$$$$

  -OEChem-03222214023D

 26 25  0     1  0  0  0  0  0999 V2000
   -2.5165   -3.8716    0.0887 H   0  0  0  0  0  0  0  0  0  0  0  0
   -2.6162   -2.8403   -0.2622 C   0  0  0  0  0  0  0  0  0  0  0  0
   -3.2698   -2.2978    0.4251 H   0  0  0  0  0  0  0  0  0  0  0  0
   -3.0704   -2.8501   -1.2560 H   0  0  0  0  0  0  0  0  0  0  0  0
   -1.2536   -2.1757   -0.3198 C   0  0  0  0  0  0  0  0  0  0  0  0
   -0.2550   -2.8029   -0.0193 O   0  0  0  0  0  0  0  0  0  0  0  0
   -1.1465   -0.8592   -0.7270 N   0  0  0  0  0  0  0  0  0  0  0  0
   -2.0166   -0.3658   -0.9185 H   0  0  0  0  0  0  0  0  0  0  0  0
    0.1150   -0.0904   -0.7198 C   0  0  1  0  0  0  0  0  0  0  0  0
    0.8302   -0.6804   -1.3062 H   0  0  0  0  0  0  0  0  0  0  0  0
    0.0280    1.3010   -1.4091 C   0  0  0  0  0  0  0  0  0  0  0  0
    0.0232    2.0719   -0.6323 H   0  0  0  0  0  0  0  0  0  0  0  0
    0.9415    1.4455   -1.9935 H   0  0  0  0  0  0  0  0  0  0  0  0
   -1.1611    1.6174   -2.3161 C   0  0  0  0  0  0  0  0  0  0  0  0
   -1.2445    2.7006   -2.8574 O   0  0  0  0  0  0  0  0  0  0  0  0
   -1.9509    0.6764   -2.9144 N   0  0  0  0  0  0  0  0  0  0  0  0
   -2.4079    1.0173   -3.7568 H   0  0  0  0  0  0  0  0  0  0  0  0
   -1.5895   -0.2730   -2.9125 H   0  0  0  0  0  0  0  0  0  0  0  0
    0.7593    0.0478    0.6771 C   0  0  0  0  0  0  0  0  0  0  0  0
    1.9772    0.0873    0.7745 O   0  0  0  0  0  0  0  0  0  0  0  0
   -0.0168    0.3722    1.7757 N   0  0  0  0  0  0  0  0  0  0  0  0
   -1.0229    0.3031    1.6689 H   0  0  0  0  0  0  0  0  0  0  0  0
    0.5388    0.5672    3.1093 C   0  0  0  0  0  0  0  0  0  0  0  0
    1.2670    1.3851    3.1060 H   0  0  0  0  0  0  0  0  0  0  0  0
   -0.2562    0.8172    3.8182 H   0  0  0  0  0  0  0  0  0  0  0  0
    1.0363   -0.3457    3.4533 H   0  0  0  0  0  0  0  0  0  0  0  0
  1  2  1  0  0  0  0
  2  3  1  0  0  0  0
  2  4  1  0  0  0  0
  2  5  1  0  0  0  0
  5  6  2  0  0  0  0
  5  7  1  0  0  0  0
  7  8  1  0  0  0  0
  7  9  1  0  0  0  0
  9 10  1  0  0  0  0
  9 11  1  0  0  0  0
  9 19  1  0  0  0  0
 11 12  1  0  0  0  0
 11 13  1  0  0  0  0
 11 14  1  0  0  0  0
 14 15  2  0  0  0  0
 14 16  1  0  0  0  0
 16 17  1  0  0  0  0
 16 18  1  0  0  0  0
 19 20  2  0  0  0  0
 19 21  1  0  0  0  0
 21 22  1  0  0  0  0
 21 23  1  0  0  0  0
 23 24  1  0  0  0  0
 23 25  1  0  0  0  0
 23 26  1  0  0  0  0
M  END
$$$$

  -OEChem-03222214023D

 26 25  0     1  0  0  0  0  0999 V2000
   -2.4303   -4.0294    0.0543 H   0  0  0  0  0  0  0  0  0  0  0  0
   -2.4894   -3.0574   -0.4444 C   0  0  0  0  0  0  0  0  0  0  0  0
   -3.3816   -2.5349   -0.0910 H   0  0  0  0  0  0  0  0  0  0  0  0
   -2.5735   -3.2215   -1.5216 H   0  0  0  0  0  0  0  0  0  0  0  0
   -1.2500   -2.2374   -0.1381 C   0  0  0  0  0  0  0  0  0  0  0  0
   -0.4002   -2.6805    0.6118 O   0  0  0  0  0  0  0  0  0  0  0  0
   -1.0984   -0.9881   -0.7116 N   0  0  0  0  0  0  0  0  0  0  0  0
   -1.7543   -0.7899   -1.4651 H   0  0  0  0  0  0  0  0  0  0  0  0
    0.1838   -0.2517   -0.7313 C   0  0  1  0  0  0  0  0  0  0  0  0
    0.9123   -0.9204   -1.2057 H   0  0  0  0  0  0  0  0  0  0  0  0
    0.1645    1.0613   -1.5689 C   0  0  0  0  0  0  0  0  0  0  0  0
    0.1569    1.9155   -0.8851 H   0  0  0  0  0  0  0  0  0  0  0  0
    1.1010    1.1158   -2.1324 H   0  0  0  0  0  0  0  0  0  0  0  0
   -0.9857    1.2979   -2.5451 C   0  0  0  0  0  0  0  0  0  0  0  0
   -0.8974    2.1541   -3.4005 O   0  0  0  0  0  0  0  0  0  0  0  0
   -2.2945    1.0404   -2.2451 N   0  0  0  0  0  0  0  0  0  0  0  0
   -2.5009    0.9198   -1.2590 H   0  0  0  0  0  0  0  0  0  0  0  0
   -2.9328    1.6125   -2.7940 H   0  0  0  0  0  0  0  0  0  0  0  0
    0.7649    0.0598    0.6673 C   0  0  0  0  0  0  0  0  0  0  0  0
    1.9780    0.1355    0.8028 O   0  0  0  0  0  0  0  0  0  0  0  0
   -0.0570    0.5445    1.6690 N   0  0  0  0  0  0  0  0  0  0  0  0
   -1.0449    0.3384    1.5689 H   0  0  0  0  0  0  0  0  0  0  0  0
    0.4462    0.8940    2.9920 C   0  0  0  0  0  0  0  0  0  0  0  0
    1.1979    1.6872    2.9201 H   0  0  0  0  0  0  0  0  0  0  0  0
   -0.3709    1.2521    3.6254 H   0  0  0  0  0  0  0  0  0  0  0  0
    0.9012    0.0206    3.4711 H   0  0  0  0  0  0  0  0  0  0  0  0
  1  2  1  0  0  0  0
  2  3  1  0  0  0  0
  2  4  1  0  0  0  0
  2  5  1  0  0  0  0
  5  6  2  0  0  0  0
  5  7  1  0  0  0  0
  7  8  1  0  0  0  0
  7  9  1  0  0  0  0
  9 10  1  0  0  0  0
  9 11  1  0  0  0  0
  9 19  1  0  0  0  0
 11 12  1  0  0  0  0
 11 13  1  0  0  0  0
 11 14  1  0  0  0  0
 14 15  2  0  0  0  0
 14 16  1  0  0  0  0
 16 17  1  0  0  0  0
 16 18  1  0  0  0  0
 19 20  2  0  0  0  0
 19 21  1  0  0  0  0
 21 22  1  0  0  0  0
 21 23  1  0  0  0  0
 23 24  1  0  0  0  0
 23 25  1  0  0  0  0
 23 26  1  0  0  0  0
M  END
$$$$

  -OEChem-03222214023D

 26 25  0     1  0  0  0  0  0999 V2000
   -2.4159   -4.0269   -0.1432 H   0  0  0  0  0  0  0  0  0  0  0  0
   -2.4909   -3.0207   -0.5658 C   0  0  0  0  0  0  0  0  0  0  0  0
   -3.3621   -2.5222   -0.1344 H   0  0  0  0  0  0  0  0  0  0  0  0
   -2.6252   -3.1045   -1.6471 H   0  0  0  0  0  0  0  0  0  0  0  0
   -1.2328   -2.2303   -0.2578 C   0  0  0  0  0  0  0  0  0  0  0  0
   -0.3563   -2.7268    0.4252 O   0  0  0  0  0  0  0  0  0  0  0  0
   -1.0944   -0.9446   -0.7469 N   0  0  0  0  0  0  0  0  0  0  0  0
   -1.7969   -0.6634   -1.4289 H   0  0  0  0  0  0  0  0  0  0  0  0
    0.1787   -0.1921   -0.7291 C   0  0  1  0  0  0  0  0  0  0  0  0
    0.9109   -0.8187   -1.2529 H   0  0  0  0  0  0  0  0  0  0  0  0
    0.1271    1.1654   -1.4857 C   0  0  0  0  0  0  0  0  0  0  0  0
    0.1077    1.9806   -0.7563 H   0  0  0  0  0  0  0  0  0  0  0  0
    1.0535    1.2742   -2.0582 H   0  0  0  0  0  0  0  0  0  0  0  0
   -1.0493    1.4033   -2.4262 C   0  0  0  0  0  0  0  0  0  0  0  0
   -0.9324    2.1027   -3.4110 O   0  0  0  0  0  0  0  0  0  0  0  0
   -2.3520    1.2676   -2.0324 N   0  0  0  0  0  0  0  0  0  0  0  0
   -2.9922    1.8227   -2.5962 H   0  0  0  0  0  0  0  0  0  0  0  0
   -2.5142    1.2207   -1.0317 H   0  0  0  0  0  0  0  0  0  0  0  0
    0.7692    0.0346    0.6810 C   0  0  0  0  0  0  0  0  0  0  0  0
    1.9817    0.1307    0.8096 O   0  0  0  0  0  0  0  0  0  0  0  0
   -0.0526    0.4419    1.7168 N   0  0  0  0  0  0  0  0  0  0  0  0
   -1.0362    0.2165    1.6143 H   0  0  0  0  0  0  0  0  0  0  0  0
    0.4571    0.7180    3.0546 C   0  0  0  0  0  0  0  0  0  0  0  0
    1.1970    1.5248    3.0246 H   0  0  0  0  0  0  0  0  0  0  0  0
   -0.3593    1.0259    3.7146 H   0  0  0  0  0  0  0  0  0  0  0  0
    0.9280   -0.1759    3.4770 H   0  0  0  0  0  0  0  0  0  0  0  0
  1  2  1  0  0  0  0
  2  3  1  0  0  0  0
  2  4  1  0  0  0  0
  2  5  1  0  0  0  0
  5  6  2  0  0  0  0
  5  7  1  0  0  0  0
  7  8  1  0  0  0  0
  7  9  1  0  0  0  0
  9 10  1  0  0  0  0
  9 11  1  0  0  0  0
  9 19  1  0  0  0  0
 11 12  1  0  0  0  0
 11 13  1  0  0  0  0
 11 14  1  0  0  0  0
 14 15  2  0  0  0  0
 14 16  1  0  0  0  0
 16 17  1  0  0  0  0
 16 18  1  0  0  0  0
 19 20  2  0  0  0  0
 19 21  1  0  0  0  0
 21 22  1  0  0  0  0
 21 23  1  0  0  0  0
 23 24  1  0  0  0  0
 23 25  1  0  0  0  0
 23 26  1  0  0  0  0
M  END
$$$$

  -OEChem-03222214023D

 26 25  0     1  0  0  0  0  0999 V2000
   -2.4818   -3.9664   -0.1652 H   0  0  0  0  0  0  0  0  0  0  0  0
   -2.5439   -2.9509   -0.5672 C   0  0  0  0  0  0  0  0  0  0  0  0
   -3.3836   -2.4361   -0.0944 H   0  0  0  0  0  0  0  0  0  0  0  0
   -2.7208   -3.0103   -1.6440 H   0  0  0  0  0  0  0  0  0  0  0  0
   -1.2536   -2.2012   -0.2935 C   0  0  0  0  0  0  0  0  0  0  0  0
   -0.3604   -2.7362    0.3371 O   0  0  0  0  0  0  0  0  0  0  0  0
   -1.1058   -0.9056   -0.7511 N   0  0  0  0  0  0  0  0  0  0  0  0
   -1.8411   -0.5725   -1.3723 H   0  0  0  0  0  0  0  0  0  0  0  0
    0.1738   -0.1645   -0.7347 C   0  0  1  0  0  0  0  0  0  0  0  0
    0.8926   -0.7814   -1.2875 H   0  0  0  0  0  0  0  0  0  0  0  0
    0.1087    1.2087   -1.4575 C   0  0  0  0  0  0  0  0  0  0  0  0
    0.1039    2.0109   -0.7138 H   0  0  0  0  0  0  0  0  0  0  0  0
    1.0199    1.3312   -2.0513 H   0  0  0  0  0  0  0  0  0  0  0  0
   -1.0959    1.4394   -2.3608 C   0  0  0  0  0  0  0  0  0  0  0  0
   -0.9802    1.9191   -3.4694 O   0  0  0  0  0  0  0  0  0  0  0  0
   -2.3788    1.4388   -1.8861 N   0  0  0  0  0  0  0  0  0  0  0  0
   -3.0313    1.9405   -2.4847 H   0  0  0  0  0  0  0  0  0  0  0  0
   -2.4921    1.5096   -0.8799 H   0  0  0  0  0  0  0  0  0  0  0  0
    0.7867    0.0219    0.6712 C   0  0  0  0  0  0  0  0  0  0  0  0
    2.0012    0.1082    0.7854 O   0  0  0  0  0  0  0  0  0  0  0  0
   -0.0182    0.4100    1.7275 N   0  0  0  0  0  0  0  0  0  0  0  0
   -1.0035    0.1882    1.6343 H   0  0  0  0  0  0  0  0  0  0  0  0
    0.5115    0.6545    3.0637 C   0  0  0  0  0  0  0  0  0  0  0  0
    1.2563    1.4570    3.0407 H   0  0  0  0  0  0  0  0  0  0  0  0
   -0.2940    0.9535    3.7410 H   0  0  0  0  0  0  0  0  0  0  0  0
    0.9823   -0.2514    3.4602 H   0  0  0  0  0  0  0  0  0  0  0  0
  1  2  1  0  0  0  0
  2  3  1  0  0  0  0
  2  4  1  0  0  0  0
  2  5  1  0  0  0  0
  5  6  2  0  0  0  0
  5  7  1  0  0  0  0
  7  8  1  0  0  0  0
  7  9  1  0  0  0  0
  9 10  1  0  0  0  0
  9 11  1  0  0  0  0
  9 19  1  0  0  0  0
 11 12  1  0  0  0  0
 11 13  1  0  0  0  0
 11 14  1  0  0  0  0
 14 15  2  0  0  0  0
 14 16  1  0  0  0  0
 16 17  1  0  0  0  0
 16 18  1  0  0  0  0
 19 20  2  0  0  0  0
 19 21  1  0  0  0  0
 21 22  1  0  0  0  0
 21 23  1  0  0  0  0
 23 24  1  0  0  0  0
 23 25  1  0  0  0  0
 23 26  1  0  0  0  0
M  END
$$$$

  -OEChem-03222214023D

 26 25  0     1  0  0  0  0  0999 V2000
   -2.5187   -3.9223   -0.2062 H   0  0  0  0  0  0  0  0  0  0  0  0
   -2.5793   -2.8951   -0.5770 C   0  0  0  0  0  0  0  0  0  0  0  0
   -3.4057   -2.3873   -0.0742 H   0  0  0  0  0  0  0  0  0  0  0  0
   -2.7765   -2.9220   -1.6516 H   0  0  0  0  0  0  0  0  0  0  0  0
   -1.2773   -2.1646   -0.3059 C   0  0  0  0  0  0  0  0  0  0  0  0
   -0.3858   -2.7183    0.3111 O   0  0  0  0  0  0  0  0  0  0  0  0
   -1.1158   -0.8655   -0.7485 N   0  0  0  0  0  0  0  0  0  0  0  0
   -1.8585   -0.5063   -1.3459 H   0  0  0  0  0  0  0  0  0  0  0  0
    0.1718   -0.1377   -0.7287 C   0  0  1  0  0  0  0  0  0  0  0  0
    0.8825   -0.7534   -1.2934 H   0  0  0  0  0  0  0  0  0  0  0  0
    0.1083    1.2415   -1.4364 C   0  0  0  0  0  0  0  0  0  0  0  0
    0.1118    2.0385   -0.6873 H   0  0  0  0  0  0  0  0  0  0  0  0
    1.0124    1.3689   -2.0397 H   0  0  0  0  0  0  0  0  0  0  0  0
   -1.1088    1.4631   -2.3228 C   0  0  0  0  0  0  0  0  0  0  0  0
   -1.0104    1.6894   -3.5110 O   0  0  0  0  0  0  0  0  0  0  0  0
   -2.3681    1.6052   -1.8087 N   0  0  0  0  0  0  0  0  0  0  0  0
   -3.0277    2.0415   -2.4490 H   0  0  0  0  0  0  0  0  0  0  0  0
   -2.4420    1.8093   -0.8169 H   0  0  0  0  0  0  0  0  0  0  0  0
    0.7930    0.0268    0.6757 C   0  0  0  0  0  0  0  0  0  0  0  0
    2.0085    0.1043    0.7854 O   0  0  0  0  0  0  0  0  0  0  0  0
   -0.0037    0.4115    1.7393 N   0  0  0  0  0  0  0  0  0  0  0  0
   -0.9911    0.1980    1.6472 H   0  0  0  0  0  0  0  0  0  0  0  0
    0.5335    0.6308    3.0770 C   0  0  0  0  0  0  0  0  0  0  0  0
    1.2926    1.4200    3.0616 H   0  0  0  0  0  0  0  0  0  0  0  0
   -0.2647    0.9360    3.7603 H   0  0  0  0  0  0  0  0  0  0  0  0
    0.9887   -0.2880    3.4616 H   0  0  0  0  0  0  0  0  0  0  0  0
  1  2  1  0  0  0  0
  2  3  1  0  0  0  0
  2  4  1  0  0  0  0
  2  5  1  0  0  0  0
  5  6  2  0  0  0  0
  5  7  1  0  0  0  0
  7  8  1  0  0  0  0
  7  9  1  0  0  0  0
  9 10  1  0  0  0  0
  9 11  1  0  0  0  0
  9 19  1  0  0  0  0
 11 12  1  0  0  0  0
 11 13  1  0  0  0  0
 11 14  1  0  0  0  0
 14 15  2  0  0  0  0
 14 16  1  0  0  0  0
 16 17  1  0  0  0  0
 16 18  1  0  0  0  0
 19 20  2  0  0  0  0
 19 21  1  0  0  0  0
 21 22  1  0  0  0  0
 21 23  1  0  0  0  0
 23 24  1  0  0  0  0
 23 25  1  0  0  0  0
 23 26  1  0  0  0  0
M  END
$$$$

  -OEChem-03222214023D

 26 25  0     1  0  0  0  0  0999 V2000
   -2.5602   -3.8747   -0.2365 H   0  0  0  0  0  0  0  0  0  0  0  0
   -2.6088   -2.8438   -0.5988 C   0  0  0  0  0  0  0  0  0  0  0  0
   -3.4365   -2.3340   -0.1003 H   0  0  0  0  0  0  0  0  0  0  0  0
   -2.7947   -2.8597   -1.6755 H   0  0  0  0  0  0  0  0  0  0  0  0
   -1.3042   -2.1259   -0.3082 C   0  0  0  0  0  0  0  0  0  0  0  0
   -0.4260   -2.6900    0.3189 O   0  0  0  0  0  0  0  0  0  0  0  0
   -1.1261   -0.8278   -0.7465 N   0  0  0  0  0  0  0  0  0  0  0  0
   -1.8561   -0.4666   -1.3579 H   0  0  0  0  0  0  0  0  0  0  0  0
    0.1724   -0.1192   -0.7260 C   0  0  1  0  0  0  0  0  0  0  0  0
    0.8734   -0.7391   -1.2980 H   0  0  0  0  0  0  0  0  0  0  0  0
    0.1170    1.2654   -1.4214 C   0  0  0  0  0  0  0  0  0  0  0  0
    0.1336    2.0584   -0.6684 H   0  0  0  0  0  0  0  0  0  0  0  0
    1.0151    1.3904   -2.0339 H   0  0  0  0  0  0  0  0  0  0  0  0
   -1.1090    1.4900   -2.2922 C   0  0  0  0  0  0  0  0  0  0  0  0
   -1.0587    1.4551   -3.5043 O   0  0  0  0  0  0  0  0  0  0  0  0
   -2.3317    1.7896   -1.7593 N   0  0  0  0  0  0  0  0  0  0  0  0
   -3.0039    2.1561   -2.4291 H   0  0  0  0  0  0  0  0  0  0  0  0
   -2.3555    2.1262   -0.8018 H   0  0  0  0  0  0  0  0  0  0  0  0
    0.7989    0.0307    0.6776 C   0  0  0  0  0  0  0  0  0  0  0  0
    2.0156    0.0927    0.7853 O   0  0  0  0  0  0  0  0  0  0  0  0
    0.0091    0.4232    1.7436 N   0  0  0  0  0  0  0  0  0  0  0  0
   -0.9813    0.2234    1.6505 H   0  0  0  0  0  0  0  0  0  0  0  0
    0.5507    0.6236    3.0824 C   0  0  0  0  0  0  0  0  0  0  0  0
    1.3203    1.4028    3.0725 H   0  0  0  0  0  0  0  0  0  0  0  0
   -0.2425    0.9332    3.7694 H   0  0  0  0  0  0  0  0  0  0  0  0
    0.9947   -0.3046    3.4579 H   0  0  0  0  0  0  0  0  0  0  0  0
  1  2  1  0  0  0  0
  2  3  1  0  0  0  0
  2  4  1  0  0  0  0
  2  5  1  0  0  0  0
  5  6  2  0  0  0  0
  5  7  1  0  0  0  0
  7  8  1  0  0  0  0
  7  9  1  0  0  0  0
  9 10  1  0  0  0  0
  9 11  1  0  0  0  0
  9 19  1  0  0  0  0
 11 12  1  0  0  0  0
 11 13  1  0  0  0  0
 11 14  1  0  0  0  0
 14 15  2  0  0  0  0
 14 16  1  0  0  0  0
 16 17  1  0  0  0  0
 16 18  1  0  0  0  0
 19 20  2  0  0  0  0
 19 21  1  0  0  0  0
 21 22  1  0  0  0  0
 21 23  1  0  0  0  0
 23 24  1  0  0  0  0
 23 25  1  0  0  0  0
 23 26  1  0  0  0  0
M  END
$$$$

  -OEChem-03222214023D

 26 25  0     1  0  0  0  0  0999 V2000
   -2.5870   -3.8431   -0.2633 H   0  0  0  0  0  0  0  0  0  0  0  0
   -2.6269   -2.8117   -0.6252 C   0  0  0  0  0  0  0  0  0  0  0  0
   -3.4655   -2.3016   -0.1453 H   0  0  0  0  0  0  0  0  0  0  0  0
   -2.7878   -2.8260   -1.7061 H   0  0  0  0  0  0  0  0  0  0  0  0
   -1.3291   -2.0945   -0.3030 C   0  0  0  0  0  0  0  0  0  0  0  0
   -0.4705   -2.6570    0.3524 O   0  0  0  0  0  0  0  0  0  0  0  0
   -1.1364   -0.7995   -0.7446 N   0  0  0  0  0  0  0  0  0  0  0  0
   -1.8386   -0.4574   -1.3982 H   0  0  0  0  0  0  0  0  0  0  0  0
    0.1729   -0.1102   -0.7259 C   0  0  1  0  0  0  0  0  0  0  0  0
    0.8647   -0.7365   -1.3019 H   0  0  0  0  0  0  0  0  0  0  0  0
    0.1277    1.2783   -1.4138 C   0  0  0  0  0  0  0  0  0  0  0  0
    0.1611    2.0688   -0.6586 H   0  0  0  0  0  0  0  0  0  0  0  0
    1.0197    1.3960   -2.0365 H   0  0  0  0  0  0  0  0  0  0  0  0
   -1.1046    1.5110   -2.2720 C   0  0  0  0  0  0  0  0  0  0  0  0
   -1.1354    1.2214   -3.4505 O   0  0  0  0  0  0  0  0  0  0  0  0
   -2.2652    2.0088   -1.7501 N   0  0  0  0  0  0  0  0  0  0  0  0
   -2.9491    2.3119   -2.4390 H   0  0  0  0  0  0  0  0  0  0  0  0
   -2.2165    2.4852   -0.8549 H   0  0  0  0  0  0  0  0  0  0  0  0
    0.8028    0.0327    0.6769 C   0  0  0  0  0  0  0  0  0  0  0  0
    2.0205    0.0795    0.7836 O   0  0  0  0  0  0  0  0  0  0  0  0
    0.0183    0.4388    1.7416 N   0  0  0  0  0  0  0  0  0  0  0  0
   -0.9750    0.2528    1.6460 H   0  0  0  0  0  0  0  0  0  0  0  0
    0.5600    0.6280    3.0820 C   0  0  0  0  0  0  0  0  0  0  0  0
    1.3443    1.3924    3.0757 H   0  0  0  0  0  0  0  0  0  0  0  0
   -0.2296    0.9522    3.7665 H   0  0  0  0  0  0  0  0  0  0  0  0
    0.9846   -0.3087    3.4586 H   0  0  0  0  0  0  0  0  0  0  0  0
  1  2  1  0  0  0  0
  2  3  1  0  0  0  0
  2  4  1  0  0  0  0
  2  5  1  0  0  0  0
  5  6  2  0  0  0  0
  5  7  1  0  0  0  0
  7  8  1  0  0  0  0
  7  9  1  0  0  0  0
  9 10  1  0  0  0  0
  9 11  1  0  0  0  0
  9 19  1  0  0  0  0
 11 12  1  0  0  0  0
 11 13  1  0  0  0  0
 11 14  1  0  0  0  0
 14 15  2  0  0  0  0
 14 16  1  0  0  0  0
 16 17  1  0  0  0  0
 16 18  1  0  0  0  0
 19 20  2  0  0  0  0
 19 21  1  0  0  0  0
 21 22  1  0  0  0  0
 21 23  1  0  0  0  0
 23 24  1  0  0  0  0
 23 25  1  0  0  0  0
 23 26  1  0  0  0  0
M  END
$$$$

  -OEChem-03222214023D

 26 25  0     1  0  0  0  0  0999 V2000
   -2.6106   -3.8227   -0.2559 H   0  0  0  0  0  0  0  0  0  0  0  0
   -2.6316   -2.8021   -0.6488 C   0  0  0  0  0  0  0  0  0  0  0  0
   -3.4868   -2.2760   -0.2182 H   0  0  0  0  0  0  0  0  0  0  0  0
   -2.7486   -2.8467   -1.7345 H   0  0  0  0  0  0  0  0  0  0  0  0
   -1.3457   -2.0786   -0.2953 C   0  0  0  0  0  0  0  0  0  0  0  0
   -0.5045   -2.6341    0.3885 O   0  0  0  0  0  0  0  0  0  0  0  0
   -1.1456   -0.7870   -0.7433 N   0  0  0  0  0  0  0  0  0  0  0  0
   -1.8141   -0.4757   -1.4468 H   0  0  0  0  0  0  0  0  0  0  0  0
    0.1703   -0.1114   -0.7271 C   0  0  1  0  0  0  0  0  0  0  0  0
    0.8556   -0.7423   -1.3054 H   0  0  0  0  0  0  0  0  0  0  0  0
    0.1301    1.2808   -1.4086 C   0  0  0  0  0  0  0  0  0  0  0  0
    0.1758    2.0672   -0.6496 H   0  0  0  0  0  0  0  0  0  0  0  0
    1.0170    1.3952   -2.0388 H   0  0  0  0  0  0  0  0  0  0  0  0
   -1.1073    1.5243   -2.2566 C   0  0  0  0  0  0  0  0  0  0  0  0
   -1.2522    1.0078   -3.3465 O   0  0  0  0  0  0  0  0  0  0  0  0
   -2.1631    2.2603   -1.7994 N   0  0  0  0  0  0  0  0  0  0  0  0
   -2.8552    2.5101   -2.5009 H   0  0  0  0  0  0  0  0  0  0  0  0
   -2.0114    2.8740   -1.0051 H   0  0  0  0  0  0  0  0  0  0  0  0
    0.8017    0.0303    0.6750 C   0  0  0  0  0  0  0  0  0  0  0  0
    2.0200    0.0699    0.7798 O   0  0  0  0  0  0  0  0  0  0  0  0
    0.0214    0.4484    1.7380 N   0  0  0  0  0  0  0  0  0  0  0  0
   -0.9740    0.2733    1.6424 H   0  0  0  0  0  0  0  0  0  0  0  0
    0.5644    0.6391    3.0774 C   0  0  0  0  0  0  0  0  0  0  0  0
    1.3562    1.3956    3.0666 H   0  0  0  0  0  0  0  0  0  0  0  0
   -0.2215    0.9748    3.7607 H   0  0  0  0  0  0  0  0  0  0  0  0
    0.9793   -0.3002    3.4582 H   0  0  0  0  0  0  0  0  0  0  0  0
  1  2  1  0  0  0  0
  2  3  1  0  0  0  0
  2  4  1  0  0  0  0
  2  5  1  0  0  0  0
  5  6  2  0  0  0  0
  5  7  1  0  0  0  0
  7  8  1  0  0  0  0
  7  9  1  0  0  0  0
  9 10  1  0  0  0  0
  9 11  1  0  0  0  0
  9 19  1  0  0  0  0
 11 12  1  0  0  0  0
 11 13  1  0  0  0  0
 11 14  1  0  0  0  0
 14 15  2  0  0  0  0
 14 16  1  0  0  0  0
 16 17  1  0  0  0  0
 16 18  1  0  0  0  0
 19 20  2  0  0  0  0
 19 21  1  0  0  0  0
 21 22  1  0  0  0  0
 21 23  1  0  0  0  0
 23 24  1  0  0  0  0
 23 25  1  0  0  0  0
 23 26  1  0  0  0  0
M  END
$$$$

  -OEChem-03222214023D

 26 25  0     1  0  0  0  0  0999 V2000
   -2.5959   -3.8354   -0.2808 H   0  0  0  0  0  0  0  0  0  0  0  0
   -2.6268   -2.8106   -0.6618 C   0  0  0  0  0  0  0  0  0  0  0  0
   -3.4976   -2.3032   -0.2398 H   0  0  0  0  0  0  0  0  0  0  0  0
   -2.7248   -2.8435   -1.7499 H   0  0  0  0  0  0  0  0  0  0  0  0
   -1.3586   -2.0718   -0.2776 C   0  0  0  0  0  0  0  0  0  0  0  0
   -0.5333   -2.6143    0.4357 O   0  0  0  0  0  0  0  0  0  0  0  0
   -1.1558   -0.7839   -0.7341 N   0  0  0  0  0  0  0  0  0  0  0  0
   -1.7969   -0.4992   -1.4756 H   0  0  0  0  0  0  0  0  0  0  0  0
    0.1626   -0.1148   -0.7238 C   0  0  1  0  0  0  0  0  0  0  0  0
    0.8444   -0.7492   -1.3025 H   0  0  0  0  0  0  0  0  0  0  0  0
    0.1195    1.2774   -1.4079 C   0  0  0  0  0  0  0  0  0  0  0  0
    0.1718    2.0613   -0.6470 H   0  0  0  0  0  0  0  0  0  0  0  0
    1.0035    1.3896   -2.0419 H   0  0  0  0  0  0  0  0  0  0  0  0
   -1.1202    1.5328   -2.2525 C   0  0  0  0  0  0  0  0  0  0  0  0
   -1.4079    0.8331   -3.2051 O   0  0  0  0  0  0  0  0  0  0  0  0
   -2.0201    2.5109   -1.9387 N   0  0  0  0  0  0  0  0  0  0  0  0
   -2.7173    2.7134   -2.6503 H   0  0  0  0  0  0  0  0  0  0  0  0
   -1.7395    3.2369   -1.2870 H   0  0  0  0  0  0  0  0  0  0  0  0
    0.7985    0.0326    0.6756 C   0  0  0  0  0  0  0  0  0  0  0  0
    2.0175    0.0639    0.7773 O   0  0  0  0  0  0  0  0  0  0  0  0
    0.0233    0.4609    1.7380 N   0  0  0  0  0  0  0  0  0  0  0  0
   -0.9740    0.2962    1.6416 H   0  0  0  0  0  0  0  0  0  0  0  0
    0.5683    0.6454    3.0772 C   0  0  0  0  0  0  0  0  0  0  0  0
    1.3655    1.3962    3.0675 H   0  0  0  0  0  0  0  0  0  0  0  0
   -0.2148    0.9852    3.7616 H   0  0  0  0  0  0  0  0  0  0  0  0
    0.9771   -0.2973    3.4561 H   0  0  0  0  0  0  0  0  0  0  0  0
  1  2  1  0  0  0  0
  2  3  1  0  0  0  0
  2  4  1  0  0  0  0
  2  5  1  0  0  0  0
  5  6  2  0  0  0  0
  5  7  1  0  0  0  0
  7  8  1  0  0  0  0
  7  9  1  0  0  0  0
  9 10  1  0  0  0  0
  9 11  1  0  0  0  0
  9 19  1  0  0  0  0
 11 12  1  0  0  0  0
 11 13  1  0  0  0  0
 11 14  1  0  0  0  0
 14 15  2  0  0  0  0
 14 16  1  0  0  0  0
 16 17  1  0  0  0  0
 16 18  1  0  0  0  0
 19 20  2  0  0  0  0
 19 21  1  0  0  0  0
 21 22  1  0  0  0  0
 21 23  1  0  0  0  0
 23 24  1  0  0  0  0
 23 25  1  0  0  0  0
 23 26  1  0  0  0  0
M  END
$$$$

  -OEChem-03222214023D

 26 25  0     1  0  0  0  0  0999 V2000
   -2.5752   -3.8608   -0.2713 H   0  0  0  0  0  0  0  0  0  0  0  0
   -2.6183   -2.8333   -0.6437 C   0  0  0  0  0  0  0  0  0  0  0  0
   -3.4876   -2.3353   -0.2074 H   0  0  0  0  0  0  0  0  0  0  0  0
   -2.7289   -2.8578   -1.7308 H   0  0  0  0  0  0  0  0  0  0  0  0
   -1.3510   -2.0879   -0.2693 C   0  0  0  0  0  0  0  0  0  0  0  0
   -0.5151   -2.6262    0.4351 O   0  0  0  0  0  0  0  0  0  0  0  0
   -1.1611   -0.7979   -0.7240 N   0  0  0  0  0  0  0  0  0  0  0  0
   -1.8069   -0.5158   -1.4645 H   0  0  0  0  0  0  0  0  0  0  0  0
    0.1479   -0.1135   -0.7206 C   0  0  1  0  0  0  0  0  0  0  0  0
    0.8331   -0.7423   -1.3009 H   0  0  0  0  0  0  0  0  0  0  0  0
    0.0925    1.2783   -1.4090 C   0  0  0  0  0  0  0  0  0  0  0  0
    0.1362    2.0564   -0.6416 H   0  0  0  0  0  0  0  0  0  0  0  0
    0.9817    1.3983   -2.0339 H   0  0  0  0  0  0  0  0  0  0  0  0
   -1.1399    1.5553   -2.2640 C   0  0  0  0  0  0  0  0  0  0  0  0
   -1.5922    0.7449   -3.0532 O   0  0  0  0  0  0  0  0  0  0  0  0
   -1.8283    2.7308   -2.1681 N   0  0  0  0  0  0  0  0  0  0  0  0
   -2.5204    2.9009   -2.8927 H   0  0  0  0  0  0  0  0  0  0  0  0
   -1.3960    3.5128   -1.6865 H   0  0  0  0  0  0  0  0  0  0  0  0
    0.7887    0.0396    0.6760 C   0  0  0  0  0  0  0  0  0  0  0  0
    2.0080    0.0855    0.7705 O   0  0  0  0  0  0  0  0  0  0  0  0
    0.0146    0.4569    1.7435 N   0  0  0  0  0  0  0  0  0  0  0  0
   -0.9820    0.2853    1.6508 H   0  0  0  0  0  0  0  0  0  0  0  0
    0.5641    0.6405    3.0810 C   0  0  0  0  0  0  0  0  0  0  0  0
    1.3561    1.3968    3.0711 H   0  0  0  0  0  0  0  0  0  0  0  0
   -0.2187    0.9723    3.7696 H   0  0  0  0  0  0  0  0  0  0  0  0
    0.9809   -0.3010    3.4544 H   0  0  0  0  0  0  0  0  0  0  0  0
  1  2  1  0  0  0  0
  2  3  1  0  0  0  0
  2  4  1  0  0  0  0
  2  5  1  0  0  0  0
  5  6  2  0  0  0  0
  5  7  1  0  0  0  0
  7  8  1  0  0  0  0
  7  9  1  0  0  0  0
  9 10  1  0  0  0  0
  9 11  1  0  0  0  0
  9 19  1  0  0  0  0
 11 12  1  0  0  0  0
 11 13  1  0  0  0  0
 11 14  1  0  0  0  0
 14 15  2  0  0  0  0
 14 16  1  0  0  0  0
 16 17  1  0  0  0  0
 16 18  1  0  0  0  0
 19 20  2  0  0  0  0
 19 21  1  0  0  0  0
 21 22  1  0  0  0  0
 21 23  1  0  0  0  0
 23 24  1  0  0  0  0
 23 25  1  0  0  0  0
 23 26  1  0  0  0  0
M  END
$$$$

  -OEChem-03222214023D

 26 25  0     1  0  0  0  0  0999 V2000
   -2.5516   -3.8889   -0.2552 H   0  0  0  0  0  0  0  0  0  0  0  0
   -2.6094   -2.8577   -0.6144 C   0  0  0  0  0  0  0  0  0  0  0  0
   -3.4679   -2.3684   -0.1486 H   0  0  0  0  0  0  0  0  0  0  0  0
   -2.7505   -2.8707   -1.6980 H   0  0  0  0  0  0  0  0  0  0  0  0
   -1.3355   -2.1104   -0.2679 C   0  0  0  0  0  0  0  0  0  0  0  0
   -0.4749   -2.6519    0.4039 O   0  0  0  0  0  0  0  0  0  0  0  0
   -1.1653   -0.8155   -0.7149 N   0  0  0  0  0  0  0  0  0  0  0  0
   -1.8409   -0.5158   -1.4220 H   0  0  0  0  0  0  0  0  0  0  0  0
    0.1289   -0.1071   -0.7187 C   0  0  1  0  0  0  0  0  0  0  0  0
    0.8192   -0.7283   -1.3011 H   0  0  0  0  0  0  0  0  0  0  0  0
    0.0618    1.2834   -1.4132 C   0  0  0  0  0  0  0  0  0  0  0  0
    0.0925    2.0573   -0.6406 H   0  0  0  0  0  0  0  0  0  0  0  0
    0.9596    1.4095   -2.0245 H   0  0  0  0  0  0  0  0  0  0  0  0
   -1.1559    1.5882   -2.2852 C   0  0  0  0  0  0  0  0  0  0  0  0
   -1.7850    0.7429   -2.8983 O   0  0  0  0  0  0  0  0  0  0  0  0
   -1.6085    2.8672   -2.4382 N   0  0  0  0  0  0  0  0  0  0  0  0
   -2.2954    3.0128   -3.1730 H   0  0  0  0  0  0  0  0  0  0  0  0
   -1.0218    3.6361   -2.1304 H   0  0  0  0  0  0  0  0  0  0  0  0
    0.7766    0.0497    0.6742 C   0  0  0  0  0  0  0  0  0  0  0  0
    1.9956    0.1151    0.7605 O   0  0  0  0  0  0  0  0  0  0  0  0
    0.0029    0.4459    1.7498 N   0  0  0  0  0  0  0  0  0  0  0  0
   -0.9931    0.2703    1.6590 H   0  0  0  0  0  0  0  0  0  0  0  0
    0.5559    0.6347    3.0850 C   0  0  0  0  0  0  0  0  0  0  0  0
    1.3365    1.4027    3.0729 H   0  0  0  0  0  0  0  0  0  0  0  0
   -0.2287    0.9535    3.7777 H   0  0  0  0  0  0  0  0  0  0  0  0
    0.9879   -0.3013    3.4551 H   0  0  0  0  0  0  0  0  0  0  0  0
  1  2  1  0  0  0  0
  2  3  1  0  0  0  0
  2  4  1  0  0  0  0
  2  5  1  0  0  0  0
  5  6  2  0  0  0  0
  5  7  1  0  0  0  0
  7  8  1  0  0  0  0
  7  9  1  0  0  0  0
  9 10  1  0  0  0  0
  9 11  1  0  0  0  0
  9 19  1  0  0  0  0
 11 12  1  0  0  0  0
 11 13  1  0  0  0  0
 11 14  1  0  0  0  0
 14 15  2  0  0  0  0
 14 16  1  0  0  0  0
 16 17  1  0  0  0  0
 16 18  1  0  0  0  0
 19 20  2  0  0  0  0
 19 21  1  0  0  0  0
 21 22  1  0  0  0  0
 21 23  1  0  0  0  0
 23 24  1  0  0  0  0
 23 25  1  0  0  0  0
 23 26  1  0  0  0  0
M  END
$$$$

  -OEChem-03222214023D

 26 25  0     1  0  0  0  0  0999 V2000
   -2.5355   -3.9071   -0.2223 H   0  0  0  0  0  0  0  0  0  0  0  0
   -2.6049   -2.8743   -0.5756 C   0  0  0  0  0  0  0  0  0  0  0  0
   -3.4446   -2.3855   -0.0759 H   0  0  0  0  0  0  0  0  0  0  0  0
   -2.7874   -2.8829   -1.6531 H   0  0  0  0  0  0  0  0  0  0  0  0
   -1.3179   -2.1293   -0.2747 C   0  0  0  0  0  0  0  0  0  0  0  0
   -0.4307   -2.6760    0.3573 O   0  0  0  0  0  0  0  0  0  0  0  0
   -1.1631   -0.8311   -0.7175 N   0  0  0  0  0  0  0  0  0  0  0  0
   -1.8738   -0.5069   -1.3780 H   0  0  0  0  0  0  0  0  0  0  0  0
    0.1180   -0.1015   -0.7259 C   0  0  1  0  0  0  0  0  0  0  0  0
    0.8147   -0.7176   -1.3059 H   0  0  0  0  0  0  0  0  0  0  0  0
    0.0455    1.2881   -1.4255 C   0  0  0  0  0  0  0  0  0  0  0  0
    0.0685    2.0612   -0.6519 H   0  0  0  0  0  0  0  0  0  0  0  0
    0.9514    1.4123   -2.0249 H   0  0  0  0  0  0  0  0  0  0  0  0
   -1.1566    1.6183   -2.3139 C   0  0  0  0  0  0  0  0  0  0  0  0
   -1.9558    0.8036   -2.7429 O   0  0  0  0  0  0  0  0  0  0  0  0
   -1.3959    2.9052   -2.7017 N   0  0  0  0  0  0  0  0  0  0  0  0
   -2.0954    3.0322   -3.4279 H   0  0  0  0  0  0  0  0  0  0  0  0
   -0.6777    3.6073   -2.5555 H   0  0  0  0  0  0  0  0  0  0  0  0
    0.7661    0.0611    0.6659 C   0  0  0  0  0  0  0  0  0  0  0  0
    1.9844    0.1420    0.7504 O   0  0  0  0  0  0  0  0  0  0  0  0
   -0.0104    0.4410    1.7454 N   0  0  0  0  0  0  0  0  0  0  0  0
   -1.0064    0.2649    1.6530 H   0  0  0  0  0  0  0  0  0  0  0  0
    0.5422    0.6318    3.0806 C   0  0  0  0  0  0  0  0  0  0  0  0
    1.3141    1.4086    3.0701 H   0  0  0  0  0  0  0  0  0  0  0  0
   -0.2452    0.9395    3.7751 H   0  0  0  0  0  0  0  0  0  0  0  0
    0.9853   -0.3003    3.4469 H   0  0  0  0  0  0  0  0  0  0  0  0
  1  2  1  0  0  0  0
  2  3  1  0  0  0  0
  2  4  1  0  0  0  0
  2  5  1  0  0  0  0
  5  6  2  0  0  0  0
  5  7  1  0  0  0  0
  7  8  1  0  0  0  0
  7  9  1  0  0  0  0
  9 10  1  0  0  0  0
  9 11  1  0  0  0  0
  9 19  1  0  0  0  0
 11 12  1  0  0  0  0
 11 13  1  0  0  0  0
 11 14  1  0  0  0  0
 14 15  2  0  0  0  0
 14 16  1  0  0  0  0
 16 17  1  0  0  0  0
 16 18  1  0  0  0  0
 19 20  2  0  0  0  0
 19 21  1  0  0  0  0
 21 22  1  0  0  0  0
 21 23  1  0  0  0  0
 23 24  1  0  0  0  0
 23 25  1  0  0  0  0
 23 26  1  0  0  0  0
M  END
$$$$

  -OEChem-03222214023D

 26 25  0     1  0  0  0  0  0999 V2000
   -2.5335   -3.9072   -0.1880 H   0  0  0  0  0  0  0  0  0  0  0  0
   -2.6071   -2.8739   -0.5388 C   0  0  0  0  0  0  0  0  0  0  0  0
   -3.4204   -2.3766   -0.0051 H   0  0  0  0  0  0  0  0  0  0  0  0
   -2.8334   -2.8803   -1.6078 H   0  0  0  0  0  0  0  0  0  0  0  0
   -1.3015   -2.1422   -0.2910 C   0  0  0  0  0  0  0  0  0  0  0  0
   -0.3896   -2.7024    0.2921 O   0  0  0  0  0  0  0  0  0  0  0  0
   -1.1547   -0.8415   -0.7279 N   0  0  0  0  0  0  0  0  0  0  0  0
   -1.9030   -0.4831   -1.3268 H   0  0  0  0  0  0  0  0  0  0  0  0
    0.1170   -0.0976   -0.7366 C   0  0  1  0  0  0  0  0  0  0  0  0
    0.8190   -0.7092   -1.3154 H   0  0  0  0  0  0  0  0  0  0  0  0
    0.0427    1.2919   -1.4380 C   0  0  0  0  0  0  0  0  0  0  0  0
    0.0601    2.0656   -0.6646 H   0  0  0  0  0  0  0  0  0  0  0  0
    0.9543    1.4141   -2.0293 H   0  0  0  0  0  0  0  0  0  0  0  0
   -1.1494    1.6340   -2.3370 C   0  0  0  0  0  0  0  0  0  0  0  0
   -2.0936    0.9003   -2.5752 O   0  0  0  0  0  0  0  0  0  0  0  0
   -1.2123    2.8493   -2.9555 N   0  0  0  0  0  0  0  0  0  0  0  0
   -1.9336    2.9592   -3.6628 H   0  0  0  0  0  0  0  0  0  0  0  0
   -0.3918    3.4469   -2.9618 H   0  0  0  0  0  0  0  0  0  0  0  0
    0.7623    0.0655    0.6563 C   0  0  0  0  0  0  0  0  0  0  0  0
    1.9800    0.1551    0.7425 O   0  0  0  0  0  0  0  0  0  0  0  0
   -0.0184    0.4315    1.7374 N   0  0  0  0  0  0  0  0  0  0  0  0
   -1.0149    0.2616    1.6400 H   0  0  0  0  0  0  0  0  0  0  0  0
    0.5296    0.6289    3.0735 C   0  0  0  0  0  0  0  0  0  0  0  0
    1.2980    1.4091    3.0628 H   0  0  0  0  0  0  0  0  0  0  0  0
   -0.2610    0.9353    3.7651 H   0  0  0  0  0  0  0  0  0  0  0  0
    0.9761   -0.3000    3.4439 H   0  0  0  0  0  0  0  0  0  0  0  0
  1  2  1  0  0  0  0
  2  3  1  0  0  0  0
  2  4  1  0  0  0  0
  2  5  1  0  0  0  0
  5  6  2  0  0  0  0
  5  7  1  0  0  0  0
  7  8  1  0  0  0  0
  7  9  1  0  0  0  0
  9 10  1  0  0  0  0
  9 11  1  0  0  0  0
  9 19  1  0  0  0  0
 11 12  1  0  0  0  0
 11 13  1  0  0  0  0
 11 14  1  0  0  0  0
 14 15  2  0  0  0  0
 14 16  1  0  0  0  0
 16 17  1  0  0  0  0
 16 18  1  0  0  0  0
 19 20  2  0  0  0  0
 19 21  1  0  0  0  0
 21 22  1  0  0  0  0
 21 23  1  0  0  0  0
 23 24  1  0  0  0  0
 23 25  1  0  0  0  0
 23 26  1  0  0  0  0
M  END
$$$$

  -OEChem-03222214023D

 26 25  0     1  0  0  0  0  0999 V2000
   -2.5464   -3.8887   -0.1536 H   0  0  0  0  0  0  0  0  0  0  0  0
   -2.6155   -2.8556   -0.5056 C   0  0  0  0  0  0  0  0  0  0  0  0
   -3.3969   -2.3416    0.0590 H   0  0  0  0  0  0  0  0  0  0  0  0
   -2.8857   -2.8618   -1.5644 H   0  0  0  0  0  0  0  0  0  0  0  0
   -1.2873   -2.1476   -0.3149 C   0  0  0  0  0  0  0  0  0  0  0  0
   -0.3571   -2.7272    0.2182 O   0  0  0  0  0  0  0  0  0  0  0  0
   -1.1388   -0.8453   -0.7461 N   0  0  0  0  0  0  0  0  0  0  0  0
   -1.9194   -0.4470   -1.2746 H   0  0  0  0  0  0  0  0  0  0  0  0
    0.1292   -0.0959   -0.7491 C   0  0  1  0  0  0  0  0  0  0  0  0
    0.8358   -0.7045   -1.3254 H   0  0  0  0  0  0  0  0  0  0  0  0
    0.0555    1.2944   -1.4489 C   0  0  0  0  0  0  0  0  0  0  0  0
    0.0683    2.0698   -0.6773 H   0  0  0  0  0  0  0  0  0  0  0  0
    0.9710    1.4168   -2.0343 H   0  0  0  0  0  0  0  0  0  0  0  0
   -1.1331    1.6342   -2.3532 C   0  0  0  0  0  0  0  0  0  0  0  0
   -2.1871    1.0228   -2.3996 O   0  0  0  0  0  0  0  0  0  0  0  0
   -1.0704    2.7101   -3.1911 N   0  0  0  0  0  0  0  0  0  0  0  0
   -1.8224    2.8032   -3.8681 H   0  0  0  0  0  0  0  0  0  0  0  0
   -0.1810    3.1750   -3.3421 H   0  0  0  0  0  0  0  0  0  0  0  0
    0.7663    0.0641    0.6476 C   0  0  0  0  0  0  0  0  0  0  0  0
    1.9835    0.1499    0.7430 O   0  0  0  0  0  0  0  0  0  0  0  0
   -0.0219    0.4227    1.7259 N   0  0  0  0  0  0  0  0  0  0  0  0
   -1.0199    0.2691    1.6174 H   0  0  0  0  0  0  0  0  0  0  0  0
    0.5142    0.6198    3.0667 C   0  0  0  0  0  0  0  0  0  0  0  0
    1.2811    1.4015    3.0635 H   0  0  0  0  0  0  0  0  0  0  0  0
   -0.2830    0.9240    3.7515 H   0  0  0  0  0  0  0  0  0  0  0  0
    0.9587   -0.3087    3.4401 H   0  0  0  0  0  0  0  0  0  0  0  0
  1  2  1  0  0  0  0
  2  3  1  0  0  0  0
  2  4  1  0  0  0  0
  2  5  1  0  0  0  0
  5  6  2  0  0  0  0
  5  7  1  0  0  0  0
  7  8  1  0  0  0  0
  7  9  1  0  0  0  0
  9 10  1  0  0  0  0
  9 11  1  0  0  0  0
  9 19  1  0  0  0  0
 11 12  1  0  0  0  0
 11 13  1  0  0  0  0
 11 14  1  0  0  0  0
 14 15  2  0  0  0  0
 14 16  1  0  0  0  0
 16 17  1  0  0  0  0
 16 18  1  0  0  0  0
 19 20  2  0  0  0  0
 19 21  1  0  0  0  0
 21 22  1  0  0  0  0
 21 23  1  0  0  0  0
 23 24  1  0  0  0  0
 23 25  1  0  0  0  0
 23 26  1  0  0  0  0
M  END
$$$$

  -OEChem-03222214023D

 26 25  0     1  0  0  0  0  0999 V2000
   -2.5684   -3.8563   -0.1421 H   0  0  0  0  0  0  0  0  0  0  0  0
   -2.6268   -2.8217   -0.4916 C   0  0  0  0  0  0  0  0  0  0  0  0
   -3.3764   -2.2906    0.0999 H   0  0  0  0  0  0  0  0  0  0  0  0
   -2.9340   -2.8212   -1.5403 H   0  0  0  0  0  0  0  0  0  0  0  0
   -1.2776   -2.1434   -0.3482 C   0  0  0  0  0  0  0  0  0  0  0  0
   -0.3363   -2.7492    0.1337 O   0  0  0  0  0  0  0  0  0  0  0  0
   -1.1201   -0.8390   -0.7688 N   0  0  0  0  0  0  0  0  0  0  0  0
   -1.9260   -0.3956   -1.2173 H   0  0  0  0  0  0  0  0  0  0  0  0
    0.1488   -0.0918   -0.7564 C   0  0  1  0  0  0  0  0  0  0  0  0
    0.8602   -0.6967   -1.3307 H   0  0  0  0  0  0  0  0  0  0  0  0
    0.0770    1.3014   -1.4482 C   0  0  0  0  0  0  0  0  0  0  0  0
    0.0807    2.0763   -0.6760 H   0  0  0  0  0  0  0  0  0  0  0  0
    0.9947    1.4302   -2.0283 H   0  0  0  0  0  0  0  0  0  0  0  0
   -1.1144    1.6241   -2.3536 C   0  0  0  0  0  0  0  0  0  0  0  0
   -2.2372    1.1677   -2.2165 O   0  0  0  0  0  0  0  0  0  0  0  0
   -0.9738    2.4829   -3.4057 N   0  0  0  0  0  0  0  0  0  0  0  0
   -1.7586    2.5524   -4.0473 H   0  0  0  0  0  0  0  0  0  0  0  0
   -0.0467    2.7834   -3.6888 H   0  0  0  0  0  0  0  0  0  0  0  0
    0.7732    0.0577    0.6465 C   0  0  0  0  0  0  0  0  0  0  0  0
    1.9899    0.1326    0.7549 O   0  0  0  0  0  0  0  0  0  0  0  0
   -0.0232    0.4104    1.7205 N   0  0  0  0  0  0  0  0  0  0  0  0
   -1.0231    0.2818    1.5985 H   0  0  0  0  0  0  0  0  0  0  0  0
    0.5017    0.6085    3.0655 C   0  0  0  0  0  0  0  0  0  0  0  0
    1.2703    1.3887    3.0673 H   0  0  0  0  0  0  0  0  0  0  0  0
   -0.3007    0.9155    3.7429 H   0  0  0  0  0  0  0  0  0  0  0  0
    0.9411   -0.3203    3.4441 H   0  0  0  0  0  0  0  0  0  0  0  0
  1  2  1  0  0  0  0
  2  3  1  0  0  0  0
  2  4  1  0  0  0  0
  2  5  1  0  0  0  0
  5  6  2  0  0  0  0
  5  7  1  0  0  0  0
  7  8  1  0  0  0  0
  7  9  1  0  0  0  0
  9 10  1  0  0  0  0
  9 11  1  0  0  0  0
  9 19  1  0  0  0  0
 11 12  1  0  0  0  0
 11 13  1  0  0  0  0
 11 14  1  0  0  0  0
 14 15  2  0  0  0  0
 14 16  1  0  0  0  0
 16 17  1  0  0  0  0
 16 18  1  0  0  0  0
 19 20  2  0  0  0  0
 19 21  1  0  0  0  0
 21 22  1  0  0  0  0
 21 23  1  0  0  0  0
 23 24  1  0  0  0  0
 23 25  1  0  0  0  0
 23 26  1  0  0  0  0
M  END
$$$$

  -OEChem-03222214023D

 26 25  0     1  0  0  0  0  0999 V2000
   -2.5910   -3.8094   -0.1385 H   0  0  0  0  0  0  0  0  0  0  0  0
   -2.6368   -2.7747   -0.4895 C   0  0  0  0  0  0  0  0  0  0  0  0
   -3.3522   -2.2249    0.1266 H   0  0  0  0  0  0  0  0  0  0  0  0
   -2.9806   -2.7693   -1.5268 H   0  0  0  0  0  0  0  0  0  0  0  0
   -1.2672   -2.1294   -0.3950 C   0  0  0  0  0  0  0  0  0  0  0  0
   -0.3195   -2.7645    0.0339 O   0  0  0  0  0  0  0  0  0  0  0  0
   -1.0967   -0.8219   -0.8010 N   0  0  0  0  0  0  0  0  0  0  0  0
   -1.9202   -0.3332   -1.1618 H   0  0  0  0  0  0  0  0  0  0  0  0
    0.1772   -0.0831   -0.7636 C   0  0  1  0  0  0  0  0  0  0  0  0
    0.8938   -0.6824   -1.3370 H   0  0  0  0  0  0  0  0  0  0  0  0
    0.1064    1.3149   -1.4405 C   0  0  0  0  0  0  0  0  0  0  0  0
    0.0953    2.0860   -0.6643 H   0  0  0  0  0  0  0  0  0  0  0  0
    1.0255    1.4593   -2.0145 H   0  0  0  0  0  0  0  0  0  0  0  0
   -1.0918    1.6076   -2.3431 C   0  0  0  0  0  0  0  0  0  0  0  0
   -2.2433    1.3353   -2.0458 O   0  0  0  0  0  0  0  0  0  0  0  0
   -0.9272    2.1769   -3.5733 N   0  0  0  0  0  0  0  0  0  0  0  0
   -1.7439    2.2131   -4.1768 H   0  0  0  0  0  0  0  0  0  0  0  0
    0.0059    2.2852   -3.9577 H   0  0  0  0  0  0  0  0  0  0  0  0
    0.7840    0.0497    0.6487 C   0  0  0  0  0  0  0  0  0  0  0  0
    1.9998    0.1039    0.7759 O   0  0  0  0  0  0  0  0  0  0  0  0
   -0.0239    0.3983    1.7156 N   0  0  0  0  0  0  0  0  0  0  0  0
   -1.0253    0.3087    1.5734 H   0  0  0  0  0  0  0  0  0  0  0  0
    0.4829    0.5936    3.0679 C   0  0  0  0  0  0  0  0  0  0  0  0
    1.2509    1.3741    3.0817 H   0  0  0  0  0  0  0  0  0  0  0  0
   -0.3287    0.8987    3.7354 H   0  0  0  0  0  0  0  0  0  0  0  0
    0.9179   -0.3358    3.4503 H   0  0  0  0  0  0  0  0  0  0  0  0
  1  2  1  0  0  0  0
  2  3  1  0  0  0  0
  2  4  1  0  0  0  0
  2  5  1  0  0  0  0
  5  6  2  0  0  0  0
  5  7  1  0  0  0  0
  7  8  1  0  0  0  0
  7  9  1  0  0  0  0
  9 10  1  0  0  0  0
  9 11  1  0  0  0  0
  9 19  1  0  0  0  0
 11 12  1  0  0  0  0
 11 13  1  0  0  0  0
 11 14  1  0  0  0  0
 14 15  2  0  0  0  0
 14 16  1  0  0  0  0
 16 17  1  0  0  0  0
 16 18  1  0  0  0  0
 19 20  2  0  0  0  0
 19 21  1  0  0  0  0
 21 22  1  0  0  0  0
 21 23  1  0  0  0  0
 23 24  1  0  0  0  0
 23 25  1  0  0  0  0
 23 26  1  0  0  0  0
M  END
$$$$

  -OEChem-03222214023D

 26 25  0     1  0  0  0  0  0999 V2000
   -2.6122   -3.7851   -0.1189 H   0  0  0  0  0  0  0  0  0  0  0  0
   -2.6461   -2.7512   -0.4739 C   0  0  0  0  0  0  0  0  0  0  0  0
   -3.3392   -2.1854    0.1533 H   0  0  0  0  0  0  0  0  0  0  0  0
   -3.0099   -2.7444   -1.5043 H   0  0  0  0  0  0  0  0  0  0  0  0
   -1.2630   -2.1313   -0.4102 C   0  0  0  0  0  0  0  0  0  0  0  0
   -0.3195   -2.7821    0.0036 O   0  0  0  0  0  0  0  0  0  0  0  0
   -1.0747   -0.8290   -0.8256 N   0  0  0  0  0  0  0  0  0  0  0  0
   -1.9008   -0.3149   -1.1416 H   0  0  0  0  0  0  0  0  0  0  0  0
    0.2081   -0.1042   -0.7710 C   0  0  1  0  0  0  0  0  0  0  0  0
    0.9301   -0.7096   -1.3314 H   0  0  0  0  0  0  0  0  0  0  0  0
    0.1413    1.2867   -1.4569 C   0  0  0  0  0  0  0  0  0  0  0  0
    0.1151    2.0677   -0.6909 H   0  0  0  0  0  0  0  0  0  0  0  0
    1.0595    1.4359   -2.0311 H   0  0  0  0  0  0  0  0  0  0  0  0
   -1.0637    1.5248   -2.3608 C   0  0  0  0  0  0  0  0  0  0  0  0
   -2.2092    1.4733   -1.9450 O   0  0  0  0  0  0  0  0  0  0  0  0
   -0.9244    1.7584   -3.6989 N   0  0  0  0  0  0  0  0  0  0  0  0
   -1.7606    2.0460   -4.1995 H   0  0  0  0  0  0  0  0  0  0  0  0
   -0.0048    1.9674   -4.0742 H   0  0  0  0  0  0  0  0  0  0  0  0
    0.7926    0.0353    0.6497 C   0  0  0  0  0  0  0  0  0  0  0  0
    2.0065    0.0655    0.8000 O   0  0  0  0  0  0  0  0  0  0  0  0
   -0.0282    0.4037    1.7000 N   0  0  0  0  0  0  0  0  0  0  0  0
   -1.0290    0.3538    1.5358 H   0  0  0  0  0  0  0  0  0  0  0  0
    0.4576    0.6062    3.0587 C   0  0  0  0  0  0  0  0  0  0  0  0
    1.2266    1.3856    3.0793 H   0  0  0  0  0  0  0  0  0  0  0  0
   -0.3635    0.9159    3.7120 H   0  0  0  0  0  0  0  0  0  0  0  0
    0.8852   -0.3216    3.4534 H   0  0  0  0  0  0  0  0  0  0  0  0
  1  2  1  0  0  0  0
  2  3  1  0  0  0  0
  2  4  1  0  0  0  0
  2  5  1  0  0  0  0
  5  6  2  0  0  0  0
  5  7  1  0  0  0  0
  7  8  1  0  0  0  0
  7  9  1  0  0  0  0
  9 10  1  0  0  0  0
  9 11  1  0  0  0  0
  9 19  1  0  0  0  0
 11 12  1  0  0  0  0
 11 13  1  0  0  0  0
 11 14  1  0  0  0  0
 14 15  2  0  0  0  0
 14 16  1  0  0  0  0
 16 17  1  0  0  0  0
 16 18  1  0  0  0  0
 19 20  2  0  0  0  0
 19 21  1  0  0  0  0
 21 22  1  0  0  0  0
 21 23  1  0  0  0  0
 23 24  1  0  0  0  0
 23 25  1  0  0  0  0
 23 26  1  0  0  0  0
M  END
$$$$

  -OEChem-03222214023D

 26 25  0     1  0  0  0  0  0999 V2000
   -2.6214   -3.7603   -0.1313 H   0  0  0  0  0  0  0  0  0  0  0  0
   -2.6504   -2.7245   -0.4814 C   0  0  0  0  0  0  0  0  0  0  0  0
   -3.3249   -2.1542    0.1618 H   0  0  0  0  0  0  0  0  0  0  0  0
   -3.0339   -2.7095   -1.5046 H   0  0  0  0  0  0  0  0  0  0  0  0
   -1.2593   -2.1203   -0.4410 C   0  0  0  0  0  0  0  0  0  0  0  0
   -0.3145   -2.7864   -0.0561 O   0  0  0  0  0  0  0  0  0  0  0  0
   -1.0647   -0.8155   -0.8465 N   0  0  0  0  0  0  0  0  0  0  0  0
   -1.8955   -0.2825   -1.1112 H   0  0  0  0  0  0  0  0  0  0  0  0
    0.2235   -0.0987   -0.7713 C   0  0  1  0  0  0  0  0  0  0  0  0
    0.9493   -0.7012   -1.3303 H   0  0  0  0  0  0  0  0  0  0  0  0
    0.1572    1.2936   -1.4483 C   0  0  0  0  0  0  0  0  0  0  0  0
    0.1183    2.0735   -0.6817 H   0  0  0  0  0  0  0  0  0  0  0  0
    1.0733    1.4572   -2.0220 H   0  0  0  0  0  0  0  0  0  0  0  0
   -1.0530    1.4935   -2.3488 C   0  0  0  0  0  0  0  0  0  0  0  0
   -2.1639    1.6809   -1.8850 O   0  0  0  0  0  0  0  0  0  0  0  0
   -0.9687    1.4119   -3.7093 N   0  0  0  0  0  0  0  0  0  0  0  0
   -1.7899    1.7037   -4.2321 H   0  0  0  0  0  0  0  0  0  0  0  0
   -0.0542    1.4157   -4.1500 H   0  0  0  0  0  0  0  0  0  0  0  0
    0.7960    0.0294    0.6552 C   0  0  0  0  0  0  0  0  0  0  0  0
    2.0086    0.0435    0.8169 O   0  0  0  0  0  0  0  0  0  0  0  0
   -0.0300    0.3970    1.7016 N   0  0  0  0  0  0  0  0  0  0  0  0
   -1.0298    0.3810    1.5257 H   0  0  0  0  0  0  0  0  0  0  0  0
    0.4487    0.6056    3.0621 C   0  0  0  0  0  0  0  0  0  0  0  0
    1.2105    1.3921    3.0840 H   0  0  0  0  0  0  0  0  0  0  0  0
   -0.3777    0.9085    3.7120 H   0  0  0  0  0  0  0  0  0  0  0  0
    0.8833   -0.3176    3.4595 H   0  0  0  0  0  0  0  0  0  0  0  0
  1  2  1  0  0  0  0
  2  3  1  0  0  0  0
  2  4  1  0  0  0  0
  2  5  1  0  0  0  0
  5  6  2  0  0  0  0
  5  7  1  0  0  0  0
  7  8  1  0  0  0  0
  7  9  1  0  0  0  0
  9 10  1  0  0  0  0
  9 11  1  0  0  0  0
  9 19  1  0  0  0  0
 11 12  1  0  0  0  0
 11 13  1  0  0  0  0
 11 14  1  0  0  0  0
 14 15  2  0  0  0  0
 14 16  1  0  0  0  0
 16 17  1  0  0  0  0
 16 18  1  0  0  0  0
 19 20  2  0  0  0  0
 19 21  1  0  0  0  0
 21 22  1  0  0  0  0
 21 23  1  0  0  0  0
 23 24  1  0  0  0  0
 23 25  1  0  0  0  0
 23 26  1  0  0  0  0
M  END
$$$$

  -OEChem-03222214023D

 26 25  0     1  0  0  0  0  0999 V2000
   -2.6177   -3.7577   -0.1183 H   0  0  0  0  0  0  0  0  0  0  0  0
   -2.6498   -2.7223   -0.4694 C   0  0  0  0  0  0  0  0  0  0  0  0
   -3.3157   -2.1507    0.1813 H   0  0  0  0  0  0  0  0  0  0  0  0
   -3.0459   -2.7084   -1.4876 H   0  0  0  0  0  0  0  0  0  0  0  0
   -1.2575   -2.1199   -0.4473 C   0  0  0  0  0  0  0  0  0  0  0  0
   -0.3082   -2.7887   -0.0785 O   0  0  0  0  0  0  0  0  0  0  0  0
   -1.0669   -0.8135   -0.8515 N   0  0  0  0  0  0  0  0  0  0  0  0
   -1.9016   -0.2807   -1.0977 H   0  0  0  0  0  0  0  0  0  0  0  0
    0.2231   -0.0979   -0.7711 C   0  0  1  0  0  0  0  0  0  0  0  0
    0.9500   -0.7006   -1.3284 H   0  0  0  0  0  0  0  0  0  0  0  0
    0.1599    1.2926   -1.4485 C   0  0  0  0  0  0  0  0  0  0  0  0
    0.1191    2.0747   -0.6837 H   0  0  0  0  0  0  0  0  0  0  0  0
    1.0747    1.4574   -2.0239 H   0  0  0  0  0  0  0  0  0  0  0  0
   -1.0502    1.4777   -2.3498 C   0  0  0  0  0  0  0  0  0  0  0  0
   -2.0979    1.9203   -1.9182 O   0  0  0  0  0  0  0  0  0  0  0  0
   -1.0375    1.1206   -3.6678 N   0  0  0  0  0  0  0  0  0  0  0  0
   -1.8253    1.4352   -4.2274 H   0  0  0  0  0  0  0  0  0  0  0  0
   -0.1497    0.9071   -4.1116 H   0  0  0  0  0  0  0  0  0  0  0  0
    0.7930    0.0271    0.6572 C   0  0  0  0  0  0  0  0  0  0  0  0
    2.0050    0.0283    0.8225 O   0  0  0  0  0  0  0  0  0  0  0  0
   -0.0334    0.3939    1.7037 N   0  0  0  0  0  0  0  0  0  0  0  0
   -1.0326    0.3986    1.5243 H   0  0  0  0  0  0  0  0  0  0  0  0
    0.4448    0.6049    3.0639 C   0  0  0  0  0  0  0  0  0  0  0  0
    1.2066    1.3912    3.0849 H   0  0  0  0  0  0  0  0  0  0  0  0
   -0.3818    0.9090    3.7130 H   0  0  0  0  0  0  0  0  0  0  0  0
    0.8789   -0.3177    3.4634 H   0  0  0  0  0  0  0  0  0  0  0  0
  1  2  1  0  0  0  0
  2  3  1  0  0  0  0
  2  4  1  0  0  0  0
  2  5  1  0  0  0  0
  5  6  2  0  0  0  0
  5  7  1  0  0  0  0
  7  8  1  0  0  0  0
  7  9  1  0  0  0  0
  9 10  1  0  0  0  0
  9 11  1  0  0  0  0
  9 19  1  0  0  0  0
 11 12  1  0  0  0  0
 11 13  1  0  0  0  0
 11 14  1  0  0  0  0
 14 15  2  0  0  0  0
 14 16  1  0  0  0  0
 16 17  1  0  0  0  0
 16 18  1  0  0  0  0
 19 20  2  0  0  0  0
 19 21  1  0  0  0  0
 21 22  1  0  0  0  0
 21 23  1  0  0  0  0
 23 24  1  0  0  0  0
 23 25  1  0  0  0  0
 23 26  1  0  0  0  0
M  END
$$$$

  -OEChem-03222214023D

 26 25  0     1  0  0  0  0  0999 V2000
   -2.6183   -3.7806   -0.1122 H   0  0  0  0  0  0  0  0  0  0  0  0
   -2.6546   -2.7448   -0.4617 C   0  0  0  0  0  0  0  0  0  0  0  0
   -3.3294   -2.1789    0.1851 H   0  0  0  0  0  0  0  0  0  0  0  0
   -3.0432   -2.7320   -1.4828 H   0  0  0  0  0  0  0  0  0  0  0  0
   -1.2668   -2.1326   -0.4276 C   0  0  0  0  0  0  0  0  0  0  0  0
   -0.3161   -2.7945   -0.0511 O   0  0  0  0  0  0  0  0  0  0  0  0
   -1.0811   -0.8263   -0.8355 N   0  0  0  0  0  0  0  0  0  0  0  0
   -1.9152   -0.3055   -1.1022 H   0  0  0  0  0  0  0  0  0  0  0  0
    0.2090   -0.1092   -0.7616 C   0  0  1  0  0  0  0  0  0  0  0  0
    0.9330   -0.7156   -1.3186 H   0  0  0  0  0  0  0  0  0  0  0  0
    0.1508    1.2782   -1.4456 C   0  0  0  0  0  0  0  0  0  0  0  0
    0.1159    2.0624   -0.6826 H   0  0  0  0  0  0  0  0  0  0  0  0
    1.0658    1.4358   -2.0227 H   0  0  0  0  0  0  0  0  0  0  0  0
   -1.0556    1.4714   -2.3501 C   0  0  0  0  0  0  0  0  0  0  0  0
   -2.0008    2.1572   -2.0142 O   0  0  0  0  0  0  0  0  0  0  0  0
   -1.1367    0.8960   -3.5861 N   0  0  0  0  0  0  0  0  0  0  0  0
   -1.8707    1.2500   -4.1936 H   0  0  0  0  0  0  0  0  0  0  0  0
   -0.2997    0.4855   -3.9883 H   0  0  0  0  0  0  0  0  0  0  0  0
    0.7878    0.0211    0.6629 C   0  0  0  0  0  0  0  0  0  0  0  0
    2.0008    0.0238    0.8195 O   0  0  0  0  0  0  0  0  0  0  0  0
   -0.0314    0.3902    1.7144 N   0  0  0  0  0  0  0  0  0  0  0  0
   -1.0318    0.3952    1.5431 H   0  0  0  0  0  0  0  0  0  0  0  0
    0.4584    0.6216    3.0673 C   0  0  0  0  0  0  0  0  0  0  0  0
    1.2082    1.4198    3.0732 H   0  0  0  0  0  0  0  0  0  0  0  0
   -0.3659    0.9191    3.7224 H   0  0  0  0  0  0  0  0  0  0  0  0
    0.9111   -0.2903    3.4706 H   0  0  0  0  0  0  0  0  0  0  0  0
  1  2  1  0  0  0  0
  2  3  1  0  0  0  0
  2  4  1  0  0  0  0
  2  5  1  0  0  0  0
  5  6  2  0  0  0  0
  5  7  1  0  0  0  0
  7  8  1  0  0  0  0
  7  9  1  0  0  0  0
  9 10  1  0  0  0  0
  9 11  1  0  0  0  0
  9 19  1  0  0  0  0
 11 12  1  0  0  0  0
 11 13  1  0  0  0  0
 11 14  1  0  0  0  0
 14 15  2  0  0  0  0
 14 16  1  0  0  0  0
 16 17  1  0  0  0  0
 16 18  1  0  0  0  0
 19 20  2  0  0  0  0
 19 21  1  0  0  0  0
 21 22  1  0  0  0  0
 21 23  1  0  0  0  0
 23 24  1  0  0  0  0
 23 25  1  0  0  0  0
 23 26  1  0  0  0  0
M  END
$$$$

  -OEChem-03222214023D

 26 25  0     1  0  0  0  0  0999 V2000
   -2.6110   -3.8031   -0.0880 H   0  0  0  0  0  0  0  0  0  0  0  0
   -2.6540   -2.7692   -0.4424 C   0  0  0  0  0  0  0  0  0  0  0  0
   -3.3437   -2.2084    0.1930 H   0  0  0  0  0  0  0  0  0  0  0  0
   -3.0293   -2.7650   -1.4687 H   0  0  0  0  0  0  0  0  0  0  0  0
   -1.2733   -2.1423   -0.3917 C   0  0  0  0  0  0  0  0  0  0  0  0
   -0.3215   -2.7913    0.0031 O   0  0  0  0  0  0  0  0  0  0  0  0
   -1.0947   -0.8377   -0.8086 N   0  0  0  0  0  0  0  0  0  0  0  0
   -1.9237   -0.3398   -1.1271 H   0  0  0  0  0  0  0  0  0  0  0  0
    0.1934   -0.1154   -0.7501 C   0  0  1  0  0  0  0  0  0  0  0  0
    0.9154   -0.7249   -1.3064 H   0  0  0  0  0  0  0  0  0  0  0  0
    0.1335    1.2680   -1.4442 C   0  0  0  0  0  0  0  0  0  0  0  0
    0.1075    2.0551   -0.6835 H   0  0  0  0  0  0  0  0  0  0  0  0
    1.0465    1.4170   -2.0269 H   0  0  0  0  0  0  0  0  0  0  0  0
   -1.0719    1.4734   -2.3492 C   0  0  0  0  0  0  0  0  0  0  0  0
   -1.8781    2.3601   -2.1523 O   0  0  0  0  0  0  0  0  0  0  0  0
   -1.2723    0.7263   -3.4753 N   0  0  0  0  0  0  0  0  0  0  0  0
   -1.9443    1.1057   -4.1372 H   0  0  0  0  0  0  0  0  0  0  0  0
   -0.5067    0.1498   -3.8110 H   0  0  0  0  0  0  0  0  0  0  0  0
    0.7832    0.0247    0.6694 C   0  0  0  0  0  0  0  0  0  0  0  0
    1.9976    0.0326    0.8149 O   0  0  0  0  0  0  0  0  0  0  0  0
   -0.0279    0.3965    1.7262 N   0  0  0  0  0  0  0  0  0  0  0  0
   -1.0302    0.3802    1.5683 H   0  0  0  0  0  0  0  0  0  0  0  0
    0.4732    0.6259    3.0753 C   0  0  0  0  0  0  0  0  0  0  0  0
    1.2348    1.4128    3.0728 H   0  0  0  0  0  0  0  0  0  0  0  0
   -0.3426    0.9388    3.7338 H   0  0  0  0  0  0  0  0  0  0  0  0
    0.9144   -0.2912    3.4797 H   0  0  0  0  0  0  0  0  0  0  0  0
  1  2  1  0  0  0  0
  2  3  1  0  0  0  0
  2  4  1  0  0  0  0
  2  5  1  0  0  0  0
  5  6  2  0  0  0  0
  5  7  1  0  0  0  0
  7  8  1  0  0  0  0
  7  9  1  0  0  0  0
  9 10  1  0  0  0  0
  9 11  1  0  0  0  0
  9 19  1  0  0  0  0
 11 12  1  0  0  0  0
 11 13  1  0  0  0  0
 11 14  1  0  0  0  0
 14 15  2  0  0  0  0
 14 16  1  0  0  0  0
 16 17  1  0  0  0  0
 16 18  1  0  0  0  0
 19 20  2  0  0  0  0
 19 21  1  0  0  0  0
 21 22  1  0  0  0  0
 21 23  1  0  0  0  0
 23 24  1  0  0  0  0
 23 25  1  0  0  0  0
 23 26  1  0  0  0  0
M  END
$$$$

  -OEChem-03222214023D

 26 25  0     1  0  0  0  0  0999 V2000
   -2.5996   -3.8319   -0.0622 H   0  0  0  0  0  0  0  0  0  0  0  0
   -2.6526   -2.7992   -0.4187 C   0  0  0  0  0  0  0  0  0  0  0  0
   -3.3617   -2.2488    0.2041 H   0  0  0  0  0  0  0  0  0  0  0  0
   -3.0107   -2.8028   -1.4509 H   0  0  0  0  0  0  0  0  0  0  0  0
   -1.2826   -2.1508   -0.3450 C   0  0  0  0  0  0  0  0  0  0  0  0
   -0.3314   -2.7822    0.0781 O   0  0  0  0  0  0  0  0  0  0  0  0
   -1.1124   -0.8484   -0.7734 N   0  0  0  0  0  0  0  0  0  0  0  0
   -1.9328   -0.3783   -1.1506 H   0  0  0  0  0  0  0  0  0  0  0  0
    0.1740   -0.1211   -0.7362 C   0  0  1  0  0  0  0  0  0  0  0  0
    0.8914   -0.7338   -1.2947 H   0  0  0  0  0  0  0  0  0  0  0  0
    0.1106    1.2596   -1.4390 C   0  0  0  0  0  0  0  0  0  0  0  0
    0.0967    2.0486   -0.6801 H   0  0  0  0  0  0  0  0  0  0  0  0
    1.0207    1.3996   -2.0284 H   0  0  0  0  0  0  0  0  0  0  0  0
   -1.0954    1.4859   -2.3406 C   0  0  0  0  0  0  0  0  0  0  0  0
   -1.7307    2.5201   -2.3108 O   0  0  0  0  0  0  0  0  0  0  0  0
   -1.4327    0.6237   -3.3462 N   0  0  0  0  0  0  0  0  0  0  0  0
   -2.0417    1.0160   -4.0599 H   0  0  0  0  0  0  0  0  0  0  0  0
   -0.7561   -0.0881   -3.6049 H   0  0  0  0  0  0  0  0  0  0  0  0
    0.7792    0.0297    0.6762 C   0  0  0  0  0  0  0  0  0  0  0  0
    1.9951    0.0404    0.8079 O   0  0  0  0  0  0  0  0  0  0  0  0
   -0.0209    0.4051    1.7401 N   0  0  0  0  0  0  0  0  0  0  0  0
   -1.0249    0.3701    1.5974 H   0  0  0  0  0  0  0  0  0  0  0  0
    0.4950    0.6291    3.0845 C   0  0  0  0  0  0  0  0  0  0  0  0
    1.2546    1.4178    3.0772 H   0  0  0  0  0  0  0  0  0  0  0  0
   -0.3138    0.9366    3.7540 H   0  0  0  0  0  0  0  0  0  0  0  0
    0.9434   -0.2885    3.4794 H   0  0  0  0  0  0  0  0  0  0  0  0
  1  2  1  0  0  0  0
  2  3  1  0  0  0  0
  2  4  1  0  0  0  0
  2  5  1  0  0  0  0
  5  6  2  0  0  0  0
  5  7  1  0  0  0  0
  7  8  1  0  0  0  0
  7  9  1  0  0  0  0
  9 10  1  0  0  0  0
  9 11  1  0  0  0  0
  9 19  1  0  0  0  0
 11 12  1  0  0  0  0
 11 13  1  0  0  0  0
 11 14  1  0  0  0  0
 14 15  2  0  0  0  0
 14 16  1  0  0  0  0
 16 17  1  0  0  0  0
 16 18  1  0  0  0  0
 19 20  2  0  0  0  0
 19 21  1  0  0  0  0
 21 22  1  0  0  0  0
 21 23  1  0  0  0  0
 23 24  1  0  0  0  0
 23 25  1  0  0  0  0
 23 26  1  0  0  0  0
M  END
$$$$

  -OEChem-03222214023D

 26 25  0     1  0  0  0  0  0999 V2000
   -2.5867   -3.8566   -0.0303 H   0  0  0  0  0  0  0  0  0  0  0  0
   -2.6505   -2.8243   -0.3867 C   0  0  0  0  0  0  0  0  0  0  0  0
   -3.3653   -2.2813    0.2364 H   0  0  0  0  0  0  0  0  0  0  0  0
   -3.0087   -2.8313   -1.4190 H   0  0  0  0  0  0  0  0  0  0  0  0
   -1.2873   -2.1618   -0.3128 C   0  0  0  0  0  0  0  0  0  0  0  0
   -0.3283   -2.7845    0.1047 O   0  0  0  0  0  0  0  0  0  0  0  0
   -1.1305   -0.8579   -0.7422 N   0  0  0  0  0  0  0  0  0  0  0  0
   -1.9548   -0.3981   -1.1242 H   0  0  0  0  0  0  0  0  0  0  0  0
    0.1513   -0.1217   -0.7218 C   0  0  1  0  0  0  0  0  0  0  0  0
    0.8654   -0.7317   -1.2880 H   0  0  0  0  0  0  0  0  0  0  0  0
    0.0792    1.2594   -1.4265 C   0  0  0  0  0  0  0  0  0  0  0  0
    0.0736    2.0468   -0.6659 H   0  0  0  0  0  0  0  0  0  0  0  0
    0.9869    1.3966   -2.0208 H   0  0  0  0  0  0  0  0  0  0  0  0
   -1.1267    1.5086   -2.3251 C   0  0  0  0  0  0  0  0  0  0  0  0
   -1.5789    2.6241   -2.4815 O   0  0  0  0  0  0  0  0  0  0  0  0
   -1.5999    0.5799   -3.2099 N   0  0  0  0  0  0  0  0  0  0  0  0
   -2.1484    0.9705   -3.9721 H   0  0  0  0  0  0  0  0  0  0  0  0
   -1.0156   -0.2317   -3.3879 H   0  0  0  0  0  0  0  0  0  0  0  0
    0.7746    0.0324    0.6828 C   0  0  0  0  0  0  0  0  0  0  0  0
    1.9919    0.0545    0.7972 O   0  0  0  0  0  0  0  0  0  0  0  0
   -0.0126    0.4015    1.7586 N   0  0  0  0  0  0  0  0  0  0  0  0
   -1.0179    0.3487    1.6333 H   0  0  0  0  0  0  0  0  0  0  0  0
    0.5215    0.6286    3.0959 C   0  0  0  0  0  0  0  0  0  0  0  0
    1.2708    1.4270    3.0789 H   0  0  0  0  0  0  0  0  0  0  0  0
   -0.2807    0.9243    3.7788 H   0  0  0  0  0  0  0  0  0  0  0  0
    0.9877   -0.2841    3.4817 H   0  0  0  0  0  0  0  0  0  0  0  0
  1  2  1  0  0  0  0
  2  3  1  0  0  0  0
  2  4  1  0  0  0  0
  2  5  1  0  0  0  0
  5  6  2  0  0  0  0
  5  7  1  0  0  0  0
  7  8  1  0  0  0  0
  7  9  1  0  0  0  0
  9 10  1  0  0  0  0
  9 11  1  0  0  0  0
  9 19  1  0  0  0  0
 11 12  1  0  0  0  0
 11 13  1  0  0  0  0
 11 14  1  0  0  0  0
 14 15  2  0  0  0  0
 14 16  1  0  0  0  0
 16 17  1  0  0  0  0
 16 18  1  0  0  0  0
 19 20  2  0  0  0  0
 19 21  1  0  0  0  0
 21 22  1  0  0  0  0
 21 23  1  0  0  0  0
 23 24  1  0  0  0  0
 23 25  1  0  0  0  0
 23 26  1  0  0  0  0
M  END
$$$$

  -OEChem-03222214023D

 26 25  0     1  0  0  0  0  0999 V2000
   -2.5580   -3.8665    0.0346 H   0  0  0  0  0  0  0  0  0  0  0  0
   -2.6369   -2.8357   -0.3230 C   0  0  0  0  0  0  0  0  0  0  0  0
   -3.3279   -2.2919    0.3254 H   0  0  0  0  0  0  0  0  0  0  0  0
   -3.0341   -2.8470   -1.3409 H   0  0  0  0  0  0  0  0  0  0  0  0
   -1.2733   -2.1709   -0.3045 C   0  0  0  0  0  0  0  0  0  0  0  0
   -0.2956   -2.7935    0.0669 O   0  0  0  0  0  0  0  0  0  0  0  0
   -1.1391   -0.8623   -0.7274 N   0  0  0  0  0  0  0  0  0  0  0  0
   -1.9856   -0.3898   -1.0391 H   0  0  0  0  0  0  0  0  0  0  0  0
    0.1328   -0.1100   -0.7177 C   0  0  1  0  0  0  0  0  0  0  0  0
    0.8474   -0.7114   -1.2927 H   0  0  0  0  0  0  0  0  0  0  0  0
    0.0497    1.2745   -1.4181 C   0  0  0  0  0  0  0  0  0  0  0  0
    0.0455    2.0554   -0.6511 H   0  0  0  0  0  0  0  0  0  0  0  0
    0.9583    1.4156   -2.0105 H   0  0  0  0  0  0  0  0  0  0  0  0
   -1.1508    1.5533   -2.3188 C   0  0  0  0  0  0  0  0  0  0  0  0
   -1.4142    2.6855   -2.6677 O   0  0  0  0  0  0  0  0  0  0  0  0
   -1.7708    0.5971   -3.0741 N   0  0  0  0  0  0  0  0  0  0  0  0
   -2.2657    0.9704   -3.8807 H   0  0  0  0  0  0  0  0  0  0  0  0
   -1.2905   -0.2934   -3.1656 H   0  0  0  0  0  0  0  0  0  0  0  0
    0.7672    0.0405    0.6825 C   0  0  0  0  0  0  0  0  0  0  0  0
    1.9850    0.0712    0.7880 O   0  0  0  0  0  0  0  0  0  0  0  0
   -0.0143    0.3910    1.7689 N   0  0  0  0  0  0  0  0  0  0  0  0
   -1.0200    0.3263    1.6537 H   0  0  0  0  0  0  0  0  0  0  0  0
    0.5306    0.6024    3.1043 C   0  0  0  0  0  0  0  0  0  0  0  0
    1.2774    1.4033    3.0916 H   0  0  0  0  0  0  0  0  0  0  0  0
   -0.2665    0.8865    3.7979 H   0  0  0  0  0  0  0  0  0  0  0  0
    1.0029   -0.3138    3.4742 H   0  0  0  0  0  0  0  0  0  0  0  0
  1  2  1  0  0  0  0
  2  3  1  0  0  0  0
  2  4  1  0  0  0  0
  2  5  1  0  0  0  0
  5  6  2  0  0  0  0
  5  7  1  0  0  0  0
  7  8  1  0  0  0  0
  7  9  1  0  0  0  0
  9 10  1  0  0  0  0
  9 11  1  0  0  0  0
  9 19  1  0  0  0  0
 11 12  1  0  0  0  0
 11 13  1  0  0  0  0
 11 14  1  0  0  0  0
 14 15  2  0  0  0  0
 14 16  1  0  0  0  0
 16 17  1  0  0  0  0
 16 18  1  0  0  0  0
 19 20  2  0  0  0  0
 19 21  1  0  0  0  0
 21 22  1  0  0  0  0
 21 23  1  0  0  0  0
 23 24  1  0  0  0  0
 23 25  1  0  0  0  0
 23 26  1  0  0  0  0
M  END
$$$$

  -OEChem-03222214023D

 26 25  0     1  0  0  0  0  0999 V2000
   -2.3154   -3.9164    0.3799 H   0  0  0  0  0  0  0  0  0  0  0  0
   -2.4779   -2.9086   -0.0135 C   0  0  0  0  0  0  0  0  0  0  0  0
   -3.0830   -2.3468    0.7021 H   0  0  0  0  0  0  0  0  0  0  0  0
   -3.0194   -2.9844   -0.9596 H   0  0  0  0  0  0  0  0  0  0  0  0
   -1.1468   -2.2136   -0.2307 C   0  0  0  0  0  0  0  0  0  0  0  0
   -0.1067   -2.8046   -0.0072 O   0  0  0  0  0  0  0  0  0  0  0  0
   -1.1181   -0.9094   -0.6886 N   0  0  0  0  0  0  0  0  0  0  0  0
   -2.0161   -0.4329   -0.7450 H   0  0  0  0  0  0  0  0  0  0  0  0
    0.1090   -0.0887   -0.7428 C   0  0  1  0  0  0  0  0  0  0  0  0
    0.8403   -0.6693   -1.3188 H   0  0  0  0  0  0  0  0  0  0  0  0
   -0.0370    1.2795   -1.4755 C   0  0  0  0  0  0  0  0  0  0  0  0
    0.2432    2.0814   -0.7849 H   0  0  0  0  0  0  0  0  0  0  0  0
    0.6958    1.2970   -2.2872 H   0  0  0  0  0  0  0  0  0  0  0  0
   -1.3808    1.6877   -2.0809 C   0  0  0  0  0  0  0  0  0  0  0  0
   -1.4918    2.7560   -2.6462 O   0  0  0  0  0  0  0  0  0  0  0  0
   -2.3481    0.8120   -2.4864 N   0  0  0  0  0  0  0  0  0  0  0  0
   -2.0385   -0.1475   -2.6099 H   0  0  0  0  0  0  0  0  0  0  0  0
   -2.9529    1.2096   -3.2016 H   0  0  0  0  0  0  0  0  0  0  0  0
    0.7691    0.1167    0.6395 C   0  0  0  0  0  0  0  0  0  0  0  0
    1.9857    0.2034    0.7190 O   0  0  0  0  0  0  0  0  0  0  0  0
   -0.0023    0.4423    1.7413 N   0  0  0  0  0  0  0  0  0  0  0  0
   -1.0082    0.3575    1.6484 H   0  0  0  0  0  0  0  0  0  0  0  0
    0.5647    0.7164    3.0560 C   0  0  0  0  0  0  0  0  0  0  0  0
    1.2424    1.5754    3.0099 H   0  0  0  0  0  0  0  0  0  0  0  0
   -0.2308    0.9436    3.7719 H   0  0  0  0  0  0  0  0  0  0  0  0
    1.1216   -0.1531    3.4208 H   0  0  0  0  0  0  0  0  0  0  0  0
  1  2  1  0  0  0  0
  2  3  1  0  0  0  0
  2  4  1  0  0  0  0
  2  5  1  0  0  0  0
  5  6  2  0  0  0  0
  5  7  1  0  0  0  0
  7  8  1  0  0  0  0
  7  9  1  0  0  0  0
  9 10  1  0  0  0  0
  9 11  1  0  0  0  0
  9 19  1  0  0  0  0
 11 12  1  0  0  0  0
 11 13  1  0  0  0  0
 11 14  1  0  0  0  0
 14 15  2  0  0  0  0
 14 16  1  0  0  0  0
 16 17  1  0  0  0  0
 16 18  1  0  0  0  0
 19 20  2  0  0  0  0
 19 21  1  0  0  0  0
 21 22  1  0  0  0  0
 21 23  1  0  0  0  0
 23 24  1  0  0  0  0
 23 25  1  0  0  0  0
 23 26  1  0  0  0  0
M  END
$$$$

  -OEChem-03222214023D

 26 25  0     1  0  0  0  0  0999 V2000
   -2.3774   -4.0487   -0.2059 H   0  0  0  0  0  0  0  0  0  0  0  0
   -2.4661   -3.0341   -0.6051 C   0  0  0  0  0  0  0  0  0  0  0  0
   -3.3277   -2.5482   -0.1411 H   0  0  0  0  0  0  0  0  0  0  0  0
   -2.6276   -3.0953   -1.6844 H   0  0  0  0  0  0  0  0  0  0  0  0
   -1.2035   -2.2453   -0.3122 C   0  0  0  0  0  0  0  0  0  0  0  0
   -0.3067   -2.7520    0.3359 O   0  0  0  0  0  0  0  0  0  0  0  0
   -1.0839   -0.9483   -0.7755 N   0  0  0  0  0  0  0  0  0  0  0  0
   -1.8080   -0.6496   -1.4270 H   0  0  0  0  0  0  0  0  0  0  0  0
    0.1777   -0.1771   -0.7540 C   0  0  1  0  0  0  0  0  0  0  0  0
    0.9211   -0.7805   -1.2889 H   0  0  0  0  0  0  0  0  0  0  0  0
    0.1032    1.1997   -1.4805 C   0  0  0  0  0  0  0  0  0  0  0  0
    0.3744    1.9941   -0.7783 H   0  0  0  0  0  0  0  0  0  0  0  0
    0.8651    1.2030   -2.2656 H   0  0  0  0  0  0  0  0  0  0  0  0
   -1.2136    1.6239   -2.1263 C   0  0  0  0  0  0  0  0  0  0  0  0
   -1.2419    2.5386   -2.9235 O   0  0  0  0  0  0  0  0  0  0  0  0
   -2.4418    1.3838   -1.5757 N   0  0  0  0  0  0  0  0  0  0  0  0
   -3.1489    2.0473   -1.8843 H   0  0  0  0  0  0  0  0  0  0  0  0
   -2.4463    1.0957   -0.6028 H   0  0  0  0  0  0  0  0  0  0  0  0
    0.7670    0.0240    0.6615 C   0  0  0  0  0  0  0  0  0  0  0  0
    1.9784    0.1321    0.7903 O   0  0  0  0  0  0  0  0  0  0  0  0
   -0.0566    0.3945    1.7099 N   0  0  0  0  0  0  0  0  0  0  0  0
   -1.0341    0.1437    1.6128 H   0  0  0  0  0  0  0  0  0  0  0  0
    0.4574    0.6565    3.0491 C   0  0  0  0  0  0  0  0  0  0  0  0
    1.1863    1.4738    3.0280 H   0  0  0  0  0  0  0  0  0  0  0  0
   -0.3590    0.9429    3.7190 H   0  0  0  0  0  0  0  0  0  0  0  0
    0.9430   -0.2379    3.4538 H   0  0  0  0  0  0  0  0  0  0  0  0
  1  2  1  0  0  0  0
  2  3  1  0  0  0  0
  2  4  1  0  0  0  0
  2  5  1  0  0  0  0
  5  6  2  0  0  0  0
  5  7  1  0  0  0  0
  7  8  1  0  0  0  0
  7  9  1  0  0  0  0
  9 10  1  0  0  0  0
  9 11  1  0  0  0  0
  9 19  1  0  0  0  0
 11 12  1  0  0  0  0
 11 13  1  0  0  0  0
 11 14  1  0  0  0  0
 14 15  2  0  0  0  0
 14 16  1  0  0  0  0
 16 17  1  0  0  0  0
 16 18  1  0  0  0  0
 19 20  2  0  0  0  0
 19 21  1  0  0  0  0
 21 22  1  0  0  0  0
 21 23  1  0  0  0  0
 23 24  1  0  0  0  0
 23 25  1  0  0  0  0
 23 26  1  0  0  0  0
M  END
$$$$

  -OEChem-03222214023D

 26 25  0     1  0  0  0  0  0999 V2000
   -2.4254   -4.0078   -0.2056 H   0  0  0  0  0  0  0  0  0  0  0  0
   -2.5157   -2.9798   -0.5689 C   0  0  0  0  0  0  0  0  0  0  0  0
   -3.3433   -2.4936   -0.0470 H   0  0  0  0  0  0  0  0  0  0  0  0
   -2.7335   -3.0050   -1.6395 H   0  0  0  0  0  0  0  0  0  0  0  0
   -1.2248   -2.2228   -0.3181 C   0  0  0  0  0  0  0  0  0  0  0  0
   -0.3175   -2.7553    0.2941 O   0  0  0  0  0  0  0  0  0  0  0  0
   -1.0903   -0.9237   -0.7713 N   0  0  0  0  0  0  0  0  0  0  0  0
   -1.8460   -0.5773   -1.3601 H   0  0  0  0  0  0  0  0  0  0  0  0
    0.1790   -0.1646   -0.7515 C   0  0  1  0  0  0  0  0  0  0  0  0
    0.9138   -0.7699   -1.2957 H   0  0  0  0  0  0  0  0  0  0  0  0
    0.1046    1.2134   -1.4708 C   0  0  0  0  0  0  0  0  0  0  0  0
    0.3790    2.0080   -0.7705 H   0  0  0  0  0  0  0  0  0  0  0  0
    0.8572    1.2213   -2.2648 H   0  0  0  0  0  0  0  0  0  0  0  0
   -1.2297    1.6102   -2.0921 C   0  0  0  0  0  0  0  0  0  0  0  0
   -1.2806    2.3213   -3.0742 O   0  0  0  0  0  0  0  0  0  0  0  0
   -2.4150    1.5380   -1.4143 N   0  0  0  0  0  0  0  0  0  0  0  0
   -3.1267    2.1664   -1.7805 H   0  0  0  0  0  0  0  0  0  0  0  0
   -2.3546    1.4080   -0.4098 H   0  0  0  0  0  0  0  0  0  0  0  0
    0.7760    0.0192    0.6623 C   0  0  0  0  0  0  0  0  0  0  0  0
    1.9879    0.1241    0.7871 O   0  0  0  0  0  0  0  0  0  0  0  0
   -0.0428    0.3890    1.7148 N   0  0  0  0  0  0  0  0  0  0  0  0
   -1.0201    0.1366    1.6183 H   0  0  0  0  0  0  0  0  0  0  0  0
    0.4760    0.6246    3.0572 C   0  0  0  0  0  0  0  0  0  0  0  0
    1.2198    1.4285    3.0466 H   0  0  0  0  0  0  0  0  0  0  0  0
   -0.3352    0.9172    3.7304 H   0  0  0  0  0  0  0  0  0  0  0  0
    0.9451   -0.2834    3.4509 H   0  0  0  0  0  0  0  0  0  0  0  0
  1  2  1  0  0  0  0
  2  3  1  0  0  0  0
  2  4  1  0  0  0  0
  2  5  1  0  0  0  0
  5  6  2  0  0  0  0
  5  7  1  0  0  0  0
  7  8  1  0  0  0  0
  7  9  1  0  0  0  0
  9 10  1  0  0  0  0
  9 11  1  0  0  0  0
  9 19  1  0  0  0  0
 11 12  1  0  0  0  0
 11 13  1  0  0  0  0
 11 14  1  0  0  0  0
 14 15  2  0  0  0  0
 14 16  1  0  0  0  0
 16 17  1  0  0  0  0
 16 18  1  0  0  0  0
 19 20  2  0  0  0  0
 19 21  1  0  0  0  0
 21 22  1  0  0  0  0
 21 23  1  0  0  0  0
 23 24  1  0  0  0  0
 23 25  1  0  0  0  0
 23 26  1  0  0  0  0
M  END
$$$$

  -OEChem-03222214023D

 26 25  0     1  0  0  0  0  0999 V2000
   -2.4769   -3.9547   -0.2025 H   0  0  0  0  0  0  0  0  0  0  0  0
   -2.5495   -2.9260   -0.5670 C   0  0  0  0  0  0  0  0  0  0  0  0
   -3.3622   -2.4223   -0.0385 H   0  0  0  0  0  0  0  0  0  0  0  0
   -2.7775   -2.9483   -1.6354 H   0  0  0  0  0  0  0  0  0  0  0  0
   -1.2416   -2.1944   -0.3300 C   0  0  0  0  0  0  0  0  0  0  0  0
   -0.3333   -2.7476    0.2624 O   0  0  0  0  0  0  0  0  0  0  0  0
   -1.0940   -0.8926   -0.7697 N   0  0  0  0  0  0  0  0  0  0  0  0
   -1.8607   -0.5190   -1.3263 H   0  0  0  0  0  0  0  0  0  0  0  0
    0.1825   -0.1455   -0.7478 C   0  0  1  0  0  0  0  0  0  0  0  0
    0.9104   -0.7481   -1.3047 H   0  0  0  0  0  0  0  0  0  0  0  0
    0.1062    1.2400   -1.4485 C   0  0  0  0  0  0  0  0  0  0  0  0
    0.3881    2.0290   -0.7448 H   0  0  0  0  0  0  0  0  0  0  0  0
    0.8471    1.2571   -2.2536 H   0  0  0  0  0  0  0  0  0  0  0  0
   -1.2435    1.6203   -2.0417 C   0  0  0  0  0  0  0  0  0  0  0  0
   -1.3431    2.1033   -3.1506 O   0  0  0  0  0  0  0  0  0  0  0  0
   -2.3797    1.6977   -1.2852 N   0  0  0  0  0  0  0  0  0  0  0  0
   -3.1095    2.2731   -1.6995 H   0  0  0  0  0  0  0  0  0  0  0  0
   -2.2587    1.7137   -0.2776 H   0  0  0  0  0  0  0  0  0  0  0  0
    0.7849    0.0169    0.6659 C   0  0  0  0  0  0  0  0  0  0  0  0
    1.9972    0.1210    0.7880 O   0  0  0  0  0  0  0  0  0  0  0  0
   -0.0307    0.3826    1.7226 N   0  0  0  0  0  0  0  0  0  0  0  0
   -1.0066    0.1226    1.6285 H   0  0  0  0  0  0  0  0  0  0  0  0
    0.4927    0.6055    3.0655 C   0  0  0  0  0  0  0  0  0  0  0  0
    1.2364    1.4094    3.0598 H   0  0  0  0  0  0  0  0  0  0  0  0
   -0.3161    0.8920    3.7445 H   0  0  0  0  0  0  0  0  0  0  0  0
    0.9634   -0.3059    3.4492 H   0  0  0  0  0  0  0  0  0  0  0  0
  1  2  1  0  0  0  0
  2  3  1  0  0  0  0
  2  4  1  0  0  0  0
  2  5  1  0  0  0  0
  5  6  2  0  0  0  0
  5  7  1  0  0  0  0
  7  8  1  0  0  0  0
  7  9  1  0  0  0  0
  9 10  1  0  0  0  0
  9 11  1  0  0  0  0
  9 19  1  0  0  0  0
 11 12  1  0  0  0  0
 11 13  1  0  0  0  0
 11 14  1  0  0  0  0
 14 15  2  0  0  0  0
 14 16  1  0  0  0  0
 16 17  1  0  0  0  0
 16 18  1  0  0  0  0
 19 20  2  0  0  0  0
 19 21  1  0  0  0  0
 21 22  1  0  0  0  0
 21 23  1  0  0  0  0
 23 24  1  0  0  0  0
 23 25  1  0  0  0  0
 23 26  1  0  0  0  0
M  END
$$$$

  -OEChem-03222214023D

 26 25  0     1  0  0  0  0  0999 V2000
   -2.5202   -3.9057   -0.2101 H   0  0  0  0  0  0  0  0  0  0  0  0
   -2.5796   -2.8750   -0.5717 C   0  0  0  0  0  0  0  0  0  0  0  0
   -3.3869   -2.3623   -0.0432 H   0  0  0  0  0  0  0  0  0  0  0  0
   -2.8059   -2.8917   -1.6407 H   0  0  0  0  0  0  0  0  0  0  0  0
   -1.2633   -2.1600   -0.3301 C   0  0  0  0  0  0  0  0  0  0  0  0
   -0.3634   -2.7254    0.2641 O   0  0  0  0  0  0  0  0  0  0  0  0
   -1.0998   -0.8595   -0.7671 N   0  0  0  0  0  0  0  0  0  0  0  0
   -1.8575   -0.4819   -1.3330 H   0  0  0  0  0  0  0  0  0  0  0  0
    0.1873   -0.1298   -0.7473 C   0  0  1  0  0  0  0  0  0  0  0  0
    0.9065   -0.7351   -1.3123 H   0  0  0  0  0  0  0  0  0  0  0  0
    0.1161    1.2625   -1.4327 C   0  0  0  0  0  0  0  0  0  0  0  0
    0.4120    2.0452   -0.7279 H   0  0  0  0  0  0  0  0  0  0  0  0
    0.8441    1.2828   -2.2495 H   0  0  0  0  0  0  0  0  0  0  0  0
   -1.2437    1.6399   -1.9996 C   0  0  0  0  0  0  0  0  0  0  0  0
   -1.4118    1.8761   -3.1781 O   0  0  0  0  0  0  0  0  0  0  0  0
   -2.3228    1.8762   -1.1953 N   0  0  0  0  0  0  0  0  0  0  0  0
   -3.0746    2.3926   -1.6455 H   0  0  0  0  0  0  0  0  0  0  0  0
   -2.1406    2.0321   -0.2089 H   0  0  0  0  0  0  0  0  0  0  0  0
    0.7933    0.0189    0.6661 C   0  0  0  0  0  0  0  0  0  0  0  0
    2.0068    0.1100    0.7887 O   0  0  0  0  0  0  0  0  0  0  0  0
   -0.0189    0.3921    1.7226 N   0  0  0  0  0  0  0  0  0  0  0  0
   -0.9979    0.1452    1.6230 H   0  0  0  0  0  0  0  0  0  0  0  0
    0.5030    0.5965    3.0689 C   0  0  0  0  0  0  0  0  0  0  0  0
    1.2619    1.3862    3.0719 H   0  0  0  0  0  0  0  0  0  0  0  0
   -0.3034    0.8938    3.7460 H   0  0  0  0  0  0  0  0  0  0  0  0
    0.9542   -0.3263    3.4485 H   0  0  0  0  0  0  0  0  0  0  0  0
  1  2  1  0  0  0  0
  2  3  1  0  0  0  0
  2  4  1  0  0  0  0
  2  5  1  0  0  0  0
  5  6  2  0  0  0  0
  5  7  1  0  0  0  0
  7  8  1  0  0  0  0
  7  9  1  0  0  0  0
  9 10  1  0  0  0  0
  9 11  1  0  0  0  0
  9 19  1  0  0  0  0
 11 12  1  0  0  0  0
 11 13  1  0  0  0  0
 11 14  1  0  0  0  0
 14 15  2  0  0  0  0
 14 16  1  0  0  0  0
 16 17  1  0  0  0  0
 16 18  1  0  0  0  0
 19 20  2  0  0  0  0
 19 21  1  0  0  0  0
 21 22  1  0  0  0  0
 21 23  1  0  0  0  0
 23 24  1  0  0  0  0
 23 25  1  0  0  0  0
 23 26  1  0  0  0  0
M  END
$$$$

  -OEChem-03222214023D

 26 25  0     1  0  0  0  0  0999 V2000
   -2.5553   -3.8693   -0.2364 H   0  0  0  0  0  0  0  0  0  0  0  0
   -2.6026   -2.8388   -0.6001 C   0  0  0  0  0  0  0  0  0  0  0  0
   -3.4270   -2.3259   -0.0994 H   0  0  0  0  0  0  0  0  0  0  0  0
   -2.7928   -2.8553   -1.6762 H   0  0  0  0  0  0  0  0  0  0  0  0
   -1.2949   -2.1241   -0.3146 C   0  0  0  0  0  0  0  0  0  0  0  0
   -0.4184   -2.6879    0.3153 O   0  0  0  0  0  0  0  0  0  0  0  0
   -1.1119   -0.8291   -0.7601 N   0  0  0  0  0  0  0  0  0  0  0  0
   -1.8372   -0.4737   -1.3805 H   0  0  0  0  0  0  0  0  0  0  0  0
    0.1889   -0.1232   -0.7452 C   0  0  1  0  0  0  0  0  0  0  0  0
    0.8982   -0.7357   -1.3147 H   0  0  0  0  0  0  0  0  0  0  0  0
    0.1263    1.2733   -1.4208 C   0  0  0  0  0  0  0  0  0  0  0  0
    0.4399    2.0508   -0.7179 H   0  0  0  0  0  0  0  0  0  0  0  0
    0.8410    1.2914   -2.2491 H   0  0  0  0  0  0  0  0  0  0  0  0
   -1.2408    1.6549   -1.9633 C   0  0  0  0  0  0  0  0  0  0  0  0
   -1.4951    1.6365   -3.1502 O   0  0  0  0  0  0  0  0  0  0  0  0
   -2.2480    2.0798   -1.1437 N   0  0  0  0  0  0  0  0  0  0  0  0
   -3.0221    2.5362   -1.6196 H   0  0  0  0  0  0  0  0  0  0  0  0
   -1.9980    2.3761   -0.2054 H   0  0  0  0  0  0  0  0  0  0  0  0
    0.7987    0.0219    0.6665 C   0  0  0  0  0  0  0  0  0  0  0  0
    2.0139    0.0880    0.7890 O   0  0  0  0  0  0  0  0  0  0  0  0
   -0.0060    0.4163    1.7207 N   0  0  0  0  0  0  0  0  0  0  0  0
   -0.9925    0.2015    1.6160 H   0  0  0  0  0  0  0  0  0  0  0  0
    0.5178    0.6061    3.0681 C   0  0  0  0  0  0  0  0  0  0  0  0
    1.2920    1.3809    3.0736 H   0  0  0  0  0  0  0  0  0  0  0  0
   -0.2833    0.9164    3.7456 H   0  0  0  0  0  0  0  0  0  0  0  0
    0.9507   -0.3267    3.4447 H   0  0  0  0  0  0  0  0  0  0  0  0
  1  2  1  0  0  0  0
  2  3  1  0  0  0  0
  2  4  1  0  0  0  0
  2  5  1  0  0  0  0
  5  6  2  0  0  0  0
  5  7  1  0  0  0  0
  7  8  1  0  0  0  0
  7  9  1  0  0  0  0
  9 10  1  0  0  0  0
  9 11  1  0  0  0  0
  9 19  1  0  0  0  0
 11 12  1  0  0  0  0
 11 13  1  0  0  0  0
 11 14  1  0  0  0  0
 14 15  2  0  0  0  0
 14 16  1  0  0  0  0
 16 17  1  0  0  0  0
 16 18  1  0  0  0  0
 19 20  2  0  0  0  0
 19 21  1  0  0  0  0
 21 22  1  0  0  0  0
 21 23  1  0  0  0  0
 23 24  1  0  0  0  0
 23 25  1  0  0  0  0
 23 26  1  0  0  0  0
M  END
$$$$

  -OEChem-03222214023D

 26 25  0     1  0  0  0  0  0999 V2000
   -2.5910   -3.8339   -0.2417 H   0  0  0  0  0  0  0  0  0  0  0  0
   -2.6190   -2.8097   -0.6246 C   0  0  0  0  0  0  0  0  0  0  0  0
   -3.4554   -2.2824   -0.1596 H   0  0  0  0  0  0  0  0  0  0  0  0
   -2.7743   -2.8437   -1.7058 H   0  0  0  0  0  0  0  0  0  0  0  0
   -1.3164   -2.0985   -0.3099 C   0  0  0  0  0  0  0  0  0  0  0  0
   -0.4585   -2.6631    0.3448 O   0  0  0  0  0  0  0  0  0  0  0  0
   -1.1175   -0.8076   -0.7601 N   0  0  0  0  0  0  0  0  0  0  0  0
   -1.8117   -0.4728   -1.4276 H   0  0  0  0  0  0  0  0  0  0  0  0
    0.1930   -0.1202   -0.7452 C   0  0  1  0  0  0  0  0  0  0  0  0
    0.8951   -0.7383   -1.3171 H   0  0  0  0  0  0  0  0  0  0  0  0
    0.1355    1.2799   -1.4134 C   0  0  0  0  0  0  0  0  0  0  0  0
    0.4634    2.0526   -0.7120 H   0  0  0  0  0  0  0  0  0  0  0  0
    0.8397    1.2963   -2.2503 H   0  0  0  0  0  0  0  0  0  0  0  0
   -1.2362    1.6660   -1.9408 C   0  0  0  0  0  0  0  0  0  0  0  0
   -1.5885    1.4033   -3.0732 O   0  0  0  0  0  0  0  0  0  0  0  0
   -2.1589    2.2955   -1.1548 N   0  0  0  0  0  0  0  0  0  0  0  0
   -2.9550    2.6893   -1.6494 H   0  0  0  0  0  0  0  0  0  0  0  0
   -1.8363    2.7326   -0.2970 H   0  0  0  0  0  0  0  0  0  0  0  0
    0.8040    0.0218    0.6664 C   0  0  0  0  0  0  0  0  0  0  0  0
    2.0201    0.0717    0.7898 O   0  0  0  0  0  0  0  0  0  0  0  0
    0.0037    0.4316    1.7178 N   0  0  0  0  0  0  0  0  0  0  0  0
   -0.9872    0.2389    1.6085 H   0  0  0  0  0  0  0  0  0  0  0  0
    0.5255    0.6221    3.0657 C   0  0  0  0  0  0  0  0  0  0  0  0
    1.3121    1.3841    3.0692 H   0  0  0  0  0  0  0  0  0  0  0  0
   -0.2731    0.9503    3.7376 H   0  0  0  0  0  0  0  0  0  0  0  0
    0.9414   -0.3151    3.4502 H   0  0  0  0  0  0  0  0  0  0  0  0
  1  2  1  0  0  0  0
  2  3  1  0  0  0  0
  2  4  1  0  0  0  0
  2  5  1  0  0  0  0
  5  6  2  0  0  0  0
  5  7  1  0  0  0  0
  7  8  1  0  0  0  0
  7  9  1  0  0  0  0
  9 10  1  0  0  0  0
  9 11  1  0  0  0  0
  9 19  1  0  0  0  0
 11 12  1  0  0  0  0
 11 13  1  0  0  0  0
 11 14  1  0  0  0  0
 14 15  2  0  0  0  0
 14 16  1  0  0  0  0
 16 17  1  0  0  0  0
 16 18  1  0  0  0  0
 19 20  2  0  0  0  0
 19 21  1  0  0  0  0
 21 22  1  0  0  0  0
 21 23  1  0  0  0  0
 23 24  1  0  0  0  0
 23 25  1  0  0  0  0
 23 26  1  0  0  0  0
M  END
$$$$

  -OEChem-03222214023D

 26 25  0     1  0  0  0  0  0999 V2000
   -2.6044   -3.8199   -0.2532 H   0  0  0  0  0  0  0  0  0  0  0  0
   -2.6243   -2.7974   -0.6410 C   0  0  0  0  0  0  0  0  0  0  0  0
   -3.4722   -2.2689   -0.1988 H   0  0  0  0  0  0  0  0  0  0  0  0
   -2.7537   -2.8356   -1.7256 H   0  0  0  0  0  0  0  0  0  0  0  0
   -1.3307   -2.0825   -0.2985 C   0  0  0  0  0  0  0  0  0  0  0  0
   -0.4885   -2.6424    0.3805 O   0  0  0  0  0  0  0  0  0  0  0  0
   -1.1217   -0.7958   -0.7557 N   0  0  0  0  0  0  0  0  0  0  0  0
   -1.7930   -0.4768   -1.4558 H   0  0  0  0  0  0  0  0  0  0  0  0
    0.1932   -0.1187   -0.7441 C   0  0  1  0  0  0  0  0  0  0  0  0
    0.8913   -0.7421   -1.3150 H   0  0  0  0  0  0  0  0  0  0  0  0
    0.1375    1.2812   -1.4145 C   0  0  0  0  0  0  0  0  0  0  0  0
    0.4746    2.0526   -0.7156 H   0  0  0  0  0  0  0  0  0  0  0  0
    0.8357    1.2935   -2.2564 H   0  0  0  0  0  0  0  0  0  0  0  0
   -1.2352    1.6737   -1.9377 C   0  0  0  0  0  0  0  0  0  0  0  0
   -1.6971    1.1912   -2.9541 O   0  0  0  0  0  0  0  0  0  0  0  0
   -2.0524    2.5241   -1.2494 N   0  0  0  0  0  0  0  0  0  0  0  0
   -2.8675    2.8593   -1.7557 H   0  0  0  0  0  0  0  0  0  0  0  0
   -1.6479    3.0926   -0.5119 H   0  0  0  0  0  0  0  0  0  0  0  0
    0.8058    0.0268    0.6663 C   0  0  0  0  0  0  0  0  0  0  0  0
    2.0226    0.0621    0.7896 O   0  0  0  0  0  0  0  0  0  0  0  0
    0.0099    0.4488    1.7160 N   0  0  0  0  0  0  0  0  0  0  0  0
   -0.9851    0.2819    1.6010 H   0  0  0  0  0  0  0  0  0  0  0  0
    0.5301    0.6301    3.0655 C   0  0  0  0  0  0  0  0  0  0  0  0
    1.3228    1.3858    3.0732 H   0  0  0  0  0  0  0  0  0  0  0  0
   -0.2673    0.9619    3.7371 H   0  0  0  0  0  0  0  0  0  0  0  0
    0.9381   -0.3118    3.4473 H   0  0  0  0  0  0  0  0  0  0  0  0
  1  2  1  0  0  0  0
  2  3  1  0  0  0  0
  2  4  1  0  0  0  0
  2  5  1  0  0  0  0
  5  6  2  0  0  0  0
  5  7  1  0  0  0  0
  7  8  1  0  0  0  0
  7  9  1  0  0  0  0
  9 10  1  0  0  0  0
  9 11  1  0  0  0  0
  9 19  1  0  0  0  0
 11 12  1  0  0  0  0
 11 13  1  0  0  0  0
 11 14  1  0  0  0  0
 14 15  2  0  0  0  0
 14 16  1  0  0  0  0
 16 17  1  0  0  0  0
 16 18  1  0  0  0  0
 19 20  2  0  0  0  0
 19 21  1  0  0  0  0
 21 22  1  0  0  0  0
 21 23  1  0  0  0  0
 23 24  1  0  0  0  0
 23 25  1  0  0  0  0
 23 26  1  0  0  0  0
M  END
$$$$

  -OEChem-03222214023D

 26 25  0     1  0  0  0  0  0999 V2000
   -2.5993   -3.8303   -0.2553 H   0  0  0  0  0  0  0  0  0  0  0  0
   -2.6232   -2.8049   -0.6346 C   0  0  0  0  0  0  0  0  0  0  0  0
   -3.4681   -2.2808   -0.1818 H   0  0  0  0  0  0  0  0  0  0  0  0
   -2.7611   -2.8344   -1.7183 H   0  0  0  0  0  0  0  0  0  0  0  0
   -1.3280   -2.0909   -0.2966 C   0  0  0  0  0  0  0  0  0  0  0  0
   -0.4802   -2.6522    0.3748 O   0  0  0  0  0  0  0  0  0  0  0  0
   -1.1238   -0.8025   -0.7493 N   0  0  0  0  0  0  0  0  0  0  0  0
   -1.7989   -0.4788   -1.4459 H   0  0  0  0  0  0  0  0  0  0  0  0
    0.1848   -0.1165   -0.7381 C   0  0  1  0  0  0  0  0  0  0  0  0
    0.8846   -0.7386   -1.3084 H   0  0  0  0  0  0  0  0  0  0  0  0
    0.1257    1.2818   -1.4154 C   0  0  0  0  0  0  0  0  0  0  0  0
    0.4588    2.0509   -0.7122 H   0  0  0  0  0  0  0  0  0  0  0  0
    0.8324    1.2933   -2.2497 H   0  0  0  0  0  0  0  0  0  0  0  0
   -1.2389    1.6904   -1.9564 C   0  0  0  0  0  0  0  0  0  0  0  0
   -1.8193    1.0448   -2.8108 O   0  0  0  0  0  0  0  0  0  0  0  0
   -1.9227    2.7595   -1.4527 N   0  0  0  0  0  0  0  0  0  0  0  0
   -2.7448    3.0489   -1.9755 H   0  0  0  0  0  0  0  0  0  0  0  0
   -1.4245    3.4317   -0.8779 H   0  0  0  0  0  0  0  0  0  0  0  0
    0.8005    0.0314    0.6707 C   0  0  0  0  0  0  0  0  0  0  0  0
    2.0176    0.0761    0.7890 O   0  0  0  0  0  0  0  0  0  0  0  0
    0.0070    0.4454    1.7253 N   0  0  0  0  0  0  0  0  0  0  0  0
   -0.9885    0.2807    1.6121 H   0  0  0  0  0  0  0  0  0  0  0  0
    0.5311    0.6273    3.0732 C   0  0  0  0  0  0  0  0  0  0  0  0
    1.3197    1.3871    3.0799 H   0  0  0  0  0  0  0  0  0  0  0  0
   -0.2656    0.9534    3.7484 H   0  0  0  0  0  0  0  0  0  0  0  0
    0.9454   -0.3131    3.4516 H   0  0  0  0  0  0  0  0  0  0  0  0
  1  2  1  0  0  0  0
  2  3  1  0  0  0  0
  2  4  1  0  0  0  0
  2  5  1  0  0  0  0
  5  6  2  0  0  0  0
  5  7  1  0  0  0  0
  7  8  1  0  0  0  0
  7  9  1  0  0  0  0
  9 10  1  0  0  0  0
  9 11  1  0  0  0  0
  9 19  1  0  0  0  0
 11 12  1  0  0  0  0
 11 13  1  0  0  0  0
 11 14  1  0  0  0  0
 14 15  2  0  0  0  0
 14 16  1  0  0  0  0
 16 17  1  0  0  0  0
 16 18  1  0  0  0  0
 19 20  2  0  0  0  0
 19 21  1  0  0  0  0
 21 22  1  0  0  0  0
 21 23  1  0  0  0  0
 23 24  1  0  0  0  0
 23 25  1  0  0  0  0
 23 26  1  0  0  0  0
M  END
$$$$

  -OEChem-03222214023D

 26 25  0     1  0  0  0  0  0999 V2000
   -2.5584   -3.8695   -0.2338 H   0  0  0  0  0  0  0  0  0  0  0  0
   -2.6068   -2.8390   -0.5969 C   0  0  0  0  0  0  0  0  0  0  0  0
   -3.4399   -2.3300   -0.1060 H   0  0  0  0  0  0  0  0  0  0  0  0
   -2.7836   -2.8543   -1.6754 H   0  0  0  0  0  0  0  0  0  0  0  0
   -1.3073   -2.1166   -0.2951 C   0  0  0  0  0  0  0  0  0  0  0  0
   -0.4331   -2.6773    0.3424 O   0  0  0  0  0  0  0  0  0  0  0  0
   -1.1271   -0.8227   -0.7416 N   0  0  0  0  0  0  0  0  0  0  0  0
   -1.8312   -0.4849   -1.4029 H   0  0  0  0  0  0  0  0  0  0  0  0
    0.1661   -0.1114   -0.7375 C   0  0  1  0  0  0  0  0  0  0  0  0
    0.8720   -0.7242   -1.3101 H   0  0  0  0  0  0  0  0  0  0  0  0
    0.0958    1.2880   -1.4174 C   0  0  0  0  0  0  0  0  0  0  0  0
    0.4215    2.0519   -0.7048 H   0  0  0  0  0  0  0  0  0  0  0  0
    0.8138    1.3036   -2.2419 H   0  0  0  0  0  0  0  0  0  0  0  0
   -1.2549    1.7271   -1.9791 C   0  0  0  0  0  0  0  0  0  0  0  0
   -1.9746    0.9999   -2.6424 O   0  0  0  0  0  0  0  0  0  0  0  0
   -1.7526    2.9751   -1.7359 N   0  0  0  0  0  0  0  0  0  0  0  0
   -2.5684    3.2460   -2.2779 H   0  0  0  0  0  0  0  0  0  0  0  0
   -1.1359    3.6854   -1.3542 H   0  0  0  0  0  0  0  0  0  0  0  0
    0.7863    0.0397    0.6690 C   0  0  0  0  0  0  0  0  0  0  0  0
    2.0033    0.1004    0.7827 O   0  0  0  0  0  0  0  0  0  0  0  0
   -0.0092    0.4314    1.7303 N   0  0  0  0  0  0  0  0  0  0  0  0
   -1.0045    0.2660    1.6156 H   0  0  0  0  0  0  0  0  0  0  0  0
    0.5145    0.6104    3.0787 C   0  0  0  0  0  0  0  0  0  0  0  0
    1.2944    1.3792    3.0897 H   0  0  0  0  0  0  0  0  0  0  0  0
   -0.2853    0.9229    3.7567 H   0  0  0  0  0  0  0  0  0  0  0  0
    0.9396   -0.3279    3.4506 H   0  0  0  0  0  0  0  0  0  0  0  0
  1  2  1  0  0  0  0
  2  3  1  0  0  0  0
  2  4  1  0  0  0  0
  2  5  1  0  0  0  0
  5  6  2  0  0  0  0
  5  7  1  0  0  0  0
  7  8  1  0  0  0  0
  7  9  1  0  0  0  0
  9 10  1  0  0  0  0
  9 11  1  0  0  0  0
  9 19  1  0  0  0  0
 11 12  1  0  0  0  0
 11 13  1  0  0  0  0
 11 14  1  0  0  0  0
 14 15  2  0  0  0  0
 14 16  1  0  0  0  0
 16 17  1  0  0  0  0
 16 18  1  0  0  0  0
 19 20  2  0  0  0  0
 19 21  1  0  0  0  0
 21 22  1  0  0  0  0
 21 23  1  0  0  0  0
 23 24  1  0  0  0  0
 23 25  1  0  0  0  0
 23 26  1  0  0  0  0
M  END
$$$$

  -OEChem-03222214023D

 26 25  0     1  0  0  0  0  0999 V2000
   -2.5271   -3.8986   -0.2032 H   0  0  0  0  0  0  0  0  0  0  0  0
   -2.5931   -2.8652   -0.5551 C   0  0  0  0  0  0  0  0  0  0  0  0
   -3.4034   -2.3617   -0.0227 H   0  0  0  0  0  0  0  0  0  0  0  0
   -2.8189   -2.8712   -1.6243 H   0  0  0  0  0  0  0  0  0  0  0  0
   -1.2823   -2.1432   -0.3067 C   0  0  0  0  0  0  0  0  0  0  0  0
   -0.3751   -2.7103    0.2771 O   0  0  0  0  0  0  0  0  0  0  0  0
   -1.1272   -0.8419   -0.7395 N   0  0  0  0  0  0  0  0  0  0  0  0
   -1.8718   -0.4780   -1.3397 H   0  0  0  0  0  0  0  0  0  0  0  0
    0.1478   -0.1020   -0.7391 C   0  0  1  0  0  0  0  0  0  0  0  0
    0.8607   -0.7028   -1.3156 H   0  0  0  0  0  0  0  0  0  0  0  0
    0.0655    1.2998   -1.4176 C   0  0  0  0  0  0  0  0  0  0  0  0
    0.3805    2.0598   -0.6959 H   0  0  0  0  0  0  0  0  0  0  0  0
    0.7955    1.3206   -2.2312 H   0  0  0  0  0  0  0  0  0  0  0  0
   -1.2713    1.7656   -1.9991 C   0  0  0  0  0  0  0  0  0  0  0  0
   -2.1254    1.0240   -2.4550 O   0  0  0  0  0  0  0  0  0  0  0  0
   -1.5831    3.0938   -2.0514 N   0  0  0  0  0  0  0  0  0  0  0  0
   -2.3974    3.3430   -2.6060 H   0  0  0  0  0  0  0  0  0  0  0  0
   -0.8562    3.7797   -1.8735 H   0  0  0  0  0  0  0  0  0  0  0  0
    0.7719    0.0468    0.6659 C   0  0  0  0  0  0  0  0  0  0  0  0
    1.9879    0.1338    0.7732 O   0  0  0  0  0  0  0  0  0  0  0  0
   -0.0257    0.4083    1.7364 N   0  0  0  0  0  0  0  0  0  0  0  0
   -1.0197    0.2340    1.6233 H   0  0  0  0  0  0  0  0  0  0  0  0
    0.5006    0.5970    3.0826 C   0  0  0  0  0  0  0  0  0  0  0  0
    1.2739    1.3724    3.0881 H   0  0  0  0  0  0  0  0  0  0  0  0
   -0.2998    0.9060    3.7614 H   0  0  0  0  0  0  0  0  0  0  0  0
    0.9346   -0.3361    3.4573 H   0  0  0  0  0  0  0  0  0  0  0  0
  1  2  1  0  0  0  0
  2  3  1  0  0  0  0
  2  4  1  0  0  0  0
  2  5  1  0  0  0  0
  5  6  2  0  0  0  0
  5  7  1  0  0  0  0
  7  8  1  0  0  0  0
  7  9  1  0  0  0  0
  9 10  1  0  0  0  0
  9 11  1  0  0  0  0
  9 19  1  0  0  0  0
 11 12  1  0  0  0  0
 11 13  1  0  0  0  0
 11 14  1  0  0  0  0
 14 15  2  0  0  0  0
 14 16  1  0  0  0  0
 16 17  1  0  0  0  0
 16 18  1  0  0  0  0
 19 20  2  0  0  0  0
 19 21  1  0  0  0  0
 21 22  1  0  0  0  0
 21 23  1  0  0  0  0
 23 24  1  0  0  0  0
 23 25  1  0  0  0  0
 23 26  1  0  0  0  0
M  END
$$$$

  -OEChem-03222214023D

 26 25  0     1  0  0  0  0  0999 V2000
   -2.5120   -3.9069   -0.1604 H   0  0  0  0  0  0  0  0  0  0  0  0
   -2.5858   -2.8747   -0.5141 C   0  0  0  0  0  0  0  0  0  0  0  0
   -3.3720   -2.3642    0.0473 H   0  0  0  0  0  0  0  0  0  0  0  0
   -2.8529   -2.8838   -1.5737 H   0  0  0  0  0  0  0  0  0  0  0  0
   -1.2624   -2.1593   -0.3198 C   0  0  0  0  0  0  0  0  0  0  0  0
   -0.3297   -2.7355    0.2127 O   0  0  0  0  0  0  0  0  0  0  0  0
   -1.1221   -0.8547   -0.7466 N   0  0  0  0  0  0  0  0  0  0  0  0
   -1.9049   -0.4616   -1.2756 H   0  0  0  0  0  0  0  0  0  0  0  0
    0.1408   -0.0959   -0.7482 C   0  0  1  0  0  0  0  0  0  0  0  0
    0.8599   -0.6896   -1.3244 H   0  0  0  0  0  0  0  0  0  0  0  0
    0.0516    1.3068   -1.4272 C   0  0  0  0  0  0  0  0  0  0  0  0
    0.3589    2.0662   -0.7016 H   0  0  0  0  0  0  0  0  0  0  0  0
    0.7900    1.3284   -2.2330 H   0  0  0  0  0  0  0  0  0  0  0  0
   -1.2746    1.7901   -2.0227 C   0  0  0  0  0  0  0  0  0  0  0  0
   -2.2437    1.0888   -2.2585 O   0  0  0  0  0  0  0  0  0  0  0  0
   -1.4396    3.1044   -2.3522 N   0  0  0  0  0  0  0  0  0  0  0  0
   -2.2677    3.3343   -2.8945 H   0  0  0  0  0  0  0  0  0  0  0  0
   -0.6326    3.7198   -2.3619 H   0  0  0  0  0  0  0  0  0  0  0  0
    0.7637    0.0548    0.6570 C   0  0  0  0  0  0  0  0  0  0  0  0
    1.9790    0.1506    0.7655 O   0  0  0  0  0  0  0  0  0  0  0  0
   -0.0378    0.3990    1.7303 N   0  0  0  0  0  0  0  0  0  0  0  0
   -1.0323    0.2305    1.6126 H   0  0  0  0  0  0  0  0  0  0  0  0
    0.4852    0.5899    3.0773 C   0  0  0  0  0  0  0  0  0  0  0  0
    1.2454    1.3780    3.0868 H   0  0  0  0  0  0  0  0  0  0  0  0
   -0.3201    0.8820    3.7578 H   0  0  0  0  0  0  0  0  0  0  0  0
    0.9349   -0.3376    3.4470 H   0  0  0  0  0  0  0  0  0  0  0  0
  1  2  1  0  0  0  0
  2  3  1  0  0  0  0
  2  4  1  0  0  0  0
  2  5  1  0  0  0  0
  5  6  2  0  0  0  0
  5  7  1  0  0  0  0
  7  8  1  0  0  0  0
  7  9  1  0  0  0  0
  9 10  1  0  0  0  0
  9 11  1  0  0  0  0
  9 19  1  0  0  0  0
 11 12  1  0  0  0  0
 11 13  1  0  0  0  0
 11 14  1  0  0  0  0
 14 15  2  0  0  0  0
 14 16  1  0  0  0  0
 16 17  1  0  0  0  0
 16 18  1  0  0  0  0
 19 20  2  0  0  0  0
 19 21  1  0  0  0  0
 21 22  1  0  0  0  0
 21 23  1  0  0  0  0
 23 24  1  0  0  0  0
 23 25  1  0  0  0  0
 23 26  1  0  0  0  0
M  END
$$$$

  -OEChem-03222214023D

 26 25  0     1  0  0  0  0  0999 V2000
   -2.5126   -3.8960   -0.1150 H   0  0  0  0  0  0  0  0  0  0  0  0
   -2.5862   -2.8651   -0.4724 C   0  0  0  0  0  0  0  0  0  0  0  0
   -3.3384   -2.3389    0.1203 H   0  0  0  0  0  0  0  0  0  0  0  0
   -2.9004   -2.8769   -1.5190 H   0  0  0  0  0  0  0  0  0  0  0  0
   -1.2444   -2.1693   -0.3421 C   0  0  0  0  0  0  0  0  0  0  0  0
   -0.2922   -2.7613    0.1359 O   0  0  0  0  0  0  0  0  0  0  0  0
   -1.1078   -0.8635   -0.7661 N   0  0  0  0  0  0  0  0  0  0  0  0
   -1.9231   -0.4341   -1.2109 H   0  0  0  0  0  0  0  0  0  0  0  0
    0.1490   -0.0957   -0.7637 C   0  0  1  0  0  0  0  0  0  0  0  0
    0.8746   -0.6843   -1.3374 H   0  0  0  0  0  0  0  0  0  0  0  0
    0.0553    1.3079   -1.4403 C   0  0  0  0  0  0  0  0  0  0  0  0
    0.3587    2.0690   -0.7149 H   0  0  0  0  0  0  0  0  0  0  0  0
    0.7971    1.3287   -2.2430 H   0  0  0  0  0  0  0  0  0  0  0  0
   -1.2675    1.7946   -2.0420 C   0  0  0  0  0  0  0  0  0  0  0  0
   -2.3180    1.1757   -2.0541 O   0  0  0  0  0  0  0  0  0  0  0  0
   -1.3367    3.0244   -2.6305 N   0  0  0  0  0  0  0  0  0  0  0  0
   -2.1899    3.2389   -3.1390 H   0  0  0  0  0  0  0  0  0  0  0  0
   -0.4827    3.5417   -2.8135 H   0  0  0  0  0  0  0  0  0  0  0  0
    0.7633    0.0556    0.6449 C   0  0  0  0  0  0  0  0  0  0  0  0
    1.9778    0.1493    0.7624 O   0  0  0  0  0  0  0  0  0  0  0  0
   -0.0455    0.3918    1.7152 N   0  0  0  0  0  0  0  0  0  0  0  0
   -1.0419    0.2454    1.5856 H   0  0  0  0  0  0  0  0  0  0  0  0
    0.4665    0.5842    3.0661 C   0  0  0  0  0  0  0  0  0  0  0  0
    1.2217    1.3771    3.0825 H   0  0  0  0  0  0  0  0  0  0  0  0
   -0.3457    0.8700    3.7412 H   0  0  0  0  0  0  0  0  0  0  0  0
    0.9188   -0.3411    3.4381 H   0  0  0  0  0  0  0  0  0  0  0  0
  1  2  1  0  0  0  0
  2  3  1  0  0  0  0
  2  4  1  0  0  0  0
  2  5  1  0  0  0  0
  5  6  2  0  0  0  0
  5  7  1  0  0  0  0
  7  8  1  0  0  0  0
  7  9  1  0  0  0  0
  9 10  1  0  0  0  0
  9 11  1  0  0  0  0
  9 19  1  0  0  0  0
 11 12  1  0  0  0  0
 11 13  1  0  0  0  0
 11 14  1  0  0  0  0
 14 15  2  0  0  0  0
 14 16  1  0  0  0  0
 16 17  1  0  0  0  0
 16 18  1  0  0  0  0
 19 20  2  0  0  0  0
 19 21  1  0  0  0  0
 21 22  1  0  0  0  0
 21 23  1  0  0  0  0
 23 24  1  0  0  0  0
 23 25  1  0  0  0  0
 23 26  1  0  0  0  0
M  END
$$$$

  -OEChem-03222214023D

 26 25  0     1  0  0  0  0  0999 V2000
   -2.5223   -3.8701   -0.0754 H   0  0  0  0  0  0  0  0  0  0  0  0
   -2.5914   -2.8405   -0.4374 C   0  0  0  0  0  0  0  0  0  0  0  0
   -3.3066   -2.2952    0.1832 H   0  0  0  0  0  0  0  0  0  0  0  0
   -2.9510   -2.8529   -1.4693 H   0  0  0  0  0  0  0  0  0  0  0  0
   -1.2319   -2.1712   -0.3722 C   0  0  0  0  0  0  0  0  0  0  0  0
   -0.2666   -2.7861    0.0467 O   0  0  0  0  0  0  0  0  0  0  0  0
   -1.0923   -0.8643   -0.7914 N   0  0  0  0  0  0  0  0  0  0  0  0
   -1.9315   -0.3944   -1.1402 H   0  0  0  0  0  0  0  0  0  0  0  0
    0.1651   -0.0980   -0.7790 C   0  0  1  0  0  0  0  0  0  0  0  0
    0.8948   -0.6843   -1.3499 H   0  0  0  0  0  0  0  0  0  0  0  0
    0.0738    1.3081   -1.4497 C   0  0  0  0  0  0  0  0  0  0  0  0
    0.3726    2.0696   -0.7229 H   0  0  0  0  0  0  0  0  0  0  0  0
    0.8189    1.3311   -2.2493 H   0  0  0  0  0  0  0  0  0  0  0  0
   -1.2510    1.7870   -2.0514 C   0  0  0  0  0  0  0  0  0  0  0  0
   -2.3439    1.2870   -1.8444 O   0  0  0  0  0  0  0  0  0  0  0  0
   -1.2758    2.8679   -2.8851 N   0  0  0  0  0  0  0  0  0  0  0  0
   -2.1549    3.0648   -3.3551 H   0  0  0  0  0  0  0  0  0  0  0  0
   -0.4053    3.2599   -3.2296 H   0  0  0  0  0  0  0  0  0  0  0  0
    0.7670    0.0458    0.6353 C   0  0  0  0  0  0  0  0  0  0  0  0
    1.9808    0.1306    0.7662 O   0  0  0  0  0  0  0  0  0  0  0  0
   -0.0512    0.3783    1.6996 N   0  0  0  0  0  0  0  0  0  0  0  0
   -1.0496    0.2623    1.5545 H   0  0  0  0  0  0  0  0  0  0  0  0
    0.4465    0.5754    3.0550 C   0  0  0  0  0  0  0  0  0  0  0  0
    1.2035    1.3664    3.0752 H   0  0  0  0  0  0  0  0  0  0  0  0
   -0.3722    0.8667    3.7199 H   0  0  0  0  0  0  0  0  0  0  0  0
    0.8921   -0.3494    3.4362 H   0  0  0  0  0  0  0  0  0  0  0  0
  1  2  1  0  0  0  0
  2  3  1  0  0  0  0
  2  4  1  0  0  0  0
  2  5  1  0  0  0  0
  5  6  2  0  0  0  0
  5  7  1  0  0  0  0
  7  8  1  0  0  0  0
  7  9  1  0  0  0  0
  9 10  1  0  0  0  0
  9 11  1  0  0  0  0
  9 19  1  0  0  0  0
 11 12  1  0  0  0  0
 11 13  1  0  0  0  0
 11 14  1  0  0  0  0
 14 15  2  0  0  0  0
 14 16  1  0  0  0  0
 16 17  1  0  0  0  0
 16 18  1  0  0  0  0
 19 20  2  0  0  0  0
 19 21  1  0  0  0  0
 21 22  1  0  0  0  0
 21 23  1  0  0  0  0
 23 24  1  0  0  0  0
 23 25  1  0  0  0  0
 23 26  1  0  0  0  0
M  END
$$$$

  -OEChem-03222214023D

 26 25  0     1  0  0  0  0  0999 V2000
   -2.5426   -3.8345   -0.0558 H   0  0  0  0  0  0  0  0  0  0  0  0
   -2.6020   -2.8049   -0.4196 C   0  0  0  0  0  0  0  0  0  0  0  0
   -3.2811   -2.2420    0.2251 H   0  0  0  0  0  0  0  0  0  0  0  0
   -3.0000   -2.8133   -1.4371 H   0  0  0  0  0  0  0  0  0  0  0  0
   -1.2263   -2.1656   -0.4083 C   0  0  0  0  0  0  0  0  0  0  0  0
   -0.2565   -2.8059   -0.0410 O   0  0  0  0  0  0  0  0  0  0  0  0
   -1.0762   -0.8576   -0.8212 N   0  0  0  0  0  0  0  0  0  0  0  0
   -1.9259   -0.3518   -1.0836 H   0  0  0  0  0  0  0  0  0  0  0  0
    0.1873   -0.1009   -0.7883 C   0  0  1  0  0  0  0  0  0  0  0  0
    0.9212   -0.6858   -1.3552 H   0  0  0  0  0  0  0  0  0  0  0  0
    0.1020    1.3073   -1.4508 C   0  0  0  0  0  0  0  0  0  0  0  0
    0.3915    2.0699   -0.7214 H   0  0  0  0  0  0  0  0  0  0  0  0
    0.8510    1.3362   -2.2463 H   0  0  0  0  0  0  0  0  0  0  0  0
   -1.2294    1.7630   -2.0513 C   0  0  0  0  0  0  0  0  0  0  0  0
   -2.3252    1.4133   -1.6448 O   0  0  0  0  0  0  0  0  0  0  0  0
   -1.2585    2.6282   -3.1073 N   0  0  0  0  0  0  0  0  0  0  0  0
   -2.1632    2.8093   -3.5329 H   0  0  0  0  0  0  0  0  0  0  0  0
   -0.3987    2.8713   -3.5888 H   0  0  0  0  0  0  0  0  0  0  0  0
    0.7725    0.0335    0.6335 C   0  0  0  0  0  0  0  0  0  0  0  0
    1.9855    0.0950    0.7815 O   0  0  0  0  0  0  0  0  0  0  0  0
   -0.0540    0.3688    1.6904 N   0  0  0  0  0  0  0  0  0  0  0  0
   -1.0540    0.3026    1.5261 H   0  0  0  0  0  0  0  0  0  0  0  0
    0.4299    0.5726    3.0500 C   0  0  0  0  0  0  0  0  0  0  0  0
    1.1771    1.3728    3.0762 H   0  0  0  0  0  0  0  0  0  0  0  0
   -0.3979    0.8534    3.7080 H   0  0  0  0  0  0  0  0  0  0  0  0
    0.8842   -0.3464    3.4350 H   0  0  0  0  0  0  0  0  0  0  0  0
  1  2  1  0  0  0  0
  2  3  1  0  0  0  0
  2  4  1  0  0  0  0
  2  5  1  0  0  0  0
  5  6  2  0  0  0  0
  5  7  1  0  0  0  0
  7  8  1  0  0  0  0
  7  9  1  0  0  0  0
  9 10  1  0  0  0  0
  9 11  1  0  0  0  0
  9 19  1  0  0  0  0
 11 12  1  0  0  0  0
 11 13  1  0  0  0  0
 11 14  1  0  0  0  0
 14 15  2  0  0  0  0
 14 16  1  0  0  0  0
 16 17  1  0  0  0  0
 16 18  1  0  0  0  0
 19 20  2  0  0  0  0
 19 21  1  0  0  0  0
 21 22  1  0  0  0  0
 21 23  1  0  0  0  0
 23 24  1  0  0  0  0
 23 25  1  0  0  0  0
 23 26  1  0  0  0  0
M  END
$$$$

  -OEChem-03222214023D

 26 25  0     1  0  0  0  0  0999 V2000
   -2.5615   -3.8113   -0.0269 H   0  0  0  0  0  0  0  0  0  0  0  0
   -2.6101   -2.7826   -0.3951 C   0  0  0  0  0  0  0  0  0  0  0  0
   -3.2583   -2.2019    0.2656 H   0  0  0  0  0  0  0  0  0  0  0  0
   -3.0379   -2.7879   -1.4006 H   0  0  0  0  0  0  0  0  0  0  0  0
   -1.2214   -2.1732   -0.4280 C   0  0  0  0  0  0  0  0  0  0  0  0
   -0.2556   -2.8325   -0.0847 O   0  0  0  0  0  0  0  0  0  0  0  0
   -1.0553   -0.8707   -0.8524 N   0  0  0  0  0  0  0  0  0  0  0  0
   -1.9047   -0.3396   -1.0576 H   0  0  0  0  0  0  0  0  0  0  0  0
    0.2182   -0.1296   -0.8036 C   0  0  1  0  0  0  0  0  0  0  0  0
    0.9563   -0.7215   -1.3578 H   0  0  0  0  0  0  0  0  0  0  0  0
    0.1401    1.2737   -1.4718 C   0  0  0  0  0  0  0  0  0  0  0  0
    0.4166    2.0451   -0.7467 H   0  0  0  0  0  0  0  0  0  0  0  0
    0.8914    1.3052   -2.2651 H   0  0  0  0  0  0  0  0  0  0  0  0
   -1.2028    1.6863   -2.0705 C   0  0  0  0  0  0  0  0  0  0  0  0
   -2.2655    1.5242   -1.4933 O   0  0  0  0  0  0  0  0  0  0  0  0
   -1.2868    2.2635   -3.3051 N   0  0  0  0  0  0  0  0  0  0  0  0
   -2.1889    2.6555   -3.5606 H   0  0  0  0  0  0  0  0  0  0  0  0
   -0.4398    2.5909   -3.7585 H   0  0  0  0  0  0  0  0  0  0  0  0
    0.7796    0.0109    0.6271 C   0  0  0  0  0  0  0  0  0  0  0  0
    1.9901    0.0474    0.8001 O   0  0  0  0  0  0  0  0  0  0  0  0
   -0.0626    0.3673    1.6647 N   0  0  0  0  0  0  0  0  0  0  0  0
   -1.0599    0.3561    1.4722 H   0  0  0  0  0  0  0  0  0  0  0  0
    0.3969    0.5983    3.0281 C   0  0  0  0  0  0  0  0  0  0  0  0
    1.1350    1.4068    3.0529 H   0  0  0  0  0  0  0  0  0  0  0  0
   -0.4446    0.8803    3.6680 H   0  0  0  0  0  0  0  0  0  0  0  0
    0.8542   -0.3094    3.4356 H   0  0  0  0  0  0  0  0  0  0  0  0
  1  2  1  0  0  0  0
  2  3  1  0  0  0  0
  2  4  1  0  0  0  0
  2  5  1  0  0  0  0
  5  6  2  0  0  0  0
  5  7  1  0  0  0  0
  7  8  1  0  0  0  0
  7  9  1  0  0  0  0
  9 10  1  0  0  0  0
  9 11  1  0  0  0  0
  9 19  1  0  0  0  0
 11 12  1  0  0  0  0
 11 13  1  0  0  0  0
 11 14  1  0  0  0  0
 14 15  2  0  0  0  0
 14 16  1  0  0  0  0
 16 17  1  0  0  0  0
 16 18  1  0  0  0  0
 19 20  2  0  0  0  0
 19 21  1  0  0  0  0
 21 22  1  0  0  0  0
 21 23  1  0  0  0  0
 23 24  1  0  0  0  0
 23 25  1  0  0  0  0
 23 26  1  0  0  0  0
M  END
$$$$

  -OEChem-03222214023D

 26 25  0     1  0  0  0  0  0999 V2000
   -2.5743   -3.7739   -0.0421 H   0  0  0  0  0  0  0  0  0  0  0  0
   -2.6160   -2.7422   -0.4032 C   0  0  0  0  0  0  0  0  0  0  0  0
   -3.2357   -2.1553    0.2791 H   0  0  0  0  0  0  0  0  0  0  0  0
   -3.0720   -2.7348   -1.3961 H   0  0  0  0  0  0  0  0  0  0  0  0
   -1.2187   -2.1552   -0.4713 C   0  0  0  0  0  0  0  0  0  0  0  0
   -0.2537   -2.8365   -0.1716 O   0  0  0  0  0  0  0  0  0  0  0  0
   -1.0430   -0.8487   -0.8806 N   0  0  0  0  0  0  0  0  0  0  0  0
   -1.8911   -0.2958   -1.0192 H   0  0  0  0  0  0  0  0  0  0  0  0
    0.2402   -0.1231   -0.8042 C   0  0  1  0  0  0  0  0  0  0  0  0
    0.9809   -0.7112   -1.3588 H   0  0  0  0  0  0  0  0  0  0  0  0
    0.1697    1.2861   -1.4540 C   0  0  0  0  0  0  0  0  0  0  0  0
    0.4303    2.0538   -0.7188 H   0  0  0  0  0  0  0  0  0  0  0  0
    0.9233    1.3379   -2.2438 H   0  0  0  0  0  0  0  0  0  0  0  0
   -1.1840    1.6611   -2.0432 C   0  0  0  0  0  0  0  0  0  0  0  0
   -2.1898    1.7095   -1.3557 O   0  0  0  0  0  0  0  0  0  0  0  0
   -1.3548    1.9019   -3.3763 N   0  0  0  0  0  0  0  0  0  0  0  0
   -2.2534    2.2859   -3.6552 H   0  0  0  0  0  0  0  0  0  0  0  0
   -0.5380    2.0339   -3.9644 H   0  0  0  0  0  0  0  0  0  0  0  0
    0.7847   -0.0051    0.6349 C   0  0  0  0  0  0  0  0  0  0  0  0
    1.9928   -0.0022    0.8267 O   0  0  0  0  0  0  0  0  0  0  0  0
   -0.0655    0.3505    1.6661 N   0  0  0  0  0  0  0  0  0  0  0  0
   -1.0553    0.4183    1.4481 H   0  0  0  0  0  0  0  0  0  0  0  0
    0.3829    0.5963    3.0306 C   0  0  0  0  0  0  0  0  0  0  0  0
    1.1086    1.4157    3.0544 H   0  0  0  0  0  0  0  0  0  0  0  0
   -0.4664    0.8688    3.6644 H   0  0  0  0  0  0  0  0  0  0  0  0
    0.8515   -0.3019    3.4463 H   0  0  0  0  0  0  0  0  0  0  0  0
  1  2  1  0  0  0  0
  2  3  1  0  0  0  0
  2  4  1  0  0  0  0
  2  5  1  0  0  0  0
  5  6  2  0  0  0  0
  5  7  1  0  0  0  0
  7  8  1  0  0  0  0
  7  9  1  0  0  0  0
  9 10  1  0  0  0  0
  9 11  1  0  0  0  0
  9 19  1  0  0  0  0
 11 12  1  0  0  0  0
 11 13  1  0  0  0  0
 11 14  1  0  0  0  0
 14 15  2  0  0  0  0
 14 16  1  0  0  0  0
 16 17  1  0  0  0  0
 16 18  1  0  0  0  0
 19 20  2  0  0  0  0
 19 21  1  0  0  0  0
 21 22  1  0  0  0  0
 21 23  1  0  0  0  0
 23 24  1  0  0  0  0
 23 25  1  0  0  0  0
 23 26  1  0  0  0  0
M  END
$$$$

  -OEChem-03222214023D

 26 25  0     1  0  0  0  0  0999 V2000
   -2.5827   -3.7676   -0.0657 H   0  0  0  0  0  0  0  0  0  0  0  0
   -2.6220   -2.7315   -0.4138 C   0  0  0  0  0  0  0  0  0  0  0  0
   -3.2325   -2.1500    0.2812 H   0  0  0  0  0  0  0  0  0  0  0  0
   -3.0866   -2.7097   -1.4025 H   0  0  0  0  0  0  0  0  0  0  0  0
   -1.2222   -2.1507   -0.4857 C   0  0  0  0  0  0  0  0  0  0  0  0
   -0.2594   -2.8393   -0.1968 O   0  0  0  0  0  0  0  0  0  0  0  0
   -1.0422   -0.8424   -0.8891 N   0  0  0  0  0  0  0  0  0  0  0  0
   -1.8894   -0.2878   -1.0149 H   0  0  0  0  0  0  0  0  0  0  0  0
    0.2459   -0.1242   -0.7996 C   0  0  1  0  0  0  0  0  0  0  0  0
    0.9878   -0.7125   -1.3527 H   0  0  0  0  0  0  0  0  0  0  0  0
    0.1810    1.2854   -1.4444 C   0  0  0  0  0  0  0  0  0  0  0  0
    0.4327    2.0526   -0.7052 H   0  0  0  0  0  0  0  0  0  0  0  0
    0.9360    1.3468   -2.2324 H   0  0  0  0  0  0  0  0  0  0  0  0
   -1.1763    1.6383   -2.0319 C   0  0  0  0  0  0  0  0  0  0  0  0
   -2.1152    1.9332   -1.3152 O   0  0  0  0  0  0  0  0  0  0  0  0
   -1.4310    1.5775   -3.3721 N   0  0  0  0  0  0  0  0  0  0  0  0
   -2.3082    1.9865   -3.6822 H   0  0  0  0  0  0  0  0  0  0  0  0
   -0.6515    1.4960   -4.0174 H   0  0  0  0  0  0  0  0  0  0  0  0
    0.7853   -0.0139    0.6422 C   0  0  0  0  0  0  0  0  0  0  0  0
    1.9925   -0.0272    0.8397 O   0  0  0  0  0  0  0  0  0  0  0  0
   -0.0664    0.3433    1.6718 N   0  0  0  0  0  0  0  0  0  0  0  0
   -1.0504    0.4517    1.4447 H   0  0  0  0  0  0  0  0  0  0  0  0
    0.3838    0.6073    3.0321 C   0  0  0  0  0  0  0  0  0  0  0  0
    1.0858    1.4475    3.0476 H   0  0  0  0  0  0  0  0  0  0  0  0
   -0.4690    0.8568    3.6706 H   0  0  0  0  0  0  0  0  0  0  0  0
    0.8810   -0.2753    3.4479 H   0  0  0  0  0  0  0  0  0  0  0  0
  1  2  1  0  0  0  0
  2  3  1  0  0  0  0
  2  4  1  0  0  0  0
  2  5  1  0  0  0  0
  5  6  2  0  0  0  0
  5  7  1  0  0  0  0
  7  8  1  0  0  0  0
  7  9  1  0  0  0  0
  9 10  1  0  0  0  0
  9 11  1  0  0  0  0
  9 19  1  0  0  0  0
 11 12  1  0  0  0  0
 11 13  1  0  0  0  0
 11 14  1  0  0  0  0
 14 15  2  0  0  0  0
 14 16  1  0  0  0  0
 16 17  1  0  0  0  0
 16 18  1  0  0  0  0
 19 20  2  0  0  0  0
 19 21  1  0  0  0  0
 21 22  1  0  0  0  0
 21 23  1  0  0  0  0
 23 24  1  0  0  0  0
 23 25  1  0  0  0  0
 23 26  1  0  0  0  0
M  END
$$$$

  -OEChem-03222214023D

 26 25  0     1  0  0  0  0  0999 V2000
   -2.5802   -3.7751   -0.0612 H   0  0  0  0  0  0  0  0  0  0  0  0
   -2.6215   -2.7422   -0.4188 C   0  0  0  0  0  0  0  0  0  0  0  0
   -3.2507   -2.1606    0.2592 H   0  0  0  0  0  0  0  0  0  0  0  0
   -3.0666   -2.7329   -1.4167 H   0  0  0  0  0  0  0  0  0  0  0  0
   -1.2255   -2.1501   -0.4685 C   0  0  0  0  0  0  0  0  0  0  0  0
   -0.2625   -2.8299   -0.1617 O   0  0  0  0  0  0  0  0  0  0  0  0
   -1.0490   -0.8421   -0.8753 N   0  0  0  0  0  0  0  0  0  0  0  0
   -1.8966   -0.3010   -1.0386 H   0  0  0  0  0  0  0  0  0  0  0  0
    0.2387   -0.1210   -0.7908 C   0  0  1  0  0  0  0  0  0  0  0  0
    0.9796   -0.7121   -1.3422 H   0  0  0  0  0  0  0  0  0  0  0  0
    0.1753    1.2841   -1.4444 C   0  0  0  0  0  0  0  0  0  0  0  0
    0.4281    2.0551   -0.7092 H   0  0  0  0  0  0  0  0  0  0  0  0
    0.9289    1.3423   -2.2338 H   0  0  0  0  0  0  0  0  0  0  0  0
   -1.1814    1.6316   -2.0347 C   0  0  0  0  0  0  0  0  0  0  0  0
   -2.0376    2.1836   -1.3715 O   0  0  0  0  0  0  0  0  0  0  0  0
   -1.5271    1.3015   -3.3142 N   0  0  0  0  0  0  0  0  0  0  0  0
   -2.3727    1.7366   -3.6727 H   0  0  0  0  0  0  0  0  0  0  0  0
   -0.7968    1.0093   -3.9562 H   0  0  0  0  0  0  0  0  0  0  0  0
    0.7844   -0.0050    0.6488 C   0  0  0  0  0  0  0  0  0  0  0  0
    1.9923   -0.0243    0.8406 O   0  0  0  0  0  0  0  0  0  0  0  0
   -0.0608    0.3536    1.6836 N   0  0  0  0  0  0  0  0  0  0  0  0
   -1.0471    0.4560    1.4657 H   0  0  0  0  0  0  0  0  0  0  0  0
    0.3973    0.6061    3.0436 C   0  0  0  0  0  0  0  0  0  0  0  0
    1.1250    1.4242    3.0580 H   0  0  0  0  0  0  0  0  0  0  0  0
   -0.4470    0.8835    3.6818 H   0  0  0  0  0  0  0  0  0  0  0  0
    0.8669   -0.2909    3.4608 H   0  0  0  0  0  0  0  0  0  0  0  0
  1  2  1  0  0  0  0
  2  3  1  0  0  0  0
  2  4  1  0  0  0  0
  2  5  1  0  0  0  0
  5  6  2  0  0  0  0
  5  7  1  0  0  0  0
  7  8  1  0  0  0  0
  7  9  1  0  0  0  0
  9 10  1  0  0  0  0
  9 11  1  0  0  0  0
  9 19  1  0  0  0  0
 11 12  1  0  0  0  0
 11 13  1  0  0  0  0
 11 14  1  0  0  0  0
 14 15  2  0  0  0  0
 14 16  1  0  0  0  0
 16 17  1  0  0  0  0
 16 18  1  0  0  0  0
 19 20  2  0  0  0  0
 19 21  1  0  0  0  0
 21 22  1  0  0  0  0
 21 23  1  0  0  0  0
 23 24  1  0  0  0  0
 23 25  1  0  0  0  0
 23 26  1  0  0  0  0
M  END
$$$$

  -OEChem-03222214023D

 26 25  0     1  0  0  0  0  0999 V2000
   -2.5818   -3.8068   -0.0733 H   0  0  0  0  0  0  0  0  0  0  0  0
   -2.6262   -2.7732   -0.4286 C   0  0  0  0  0  0  0  0  0  0  0  0
   -3.2875   -2.2035    0.2287 H   0  0  0  0  0  0  0  0  0  0  0  0
   -3.0363   -2.7671   -1.4414 H   0  0  0  0  0  0  0  0  0  0  0  0
   -1.2383   -2.1605   -0.4264 C   0  0  0  0  0  0  0  0  0  0  0  0
   -0.2796   -2.8225   -0.0716 O   0  0  0  0  0  0  0  0  0  0  0  0
   -1.0633   -0.8550   -0.8423 N   0  0  0  0  0  0  0  0  0  0  0  0
   -1.9041   -0.3410   -1.0982 H   0  0  0  0  0  0  0  0  0  0  0  0
    0.2232   -0.1295   -0.7739 C   0  0  1  0  0  0  0  0  0  0  0  0
    0.9596   -0.7255   -1.3261 H   0  0  0  0  0  0  0  0  0  0  0  0
    0.1597    1.2710   -1.4387 C   0  0  0  0  0  0  0  0  0  0  0  0
    0.4215    2.0448   -0.7093 H   0  0  0  0  0  0  0  0  0  0  0  0
    0.9102    1.3206   -2.2317 H   0  0  0  0  0  0  0  0  0  0  0  0
   -1.1946    1.6295   -2.0295 C   0  0  0  0  0  0  0  0  0  0  0  0
   -1.9425    2.4162   -1.4848 O   0  0  0  0  0  0  0  0  0  0  0  0
   -1.6410    1.0951   -3.2049 N   0  0  0  0  0  0  0  0  0  0  0  0
   -2.4395    1.5655   -3.6228 H   0  0  0  0  0  0  0  0  0  0  0  0
   -0.9707    0.6186   -3.8007 H   0  0  0  0  0  0  0  0  0  0  0  0
    0.7843   -0.0004    0.6590 C   0  0  0  0  0  0  0  0  0  0  0  0
    1.9948   -0.0102    0.8342 O   0  0  0  0  0  0  0  0  0  0  0  0
   -0.0486    0.3634    1.7017 N   0  0  0  0  0  0  0  0  0  0  0  0
   -1.0409    0.4385    1.5018 H   0  0  0  0  0  0  0  0  0  0  0  0
    0.4258    0.6216    3.0549 C   0  0  0  0  0  0  0  0  0  0  0  0
    1.1393    1.4523    3.0592 H   0  0  0  0  0  0  0  0  0  0  0  0
   -0.4133    0.8833    3.7064 H   0  0  0  0  0  0  0  0  0  0  0  0
    0.9173   -0.2678    3.4633 H   0  0  0  0  0  0  0  0  0  0  0  0
  1  2  1  0  0  0  0
  2  3  1  0  0  0  0
  2  4  1  0  0  0  0
  2  5  1  0  0  0  0
  5  6  2  0  0  0  0
  5  7  1  0  0  0  0
  7  8  1  0  0  0  0
  7  9  1  0  0  0  0
  9 10  1  0  0  0  0
  9 11  1  0  0  0  0
  9 19  1  0  0  0  0
 11 12  1  0  0  0  0
 11 13  1  0  0  0  0
 11 14  1  0  0  0  0
 14 15  2  0  0  0  0
 14 16  1  0  0  0  0
 16 17  1  0  0  0  0
 16 18  1  0  0  0  0
 19 20  2  0  0  0  0
 19 21  1  0  0  0  0
 21 22  1  0  0  0  0
 21 23  1  0  0  0  0
 23 24  1  0  0  0  0
 23 25  1  0  0  0  0
 23 26  1  0  0  0  0
M  END
$$$$

  -OEChem-03222214023D

 26 25  0     1  0  0  0  0  0999 V2000
   -2.5714   -3.8413   -0.0656 H   0  0  0  0  0  0  0  0  0  0  0  0
   -2.6237   -2.8091   -0.4239 C   0  0  0  0  0  0  0  0  0  0  0  0
   -3.3198   -2.2527    0.2085 H   0  0  0  0  0  0  0  0  0  0  0  0
   -2.9967   -2.8121   -1.4510 H   0  0  0  0  0  0  0  0  0  0  0  0
   -1.2492   -2.1689   -0.3720 C   0  0  0  0  0  0  0  0  0  0  0  0
   -0.2933   -2.8089    0.0268 O   0  0  0  0  0  0  0  0  0  0  0  0
   -1.0819   -0.8657   -0.7988 N   0  0  0  0  0  0  0  0  0  0  0  0
   -1.9124   -0.3840   -1.1376 H   0  0  0  0  0  0  0  0  0  0  0  0
    0.2021   -0.1342   -0.7534 C   0  0  1  0  0  0  0  0  0  0  0  0
    0.9330   -0.7347   -1.3081 H   0  0  0  0  0  0  0  0  0  0  0  0
    0.1329    1.2601   -1.4328 C   0  0  0  0  0  0  0  0  0  0  0  0
    0.4069    2.0382   -0.7123 H   0  0  0  0  0  0  0  0  0  0  0  0
    0.8765    1.2973   -2.2330 H   0  0  0  0  0  0  0  0  0  0  0  0
   -1.2203    1.6313   -2.0219 C   0  0  0  0  0  0  0  0  0  0  0  0
   -1.8392    2.6060   -1.6471 O   0  0  0  0  0  0  0  0  0  0  0  0
   -1.7682    0.9567   -3.0770 N   0  0  0  0  0  0  0  0  0  0  0  0
   -2.5136    1.4523   -3.5600 H   0  0  0  0  0  0  0  0  0  0  0  0
   -1.1643    0.3320   -3.6031 H   0  0  0  0  0  0  0  0  0  0  0  0
    0.7834    0.0083    0.6705 C   0  0  0  0  0  0  0  0  0  0  0  0
    1.9966    0.0101    0.8256 O   0  0  0  0  0  0  0  0  0  0  0  0
   -0.0344    0.3758    1.7236 N   0  0  0  0  0  0  0  0  0  0  0  0
   -1.0337    0.4029    1.5497 H   0  0  0  0  0  0  0  0  0  0  0  0
    0.4592    0.6281    3.0714 C   0  0  0  0  0  0  0  0  0  0  0  0
    1.1858    1.4473    3.0666 H   0  0  0  0  0  0  0  0  0  0  0  0
   -0.3680    0.9047    3.7319 H   0  0  0  0  0  0  0  0  0  0  0  0
    0.9411   -0.2683    3.4758 H   0  0  0  0  0  0  0  0  0  0  0  0
  1  2  1  0  0  0  0
  2  3  1  0  0  0  0
  2  4  1  0  0  0  0
  2  5  1  0  0  0  0
  5  6  2  0  0  0  0
  5  7  1  0  0  0  0
  7  8  1  0  0  0  0
  7  9  1  0  0  0  0
  9 10  1  0  0  0  0
  9 11  1  0  0  0  0
  9 19  1  0  0  0  0
 11 12  1  0  0  0  0
 11 13  1  0  0  0  0
 11 14  1  0  0  0  0
 14 15  2  0  0  0  0
 14 16  1  0  0  0  0
 16 17  1  0  0  0  0
 16 18  1  0  0  0  0
 19 20  2  0  0  0  0
 19 21  1  0  0  0  0
 21 22  1  0  0  0  0
 21 23  1  0  0  0  0
 23 24  1  0  0  0  0
 23 25  1  0  0  0  0
 23 26  1  0  0  0  0
M  END
$$$$

  -OEChem-03222214023D

 26 25  0     1  0  0  0  0  0999 V2000
   -2.5436   -3.8643   -0.0076 H   0  0  0  0  0  0  0  0  0  0  0  0
   -2.6108   -2.8351   -0.3717 C   0  0  0  0  0  0  0  0  0  0  0  0
   -3.3067   -2.2828    0.2644 H   0  0  0  0  0  0  0  0  0  0  0  0
   -2.9944   -2.8490   -1.3946 H   0  0  0  0  0  0  0  0  0  0  0  0
   -1.2431   -2.1793   -0.3375 C   0  0  0  0  0  0  0  0  0  0  0  0
   -0.2762   -2.8060    0.0555 O   0  0  0  0  0  0  0  0  0  0  0  0
   -1.0948   -0.8745   -0.7676 N   0  0  0  0  0  0  0  0  0  0  0  0
   -1.9320   -0.4055   -1.1087 H   0  0  0  0  0  0  0  0  0  0  0  0
    0.1812   -0.1281   -0.7405 C   0  0  1  0  0  0  0  0  0  0  0  0
    0.9112   -0.7244   -1.3009 H   0  0  0  0  0  0  0  0  0  0  0  0
    0.0982    1.2641   -1.4262 C   0  0  0  0  0  0  0  0  0  0  0  0
    0.3764    2.0439   -0.7094 H   0  0  0  0  0  0  0  0  0  0  0  0
    0.8374    1.2991   -2.2309 H   0  0  0  0  0  0  0  0  0  0  0  0
   -1.2546    1.6446   -2.0140 C   0  0  0  0  0  0  0  0  0  0  0  0
   -1.7397    2.7439   -1.8428 O   0  0  0  0  0  0  0  0  0  0  0  0
   -1.8889    0.8801   -2.9537 N   0  0  0  0  0  0  0  0  0  0  0  0
   -2.5818    1.3833   -3.5029 H   0  0  0  0  0  0  0  0  0  0  0  0
   -1.3440    0.1481   -3.4003 H   0  0  0  0  0  0  0  0  0  0  0  0
    0.7790    0.0218    0.6760 C   0  0  0  0  0  0  0  0  0  0  0  0
    1.9938    0.0362    0.8156 O   0  0  0  0  0  0  0  0  0  0  0  0
   -0.0291    0.3804    1.7396 N   0  0  0  0  0  0  0  0  0  0  0  0
   -1.0319    0.3659    1.5861 H   0  0  0  0  0  0  0  0  0  0  0  0
    0.4786    0.6052    3.0870 C   0  0  0  0  0  0  0  0  0  0  0  0
    1.2287    1.4030    3.0868 H   0  0  0  0  0  0  0  0  0  0  0  0
   -0.3366    0.8996    3.7546 H   0  0  0  0  0  0  0  0  0  0  0  0
    0.9371   -0.3084    3.4798 H   0  0  0  0  0  0  0  0  0  0  0  0
  1  2  1  0  0  0  0
  2  3  1  0  0  0  0
  2  4  1  0  0  0  0
  2  5  1  0  0  0  0
  5  6  2  0  0  0  0
  5  7  1  0  0  0  0
  7  8  1  0  0  0  0
  7  9  1  0  0  0  0
  9 10  1  0  0  0  0
  9 11  1  0  0  0  0
  9 19  1  0  0  0  0
 11 12  1  0  0  0  0
 11 13  1  0  0  0  0
 11 14  1  0  0  0  0
 14 15  2  0  0  0  0
 14 16  1  0  0  0  0
 16 17  1  0  0  0  0
 16 18  1  0  0  0  0
 19 20  2  0  0  0  0
 19 21  1  0  0  0  0
 21 22  1  0  0  0  0
 21 23  1  0  0  0  0
 23 24  1  0  0  0  0
 23 25  1  0  0  0  0
 23 26  1  0  0  0  0
M  END
$$$$

  -OEChem-03222214023D

 26 25  0     1  0  0  0  0  0999 V2000
   -2.5142   -3.8868    0.0362 H   0  0  0  0  0  0  0  0  0  0  0  0
   -2.5993   -2.8568   -0.3224 C   0  0  0  0  0  0  0  0  0  0  0  0
   -3.2859   -2.3134    0.3311 H   0  0  0  0  0  0  0  0  0  0  0  0
   -3.0056   -2.8707   -1.3366 H   0  0  0  0  0  0  0  0  0  0  0  0
   -1.2368   -2.1890   -0.3174 C   0  0  0  0  0  0  0  0  0  0  0  0
   -0.2545   -2.8110    0.0430 O   0  0  0  0  0  0  0  0  0  0  0  0
   -1.1104   -0.8792   -0.7397 N   0  0  0  0  0  0  0  0  0  0  0  0
   -1.9636   -0.4064   -1.0329 H   0  0  0  0  0  0  0  0  0  0  0  0
    0.1567   -0.1184   -0.7257 C   0  0  1  0  0  0  0  0  0  0  0  0
    0.8842   -0.7080   -1.2966 H   0  0  0  0  0  0  0  0  0  0  0  0
    0.0638    1.2756   -1.4102 C   0  0  0  0  0  0  0  0  0  0  0  0
    0.3453    2.0519   -0.6909 H   0  0  0  0  0  0  0  0  0  0  0  0
    0.8025    1.3110   -2.2152 H   0  0  0  0  0  0  0  0  0  0  0  0
   -1.2835    1.6788   -2.0002 C   0  0  0  0  0  0  0  0  0  0  0  0
   -1.6249    2.8423   -2.0526 O   0  0  0  0  0  0  0  0  0  0  0  0
   -2.0147    0.8584   -2.8142 N   0  0  0  0  0  0  0  0  0  0  0  0
   -2.6557    1.3579   -3.4265 H   0  0  0  0  0  0  0  0  0  0  0  0
   -1.5420    0.0336   -3.1727 H   0  0  0  0  0  0  0  0  0  0  0  0
    0.7734    0.0277    0.6833 C   0  0  0  0  0  0  0  0  0  0  0  0
    1.9898    0.0582    0.8049 O   0  0  0  0  0  0  0  0  0  0  0  0
   -0.0222    0.3685    1.7625 N   0  0  0  0  0  0  0  0  0  0  0  0
   -1.0269    0.3258    1.6300 H   0  0  0  0  0  0  0  0  0  0  0  0
    0.5056    0.5840    3.1041 C   0  0  0  0  0  0  0  0  0  0  0  0
    1.2406    1.3958    3.1013 H   0  0  0  0  0  0  0  0  0  0  0  0
   -0.3027    0.8541    3.7904 H   0  0  0  0  0  0  0  0  0  0  0  0
    0.9877   -0.3263    3.4760 H   0  0  0  0  0  0  0  0  0  0  0  0
  1  2  1  0  0  0  0
  2  3  1  0  0  0  0
  2  4  1  0  0  0  0
  2  5  1  0  0  0  0
  5  6  2  0  0  0  0
  5  7  1  0  0  0  0
  7  8  1  0  0  0  0
  7  9  1  0  0  0  0
  9 10  1  0  0  0  0
  9 11  1  0  0  0  0
  9 19  1  0  0  0  0
 11 12  1  0  0  0  0
 11 13  1  0  0  0  0
 11 14  1  0  0  0  0
 14 15  2  0  0  0  0
 14 16  1  0  0  0  0
 16 17  1  0  0  0  0
 16 18  1  0  0  0  0
 19 20  2  0  0  0  0
 19 21  1  0  0  0  0
 21 22  1  0  0  0  0
 21 23  1  0  0  0  0
 23 24  1  0  0  0  0
 23 25  1  0  0  0  0
 23 26  1  0  0  0  0
M  END
$$$$

  -OEChem-03222214023D

 26 25  0     1  0  0  0  0  0999 V2000
   -2.4659   -3.8944    0.1019 H   0  0  0  0  0  0  0  0  0  0  0  0
   -2.5737   -2.8670   -0.2579 C   0  0  0  0  0  0  0  0  0  0  0  0
   -3.2285   -2.3227    0.4268 H   0  0  0  0  0  0  0  0  0  0  0  0
   -3.0313   -2.8887   -1.2500 H   0  0  0  0  0  0  0  0  0  0  0  0
   -1.2155   -2.1940   -0.3261 C   0  0  0  0  0  0  0  0  0  0  0  0
   -0.2115   -2.8168   -0.0337 O   0  0  0  0  0  0  0  0  0  0  0  0
   -1.1188   -0.8762   -0.7318 N   0  0  0  0  0  0  0  0  0  0  0  0
   -1.9937   -0.3879   -0.9147 H   0  0  0  0  0  0  0  0  0  0  0  0
    0.1371   -0.0977   -0.7228 C   0  0  1  0  0  0  0  0  0  0  0  0
    0.8646   -0.6746   -1.3073 H   0  0  0  0  0  0  0  0  0  0  0  0
    0.0358    1.3046   -1.3927 C   0  0  0  0  0  0  0  0  0  0  0  0
    0.3218    2.0709   -0.6649 H   0  0  0  0  0  0  0  0  0  0  0  0
    0.7748    1.3456   -2.1976 H   0  0  0  0  0  0  0  0  0  0  0  0
   -1.3027    1.7399   -1.9847 C   0  0  0  0  0  0  0  0  0  0  0  0
   -1.5054    2.9036   -2.2630 O   0  0  0  0  0  0  0  0  0  0  0  0
   -2.1461    0.8942   -2.6495 N   0  0  0  0  0  0  0  0  0  0  0  0
   -2.7455    1.3745   -3.3169 H   0  0  0  0  0  0  0  0  0  0  0  0
   -1.7557   -0.0055   -2.9149 H   0  0  0  0  0  0  0  0  0  0  0  0
    0.7670    0.0348    0.6820 C   0  0  0  0  0  0  0  0  0  0  0  0
    1.9838    0.0781    0.7924 O   0  0  0  0  0  0  0  0  0  0  0  0
   -0.0221    0.3475    1.7748 N   0  0  0  0  0  0  0  0  0  0  0  0
   -1.0272    0.2875    1.6541 H   0  0  0  0  0  0  0  0  0  0  0  0
    0.5174    0.5406    3.1152 C   0  0  0  0  0  0  0  0  0  0  0  0
    1.2536    1.3515    3.1203 H   0  0  0  0  0  0  0  0  0  0  0  0
   -0.2848    0.8002    3.8124 H   0  0  0  0  0  0  0  0  0  0  0  0
    1.0011   -0.3767    3.4676 H   0  0  0  0  0  0  0  0  0  0  0  0
  1  2  1  0  0  0  0
  2  3  1  0  0  0  0
  2  4  1  0  0  0  0
  2  5  1  0  0  0  0
  5  6  2  0  0  0  0
  5  7  1  0  0  0  0
  7  8  1  0  0  0  0
  7  9  1  0  0  0  0
  9 10  1  0  0  0  0
  9 11  1  0  0  0  0
  9 19  1  0  0  0  0
 11 12  1  0  0  0  0
 11 13  1  0  0  0  0
 11 14  1  0  0  0  0
 14 15  2  0  0  0  0
 14 16  1  0  0  0  0
 16 17  1  0  0  0  0
 16 18  1  0  0  0  0
 19 20  2  0  0  0  0
 19 21  1  0  0  0  0
 21 22  1  0  0  0  0
 21 23  1  0  0  0  0
 23 24  1  0  0  0  0
 23 25  1  0  0  0  0
 23 26  1  0  0  0  0
M  END
$$$$

  -OEChem-03222214023D

 26 25  0     1  0  0  0  0  0999 V2000
   -2.4064   -4.0208   -0.2251 H   0  0  0  0  0  0  0  0  0  0  0  0
   -2.4763   -3.0144   -0.6482 C   0  0  0  0  0  0  0  0  0  0  0  0
   -3.3458   -2.5122   -0.2175 H   0  0  0  0  0  0  0  0  0  0  0  0
   -2.6101   -3.0978   -1.7296 H   0  0  0  0  0  0  0  0  0  0  0  0
   -1.2149   -2.2298   -0.3397 C   0  0  0  0  0  0  0  0  0  0  0  0
   -0.3264   -2.7423    0.3148 O   0  0  0  0  0  0  0  0  0  0  0  0
   -1.0869   -0.9306   -0.7958 N   0  0  0  0  0  0  0  0  0  0  0  0
   -1.8000   -0.6301   -1.4581 H   0  0  0  0  0  0  0  0  0  0  0  0
    0.1805   -0.1686   -0.7707 C   0  0  1  0  0  0  0  0  0  0  0  0
    0.9287   -0.7611   -1.3109 H   0  0  0  0  0  0  0  0  0  0  0  0
    0.0993    1.2237   -1.4663 C   0  0  0  0  0  0  0  0  0  0  0  0
    0.6561    1.9580   -0.8753 H   0  0  0  0  0  0  0  0  0  0  0  0
    0.6212    1.1360   -2.4231 H   0  0  0  0  0  0  0  0  0  0  0  0
   -1.2638    1.8403   -1.7820 C   0  0  0  0  0  0  0  0  0  0  0  0
   -1.3317    2.9227   -2.3273 O   0  0  0  0  0  0  0  0  0  0  0  0
   -2.4419    1.4859   -1.1869 N   0  0  0  0  0  0  0  0  0  0  0  0
   -3.1460    2.2191   -1.2306 H   0  0  0  0  0  0  0  0  0  0  0  0
   -2.3683    0.9358   -0.3383 H   0  0  0  0  0  0  0  0  0  0  0  0
    0.7638    0.0145    0.6507 C   0  0  0  0  0  0  0  0  0  0  0  0
    1.9759    0.1054    0.7860 O   0  0  0  0  0  0  0  0  0  0  0  0
   -0.0592    0.3815    1.7010 N   0  0  0  0  0  0  0  0  0  0  0  0
   -1.0378    0.1374    1.6028 H   0  0  0  0  0  0  0  0  0  0  0  0
    0.4551    0.6334    3.0422 C   0  0  0  0  0  0  0  0  0  0  0  0
    1.1815    1.4530    3.0267 H   0  0  0  0  0  0  0  0  0  0  0  0
   -0.3619    0.9122    3.7147 H   0  0  0  0  0  0  0  0  0  0  0  0
    0.9437   -0.2626    3.4399 H   0  0  0  0  0  0  0  0  0  0  0  0
  1  2  1  0  0  0  0
  2  3  1  0  0  0  0
  2  4  1  0  0  0  0
  2  5  1  0  0  0  0
  5  6  2  0  0  0  0
  5  7  1  0  0  0  0
  7  8  1  0  0  0  0
  7  9  1  0  0  0  0
  9 10  1  0  0  0  0
  9 11  1  0  0  0  0
  9 19  1  0  0  0  0
 11 12  1  0  0  0  0
 11 13  1  0  0  0  0
 11 14  1  0  0  0  0
 14 15  2  0  0  0  0
 14 16  1  0  0  0  0
 16 17  1  0  0  0  0
 16 18  1  0  0  0  0
 19 20  2  0  0  0  0
 19 21  1  0  0  0  0
 21 22  1  0  0  0  0
 21 23  1  0  0  0  0
 23 24  1  0  0  0  0
 23 25  1  0  0  0  0
 23 26  1  0  0  0  0
M  END
$$$$

  -OEChem-03222214023D

 26 25  0     1  0  0  0  0  0999 V2000
   -2.4270   -4.0038   -0.2333 H   0  0  0  0  0  0  0  0  0  0  0  0
   -2.5112   -2.9768   -0.6007 C   0  0  0  0  0  0  0  0  0  0  0  0
   -3.3366   -2.4840   -0.0813 H   0  0  0  0  0  0  0  0  0  0  0  0
   -2.7277   -3.0052   -1.6714 H   0  0  0  0  0  0  0  0  0  0  0  0
   -1.2165   -2.2259   -0.3517 C   0  0  0  0  0  0  0  0  0  0  0  0
   -0.3106   -2.7621    0.2592 O   0  0  0  0  0  0  0  0  0  0  0  0
   -1.0779   -0.9257   -0.7999 N   0  0  0  0  0  0  0  0  0  0  0  0
   -1.8373   -0.5689   -1.3774 H   0  0  0  0  0  0  0  0  0  0  0  0
    0.1901   -0.1645   -0.7706 C   0  0  1  0  0  0  0  0  0  0  0  0
    0.9389   -0.7563   -1.3108 H   0  0  0  0  0  0  0  0  0  0  0  0
    0.1058    1.2234   -1.4689 C   0  0  0  0  0  0  0  0  0  0  0  0
    0.6495    1.9672   -0.8779 H   0  0  0  0  0  0  0  0  0  0  0  0
    0.6275    1.1409   -2.4266 H   0  0  0  0  0  0  0  0  0  0  0  0
   -1.2754    1.7968   -1.7714 C   0  0  0  0  0  0  0  0  0  0  0  0
   -1.4076    2.7231   -2.5444 O   0  0  0  0  0  0  0  0  0  0  0  0
   -2.3633    1.6160   -0.9643 N   0  0  0  0  0  0  0  0  0  0  0  0
   -3.0678    2.3421   -1.0715 H   0  0  0  0  0  0  0  0  0  0  0  0
   -2.1786    1.2541   -0.0352 H   0  0  0  0  0  0  0  0  0  0  0  0
    0.7670    0.0093    0.6533 C   0  0  0  0  0  0  0  0  0  0  0  0
    1.9761    0.1267    0.7927 O   0  0  0  0  0  0  0  0  0  0  0  0
   -0.0674    0.3705    1.6971 N   0  0  0  0  0  0  0  0  0  0  0  0
   -1.0296    0.0648    1.6067 H   0  0  0  0  0  0  0  0  0  0  0  0
    0.4416    0.6221    3.0407 C   0  0  0  0  0  0  0  0  0  0  0  0
    1.1710    1.4390    3.0294 H   0  0  0  0  0  0  0  0  0  0  0  0
   -0.3775    0.9041    3.7091 H   0  0  0  0  0  0  0  0  0  0  0  0
    0.9253   -0.2753    3.4408 H   0  0  0  0  0  0  0  0  0  0  0  0
  1  2  1  0  0  0  0
  2  3  1  0  0  0  0
  2  4  1  0  0  0  0
  2  5  1  0  0  0  0
  5  6  2  0  0  0  0
  5  7  1  0  0  0  0
  7  8  1  0  0  0  0
  7  9  1  0  0  0  0
  9 10  1  0  0  0  0
  9 11  1  0  0  0  0
  9 19  1  0  0  0  0
 11 12  1  0  0  0  0
 11 13  1  0  0  0  0
 11 14  1  0  0  0  0
 14 15  2  0  0  0  0
 14 16  1  0  0  0  0
 16 17  1  0  0  0  0
 16 18  1  0  0  0  0
 19 20  2  0  0  0  0
 19 21  1  0  0  0  0
 21 22  1  0  0  0  0
 21 23  1  0  0  0  0
 23 24  1  0  0  0  0
 23 25  1  0  0  0  0
 23 26  1  0  0  0  0
M  END
$$$$

  -OEChem-03222214023D

 26 25  0     1  0  0  0  0  0999 V2000
   -2.4615   -3.9647   -0.2081 H   0  0  0  0  0  0  0  0  0  0  0  0
   -2.5335   -2.9382   -0.5789 C   0  0  0  0  0  0  0  0  0  0  0  0
   -3.3367   -2.4267   -0.0433 H   0  0  0  0  0  0  0  0  0  0  0  0
   -2.7754   -2.9671   -1.6442 H   0  0  0  0  0  0  0  0  0  0  0  0
   -1.2189   -2.2119   -0.3637 C   0  0  0  0  0  0  0  0  0  0  0  0
   -0.3045   -2.7674    0.2170 O   0  0  0  0  0  0  0  0  0  0  0  0
   -1.0712   -0.9115   -0.8072 N   0  0  0  0  0  0  0  0  0  0  0  0
   -1.8522   -0.5235   -1.3327 H   0  0  0  0  0  0  0  0  0  0  0  0
    0.2011   -0.1568   -0.7793 C   0  0  1  0  0  0  0  0  0  0  0  0
    0.9479   -0.7430   -1.3281 H   0  0  0  0  0  0  0  0  0  0  0  0
    0.1080    1.2379   -1.4580 C   0  0  0  0  0  0  0  0  0  0  0  0
    0.6526    1.9811   -0.8673 H   0  0  0  0  0  0  0  0  0  0  0  0
    0.6126    1.1730   -2.4265 H   0  0  0  0  0  0  0  0  0  0  0  0
   -1.2928    1.7751   -1.7165 C   0  0  0  0  0  0  0  0  0  0  0  0
   -1.5284    2.5108   -2.6525 O   0  0  0  0  0  0  0  0  0  0  0  0
   -2.2620    1.7764   -0.7535 N   0  0  0  0  0  0  0  0  0  0  0  0
   -2.9832    2.4770   -0.9076 H   0  0  0  0  0  0  0  0  0  0  0  0
   -1.9498    1.6051    0.1968 H   0  0  0  0  0  0  0  0  0  0  0  0
    0.7727    0.0032    0.6471 C   0  0  0  0  0  0  0  0  0  0  0  0
    1.9798    0.1323    0.7936 O   0  0  0  0  0  0  0  0  0  0  0  0
   -0.0724    0.3620    1.6834 N   0  0  0  0  0  0  0  0  0  0  0  0
   -1.0272    0.0330    1.5869 H   0  0  0  0  0  0  0  0  0  0  0  0
    0.4262    0.6059    3.0322 C   0  0  0  0  0  0  0  0  0  0  0  0
    1.1517    1.4264    3.0317 H   0  0  0  0  0  0  0  0  0  0  0  0
   -0.3986    0.8786    3.6973 H   0  0  0  0  0  0  0  0  0  0  0  0
    0.9114   -0.2923    3.4289 H   0  0  0  0  0  0  0  0  0  0  0  0
  1  2  1  0  0  0  0
  2  3  1  0  0  0  0
  2  4  1  0  0  0  0
  2  5  1  0  0  0  0
  5  6  2  0  0  0  0
  5  7  1  0  0  0  0
  7  8  1  0  0  0  0
  7  9  1  0  0  0  0
  9 10  1  0  0  0  0
  9 11  1  0  0  0  0
  9 19  1  0  0  0  0
 11 12  1  0  0  0  0
 11 13  1  0  0  0  0
 11 14  1  0  0  0  0
 14 15  2  0  0  0  0
 14 16  1  0  0  0  0
 16 17  1  0  0  0  0
 16 18  1  0  0  0  0
 19 20  2  0  0  0  0
 19 21  1  0  0  0  0
 21 22  1  0  0  0  0
 21 23  1  0  0  0  0
 23 24  1  0  0  0  0
 23 25  1  0  0  0  0
 23 26  1  0  0  0  0
M  END
$$$$

  -OEChem-03222214023D

 26 25  0     1  0  0  0  0  0999 V2000
   -2.5043   -3.9209   -0.2098 H   0  0  0  0  0  0  0  0  0  0  0  0
   -2.5624   -2.8940   -0.5818 C   0  0  0  0  0  0  0  0  0  0  0  0
   -3.3649   -2.3735   -0.0537 H   0  0  0  0  0  0  0  0  0  0  0  0
   -2.7953   -2.9211   -1.6492 H   0  0  0  0  0  0  0  0  0  0  0  0
   -1.2425   -2.1809   -0.3556 C   0  0  0  0  0  0  0  0  0  0  0  0
   -0.3399   -2.7448    0.2356 O   0  0  0  0  0  0  0  0  0  0  0  0
   -1.0771   -0.8837   -0.8024 N   0  0  0  0  0  0  0  0  0  0  0  0
   -1.8409   -0.5014   -1.3563 H   0  0  0  0  0  0  0  0  0  0  0  0
    0.2076   -0.1488   -0.7802 C   0  0  1  0  0  0  0  0  0  0  0  0
    0.9458   -0.7369   -1.3386 H   0  0  0  0  0  0  0  0  0  0  0  0
    0.1156    1.2540   -1.4388 C   0  0  0  0  0  0  0  0  0  0  0  0
    0.6744    1.9894   -0.8519 H   0  0  0  0  0  0  0  0  0  0  0  0
    0.5985    1.1992   -2.4191 H   0  0  0  0  0  0  0  0  0  0  0  0
   -1.2948    1.7809   -1.6548 C   0  0  0  0  0  0  0  0  0  0  0  0
   -1.6373    2.2998   -2.6973 O   0  0  0  0  0  0  0  0  0  0  0  0
   -2.1665    1.9424   -0.6153 N   0  0  0  0  0  0  0  0  0  0  0  0
   -2.9199    2.5986   -0.8055 H   0  0  0  0  0  0  0  0  0  0  0  0
   -1.7697    1.9114    0.3190 H   0  0  0  0  0  0  0  0  0  0  0  0
    0.7825    0.0020    0.6461 C   0  0  0  0  0  0  0  0  0  0  0  0
    1.9914    0.1123    0.7936 O   0  0  0  0  0  0  0  0  0  0  0  0
   -0.0578    0.3748    1.6815 N   0  0  0  0  0  0  0  0  0  0  0  0
   -1.0213    0.0735    1.5760 H   0  0  0  0  0  0  0  0  0  0  0  0
    0.4396    0.6007    3.0340 C   0  0  0  0  0  0  0  0  0  0  0  0
    1.1806    1.4073    3.0416 H   0  0  0  0  0  0  0  0  0  0  0  0
   -0.3825    0.8846    3.6977 H   0  0  0  0  0  0  0  0  0  0  0  0
    0.9060   -0.3090    3.4270 H   0  0  0  0  0  0  0  0  0  0  0  0
  1  2  1  0  0  0  0
  2  3  1  0  0  0  0
  2  4  1  0  0  0  0
  2  5  1  0  0  0  0
  5  6  2  0  0  0  0
  5  7  1  0  0  0  0
  7  8  1  0  0  0  0
  7  9  1  0  0  0  0
  9 10  1  0  0  0  0
  9 11  1  0  0  0  0
  9 19  1  0  0  0  0
 11 12  1  0  0  0  0
 11 13  1  0  0  0  0
 11 14  1  0  0  0  0
 14 15  2  0  0  0  0
 14 16  1  0  0  0  0
 16 17  1  0  0  0  0
 16 18  1  0  0  0  0
 19 20  2  0  0  0  0
 19 21  1  0  0  0  0
 21 22  1  0  0  0  0
 21 23  1  0  0  0  0
 23 24  1  0  0  0  0
 23 25  1  0  0  0  0
 23 26  1  0  0  0  0
M  END
$$$$

  -OEChem-03222214023D

 26 25  0     1  0  0  0  0  0999 V2000
   -2.5458   -3.8753   -0.2251 H   0  0  0  0  0  0  0  0  0  0  0  0
   -2.5886   -2.8478   -0.5980 C   0  0  0  0  0  0  0  0  0  0  0  0
   -3.3999   -2.3215   -0.0894 H   0  0  0  0  0  0  0  0  0  0  0  0
   -2.7964   -2.8730   -1.6706 H   0  0  0  0  0  0  0  0  0  0  0  0
   -1.2699   -2.1431   -0.3402 C   0  0  0  0  0  0  0  0  0  0  0  0
   -0.3858   -2.7118    0.2744 O   0  0  0  0  0  0  0  0  0  0  0  0
   -1.0838   -0.8512   -0.7934 N   0  0  0  0  0  0  0  0  0  0  0  0
   -1.8218   -0.4825   -1.3907 H   0  0  0  0  0  0  0  0  0  0  0  0
    0.2138   -0.1394   -0.7760 C   0  0  1  0  0  0  0  0  0  0  0  0
    0.9417   -0.7350   -1.3394 H   0  0  0  0  0  0  0  0  0  0  0  0
    0.1279    1.2673   -1.4243 C   0  0  0  0  0  0  0  0  0  0  0  0
    0.7001    1.9973   -0.8439 H   0  0  0  0  0  0  0  0  0  0  0  0
    0.5944    1.2150   -2.4127 H   0  0  0  0  0  0  0  0  0  0  0  0
   -1.2869    1.7909   -1.6109 C   0  0  0  0  0  0  0  0  0  0  0  0
   -1.7369    2.0694   -2.7037 O   0  0  0  0  0  0  0  0  0  0  0  0
   -2.0735    2.1155   -0.5420 N   0  0  0  0  0  0  0  0  0  0  0  0
   -2.8626    2.7173   -0.7636 H   0  0  0  0  0  0  0  0  0  0  0  0
   -1.6144    2.2136    0.3588 H   0  0  0  0  0  0  0  0  0  0  0  0
    0.7938    0.0078    0.6484 C   0  0  0  0  0  0  0  0  0  0  0  0
    2.0051    0.0898    0.7960 O   0  0  0  0  0  0  0  0  0  0  0  0
   -0.0381    0.4007    1.6828 N   0  0  0  0  0  0  0  0  0  0  0  0
   -1.0138    0.1448    1.5660 H   0  0  0  0  0  0  0  0  0  0  0  0
    0.4583    0.6033    3.0392 C   0  0  0  0  0  0  0  0  0  0  0  0
    1.2233    1.3869    3.0561 H   0  0  0  0  0  0  0  0  0  0  0  0
   -0.3588    0.9081    3.6999 H   0  0  0  0  0  0  0  0  0  0  0  0
    0.8950   -0.3224    3.4290 H   0  0  0  0  0  0  0  0  0  0  0  0
  1  2  1  0  0  0  0
  2  3  1  0  0  0  0
  2  4  1  0  0  0  0
  2  5  1  0  0  0  0
  5  6  2  0  0  0  0
  5  7  1  0  0  0  0
  7  8  1  0  0  0  0
  7  9  1  0  0  0  0
  9 10  1  0  0  0  0
  9 11  1  0  0  0  0
  9 19  1  0  0  0  0
 11 12  1  0  0  0  0
 11 13  1  0  0  0  0
 11 14  1  0  0  0  0
 14 15  2  0  0  0  0
 14 16  1  0  0  0  0
 16 17  1  0  0  0  0
 16 18  1  0  0  0  0
 19 20  2  0  0  0  0
 19 21  1  0  0  0  0
 21 22  1  0  0  0  0
 21 23  1  0  0  0  0
 23 24  1  0  0  0  0
 23 25  1  0  0  0  0
 23 26  1  0  0  0  0
M  END
$$$$

  -OEChem-03222214023D

 26 25  0     1  0  0  0  0  0999 V2000
   -2.5834   -3.8308   -0.2277 H   0  0  0  0  0  0  0  0  0  0  0  0
   -2.6099   -2.8062   -0.6094 C   0  0  0  0  0  0  0  0  0  0  0  0
   -3.4246   -2.2683   -0.1189 H   0  0  0  0  0  0  0  0  0  0  0  0
   -2.7994   -2.8381   -1.6852 H   0  0  0  0  0  0  0  0  0  0  0  0
   -1.2893   -2.1116   -0.3345 C   0  0  0  0  0  0  0  0  0  0  0  0
   -0.4199   -2.6857    0.2961 O   0  0  0  0  0  0  0  0  0  0  0  0
   -1.0858   -0.8239   -0.7919 N   0  0  0  0  0  0  0  0  0  0  0  0
   -1.8028   -0.4635   -1.4205 H   0  0  0  0  0  0  0  0  0  0  0  0
    0.2217   -0.1301   -0.7741 C   0  0  1  0  0  0  0  0  0  0  0  0
    0.9430   -0.7316   -1.3395 H   0  0  0  0  0  0  0  0  0  0  0  0
    0.1427    1.2786   -1.4172 C   0  0  0  0  0  0  0  0  0  0  0  0
    0.7231    2.0045   -0.8396 H   0  0  0  0  0  0  0  0  0  0  0  0
    0.6002    1.2284   -2.4096 H   0  0  0  0  0  0  0  0  0  0  0  0
   -1.2742    1.8000   -1.5883 C   0  0  0  0  0  0  0  0  0  0  0  0
   -1.8259    1.8293   -2.6701 O   0  0  0  0  0  0  0  0  0  0  0  0
   -1.9826    2.3001   -0.5329 N   0  0  0  0  0  0  0  0  0  0  0  0
   -2.8086    2.8379   -0.7823 H   0  0  0  0  0  0  0  0  0  0  0  0
   -1.4689    2.5354    0.3114 H   0  0  0  0  0  0  0  0  0  0  0  0
    0.8036    0.0151    0.6498 C   0  0  0  0  0  0  0  0  0  0  0  0
    2.0162    0.0728    0.7990 O   0  0  0  0  0  0  0  0  0  0  0  0
   -0.0216    0.4239    1.6829 N   0  0  0  0  0  0  0  0  0  0  0  0
   -1.0067    0.2117    1.5558 H   0  0  0  0  0  0  0  0  0  0  0  0
    0.4720    0.6118    3.0420 C   0  0  0  0  0  0  0  0  0  0  0  0
    1.2569    1.3754    3.0642 H   0  0  0  0  0  0  0  0  0  0  0  0
   -0.3409    0.9362    3.6986 H   0  0  0  0  0  0  0  0  0  0  0  0
    0.8820   -0.3257    3.4326 H   0  0  0  0  0  0  0  0  0  0  0  0
  1  2  1  0  0  0  0
  2  3  1  0  0  0  0
  2  4  1  0  0  0  0
  2  5  1  0  0  0  0
  5  6  2  0  0  0  0
  5  7  1  0  0  0  0
  7  8  1  0  0  0  0
  7  9  1  0  0  0  0
  9 10  1  0  0  0  0
  9 11  1  0  0  0  0
  9 19  1  0  0  0  0
 11 12  1  0  0  0  0
 11 13  1  0  0  0  0
 11 14  1  0  0  0  0
 14 15  2  0  0  0  0
 14 16  1  0  0  0  0
 16 17  1  0  0  0  0
 16 18  1  0  0  0  0
 19 20  2  0  0  0  0
 19 21  1  0  0  0  0
 21 22  1  0  0  0  0
 21 23  1  0  0  0  0
 23 24  1  0  0  0  0
 23 25  1  0  0  0  0
 23 26  1  0  0  0  0
M  END
$$$$

  -OEChem-03222214023D

 26 25  0     1  0  0  0  0  0999 V2000
   -2.6221   -3.7849   -0.2052 H   0  0  0  0  0  0  0  0  0  0  0  0
   -2.6253   -2.7704   -0.6137 C   0  0  0  0  0  0  0  0  0  0  0  0
   -3.4395   -2.2068   -0.1518 H   0  0  0  0  0  0  0  0  0  0  0  0
   -2.7958   -2.8263   -1.6918 H   0  0  0  0  0  0  0  0  0  0  0  0
   -1.2989   -2.0895   -0.3335 C   0  0  0  0  0  0  0  0  0  0  0  0
   -0.4383   -2.6712    0.3024 O   0  0  0  0  0  0  0  0  0  0  0  0
   -1.0798   -0.8064   -0.7955 N   0  0  0  0  0  0  0  0  0  0  0  0
   -1.7856   -0.4431   -1.4373 H   0  0  0  0  0  0  0  0  0  0  0  0
    0.2329   -0.1248   -0.7771 C   0  0  1  0  0  0  0  0  0  0  0  0
    0.9510   -0.7311   -1.3411 H   0  0  0  0  0  0  0  0  0  0  0  0
    0.1570    1.2842   -1.4196 C   0  0  0  0  0  0  0  0  0  0  0  0
    0.7447    2.0079   -0.8467 H   0  0  0  0  0  0  0  0  0  0  0  0
    0.6061    1.2325   -2.4155 H   0  0  0  0  0  0  0  0  0  0  0  0
   -1.2610    1.8058   -1.5843 C   0  0  0  0  0  0  0  0  0  0  0  0
   -1.9104    1.5944   -2.5903 O   0  0  0  0  0  0  0  0  0  0  0  0
   -1.8907    2.4903   -0.5841 N   0  0  0  0  0  0  0  0  0  0  0  0
   -2.7495    2.9655   -0.8484 H   0  0  0  0  0  0  0  0  0  0  0  0
   -1.3255    2.8560    0.1767 H   0  0  0  0  0  0  0  0  0  0  0  0
    0.8122    0.0221    0.6474 C   0  0  0  0  0  0  0  0  0  0  0  0
    2.0251    0.0629    0.8012 O   0  0  0  0  0  0  0  0  0  0  0  0
   -0.0107    0.4434    1.6770 N   0  0  0  0  0  0  0  0  0  0  0  0
   -1.0024    0.2749    1.5367 H   0  0  0  0  0  0  0  0  0  0  0  0
    0.4750    0.6235    3.0397 C   0  0  0  0  0  0  0  0  0  0  0  0
    1.2660    1.3803    3.0690 H   0  0  0  0  0  0  0  0  0  0  0  0
   -0.3399    0.9527    3.6914 H   0  0  0  0  0  0  0  0  0  0  0  0
    0.8746   -0.3185    3.4303 H   0  0  0  0  0  0  0  0  0  0  0  0
  1  2  1  0  0  0  0
  2  3  1  0  0  0  0
  2  4  1  0  0  0  0
  2  5  1  0  0  0  0
  5  6  2  0  0  0  0
  5  7  1  0  0  0  0
  7  8  1  0  0  0  0
  7  9  1  0  0  0  0
  9 10  1  0  0  0  0
  9 11  1  0  0  0  0
  9 19  1  0  0  0  0
 11 12  1  0  0  0  0
 11 13  1  0  0  0  0
 11 14  1  0  0  0  0
 14 15  2  0  0  0  0
 14 16  1  0  0  0  0
 16 17  1  0  0  0  0
 16 18  1  0  0  0  0
 19 20  2  0  0  0  0
 19 21  1  0  0  0  0
 21 22  1  0  0  0  0
 21 23  1  0  0  0  0
 23 24  1  0  0  0  0
 23 25  1  0  0  0  0
 23 26  1  0  0  0  0
M  END
$$$$

  -OEChem-03222214023D

 26 25  0     1  0  0  0  0  0999 V2000
   -2.6079   -3.8010   -0.2600 H   0  0  0  0  0  0  0  0  0  0  0  0
   -2.6299   -2.7659   -0.6123 C   0  0  0  0  0  0  0  0  0  0  0  0
   -3.4347   -2.2348   -0.0981 H   0  0  0  0  0  0  0  0  0  0  0  0
   -2.8309   -2.7651   -1.6865 H   0  0  0  0  0  0  0  0  0  0  0  0
   -1.3009   -2.0893   -0.3328 C   0  0  0  0  0  0  0  0  0  0  0  0
   -0.4390   -2.6760    0.2975 O   0  0  0  0  0  0  0  0  0  0  0  0
   -1.0793   -0.8056   -0.7905 N   0  0  0  0  0  0  0  0  0  0  0  0
   -1.7889   -0.4308   -1.4240 H   0  0  0  0  0  0  0  0  0  0  0  0
    0.2307   -0.1216   -0.7695 C   0  0  1  0  0  0  0  0  0  0  0  0
    0.9483   -0.7304   -1.3315 H   0  0  0  0  0  0  0  0  0  0  0  0
    0.1575    1.2843   -1.4215 C   0  0  0  0  0  0  0  0  0  0  0  0
    0.7445    2.0076   -0.8472 H   0  0  0  0  0  0  0  0  0  0  0  0
    0.6146    1.2266   -2.4133 H   0  0  0  0  0  0  0  0  0  0  0  0
   -1.2558    1.8172   -1.6057 C   0  0  0  0  0  0  0  0  0  0  0  0
   -1.9926    1.3956   -2.4786 O   0  0  0  0  0  0  0  0  0  0  0  0
   -1.7967    2.7289   -0.7450 N   0  0  0  0  0  0  0  0  0  0  0  0
   -2.6744    3.1503   -1.0367 H   0  0  0  0  0  0  0  0  0  0  0  0
   -1.1764    3.2319   -0.1175 H   0  0  0  0  0  0  0  0  0  0  0  0
    0.8124    0.0264    0.6535 C   0  0  0  0  0  0  0  0  0  0  0  0
    2.0260    0.0644    0.8042 O   0  0  0  0  0  0  0  0  0  0  0  0
   -0.0070    0.4451    1.6865 N   0  0  0  0  0  0  0  0  0  0  0  0
   -1.0015    0.2959    1.5442 H   0  0  0  0  0  0  0  0  0  0  0  0
    0.4804    0.6264    3.0482 C   0  0  0  0  0  0  0  0  0  0  0  0
    1.2867    1.3671    3.0728 H   0  0  0  0  0  0  0  0  0  0  0  0
   -0.3285    0.9777    3.6958 H   0  0  0  0  0  0  0  0  0  0  0  0
    0.8599   -0.3205    3.4470 H   0  0  0  0  0  0  0  0  0  0  0  0
  1  2  1  0  0  0  0
  2  3  1  0  0  0  0
  2  4  1  0  0  0  0
  2  5  1  0  0  0  0
  5  6  2  0  0  0  0
  5  7  1  0  0  0  0
  7  8  1  0  0  0  0
  7  9  1  0  0  0  0
  9 10  1  0  0  0  0
  9 11  1  0  0  0  0
  9 19  1  0  0  0  0
 11 12  1  0  0  0  0
 11 13  1  0  0  0  0
 11 14  1  0  0  0  0
 14 15  2  0  0  0  0
 14 16  1  0  0  0  0
 16 17  1  0  0  0  0
 16 18  1  0  0  0  0
 19 20  2  0  0  0  0
 19 21  1  0  0  0  0
 21 22  1  0  0  0  0
 21 23  1  0  0  0  0
 23 24  1  0  0  0  0
 23 25  1  0  0  0  0
 23 26  1  0  0  0  0
M  END
$$$$

  -OEChem-03222214023D

 26 25  0     1  0  0  0  0  0999 V2000
   -2.5895   -3.8193   -0.2330 H   0  0  0  0  0  0  0  0  0  0  0  0
   -2.6192   -2.7838   -0.5833 C   0  0  0  0  0  0  0  0  0  0  0  0
   -3.4092   -2.2519   -0.0478 H   0  0  0  0  0  0  0  0  0  0  0  0
   -2.8483   -2.7812   -1.6519 H   0  0  0  0  0  0  0  0  0  0  0  0
   -1.2826   -2.1096   -0.3381 C   0  0  0  0  0  0  0  0  0  0  0  0
   -0.4004   -2.7022    0.2579 O   0  0  0  0  0  0  0  0  0  0  0  0
   -1.0757   -0.8214   -0.7887 N   0  0  0  0  0  0  0  0  0  0  0  0
   -1.8102   -0.4273   -1.3822 H   0  0  0  0  0  0  0  0  0  0  0  0
    0.2222   -0.1191   -0.7705 C   0  0  1  0  0  0  0  0  0  0  0  0
    0.9450   -0.7220   -1.3323 H   0  0  0  0  0  0  0  0  0  0  0  0
    0.1447    1.2881   -1.4254 C   0  0  0  0  0  0  0  0  0  0  0  0
    0.7331    2.0061   -0.8461 H   0  0  0  0  0  0  0  0  0  0  0  0
    0.6113    1.2268   -2.4125 H   0  0  0  0  0  0  0  0  0  0  0  0
   -1.2579    1.8493   -1.6346 C   0  0  0  0  0  0  0  0  0  0  0  0
   -2.0938    1.2899   -2.3236 O   0  0  0  0  0  0  0  0  0  0  0  0
   -1.6808    2.9728   -0.9842 N   0  0  0  0  0  0  0  0  0  0  0  0
   -2.5674    3.3636   -1.2909 H   0  0  0  0  0  0  0  0  0  0  0  0
   -0.9938    3.5640   -0.5266 H   0  0  0  0  0  0  0  0  0  0  0  0
    0.8040    0.0281    0.6526 C   0  0  0  0  0  0  0  0  0  0  0  0
    2.0173    0.0811    0.8026 O   0  0  0  0  0  0  0  0  0  0  0  0
   -0.0200    0.4280    1.6892 N   0  0  0  0  0  0  0  0  0  0  0  0
   -1.0138    0.2783    1.5434 H   0  0  0  0  0  0  0  0  0  0  0  0
    0.4634    0.6137    3.0515 C   0  0  0  0  0  0  0  0  0  0  0  0
    1.2612    1.3636    3.0779 H   0  0  0  0  0  0  0  0  0  0  0  0
   -0.3504    0.9556    3.6977 H   0  0  0  0  0  0  0  0  0  0  0  0
    0.8523   -0.3291    3.4505 H   0  0  0  0  0  0  0  0  0  0  0  0
  1  2  1  0  0  0  0
  2  3  1  0  0  0  0
  2  4  1  0  0  0  0
  2  5  1  0  0  0  0
  5  6  2  0  0  0  0
  5  7  1  0  0  0  0
  7  8  1  0  0  0  0
  7  9  1  0  0  0  0
  9 10  1  0  0  0  0
  9 11  1  0  0  0  0
  9 19  1  0  0  0  0
 11 12  1  0  0  0  0
 11 13  1  0  0  0  0
 11 14  1  0  0  0  0
 14 15  2  0  0  0  0
 14 16  1  0  0  0  0
 16 17  1  0  0  0  0
 16 18  1  0  0  0  0
 19 20  2  0  0  0  0
 19 21  1  0  0  0  0
 21 22  1  0  0  0  0
 21 23  1  0  0  0  0
 23 24  1  0  0  0  0
 23 25  1  0  0  0  0
 23 26  1  0  0  0  0
M  END
$$$$

  -OEChem-03222214023D

 26 25  0     1  0  0  0  0  0999 V2000
   -2.5559   -3.8484   -0.1807 H   0  0  0  0  0  0  0  0  0  0  0  0
   -2.6000   -2.8170   -0.5417 C   0  0  0  0  0  0  0  0  0  0  0  0
   -3.3728   -2.2809    0.0144 H   0  0  0  0  0  0  0  0  0  0  0  0
   -2.8650   -2.8264   -1.6019 H   0  0  0  0  0  0  0  0  0  0  0  0
   -1.2571   -2.1380   -0.3490 C   0  0  0  0  0  0  0  0  0  0  0  0
   -0.3453   -2.7342    0.1971 O   0  0  0  0  0  0  0  0  0  0  0  0
   -1.0764   -0.8424   -0.7889 N   0  0  0  0  0  0  0  0  0  0  0  0
   -1.8463   -0.4276   -1.3207 H   0  0  0  0  0  0  0  0  0  0  0  0
    0.2047   -0.1129   -0.7728 C   0  0  1  0  0  0  0  0  0  0  0  0
    0.9354   -0.7042   -1.3365 H   0  0  0  0  0  0  0  0  0  0  0  0
    0.1195    1.2982   -1.4245 C   0  0  0  0  0  0  0  0  0  0  0  0
    0.7046    2.0100   -0.8343 H   0  0  0  0  0  0  0  0  0  0  0  0
    0.5997    1.2395   -2.4047 H   0  0  0  0  0  0  0  0  0  0  0  0
   -1.2700    1.8905   -1.6592 C   0  0  0  0  0  0  0  0  0  0  0  0
   -2.2038    1.2652   -2.1329 O   0  0  0  0  0  0  0  0  0  0  0  0
   -1.5581    3.1750   -1.2963 N   0  0  0  0  0  0  0  0  0  0  0  0
   -2.4482    3.5472   -1.6157 H   0  0  0  0  0  0  0  0  0  0  0  0
   -0.8002    3.8025   -1.0463 H   0  0  0  0  0  0  0  0  0  0  0  0
    0.7871    0.0327    0.6505 C   0  0  0  0  0  0  0  0  0  0  0  0
    2.0000    0.1017    0.7985 O   0  0  0  0  0  0  0  0  0  0  0  0
   -0.0398    0.4048    1.6950 N   0  0  0  0  0  0  0  0  0  0  0  0
   -1.0337    0.2573    1.5474 H   0  0  0  0  0  0  0  0  0  0  0  0
    0.4443    0.5899    3.0573 C   0  0  0  0  0  0  0  0  0  0  0  0
    1.2228    1.3595    3.0875 H   0  0  0  0  0  0  0  0  0  0  0  0
   -0.3752    0.9047    3.7102 H   0  0  0  0  0  0  0  0  0  0  0  0
    0.8590   -0.3464    3.4454 H   0  0  0  0  0  0  0  0  0  0  0  0
  1  2  1  0  0  0  0
  2  3  1  0  0  0  0
  2  4  1  0  0  0  0
  2  5  1  0  0  0  0
  5  6  2  0  0  0  0
  5  7  1  0  0  0  0
  7  8  1  0  0  0  0
  7  9  1  0  0  0  0
  9 10  1  0  0  0  0
  9 11  1  0  0  0  0
  9 19  1  0  0  0  0
 11 12  1  0  0  0  0
 11 13  1  0  0  0  0
 11 14  1  0  0  0  0
 14 15  2  0  0  0  0
 14 16  1  0  0  0  0
 16 17  1  0  0  0  0
 16 18  1  0  0  0  0
 19 20  2  0  0  0  0
 19 21  1  0  0  0  0
 21 22  1  0  0  0  0
 21 23  1  0  0  0  0
 23 24  1  0  0  0  0
 23 25  1  0  0  0  0
 23 26  1  0  0  0  0
M  END
$$$$

  -OEChem-03222214023D

 26 25  0     1  0  0  0  0  0999 V2000
   -2.5256   -3.8672   -0.1352 H   0  0  0  0  0  0  0  0  0  0  0  0
   -2.5823   -2.8370   -0.4975 C   0  0  0  0  0  0  0  0  0  0  0  0
   -3.3293   -2.2970    0.0890 H   0  0  0  0  0  0  0  0  0  0  0  0
   -2.8917   -2.8489   -1.5455 H   0  0  0  0  0  0  0  0  0  0  0  0
   -1.2309   -2.1609   -0.3647 C   0  0  0  0  0  0  0  0  0  0  0  0
   -0.2902   -2.7653    0.1200 O   0  0  0  0  0  0  0  0  0  0  0  0
   -1.0724   -0.8591   -0.7938 N   0  0  0  0  0  0  0  0  0  0  0  0
   -1.8803   -0.4167   -1.2395 H   0  0  0  0  0  0  0  0  0  0  0  0
    0.1938   -0.1058   -0.7783 C   0  0  1  0  0  0  0  0  0  0  0  0
    0.9325   -0.6838   -1.3459 H   0  0  0  0  0  0  0  0  0  0  0  0
    0.0960    1.3104   -1.4220 C   0  0  0  0  0  0  0  0  0  0  0  0
    0.6752    2.0185   -0.8214 H   0  0  0  0  0  0  0  0  0  0  0  0
    0.5862    1.2576   -2.3975 H   0  0  0  0  0  0  0  0  0  0  0  0
   -1.2848    1.9237   -1.6703 C   0  0  0  0  0  0  0  0  0  0  0  0
   -2.2993    1.2898   -1.9077 O   0  0  0  0  0  0  0  0  0  0  0  0
   -1.4575    3.2776   -1.6357 N   0  0  0  0  0  0  0  0  0  0  0  0
   -2.3544    3.6303   -1.9580 H   0  0  0  0  0  0  0  0  0  0  0  0
   -0.6442    3.8846   -1.6116 H   0  0  0  0  0  0  0  0  0  0  0  0
    0.7755    0.0362    0.6455 C   0  0  0  0  0  0  0  0  0  0  0  0
    1.9876    0.1166    0.7947 O   0  0  0  0  0  0  0  0  0  0  0  0
   -0.0561    0.3827    1.6950 N   0  0  0  0  0  0  0  0  0  0  0  0
   -1.0504    0.2447    1.5413 H   0  0  0  0  0  0  0  0  0  0  0  0
    0.4247    0.5686    3.0583 C   0  0  0  0  0  0  0  0  0  0  0  0
    1.1895    1.3517    3.0930 H   0  0  0  0  0  0  0  0  0  0  0  0
   -0.4003    0.8652    3.7130 H   0  0  0  0  0  0  0  0  0  0  0  0
    0.8560   -0.3625    3.4409 H   0  0  0  0  0  0  0  0  0  0  0  0
  1  2  1  0  0  0  0
  2  3  1  0  0  0  0
  2  4  1  0  0  0  0
  2  5  1  0  0  0  0
  5  6  2  0  0  0  0
  5  7  1  0  0  0  0
  7  8  1  0  0  0  0
  7  9  1  0  0  0  0
  9 10  1  0  0  0  0
  9 11  1  0  0  0  0
  9 19  1  0  0  0  0
 11 12  1  0  0  0  0
 11 13  1  0  0  0  0
 11 14  1  0  0  0  0
 14 15  2  0  0  0  0
 14 16  1  0  0  0  0
 16 17  1  0  0  0  0
 16 18  1  0  0  0  0
 19 20  2  0  0  0  0
 19 21  1  0  0  0  0
 21 22  1  0  0  0  0
 21 23  1  0  0  0  0
 23 24  1  0  0  0  0
 23 25  1  0  0  0  0
 23 26  1  0  0  0  0
M  END
$$$$

  -OEChem-03222214023D

 26 25  0     1  0  0  0  0  0999 V2000
   -2.5105   -3.8722   -0.0990 H   0  0  0  0  0  0  0  0  0  0  0  0
   -2.5735   -2.8432   -0.4642 C   0  0  0  0  0  0  0  0  0  0  0  0
   -3.2959   -2.2954    0.1457 H   0  0  0  0  0  0  0  0  0  0  0  0
   -2.9198   -2.8578   -1.5006 H   0  0  0  0  0  0  0  0  0  0  0  0
   -1.2141   -2.1751   -0.3832 C   0  0  0  0  0  0  0  0  0  0  0  0
   -0.2547   -2.7907    0.0480 O   0  0  0  0  0  0  0  0  0  0  0  0
   -1.0678   -0.8700   -0.8062 N   0  0  0  0  0  0  0  0  0  0  0  0
   -1.9034   -0.4001   -1.1635 H   0  0  0  0  0  0  0  0  0  0  0  0
    0.1912   -0.1059   -0.7893 C   0  0  1  0  0  0  0  0  0  0  0  0
    0.9339   -0.6766   -1.3588 H   0  0  0  0  0  0  0  0  0  0  0  0
    0.0872    1.3147   -1.4252 C   0  0  0  0  0  0  0  0  0  0  0  0
    0.6637    2.0214   -0.8202 H   0  0  0  0  0  0  0  0  0  0  0  0
    0.5804    1.2651   -2.3993 H   0  0  0  0  0  0  0  0  0  0  0  0
   -1.2887    1.9401   -1.6772 C   0  0  0  0  0  0  0  0  0  0  0  0
   -2.3525    1.3441   -1.6684 O   0  0  0  0  0  0  0  0  0  0  0  0
   -1.3951    3.2743   -1.9462 N   0  0  0  0  0  0  0  0  0  0  0  0
   -2.3062    3.6093   -2.2464 H   0  0  0  0  0  0  0  0  0  0  0  0
   -0.5580    3.8183   -2.1301 H   0  0  0  0  0  0  0  0  0  0  0  0
    0.7704    0.0322    0.6356 C   0  0  0  0  0  0  0  0  0  0  0  0
    1.9817    0.1166    0.7879 O   0  0  0  0  0  0  0  0  0  0  0  0
   -0.0655    0.3652    1.6859 N   0  0  0  0  0  0  0  0  0  0  0  0
   -1.0615    0.2501    1.5239 H   0  0  0  0  0  0  0  0  0  0  0  0
    0.4095    0.5672    3.0486 C   0  0  0  0  0  0  0  0  0  0  0  0
    1.1569    1.3671    3.0802 H   0  0  0  0  0  0  0  0  0  0  0  0
   -0.4225    0.8483    3.7012 H   0  0  0  0  0  0  0  0  0  0  0  0
    0.8602   -0.3526    3.4363 H   0  0  0  0  0  0  0  0  0  0  0  0
  1  2  1  0  0  0  0
  2  3  1  0  0  0  0
  2  4  1  0  0  0  0
  2  5  1  0  0  0  0
  5  6  2  0  0  0  0
  5  7  1  0  0  0  0
  7  8  1  0  0  0  0
  7  9  1  0  0  0  0
  9 10  1  0  0  0  0
  9 11  1  0  0  0  0
  9 19  1  0  0  0  0
 11 12  1  0  0  0  0
 11 13  1  0  0  0  0
 11 14  1  0  0  0  0
 14 15  2  0  0  0  0
 14 16  1  0  0  0  0
 16 17  1  0  0  0  0
 16 18  1  0  0  0  0
 19 20  2  0  0  0  0
 19 21  1  0  0  0  0
 21 22  1  0  0  0  0
 21 23  1  0  0  0  0
 23 24  1  0  0  0  0
 23 25  1  0  0  0  0
 23 26  1  0  0  0  0
M  END
$$$$

  -OEChem-03222214023D

 26 25  0     1  0  0  0  0  0999 V2000
   -2.5027   -3.8500   -0.0417 H   0  0  0  0  0  0  0  0  0  0  0  0
   -2.5679   -2.8239   -0.4143 C   0  0  0  0  0  0  0  0  0  0  0  0
   -3.2463   -2.2575    0.2283 H   0  0  0  0  0  0  0  0  0  0  0  0
   -2.9708   -2.8427   -1.4298 H   0  0  0  0  0  0  0  0  0  0  0  0
   -1.1950   -2.1790   -0.4160 C   0  0  0  0  0  0  0  0  0  0  0  0
   -0.2200   -2.8136   -0.0526 O   0  0  0  0  0  0  0  0  0  0  0  0
   -1.0546   -0.8718   -0.8344 N   0  0  0  0  0  0  0  0  0  0  0  0
   -1.9097   -0.3709   -1.0879 H   0  0  0  0  0  0  0  0  0  0  0  0
    0.2023   -0.1048   -0.8066 C   0  0  1  0  0  0  0  0  0  0  0  0
    0.9512   -0.6698   -1.3736 H   0  0  0  0  0  0  0  0  0  0  0  0
    0.0956    1.3182   -1.4354 C   0  0  0  0  0  0  0  0  0  0  0  0
    0.6668    2.0262   -0.8269 H   0  0  0  0  0  0  0  0  0  0  0  0
    0.5926    1.2710   -2.4078 H   0  0  0  0  0  0  0  0  0  0  0  0
   -1.2812    1.9397   -1.6903 C   0  0  0  0  0  0  0  0  0  0  0  0
   -2.3540    1.4154   -1.4414 O   0  0  0  0  0  0  0  0  0  0  0  0
   -1.3787    3.1848   -2.2416 N   0  0  0  0  0  0  0  0  0  0  0  0
   -2.3074    3.4976   -2.5102 H   0  0  0  0  0  0  0  0  0  0  0  0
   -0.5506    3.6393   -2.6129 H   0  0  0  0  0  0  0  0  0  0  0  0
    0.7682    0.0270    0.6240 C   0  0  0  0  0  0  0  0  0  0  0  0
    1.9783    0.0970    0.7907 O   0  0  0  0  0  0  0  0  0  0  0  0
   -0.0767    0.3530    1.6692 N   0  0  0  0  0  0  0  0  0  0  0  0
   -1.0735    0.2760    1.4896 H   0  0  0  0  0  0  0  0  0  0  0  0
    0.3843    0.5511    3.0372 C   0  0  0  0  0  0  0  0  0  0  0  0
    1.1278    1.3538    3.0798 H   0  0  0  0  0  0  0  0  0  0  0  0
   -0.4550    0.8255    3.6832 H   0  0  0  0  0  0  0  0  0  0  0  0
    0.8355   -0.3681    3.4248 H   0  0  0  0  0  0  0  0  0  0  0  0
  1  2  1  0  0  0  0
  2  3  1  0  0  0  0
  2  4  1  0  0  0  0
  2  5  1  0  0  0  0
  5  6  2  0  0  0  0
  5  7  1  0  0  0  0
  7  8  1  0  0  0  0
  7  9  1  0  0  0  0
  9 10  1  0  0  0  0
  9 11  1  0  0  0  0
  9 19  1  0  0  0  0
 11 12  1  0  0  0  0
 11 13  1  0  0  0  0
 11 14  1  0  0  0  0
 14 15  2  0  0  0  0
 14 16  1  0  0  0  0
 16 17  1  0  0  0  0
 16 18  1  0  0  0  0
 19 20  2  0  0  0  0
 19 21  1  0  0  0  0
 21 22  1  0  0  0  0
 21 23  1  0  0  0  0
 23 24  1  0  0  0  0
 23 25  1  0  0  0  0
 23 26  1  0  0  0  0
M  END
$$$$

  -OEChem-03222214023D

 26 25  0     1  0  0  0  0  0999 V2000
   -2.5080   -3.8263   -0.0064 H   0  0  0  0  0  0  0  0  0  0  0  0
   -2.5713   -2.8001   -0.3791 C   0  0  0  0  0  0  0  0  0  0  0  0
   -3.2046   -2.2187    0.2951 H   0  0  0  0  0  0  0  0  0  0  0  0
   -3.0253   -2.8128   -1.3729 H   0  0  0  0  0  0  0  0  0  0  0  0
   -1.1873   -2.1835   -0.4512 C   0  0  0  0  0  0  0  0  0  0  0  0
   -0.2076   -2.8417   -0.1472 O   0  0  0  0  0  0  0  0  0  0  0  0
   -1.0419   -0.8765   -0.8691 N   0  0  0  0  0  0  0  0  0  0  0  0
   -1.9023   -0.3466   -1.0267 H   0  0  0  0  0  0  0  0  0  0  0  0
    0.2217   -0.1196   -0.8252 C   0  0  1  0  0  0  0  0  0  0  0  0
    0.9745   -0.6843   -1.3878 H   0  0  0  0  0  0  0  0  0  0  0  0
    0.1213    1.3065   -1.4438 C   0  0  0  0  0  0  0  0  0  0  0  0
    0.6882    2.0145   -0.8315 H   0  0  0  0  0  0  0  0  0  0  0  0
    0.6204    1.2639   -2.4152 H   0  0  0  0  0  0  0  0  0  0  0  0
   -1.2612    1.9148   -1.6924 C   0  0  0  0  0  0  0  0  0  0  0  0
   -2.3035    1.4967   -1.2154 O   0  0  0  0  0  0  0  0  0  0  0  0
   -1.3994    3.0186   -2.4836 N   0  0  0  0  0  0  0  0  0  0  0  0
   -2.3451    3.3242   -2.6952 H   0  0  0  0  0  0  0  0  0  0  0  0
   -0.6068    3.3709   -3.0108 H   0  0  0  0  0  0  0  0  0  0  0  0
    0.7694    0.0046    0.6131 C   0  0  0  0  0  0  0  0  0  0  0  0
    1.9778    0.0499    0.8000 O   0  0  0  0  0  0  0  0  0  0  0  0
   -0.0868    0.3366    1.6474 N   0  0  0  0  0  0  0  0  0  0  0  0
   -1.0814    0.3390    1.4393 H   0  0  0  0  0  0  0  0  0  0  0  0
    0.3561    0.5630    3.0168 C   0  0  0  0  0  0  0  0  0  0  0  0
    1.0662    1.3956    3.0574 H   0  0  0  0  0  0  0  0  0  0  0  0
   -0.4987    0.8065    3.6552 H   0  0  0  0  0  0  0  0  0  0  0  0
    0.8417   -0.3346    3.4142 H   0  0  0  0  0  0  0  0  0  0  0  0
  1  2  1  0  0  0  0
  2  3  1  0  0  0  0
  2  4  1  0  0  0  0
  2  5  1  0  0  0  0
  5  6  2  0  0  0  0
  5  7  1  0  0  0  0
  7  8  1  0  0  0  0
  7  9  1  0  0  0  0
  9 10  1  0  0  0  0
  9 11  1  0  0  0  0
  9 19  1  0  0  0  0
 11 12  1  0  0  0  0
 11 13  1  0  0  0  0
 11 14  1  0  0  0  0
 14 15  2  0  0  0  0
 14 16  1  0  0  0  0
 16 17  1  0  0  0  0
 16 18  1  0  0  0  0
 19 20  2  0  0  0  0
 19 21  1  0  0  0  0
 21 22  1  0  0  0  0
 21 23  1  0  0  0  0
 23 24  1  0  0  0  0
 23 25  1  0  0  0  0
 23 26  1  0  0  0  0
M  END
$$$$

  -OEChem-03222214023D

 26 25  0     1  0  0  0  0  0999 V2000
   -2.5115   -3.8193    0.0307 H   0  0  0  0  0  0  0  0  0  0  0  0
   -2.5713   -2.7934   -0.3436 C   0  0  0  0  0  0  0  0  0  0  0  0
   -3.1670   -2.1986    0.3529 H   0  0  0  0  0  0  0  0  0  0  0  0
   -3.0642   -2.8021   -1.3187 H   0  0  0  0  0  0  0  0  0  0  0  0
   -1.1804   -2.2019   -0.4723 C   0  0  0  0  0  0  0  0  0  0  0  0
   -0.2018   -2.8751   -0.1986 O   0  0  0  0  0  0  0  0  0  0  0  0
   -1.0275   -0.9005   -0.9062 N   0  0  0  0  0  0  0  0  0  0  0  0
   -1.8849   -0.3526   -1.0032 H   0  0  0  0  0  0  0  0  0  0  0  0
    0.2449   -0.1566   -0.8497 C   0  0  1  0  0  0  0  0  0  0  0  0
    1.0030   -0.7270   -1.3992 H   0  0  0  0  0  0  0  0  0  0  0  0
    0.1511    1.2663   -1.4719 C   0  0  0  0  0  0  0  0  0  0  0  0
    0.7100    1.9821   -0.8616 H   0  0  0  0  0  0  0  0  0  0  0  0
    0.6518    1.2230   -2.4426 H   0  0  0  0  0  0  0  0  0  0  0  0
   -1.2438    1.8414   -1.7153 C   0  0  0  0  0  0  0  0  0  0  0  0
   -2.2167    1.5639   -1.0323 O   0  0  0  0  0  0  0  0  0  0  0  0
   -1.4713    2.7400   -2.7176 N   0  0  0  0  0  0  0  0  0  0  0  0
   -2.3715    3.2114   -2.7053 H   0  0  0  0  0  0  0  0  0  0  0  0
   -0.6795    3.1642   -3.1905 H   0  0  0  0  0  0  0  0  0  0  0  0
    0.7677   -0.0234    0.5967 C   0  0  0  0  0  0  0  0  0  0  0  0
    1.9723   -0.0015    0.8095 O   0  0  0  0  0  0  0  0  0  0  0  0
   -0.1063    0.3298    1.6090 N   0  0  0  0  0  0  0  0  0  0  0  0
   -1.0887    0.4156    1.3617 H   0  0  0  0  0  0  0  0  0  0  0  0
    0.3136    0.6084    2.9757 C   0  0  0  0  0  0  0  0  0  0  0  0
    1.0068    1.4555    2.9986 H   0  0  0  0  0  0  0  0  0  0  0  0
   -0.5541    0.8543    3.5950 H   0  0  0  0  0  0  0  0  0  0  0  0
    0.8104   -0.2664    3.4080 H   0  0  0  0  0  0  0  0  0  0  0  0
  1  2  1  0  0  0  0
  2  3  1  0  0  0  0
  2  4  1  0  0  0  0
  2  5  1  0  0  0  0
  5  6  2  0  0  0  0
  5  7  1  0  0  0  0
  7  8  1  0  0  0  0
  7  9  1  0  0  0  0
  9 10  1  0  0  0  0
  9 11  1  0  0  0  0
  9 19  1  0  0  0  0
 11 12  1  0  0  0  0
 11 13  1  0  0  0  0
 11 14  1  0  0  0  0
 14 15  2  0  0  0  0
 14 16  1  0  0  0  0
 16 17  1  0  0  0  0
 16 18  1  0  0  0  0
 19 20  2  0  0  0  0
 19 21  1  0  0  0  0
 21 22  1  0  0  0  0
 21 23  1  0  0  0  0
 23 24  1  0  0  0  0
 23 25  1  0  0  0  0
 23 26  1  0  0  0  0
M  END
$$$$

  -OEChem-03222214023D

 26 25  0     1  0  0  0  0  0999 V2000
   -2.5264   -3.7797    0.0266 H   0  0  0  0  0  0  0  0  0  0  0  0
   -2.5775   -2.7523   -0.3450 C   0  0  0  0  0  0  0  0  0  0  0  0
   -3.1413   -2.1474    0.3692 H   0  0  0  0  0  0  0  0  0  0  0  0
   -3.0983   -2.7500   -1.3055 H   0  0  0  0  0  0  0  0  0  0  0  0
   -1.1794   -2.1878   -0.5125 C   0  0  0  0  0  0  0  0  0  0  0  0
   -0.2069   -2.8859   -0.2830 O   0  0  0  0  0  0  0  0  0  0  0  0
   -1.0138   -0.8837   -0.9347 N   0  0  0  0  0  0  0  0  0  0  0  0
   -1.8637   -0.3186   -0.9704 H   0  0  0  0  0  0  0  0  0  0  0  0
    0.2699   -0.1594   -0.8497 C   0  0  1  0  0  0  0  0  0  0  0  0
    1.0300   -0.7289   -1.3972 H   0  0  0  0  0  0  0  0  0  0  0  0
    0.1871    1.2695   -1.4530 C   0  0  0  0  0  0  0  0  0  0  0  0
    0.7312    1.9829   -0.8262 H   0  0  0  0  0  0  0  0  0  0  0  0
    0.6952    1.2474   -2.4204 H   0  0  0  0  0  0  0  0  0  0  0  0
   -1.2217    1.8068   -1.6822 C   0  0  0  0  0  0  0  0  0  0  0  0
   -2.1008    1.6962   -0.8430 O   0  0  0  0  0  0  0  0  0  0  0  0
   -1.5813    2.4212   -2.8472 N   0  0  0  0  0  0  0  0  0  0  0  0
   -2.4827    2.8905   -2.8509 H   0  0  0  0  0  0  0  0  0  0  0  0
   -0.8581    2.7002   -3.5026 H   0  0  0  0  0  0  0  0  0  0  0  0
    0.7713   -0.0478    0.6062 C   0  0  0  0  0  0  0  0  0  0  0  0
    1.9716   -0.0680    0.8418 O   0  0  0  0  0  0  0  0  0  0  0  0
   -0.1139    0.3100    1.6074 N   0  0  0  0  0  0  0  0  0  0  0  0
   -1.0735    0.4974    1.3260 H   0  0  0  0  0  0  0  0  0  0  0  0
    0.2974    0.6121    2.9720 C   0  0  0  0  0  0  0  0  0  0  0  0
    0.9785    1.4692    2.9869 H   0  0  0  0  0  0  0  0  0  0  0  0
   -0.5762    0.8525    3.5854 H   0  0  0  0  0  0  0  0  0  0  0  0
    0.8055   -0.2497    3.4173 H   0  0  0  0  0  0  0  0  0  0  0  0
  1  2  1  0  0  0  0
  2  3  1  0  0  0  0
  2  4  1  0  0  0  0
  2  5  1  0  0  0  0
  5  6  2  0  0  0  0
  5  7  1  0  0  0  0
  7  8  1  0  0  0  0
  7  9  1  0  0  0  0
  9 10  1  0  0  0  0
  9 11  1  0  0  0  0
  9 19  1  0  0  0  0
 11 12  1  0  0  0  0
 11 13  1  0  0  0  0
 11 14  1  0  0  0  0
 14 15  2  0  0  0  0
 14 16  1  0  0  0  0
 16 17  1  0  0  0  0
 16 18  1  0  0  0  0
 19 20  2  0  0  0  0
 19 21  1  0  0  0  0
 21 22  1  0  0  0  0
 21 23  1  0  0  0  0
 23 24  1  0  0  0  0
 23 25  1  0  0  0  0
 23 26  1  0  0  0  0
M  END
$$$$

  -OEChem-03222214023D

 26 25  0     1  0  0  0  0  0999 V2000
   -2.5431   -3.7589   -0.0089 H   0  0  0  0  0  0  0  0  0  0  0  0
   -2.5867   -2.7252   -0.3637 C   0  0  0  0  0  0  0  0  0  0  0  0
   -3.1392   -2.1266    0.3647 H   0  0  0  0  0  0  0  0  0  0  0  0
   -3.1149   -2.7028   -1.3199 H   0  0  0  0  0  0  0  0  0  0  0  0
   -1.1843   -2.1721   -0.5332 C   0  0  0  0  0  0  0  0  0  0  0  0
   -0.2175   -2.8817   -0.3165 O   0  0  0  0  0  0  0  0  0  0  0  0
   -1.0079   -0.8666   -0.9478 N   0  0  0  0  0  0  0  0  0  0  0  0
   -1.8533   -0.2965   -0.9672 H   0  0  0  0  0  0  0  0  0  0  0  0
    0.2842   -0.1563   -0.8443 C   0  0  1  0  0  0  0  0  0  0  0  0
    1.0451   -0.7269   -1.3899 H   0  0  0  0  0  0  0  0  0  0  0  0
    0.2130    1.2756   -1.4363 C   0  0  0  0  0  0  0  0  0  0  0  0
    0.7451    1.9878   -0.7977 H   0  0  0  0  0  0  0  0  0  0  0  0
    0.7266    1.2697   -2.4009 H   0  0  0  0  0  0  0  0  0  0  0  0
   -1.2042    1.7832   -1.6565 C   0  0  0  0  0  0  0  0  0  0  0  0
   -1.9856    1.8860   -0.7267 O   0  0  0  0  0  0  0  0  0  0  0  0
   -1.6955    2.0728   -2.8971 N   0  0  0  0  0  0  0  0  0  0  0  0
   -2.5926    2.5498   -2.9255 H   0  0  0  0  0  0  0  0  0  0  0  0
   -1.0477    2.1623   -3.6738 H   0  0  0  0  0  0  0  0  0  0  0  0
    0.7741   -0.0572    0.6165 C   0  0  0  0  0  0  0  0  0  0  0  0
    1.9710   -0.1064    0.8639 O   0  0  0  0  0  0  0  0  0  0  0  0
   -0.1161    0.3058    1.6116 N   0  0  0  0  0  0  0  0  0  0  0  0
   -1.0557    0.5564    1.3117 H   0  0  0  0  0  0  0  0  0  0  0  0
    0.2951    0.6182    2.9739 C   0  0  0  0  0  0  0  0  0  0  0  0
    0.9503    1.4954    2.9850 H   0  0  0  0  0  0  0  0  0  0  0  0
   -0.5813    0.8307    3.5934 H   0  0  0  0  0  0  0  0  0  0  0  0
    0.8314   -0.2287    3.4150 H   0  0  0  0  0  0  0  0  0  0  0  0
  1  2  1  0  0  0  0
  2  3  1  0  0  0  0
  2  4  1  0  0  0  0
  2  5  1  0  0  0  0
  5  6  2  0  0  0  0
  5  7  1  0  0  0  0
  7  8  1  0  0  0  0
  7  9  1  0  0  0  0
  9 10  1  0  0  0  0
  9 11  1  0  0  0  0
  9 19  1  0  0  0  0
 11 12  1  0  0  0  0
 11 13  1  0  0  0  0
 11 14  1  0  0  0  0
 14 15  2  0  0  0  0
 14 16  1  0  0  0  0
 16 17  1  0  0  0  0
 16 18  1  0  0  0  0
 19 20  2  0  0  0  0
 19 21  1  0  0  0  0
 21 22  1  0  0  0  0
 21 23  1  0  0  0  0
 23 24  1  0  0  0  0
 23 25  1  0  0  0  0
 23 26  1  0  0  0  0
M  END
$$$$

  -OEChem-03222214023D

 26 25  0     1  0  0  0  0  0999 V2000
   -2.5561   -3.7604   -0.0394 H   0  0  0  0  0  0  0  0  0  0  0  0
   -2.5966   -2.7260   -0.3927 C   0  0  0  0  0  0  0  0  0  0  0  0
   -3.1689   -2.1320    0.3240 H   0  0  0  0  0  0  0  0  0  0  0  0
   -3.1023   -2.7043   -1.3608 H   0  0  0  0  0  0  0  0  0  0  0  0
   -1.1933   -2.1652   -0.5274 C   0  0  0  0  0  0  0  0  0  0  0  0
   -0.2289   -2.8704   -0.2882 O   0  0  0  0  0  0  0  0  0  0  0  0
   -1.0131   -0.8586   -0.9380 N   0  0  0  0  0  0  0  0  0  0  0  0
   -1.8607   -0.2980   -1.0066 H   0  0  0  0  0  0  0  0  0  0  0  0
    0.2802   -0.1492   -0.8305 C   0  0  1  0  0  0  0  0  0  0  0  0
    1.0400   -0.7216   -1.3757 H   0  0  0  0  0  0  0  0  0  0  0  0
    0.2141    1.2801   -1.4269 C   0  0  0  0  0  0  0  0  0  0  0  0
    0.7394    1.9951   -0.7852 H   0  0  0  0  0  0  0  0  0  0  0  0
    0.7327    1.2784   -2.3888 H   0  0  0  0  0  0  0  0  0  0  0  0
   -1.2049    1.7751   -1.6509 C   0  0  0  0  0  0  0  0  0  0  0  0
   -1.8980    2.1309   -0.7167 O   0  0  0  0  0  0  0  0  0  0  0  0
   -1.8051    1.7515   -2.8774 N   0  0  0  0  0  0  0  0  0  0  0  0
   -2.6866    2.2523   -2.9515 H   0  0  0  0  0  0  0  0  0  0  0  0
   -1.2244    1.6268   -3.7010 H   0  0  0  0  0  0  0  0  0  0  0  0
    0.7756   -0.0495    0.6288 C   0  0  0  0  0  0  0  0  0  0  0  0
    1.9732   -0.1106    0.8699 O   0  0  0  0  0  0  0  0  0  0  0  0
   -0.1061    0.3138    1.6313 N   0  0  0  0  0  0  0  0  0  0  0  0
   -1.0431    0.5803    1.3392 H   0  0  0  0  0  0  0  0  0  0  0  0
    0.3191    0.6221    2.9904 C   0  0  0  0  0  0  0  0  0  0  0  0
    0.9783    1.4963    2.9968 H   0  0  0  0  0  0  0  0  0  0  0  0
   -0.5505    0.8375    3.6185 H   0  0  0  0  0  0  0  0  0  0  0  0
    0.8560   -0.2278    3.4252 H   0  0  0  0  0  0  0  0  0  0  0  0
  1  2  1  0  0  0  0
  2  3  1  0  0  0  0
  2  4  1  0  0  0  0
  2  5  1  0  0  0  0
  5  6  2  0  0  0  0
  5  7  1  0  0  0  0
  7  8  1  0  0  0  0
  7  9  1  0  0  0  0
  9 10  1  0  0  0  0
  9 11  1  0  0  0  0
  9 19  1  0  0  0  0
 11 12  1  0  0  0  0
 11 13  1  0  0  0  0
 11 14  1  0  0  0  0
 14 15  2  0  0  0  0
 14 16  1  0  0  0  0
 16 17  1  0  0  0  0
 16 18  1  0  0  0  0
 19 20  2  0  0  0  0
 19 21  1  0  0  0  0
 21 22  1  0  0  0  0
 21 23  1  0  0  0  0
 23 24  1  0  0  0  0
 23 25  1  0  0  0  0
 23 26  1  0  0  0  0
M  END
$$$$

  -OEChem-03222214023D

 26 25  0     1  0  0  0  0  0999 V2000
   -2.5663   -3.7878   -0.0668 H   0  0  0  0  0  0  0  0  0  0  0  0
   -2.6048   -2.7544   -0.4229 C   0  0  0  0  0  0  0  0  0  0  0  0
   -3.2198   -2.1688    0.2645 H   0  0  0  0  0  0  0  0  0  0  0  0
   -3.0636   -2.7407   -1.4144 H   0  0  0  0  0  0  0  0  0  0  0  0
   -1.2048   -2.1737   -0.4906 C   0  0  0  0  0  0  0  0  0  0  0  0
   -0.2437   -2.8632   -0.1998 O   0  0  0  0  0  0  0  0  0  0  0  0
   -1.0225   -0.8690   -0.9066 N   0  0  0  0  0  0  0  0  0  0  0  0
   -1.8684   -0.3276   -1.0708 H   0  0  0  0  0  0  0  0  0  0  0  0
    0.2694   -0.1550   -0.8132 C   0  0  1  0  0  0  0  0  0  0  0  0
    1.0252   -0.7310   -1.3602 H   0  0  0  0  0  0  0  0  0  0  0  0
    0.2005    1.2697   -1.4201 C   0  0  0  0  0  0  0  0  0  0  0  0
    0.7318    1.9871   -0.7859 H   0  0  0  0  0  0  0  0  0  0  0  0
    0.7141    1.2618   -2.3847 H   0  0  0  0  0  0  0  0  0  0  0  0
   -1.2167    1.7703   -1.6433 C   0  0  0  0  0  0  0  0  0  0  0  0
   -1.8142    2.3828   -0.7809 O   0  0  0  0  0  0  0  0  0  0  0  0
   -1.9153    1.5050   -2.7870 N   0  0  0  0  0  0  0  0  0  0  0  0
   -2.7664    2.0466   -2.9144 H   0  0  0  0  0  0  0  0  0  0  0  0
   -1.3990    1.1849   -3.6008 H   0  0  0  0  0  0  0  0  0  0  0  0
    0.7804   -0.0445    0.6405 C   0  0  0  0  0  0  0  0  0  0  0  0
    1.9814   -0.0975    0.8661 O   0  0  0  0  0  0  0  0  0  0  0  0
   -0.0889    0.3216    1.6528 N   0  0  0  0  0  0  0  0  0  0  0  0
   -1.0372    0.5621    1.3779 H   0  0  0  0  0  0  0  0  0  0  0  0
    0.3520    0.6404    3.0045 C   0  0  0  0  0  0  0  0  0  0  0  0
    1.0076    1.5175    2.9970 H   0  0  0  0  0  0  0  0  0  0  0  0
   -0.5107    0.8566    3.6420 H   0  0  0  0  0  0  0  0  0  0  0  0
    0.8977   -0.2043    3.4383 H   0  0  0  0  0  0  0  0  0  0  0  0
  1  2  1  0  0  0  0
  2  3  1  0  0  0  0
  2  4  1  0  0  0  0
  2  5  1  0  0  0  0
  5  6  2  0  0  0  0
  5  7  1  0  0  0  0
  7  8  1  0  0  0  0
  7  9  1  0  0  0  0
  9 10  1  0  0  0  0
  9 11  1  0  0  0  0
  9 19  1  0  0  0  0
 11 12  1  0  0  0  0
 11 13  1  0  0  0  0
 11 14  1  0  0  0  0
 14 15  2  0  0  0  0
 14 16  1  0  0  0  0
 16 17  1  0  0  0  0
 16 18  1  0  0  0  0
 19 20  2  0  0  0  0
 19 21  1  0  0  0  0
 21 22  1  0  0  0  0
 21 23  1  0  0  0  0
 23 24  1  0  0  0  0
 23 25  1  0  0  0  0
 23 26  1  0  0  0  0
M  END
$$$$

  -OEChem-03222214023D

 26 25  0     1  0  0  0  0  0999 V2000
   -2.5604   -3.8274   -0.0726 H   0  0  0  0  0  0  0  0  0  0  0  0
   -2.6056   -2.7954   -0.4323 C   0  0  0  0  0  0  0  0  0  0  0  0
   -3.2635   -2.2232    0.2262 H   0  0  0  0  0  0  0  0  0  0  0  0
   -3.0202   -2.7932   -1.4432 H   0  0  0  0  0  0  0  0  0  0  0  0
   -1.2168   -2.1848   -0.4391 C   0  0  0  0  0  0  0  0  0  0  0  0
   -0.2571   -2.8506   -0.0945 O   0  0  0  0  0  0  0  0  0  0  0  0
   -1.0414   -0.8806   -0.8603 N   0  0  0  0  0  0  0  0  0  0  0  0
   -1.8817   -0.3679   -1.1196 H   0  0  0  0  0  0  0  0  0  0  0  0
    0.2455   -0.1553   -0.7881 C   0  0  1  0  0  0  0  0  0  0  0  0
    0.9962   -0.7344   -1.3389 H   0  0  0  0  0  0  0  0  0  0  0  0
    0.1679    1.2611   -1.4157 C   0  0  0  0  0  0  0  0  0  0  0  0
    0.7039    1.9860   -0.7936 H   0  0  0  0  0  0  0  0  0  0  0  0
    0.6775    1.2403   -2.3823 H   0  0  0  0  0  0  0  0  0  0  0  0
   -1.2471    1.7683   -1.6453 C   0  0  0  0  0  0  0  0  0  0  0  0
   -1.7502    2.6108   -0.9308 O   0  0  0  0  0  0  0  0  0  0  0  0
   -2.0187    1.3321   -2.6859 N   0  0  0  0  0  0  0  0  0  0  0  0
   -2.8304    1.9114   -2.8863 H   0  0  0  0  0  0  0  0  0  0  0  0
   -1.5518    0.8518   -3.4497 H   0  0  0  0  0  0  0  0  0  0  0  0
    0.7832   -0.0303    0.6552 C   0  0  0  0  0  0  0  0  0  0  0  0
    1.9899   -0.0596    0.8526 O   0  0  0  0  0  0  0  0  0  0  0  0
   -0.0650    0.3335    1.6859 N   0  0  0  0  0  0  0  0  0  0  0  0
   -1.0383    0.4996    1.4499 H   0  0  0  0  0  0  0  0  0  0  0  0
    0.3993    0.6434    3.0319 C   0  0  0  0  0  0  0  0  0  0  0  0
    1.0713    1.5077    3.0158 H   0  0  0  0  0  0  0  0  0  0  0  0
   -0.4504    0.8765    3.6804 H   0  0  0  0  0  0  0  0  0  0  0  0
    0.9344   -0.2118    3.4580 H   0  0  0  0  0  0  0  0  0  0  0  0
  1  2  1  0  0  0  0
  2  3  1  0  0  0  0
  2  4  1  0  0  0  0
  2  5  1  0  0  0  0
  5  6  2  0  0  0  0
  5  7  1  0  0  0  0
  7  8  1  0  0  0  0
  7  9  1  0  0  0  0
  9 10  1  0  0  0  0
  9 11  1  0  0  0  0
  9 19  1  0  0  0  0
 11 12  1  0  0  0  0
 11 13  1  0  0  0  0
 11 14  1  0  0  0  0
 14 15  2  0  0  0  0
 14 16  1  0  0  0  0
 16 17  1  0  0  0  0
 16 18  1  0  0  0  0
 19 20  2  0  0  0  0
 19 21  1  0  0  0  0
 21 22  1  0  0  0  0
 21 23  1  0  0  0  0
 23 24  1  0  0  0  0
 23 25  1  0  0  0  0
 23 26  1  0  0  0  0
M  END
$$$$

  -OEChem-03222214023D

 26 25  0     1  0  0  0  0  0999 V2000
   -2.5356   -3.8600   -0.0425 H   0  0  0  0  0  0  0  0  0  0  0  0
   -2.5944   -2.8281   -0.4009 C   0  0  0  0  0  0  0  0  0  0  0  0
   -3.2670   -2.2677    0.2529 H   0  0  0  0  0  0  0  0  0  0  0  0
   -3.0010   -2.8313   -1.4151 H   0  0  0  0  0  0  0  0  0  0  0  0
   -1.2158   -2.1945   -0.3953 C   0  0  0  0  0  0  0  0  0  0  0  0
   -0.2494   -2.8418   -0.0359 O   0  0  0  0  0  0  0  0  0  0  0  0
   -1.0578   -0.8888   -0.8189 N   0  0  0  0  0  0  0  0  0  0  0  0
   -1.9017   -0.3937   -1.1006 H   0  0  0  0  0  0  0  0  0  0  0  0
    0.2212   -0.1488   -0.7667 C   0  0  1  0  0  0  0  0  0  0  0  0
    0.9685   -0.7274   -1.3228 H   0  0  0  0  0  0  0  0  0  0  0  0
    0.1316    1.2608   -1.4111 C   0  0  0  0  0  0  0  0  0  0  0  0
    0.6710    1.9915   -0.7986 H   0  0  0  0  0  0  0  0  0  0  0  0
    0.6380    1.2293   -2.3790 H   0  0  0  0  0  0  0  0  0  0  0  0
   -1.2806    1.7766   -1.6483 C   0  0  0  0  0  0  0  0  0  0  0  0
   -1.6873    2.7979   -1.1343 O   0  0  0  0  0  0  0  0  0  0  0  0
   -2.1137    1.2228   -2.5807 N   0  0  0  0  0  0  0  0  0  0  0  0
   -2.8862    1.8236   -2.8593 H   0  0  0  0  0  0  0  0  0  0  0  0
   -1.6937    0.6095   -3.2733 H   0  0  0  0  0  0  0  0  0  0  0  0
    0.7832   -0.0142    0.6668 C   0  0  0  0  0  0  0  0  0  0  0  0
    1.9938   -0.0235    0.8405 O   0  0  0  0  0  0  0  0  0  0  0  0
   -0.0481    0.3413    1.7138 N   0  0  0  0  0  0  0  0  0  0  0  0
   -1.0391    0.4315    1.5153 H   0  0  0  0  0  0  0  0  0  0  0  0
    0.4343    0.6213    3.0600 C   0  0  0  0  0  0  0  0  0  0  0  0
    1.1219    1.4736    3.0509 H   0  0  0  0  0  0  0  0  0  0  0  0
   -0.4044    0.8607    3.7205 H   0  0  0  0  0  0  0  0  0  0  0  0
    0.9577   -0.2501    3.4674 H   0  0  0  0  0  0  0  0  0  0  0  0
  1  2  1  0  0  0  0
  2  3  1  0  0  0  0
  2  4  1  0  0  0  0
  2  5  1  0  0  0  0
  5  6  2  0  0  0  0
  5  7  1  0  0  0  0
  7  8  1  0  0  0  0
  7  9  1  0  0  0  0
  9 10  1  0  0  0  0
  9 11  1  0  0  0  0
  9 19  1  0  0  0  0
 11 12  1  0  0  0  0
 11 13  1  0  0  0  0
 11 14  1  0  0  0  0
 14 15  2  0  0  0  0
 14 16  1  0  0  0  0
 16 17  1  0  0  0  0
 16 18  1  0  0  0  0
 19 20  2  0  0  0  0
 19 21  1  0  0  0  0
 21 22  1  0  0  0  0
 21 23  1  0  0  0  0
 23 24  1  0  0  0  0
 23 25  1  0  0  0  0
 23 26  1  0  0  0  0
M  END
$$$$

  -OEChem-03222214023D

 26 25  0     1  0  0  0  0  0999 V2000
   -2.4936   -3.8811    0.0130 H   0  0  0  0  0  0  0  0  0  0  0  0
   -2.5728   -2.8501   -0.3435 C   0  0  0  0  0  0  0  0  0  0  0  0
   -3.2370   -2.2980    0.3257 H   0  0  0  0  0  0  0  0  0  0  0  0
   -3.0019   -2.8582   -1.3484 H   0  0  0  0  0  0  0  0  0  0  0  0
   -1.2019   -2.2005   -0.3685 C   0  0  0  0  0  0  0  0  0  0  0  0
   -0.2192   -2.8374   -0.0358 O   0  0  0  0  0  0  0  0  0  0  0  0
   -1.0706   -0.8899   -0.7865 N   0  0  0  0  0  0  0  0  0  0  0  0
   -1.9300   -0.3972   -1.0228 H   0  0  0  0  0  0  0  0  0  0  0  0
    0.1974   -0.1312   -0.7505 C   0  0  1  0  0  0  0  0  0  0  0  0
    0.9431   -0.7039   -1.3150 H   0  0  0  0  0  0  0  0  0  0  0  0
    0.0947    1.2757   -1.4015 C   0  0  0  0  0  0  0  0  0  0  0  0
    0.6364    2.0087   -0.7938 H   0  0  0  0  0  0  0  0  0  0  0  0
    0.5986    1.2392   -2.3706 H   0  0  0  0  0  0  0  0  0  0  0  0
   -1.3141    1.8030   -1.6450 C   0  0  0  0  0  0  0  0  0  0  0  0
   -1.6266    2.9416   -1.3651 O   0  0  0  0  0  0  0  0  0  0  0  0
   -2.2065    1.1635   -2.4608 N   0  0  0  0  0  0  0  0  0  0  0  0
   -2.9380    1.7722   -2.8212 H   0  0  0  0  0  0  0  0  0  0  0  0
   -1.8322    0.4407   -3.0690 H   0  0  0  0  0  0  0  0  0  0  0  0
    0.7807    0.0035    0.6744 C   0  0  0  0  0  0  0  0  0  0  0  0
    1.9938    0.0130    0.8283 O   0  0  0  0  0  0  0  0  0  0  0  0
   -0.0377    0.3397    1.7380 N   0  0  0  0  0  0  0  0  0  0  0  0
   -1.0375    0.3677    1.5696 H   0  0  0  0  0  0  0  0  0  0  0  0
    0.4616    0.5762    3.0868 C   0  0  0  0  0  0  0  0  0  0  0  0
    1.1708    1.4105    3.0927 H   0  0  0  0  0  0  0  0  0  0  0  0
   -0.3658    0.8217    3.7593 H   0  0  0  0  0  0  0  0  0  0  0  0
    0.9657   -0.3175    3.4695 H   0  0  0  0  0  0  0  0  0  0  0  0
  1  2  1  0  0  0  0
  2  3  1  0  0  0  0
  2  4  1  0  0  0  0
  2  5  1  0  0  0  0
  5  6  2  0  0  0  0
  5  7  1  0  0  0  0
  7  8  1  0  0  0  0
  7  9  1  0  0  0  0
  9 10  1  0  0  0  0
  9 11  1  0  0  0  0
  9 19  1  0  0  0  0
 11 12  1  0  0  0  0
 11 13  1  0  0  0  0
 11 14  1  0  0  0  0
 14 15  2  0  0  0  0
 14 16  1  0  0  0  0
 16 17  1  0  0  0  0
 16 18  1  0  0  0  0
 19 20  2  0  0  0  0
 19 21  1  0  0  0  0
 21 22  1  0  0  0  0
 21 23  1  0  0  0  0
 23 24  1  0  0  0  0
 23 25  1  0  0  0  0
 23 26  1  0  0  0  0
M  END
$$$$

  -OEChem-03222214023D

 26 25  0     1  0  0  0  0  0999 V2000
   -2.4427   -3.8946    0.0772 H   0  0  0  0  0  0  0  0  0  0  0  0
   -2.5456   -2.8655   -0.2791 C   0  0  0  0  0  0  0  0  0  0  0  0
   -3.1883   -2.3173    0.4137 H   0  0  0  0  0  0  0  0  0  0  0  0
   -3.0135   -2.8810   -1.2663 H   0  0  0  0  0  0  0  0  0  0  0  0
   -1.1829   -2.2036   -0.3611 C   0  0  0  0  0  0  0  0  0  0  0  0
   -0.1806   -2.8352   -0.0819 O   0  0  0  0  0  0  0  0  0  0  0  0
   -1.0816   -0.8860   -0.7662 N   0  0  0  0  0  0  0  0  0  0  0  0
   -1.9571   -0.3893   -0.9200 H   0  0  0  0  0  0  0  0  0  0  0  0
    0.1759   -0.1101   -0.7406 C   0  0  1  0  0  0  0  0  0  0  0  0
    0.9197   -0.6723   -1.3184 H   0  0  0  0  0  0  0  0  0  0  0  0
    0.0646    1.3023   -1.3829 C   0  0  0  0  0  0  0  0  0  0  0  0
    0.6120    2.0291   -0.7731 H   0  0  0  0  0  0  0  0  0  0  0  0
    0.5657    1.2682   -2.3540 H   0  0  0  0  0  0  0  0  0  0  0  0
   -1.3364    1.8534   -1.6283 C   0  0  0  0  0  0  0  0  0  0  0  0
   -1.5558    3.0464   -1.5958 O   0  0  0  0  0  0  0  0  0  0  0  0
   -2.2967    1.1585   -2.3104 N   0  0  0  0  0  0  0  0  0  0  0  0
   -2.9933    1.7624   -2.7414 H   0  0  0  0  0  0  0  0  0  0  0  0
   -1.9758    0.3481   -2.8322 H   0  0  0  0  0  0  0  0  0  0  0  0
    0.7770    0.0139    0.6781 C   0  0  0  0  0  0  0  0  0  0  0  0
    1.9916    0.0384    0.8165 O   0  0  0  0  0  0  0  0  0  0  0  0
   -0.0311    0.3246    1.7575 N   0  0  0  0  0  0  0  0  0  0  0  0
   -1.0343    0.3110    1.6103 H   0  0  0  0  0  0  0  0  0  0  0  0
    0.4828    0.5245    3.1069 C   0  0  0  0  0  0  0  0  0  0  0  0
    1.2041    1.3485    3.1248 H   0  0  0  0  0  0  0  0  0  0  0  0
   -0.3352    0.7678    3.7917 H   0  0  0  0  0  0  0  0  0  0  0  0
    0.9770   -0.3846    3.4655 H   0  0  0  0  0  0  0  0  0  0  0  0
  1  2  1  0  0  0  0
  2  3  1  0  0  0  0
  2  4  1  0  0  0  0
  2  5  1  0  0  0  0
  5  6  2  0  0  0  0
  5  7  1  0  0  0  0
  7  8  1  0  0  0  0
  7  9  1  0  0  0  0
  9 10  1  0  0  0  0
  9 11  1  0  0  0  0
  9 19  1  0  0  0  0
 11 12  1  0  0  0  0
 11 13  1  0  0  0  0
 11 14  1  0  0  0  0
 14 15  2  0  0  0  0
 14 16  1  0  0  0  0
 16 17  1  0  0  0  0
 16 18  1  0  0  0  0
 19 20  2  0  0  0  0
 19 21  1  0  0  0  0
 21 22  1  0  0  0  0
 21 23  1  0  0  0  0
 23 24  1  0  0  0  0
 23 25  1  0  0  0  0
 23 26  1  0  0  0  0
M  END
$$$$

  -OEChem-03222214023D

 26 25  0     1  0  0  0  0  0999 V2000
   -2.4702   -3.9699   -0.2876 H   0  0  0  0  0  0  0  0  0  0  0  0
   -2.5337   -2.9448   -0.6642 C   0  0  0  0  0  0  0  0  0  0  0  0
   -3.3781   -2.4450   -0.1836 H   0  0  0  0  0  0  0  0  0  0  0  0
   -2.7045   -2.9785   -1.7431 H   0  0  0  0  0  0  0  0  0  0  0  0
   -1.2473   -2.1982   -0.3643 C   0  0  0  0  0  0  0  0  0  0  0  0
   -0.3669   -2.7372    0.2800 O   0  0  0  0  0  0  0  0  0  0  0  0
   -1.0901   -0.8967   -0.8024 N   0  0  0  0  0  0  0  0  0  0  0  0
   -1.8191   -0.5466   -1.4212 H   0  0  0  0  0  0  0  0  0  0  0  0
    0.1882   -0.1546   -0.7593 C   0  0  1  0  0  0  0  0  0  0  0  0
    0.9348   -0.7456   -1.3034 H   0  0  0  0  0  0  0  0  0  0  0  0
    0.1088    1.2370   -1.4441 C   0  0  0  0  0  0  0  0  0  0  0  0
    0.8700    1.8966   -1.0149 H   0  0  0  0  0  0  0  0  0  0  0  0
    0.3701    1.0957   -2.4962 H   0  0  0  0  0  0  0  0  0  0  0  0
   -1.2216    1.9883   -1.4354 C   0  0  0  0  0  0  0  0  0  0  0  0
   -1.3162    3.0764   -1.9649 O   0  0  0  0  0  0  0  0  0  0  0  0
   -2.2928    1.6745   -0.6476 N   0  0  0  0  0  0  0  0  0  0  0  0
   -2.9412    2.4469   -0.5145 H   0  0  0  0  0  0  0  0  0  0  0  0
   -2.1179    1.0432    0.1251 H   0  0  0  0  0  0  0  0  0  0  0  0
    0.7669    0.0049    0.6664 C   0  0  0  0  0  0  0  0  0  0  0  0
    1.9781    0.1061    0.8009 O   0  0  0  0  0  0  0  0  0  0  0  0
   -0.0564    0.3724    1.7169 N   0  0  0  0  0  0  0  0  0  0  0  0
   -1.0151    0.0518    1.6460 H   0  0  0  0  0  0  0  0  0  0  0  0
    0.4695    0.6376    3.0516 C   0  0  0  0  0  0  0  0  0  0  0  0
    1.1953    1.4575    3.0230 H   0  0  0  0  0  0  0  0  0  0  0  0
   -0.3418    0.9225    3.7283 H   0  0  0  0  0  0  0  0  0  0  0  0
    0.9625   -0.2541    3.4536 H   0  0  0  0  0  0  0  0  0  0  0  0
  1  2  1  0  0  0  0
  2  3  1  0  0  0  0
  2  4  1  0  0  0  0
  2  5  1  0  0  0  0
  5  6  2  0  0  0  0
  5  7  1  0  0  0  0
  7  8  1  0  0  0  0
  7  9  1  0  0  0  0
  9 10  1  0  0  0  0
  9 11  1  0  0  0  0
  9 19  1  0  0  0  0
 11 12  1  0  0  0  0
 11 13  1  0  0  0  0
 11 14  1  0  0  0  0
 14 15  2  0  0  0  0
 14 16  1  0  0  0  0
 16 17  1  0  0  0  0
 16 18  1  0  0  0  0
 19 20  2  0  0  0  0
 19 21  1  0  0  0  0
 21 22  1  0  0  0  0
 21 23  1  0  0  0  0
 23 24  1  0  0  0  0
 23 25  1  0  0  0  0
 23 26  1  0  0  0  0
M  END
$$$$

  -OEChem-03222214023D

 26 25  0     1  0  0  0  0  0999 V2000
   -2.4842   -3.9461   -0.2293 H   0  0  0  0  0  0  0  0  0  0  0  0
   -2.5426   -2.9245   -0.6158 C   0  0  0  0  0  0  0  0  0  0  0  0
   -3.3463   -2.3971   -0.0965 H   0  0  0  0  0  0  0  0  0  0  0  0
   -2.7734   -2.9663   -1.6831 H   0  0  0  0  0  0  0  0  0  0  0  0
   -1.2235   -2.2077   -0.3967 C   0  0  0  0  0  0  0  0  0  0  0  0
   -0.3137   -2.7691    0.1856 O   0  0  0  0  0  0  0  0  0  0  0  0
   -1.0677   -0.9047   -0.8296 N   0  0  0  0  0  0  0  0  0  0  0  0
   -1.8453   -0.5063   -1.3516 H   0  0  0  0  0  0  0  0  0  0  0  0
    0.2047   -0.1522   -0.7845 C   0  0  1  0  0  0  0  0  0  0  0  0
    0.9602   -0.7313   -1.3290 H   0  0  0  0  0  0  0  0  0  0  0  0
    0.1016    1.2385   -1.4622 C   0  0  0  0  0  0  0  0  0  0  0  0
    0.8460    1.9155   -1.0315 H   0  0  0  0  0  0  0  0  0  0  0  0
    0.3552    1.1140   -2.5186 H   0  0  0  0  0  0  0  0  0  0  0  0
   -1.2579    1.9252   -1.4147 C   0  0  0  0  0  0  0  0  0  0  0  0
   -1.5091    2.8672   -2.1376 O   0  0  0  0  0  0  0  0  0  0  0  0
   -2.0946    1.8325   -0.3398 N   0  0  0  0  0  0  0  0  0  0  0  0
   -2.7420    2.6140   -0.2732 H   0  0  0  0  0  0  0  0  0  0  0  0
   -1.6685    1.4918    0.5162 H   0  0  0  0  0  0  0  0  0  0  0  0
    0.7616   -0.0035    0.6496 C   0  0  0  0  0  0  0  0  0  0  0  0
    1.9656    0.1435    0.8034 O   0  0  0  0  0  0  0  0  0  0  0  0
   -0.0939    0.3480    1.6810 N   0  0  0  0  0  0  0  0  0  0  0  0
   -1.0260   -0.0462    1.6001 H   0  0  0  0  0  0  0  0  0  0  0  0
    0.4024    0.6145    3.0272 C   0  0  0  0  0  0  0  0  0  0  0  0
    1.1167    1.4448    3.0177 H   0  0  0  0  0  0  0  0  0  0  0  0
   -0.4257    0.8839    3.6897 H   0  0  0  0  0  0  0  0  0  0  0  0
    0.9001   -0.2722    3.4343 H   0  0  0  0  0  0  0  0  0  0  0  0
  1  2  1  0  0  0  0
  2  3  1  0  0  0  0
  2  4  1  0  0  0  0
  2  5  1  0  0  0  0
  5  6  2  0  0  0  0
  5  7  1  0  0  0  0
  7  8  1  0  0  0  0
  7  9  1  0  0  0  0
  9 10  1  0  0  0  0
  9 11  1  0  0  0  0
  9 19  1  0  0  0  0
 11 12  1  0  0  0  0
 11 13  1  0  0  0  0
 11 14  1  0  0  0  0
 14 15  2  0  0  0  0
 14 16  1  0  0  0  0
 16 17  1  0  0  0  0
 16 18  1  0  0  0  0
 19 20  2  0  0  0  0
 19 21  1  0  0  0  0
 21 22  1  0  0  0  0
 21 23  1  0  0  0  0
 23 24  1  0  0  0  0
 23 25  1  0  0  0  0
 23 26  1  0  0  0  0
M  END
$$$$

  -OEChem-03222214023D

 26 25  0     1  0  0  0  0  0999 V2000
   -2.5078   -3.9210   -0.2518 H   0  0  0  0  0  0  0  0  0  0  0  0
   -2.5636   -2.8911   -0.6159 C   0  0  0  0  0  0  0  0  0  0  0  0
   -3.3660   -2.3729   -0.0854 H   0  0  0  0  0  0  0  0  0  0  0  0
   -2.7945   -2.9094   -1.6839 H   0  0  0  0  0  0  0  0  0  0  0  0
   -1.2428   -2.1822   -0.3813 C   0  0  0  0  0  0  0  0  0  0  0  0
   -0.3427   -2.7491    0.2111 O   0  0  0  0  0  0  0  0  0  0  0  0
   -1.0742   -0.8821   -0.8178 N   0  0  0  0  0  0  0  0  0  0  0  0
   -1.8378   -0.4910   -1.3650 H   0  0  0  0  0  0  0  0  0  0  0  0
    0.2080   -0.1456   -0.7803 C   0  0  1  0  0  0  0  0  0  0  0  0
    0.9552   -0.7261   -1.3345 H   0  0  0  0  0  0  0  0  0  0  0  0
    0.1003    1.2495   -1.4446 C   0  0  0  0  0  0  0  0  0  0  0  0
    0.8488    1.9259   -1.0203 H   0  0  0  0  0  0  0  0  0  0  0  0
    0.3350    1.1365   -2.5069 H   0  0  0  0  0  0  0  0  0  0  0  0
   -1.2662    1.9144   -1.3537 C   0  0  0  0  0  0  0  0  0  0  0  0
   -1.6613    2.6733   -2.2148 O   0  0  0  0  0  0  0  0  0  0  0  0
   -1.9606    1.9867   -0.1801 N   0  0  0  0  0  0  0  0  0  0  0  0
   -2.6374    2.7450   -0.1548 H   0  0  0  0  0  0  0  0  0  0  0  0
   -1.4307    1.7832    0.6631 H   0  0  0  0  0  0  0  0  0  0  0  0
    0.7740   -0.0014    0.6508 C   0  0  0  0  0  0  0  0  0  0  0  0
    1.9805    0.1274    0.8017 O   0  0  0  0  0  0  0  0  0  0  0  0
   -0.0723    0.3628    1.6850 N   0  0  0  0  0  0  0  0  0  0  0  0
   -1.0220    0.0145    1.5894 H   0  0  0  0  0  0  0  0  0  0  0  0
    0.4259    0.5971    3.0361 C   0  0  0  0  0  0  0  0  0  0  0  0
    1.1521    1.4171    3.0414 H   0  0  0  0  0  0  0  0  0  0  0  0
   -0.3990    0.8655    3.7030 H   0  0  0  0  0  0  0  0  0  0  0  0
    0.9108   -0.3041    3.4267 H   0  0  0  0  0  0  0  0  0  0  0  0
  1  2  1  0  0  0  0
  2  3  1  0  0  0  0
  2  4  1  0  0  0  0
  2  5  1  0  0  0  0
  5  6  2  0  0  0  0
  5  7  1  0  0  0  0
  7  8  1  0  0  0  0
  7  9  1  0  0  0  0
  9 10  1  0  0  0  0
  9 11  1  0  0  0  0
  9 19  1  0  0  0  0
 11 12  1  0  0  0  0
 11 13  1  0  0  0  0
 11 14  1  0  0  0  0
 14 15  2  0  0  0  0
 14 16  1  0  0  0  0
 16 17  1  0  0  0  0
 16 18  1  0  0  0  0
 19 20  2  0  0  0  0
 19 21  1  0  0  0  0
 21 22  1  0  0  0  0
 21 23  1  0  0  0  0
 23 24  1  0  0  0  0
 23 25  1  0  0  0  0
 23 26  1  0  0  0  0
M  END
$$$$

  -OEChem-03222214023D

 26 25  0     1  0  0  0  0  0999 V2000
   -2.5392   -3.8813   -0.2622 H   0  0  0  0  0  0  0  0  0  0  0  0
   -2.5879   -2.8482   -0.6184 C   0  0  0  0  0  0  0  0  0  0  0  0
   -3.3944   -2.3317   -0.0925 H   0  0  0  0  0  0  0  0  0  0  0  0
   -2.8067   -2.8570   -1.6890 H   0  0  0  0  0  0  0  0  0  0  0  0
   -1.2675   -2.1459   -0.3635 C   0  0  0  0  0  0  0  0  0  0  0  0
   -0.3797   -2.7197    0.2410 O   0  0  0  0  0  0  0  0  0  0  0  0
   -1.0821   -0.8498   -0.8055 N   0  0  0  0  0  0  0  0  0  0  0  0
   -1.8270   -0.4656   -1.3833 H   0  0  0  0  0  0  0  0  0  0  0  0
    0.2126   -0.1353   -0.7727 C   0  0  1  0  0  0  0  0  0  0  0  0
    0.9485   -0.7249   -1.3323 H   0  0  0  0  0  0  0  0  0  0  0  0
    0.1134    1.2621   -1.4300 C   0  0  0  0  0  0  0  0  0  0  0  0
    0.8708    1.9325   -1.0125 H   0  0  0  0  0  0  0  0  0  0  0  0
    0.3336    1.1535   -2.4959 H   0  0  0  0  0  0  0  0  0  0  0  0
   -1.2526    1.9222   -1.3119 C   0  0  0  0  0  0  0  0  0  0  0  0
   -1.7844    2.4671   -2.2579 O   0  0  0  0  0  0  0  0  0  0  0  0
   -1.8387    2.1541   -0.1003 N   0  0  0  0  0  0  0  0  0  0  0  0
   -2.5518    2.8786   -0.1124 H   0  0  0  0  0  0  0  0  0  0  0  0
   -1.2440    2.0621    0.7197 H   0  0  0  0  0  0  0  0  0  0  0  0
    0.7870    0.0055    0.6556 C   0  0  0  0  0  0  0  0  0  0  0  0
    1.9971    0.0999    0.8037 O   0  0  0  0  0  0  0  0  0  0  0  0
   -0.0455    0.3886    1.6938 N   0  0  0  0  0  0  0  0  0  0  0  0
   -1.0163    0.1098    1.5813 H   0  0  0  0  0  0  0  0  0  0  0  0
    0.4537    0.5794    3.0512 C   0  0  0  0  0  0  0  0  0  0  0  0
    1.2112    1.3702    3.0758 H   0  0  0  0  0  0  0  0  0  0  0  0
   -0.3644    0.8673    3.7183 H   0  0  0  0  0  0  0  0  0  0  0  0
    0.9006   -0.3468    3.4283 H   0  0  0  0  0  0  0  0  0  0  0  0
  1  2  1  0  0  0  0
  2  3  1  0  0  0  0
  2  4  1  0  0  0  0
  2  5  1  0  0  0  0
  5  6  2  0  0  0  0
  5  7  1  0  0  0  0
  7  8  1  0  0  0  0
  7  9  1  0  0  0  0
  9 10  1  0  0  0  0
  9 11  1  0  0  0  0
  9 19  1  0  0  0  0
 11 12  1  0  0  0  0
 11 13  1  0  0  0  0
 11 14  1  0  0  0  0
 14 15  2  0  0  0  0
 14 16  1  0  0  0  0
 16 17  1  0  0  0  0
 16 18  1  0  0  0  0
 19 20  2  0  0  0  0
 19 21  1  0  0  0  0
 21 22  1  0  0  0  0
 21 23  1  0  0  0  0
 23 24  1  0  0  0  0
 23 25  1  0  0  0  0
 23 26  1  0  0  0  0
M  END
$$$$

  -OEChem-03222214023D

 26 25  0     1  0  0  0  0  0999 V2000
   -2.5855   -3.8252   -0.2483 H   0  0  0  0  0  0  0  0  0  0  0  0
   -2.6122   -2.7959   -0.6172 C   0  0  0  0  0  0  0  0  0  0  0  0
   -3.4112   -2.2574   -0.1019 H   0  0  0  0  0  0  0  0  0  0  0  0
   -2.8261   -2.8131   -1.6886 H   0  0  0  0  0  0  0  0  0  0  0  0
   -1.2804   -2.1152   -0.3633 C   0  0  0  0  0  0  0  0  0  0  0  0
   -0.4021   -2.7017    0.2430 O   0  0  0  0  0  0  0  0  0  0  0  0
   -1.0745   -0.8233   -0.8074 N   0  0  0  0  0  0  0  0  0  0  0  0
   -1.8073   -0.4331   -1.3978 H   0  0  0  0  0  0  0  0  0  0  0  0
    0.2294   -0.1264   -0.7709 C   0  0  1  0  0  0  0  0  0  0  0  0
    0.9601   -0.7203   -1.3325 H   0  0  0  0  0  0  0  0  0  0  0  0
    0.1347    1.2735   -1.4203 C   0  0  0  0  0  0  0  0  0  0  0  0
    0.8955    1.9410   -1.0043 H   0  0  0  0  0  0  0  0  0  0  0  0
    0.3477    1.1715   -2.4883 H   0  0  0  0  0  0  0  0  0  0  0  0
   -1.2340    1.9228   -1.2823 C   0  0  0  0  0  0  0  0  0  0  0  0
   -1.8976    2.2333   -2.2511 O   0  0  0  0  0  0  0  0  0  0  0  0
   -1.7290    2.3077   -0.0690 N   0  0  0  0  0  0  0  0  0  0  0  0
   -2.4923    2.9778   -0.1090 H   0  0  0  0  0  0  0  0  0  0  0  0
   -1.0800    2.3351    0.7137 H   0  0  0  0  0  0  0  0  0  0  0  0
    0.8035    0.0127    0.6574 C   0  0  0  0  0  0  0  0  0  0  0  0
    2.0149    0.0814    0.8092 O   0  0  0  0  0  0  0  0  0  0  0  0
   -0.0232    0.4116    1.6938 N   0  0  0  0  0  0  0  0  0  0  0  0
   -1.0071    0.1911    1.5656 H   0  0  0  0  0  0  0  0  0  0  0  0
    0.4691    0.5855    3.0555 C   0  0  0  0  0  0  0  0  0  0  0  0
    1.2519    1.3508    3.0873 H   0  0  0  0  0  0  0  0  0  0  0  0
   -0.3448    0.9001    3.7154 H   0  0  0  0  0  0  0  0  0  0  0  0
    0.8817   -0.3551    3.4356 H   0  0  0  0  0  0  0  0  0  0  0  0
  1  2  1  0  0  0  0
  2  3  1  0  0  0  0
  2  4  1  0  0  0  0
  2  5  1  0  0  0  0
  5  6  2  0  0  0  0
  5  7  1  0  0  0  0
  7  8  1  0  0  0  0
  7  9  1  0  0  0  0
  9 10  1  0  0  0  0
  9 11  1  0  0  0  0
  9 19  1  0  0  0  0
 11 12  1  0  0  0  0
 11 13  1  0  0  0  0
 11 14  1  0  0  0  0
 14 15  2  0  0  0  0
 14 16  1  0  0  0  0
 16 17  1  0  0  0  0
 16 18  1  0  0  0  0
 19 20  2  0  0  0  0
 19 21  1  0  0  0  0
 21 22  1  0  0  0  0
 21 23  1  0  0  0  0
 23 24  1  0  0  0  0
 23 25  1  0  0  0  0
 23 26  1  0  0  0  0
M  END
$$$$

  -OEChem-03222214023D

 26 25  0     1  0  0  0  0  0999 V2000
   -2.6240   -3.7755   -0.2367 H   0  0  0  0  0  0  0  0  0  0  0  0
   -2.6320   -2.7493   -0.6150 C   0  0  0  0  0  0  0  0  0  0  0  0
   -3.4230   -2.1926   -0.1067 H   0  0  0  0  0  0  0  0  0  0  0  0
   -2.8432   -2.7717   -1.6869 H   0  0  0  0  0  0  0  0  0  0  0  0
   -1.2889   -2.0898   -0.3645 C   0  0  0  0  0  0  0  0  0  0  0  0
   -0.4184   -2.6899    0.2401 O   0  0  0  0  0  0  0  0  0  0  0  0
   -1.0632   -0.8033   -0.8135 N   0  0  0  0  0  0  0  0  0  0  0  0
   -1.7911   -0.4000   -1.4032 H   0  0  0  0  0  0  0  0  0  0  0  0
    0.2479   -0.1212   -0.7744 C   0  0  1  0  0  0  0  0  0  0  0  0
    0.9751   -0.7200   -1.3353 H   0  0  0  0  0  0  0  0  0  0  0  0
    0.1570    1.2798   -1.4204 C   0  0  0  0  0  0  0  0  0  0  0  0
    0.9212    1.9451   -1.0069 H   0  0  0  0  0  0  0  0  0  0  0  0
    0.3630    1.1816   -2.4902 H   0  0  0  0  0  0  0  0  0  0  0  0
   -1.2132    1.9221   -1.2695 C   0  0  0  0  0  0  0  0  0  0  0  0
   -1.9928    1.9897   -2.1994 O   0  0  0  0  0  0  0  0  0  0  0  0
   -1.6265    2.4701   -0.0887 N   0  0  0  0  0  0  0  0  0  0  0  0
   -2.4415    3.0748   -0.1451 H   0  0  0  0  0  0  0  0  0  0  0  0
   -0.9300    2.6267    0.6352 H   0  0  0  0  0  0  0  0  0  0  0  0
    0.8181    0.0200    0.6550 C   0  0  0  0  0  0  0  0  0  0  0  0
    2.0299    0.0631    0.8143 O   0  0  0  0  0  0  0  0  0  0  0  0
   -0.0064    0.4345    1.6863 N   0  0  0  0  0  0  0  0  0  0  0  0
   -0.9991    0.2725    1.5414 H   0  0  0  0  0  0  0  0  0  0  0  0
    0.4755    0.6036    3.0519 C   0  0  0  0  0  0  0  0  0  0  0  0
    1.2718    1.3547    3.0888 H   0  0  0  0  0  0  0  0  0  0  0  0
   -0.3394    0.9348    3.7024 H   0  0  0  0  0  0  0  0  0  0  0  0
    0.8666   -0.3435    3.4387 H   0  0  0  0  0  0  0  0  0  0  0  0
  1  2  1  0  0  0  0
  2  3  1  0  0  0  0
  2  4  1  0  0  0  0
  2  5  1  0  0  0  0
  5  6  2  0  0  0  0
  5  7  1  0  0  0  0
  7  8  1  0  0  0  0
  7  9  1  0  0  0  0
  9 10  1  0  0  0  0
  9 11  1  0  0  0  0
  9 19  1  0  0  0  0
 11 12  1  0  0  0  0
 11 13  1  0  0  0  0
 11 14  1  0  0  0  0
 14 15  2  0  0  0  0
 14 16  1  0  0  0  0
 16 17  1  0  0  0  0
 16 18  1  0  0  0  0
 19 20  2  0  0  0  0
 19 21  1  0  0  0  0
 21 22  1  0  0  0  0
 21 23  1  0  0  0  0
 23 24  1  0  0  0  0
 23 25  1  0  0  0  0
 23 26  1  0  0  0  0
M  END
$$$$

  -OEChem-03222214023D

 26 25  0     1  0  0  0  0  0999 V2000
   -2.6411   -3.7487   -0.2368 H   0  0  0  0  0  0  0  0  0  0  0  0
   -2.6433   -2.7188   -0.6049 C   0  0  0  0  0  0  0  0  0  0  0  0
   -3.4200   -2.1579   -0.0797 H   0  0  0  0  0  0  0  0  0  0  0  0
   -2.8708   -2.7287   -1.6737 H   0  0  0  0  0  0  0  0  0  0  0  0
   -1.2893   -2.0764   -0.3685 C   0  0  0  0  0  0  0  0  0  0  0  0
   -0.4197   -2.6880    0.2264 O   0  0  0  0  0  0  0  0  0  0  0  0
   -1.0513   -0.7940   -0.8214 N   0  0  0  0  0  0  0  0  0  0  0  0
   -1.7855   -0.3696   -1.3909 H   0  0  0  0  0  0  0  0  0  0  0  0
    0.2617   -0.1177   -0.7808 C   0  0  1  0  0  0  0  0  0  0  0  0
    0.9887   -0.7204   -1.3374 H   0  0  0  0  0  0  0  0  0  0  0  0
    0.1759    1.2829   -1.4291 C   0  0  0  0  0  0  0  0  0  0  0  0
    0.9428    1.9461   -1.0176 H   0  0  0  0  0  0  0  0  0  0  0  0
    0.3796    1.1837   -2.4991 H   0  0  0  0  0  0  0  0  0  0  0  0
   -1.1943    1.9252   -1.2786 C   0  0  0  0  0  0  0  0  0  0  0  0
   -2.0686    1.7602   -2.1087 O   0  0  0  0  0  0  0  0  0  0  0  0
   -1.5284    2.6586   -0.1761 N   0  0  0  0  0  0  0  0  0  0  0  0
   -2.3891    3.1953   -0.2389 H   0  0  0  0  0  0  0  0  0  0  0  0
   -0.7873    2.9562    0.4524 H   0  0  0  0  0  0  0  0  0  0  0  0
    0.8251    0.0273    0.6504 C   0  0  0  0  0  0  0  0  0  0  0  0
    2.0364    0.0580    0.8175 O   0  0  0  0  0  0  0  0  0  0  0  0
   -0.0021    0.4503    1.6759 N   0  0  0  0  0  0  0  0  0  0  0  0
   -0.9978    0.3244    1.5180 H   0  0  0  0  0  0  0  0  0  0  0  0
    0.4689    0.6182    3.0453 C   0  0  0  0  0  0  0  0  0  0  0  0
    1.2730    1.3606    3.0877 H   0  0  0  0  0  0  0  0  0  0  0  0
   -0.3485    0.9601    3.6873 H   0  0  0  0  0  0  0  0  0  0  0  0
    0.8460   -0.3319    3.4386 H   0  0  0  0  0  0  0  0  0  0  0  0
  1  2  1  0  0  0  0
  2  3  1  0  0  0  0
  2  4  1  0  0  0  0
  2  5  1  0  0  0  0
  5  6  2  0  0  0  0
  5  7  1  0  0  0  0
  7  8  1  0  0  0  0
  7  9  1  0  0  0  0
  9 10  1  0  0  0  0
  9 11  1  0  0  0  0
  9 19  1  0  0  0  0
 11 12  1  0  0  0  0
 11 13  1  0  0  0  0
 11 14  1  0  0  0  0
 14 15  2  0  0  0  0
 14 16  1  0  0  0  0
 16 17  1  0  0  0  0
 16 18  1  0  0  0  0
 19 20  2  0  0  0  0
 19 21  1  0  0  0  0
 21 22  1  0  0  0  0
 21 23  1  0  0  0  0
 23 24  1  0  0  0  0
 23 25  1  0  0  0  0
 23 26  1  0  0  0  0
M  END
$$$$

  -OEChem-03222214023D

 26 25  0     1  0  0  0  0  0999 V2000
   -2.6401   -3.7469   -0.2211 H   0  0  0  0  0  0  0  0  0  0  0  0
   -2.6421   -2.7143   -0.5815 C   0  0  0  0  0  0  0  0  0  0  0  0
   -3.3971   -2.1490   -0.0298 H   0  0  0  0  0  0  0  0  0  0  0  0
   -2.9001   -2.7128   -1.6434 H   0  0  0  0  0  0  0  0  0  0  0  0
   -1.2756   -2.0874   -0.3802 C   0  0  0  0  0  0  0  0  0  0  0  0
   -0.3937   -2.7117    0.1828 O   0  0  0  0  0  0  0  0  0  0  0  0
   -1.0391   -0.8048   -0.8312 N   0  0  0  0  0  0  0  0  0  0  0  0
   -1.7940   -0.3538   -1.3536 H   0  0  0  0  0  0  0  0  0  0  0  0
    0.2673   -0.1194   -0.7891 C   0  0  1  0  0  0  0  0  0  0  0  0
    0.9990   -0.7192   -1.3424 H   0  0  0  0  0  0  0  0  0  0  0  0
    0.1826    1.2841   -1.4346 C   0  0  0  0  0  0  0  0  0  0  0  0
    0.9537    1.9415   -1.0216 H   0  0  0  0  0  0  0  0  0  0  0  0
    0.3889    1.1846   -2.5037 H   0  0  0  0  0  0  0  0  0  0  0  0
   -1.1832    1.9432   -1.2985 C   0  0  0  0  0  0  0  0  0  0  0  0
   -2.1363    1.5921   -1.9718 O   0  0  0  0  0  0  0  0  0  0  0  0
   -1.4338    2.8824   -0.3398 N   0  0  0  0  0  0  0  0  0  0  0  0
   -2.3185    3.3769   -0.4127 H   0  0  0  0  0  0  0  0  0  0  0  0
   -0.6506    3.3054    0.1495 H   0  0  0  0  0  0  0  0  0  0  0  0
    0.8227    0.0282    0.6444 C   0  0  0  0  0  0  0  0  0  0  0  0
    2.0331    0.0634    0.8187 O   0  0  0  0  0  0  0  0  0  0  0  0
   -0.0131    0.4444    1.6652 N   0  0  0  0  0  0  0  0  0  0  0  0
   -1.0083    0.3299    1.4977 H   0  0  0  0  0  0  0  0  0  0  0  0
    0.4473    0.6237    3.0364 C   0  0  0  0  0  0  0  0  0  0  0  0
    1.2497    1.3677    3.0784 H   0  0  0  0  0  0  0  0  0  0  0  0
   -0.3754    0.9693    3.6695 H   0  0  0  0  0  0  0  0  0  0  0  0
    0.8229   -0.3229    3.4391 H   0  0  0  0  0  0  0  0  0  0  0  0
  1  2  1  0  0  0  0
  2  3  1  0  0  0  0
  2  4  1  0  0  0  0
  2  5  1  0  0  0  0
  5  6  2  0  0  0  0
  5  7  1  0  0  0  0
  7  8  1  0  0  0  0
  7  9  1  0  0  0  0
  9 10  1  0  0  0  0
  9 11  1  0  0  0  0
  9 19  1  0  0  0  0
 11 12  1  0  0  0  0
 11 13  1  0  0  0  0
 11 14  1  0  0  0  0
 14 15  2  0  0  0  0
 14 16  1  0  0  0  0
 16 17  1  0  0  0  0
 16 18  1  0  0  0  0
 19 20  2  0  0  0  0
 19 21  1  0  0  0  0
 21 22  1  0  0  0  0
 21 23  1  0  0  0  0
 23 24  1  0  0  0  0
 23 25  1  0  0  0  0
 23 26  1  0  0  0  0
M  END
$$$$

  -OEChem-03222214023D

 26 25  0     1  0  0  0  0  0999 V2000
   -2.6126   -3.7755   -0.1891 H   0  0  0  0  0  0  0  0  0  0  0  0
   -2.6265   -2.7434   -0.5507 C   0  0  0  0  0  0  0  0  0  0  0  0
   -3.3646   -2.1781    0.0231 H   0  0  0  0  0  0  0  0  0  0  0  0
   -2.9172   -2.7434   -1.6041 H   0  0  0  0  0  0  0  0  0  0  0  0
   -1.2547   -2.1155   -0.3927 C   0  0  0  0  0  0  0  0  0  0  0  0
   -0.3503   -2.7455    0.1269 O   0  0  0  0  0  0  0  0  0  0  0  0
   -1.0364   -0.8273   -0.8364 N   0  0  0  0  0  0  0  0  0  0  0  0
   -1.8200   -0.3544   -1.2941 H   0  0  0  0  0  0  0  0  0  0  0  0
    0.2574   -0.1215   -0.7958 C   0  0  1  0  0  0  0  0  0  0  0  0
    0.9957   -0.7120   -1.3506 H   0  0  0  0  0  0  0  0  0  0  0  0
    0.1713    1.2891   -1.4325 C   0  0  0  0  0  0  0  0  0  0  0  0
    0.9477    1.9357   -1.0122 H   0  0  0  0  0  0  0  0  0  0  0  0
    0.3853    1.1918   -2.5001 H   0  0  0  0  0  0  0  0  0  0  0  0
   -1.1839    1.9806   -1.3174 C   0  0  0  0  0  0  0  0  0  0  0  0
   -2.2070    1.5113   -1.7867 O   0  0  0  0  0  0  0  0  0  0  0  0
   -1.3368    3.1278   -0.5932 N   0  0  0  0  0  0  0  0  0  0  0  0
   -2.2330    3.6002   -0.6720 H   0  0  0  0  0  0  0  0  0  0  0  0
   -0.5123    3.6374   -0.2906 H   0  0  0  0  0  0  0  0  0  0  0  0
    0.8091    0.0236    0.6390 C   0  0  0  0  0  0  0  0  0  0  0  0
    2.0187    0.0743    0.8157 O   0  0  0  0  0  0  0  0  0  0  0  0
   -0.0351    0.4189    1.6612 N   0  0  0  0  0  0  0  0  0  0  0  0
   -1.0294    0.3035    1.4887 H   0  0  0  0  0  0  0  0  0  0  0  0
    0.4197    0.6145    3.0318 C   0  0  0  0  0  0  0  0  0  0  0  0
    1.2082    1.3735    3.0709 H   0  0  0  0  0  0  0  0  0  0  0  0
   -0.4103    0.9487    3.6616 H   0  0  0  0  0  0  0  0  0  0  0  0
    0.8122   -0.3224    3.4408 H   0  0  0  0  0  0  0  0  0  0  0  0
  1  2  1  0  0  0  0
  2  3  1  0  0  0  0
  2  4  1  0  0  0  0
  2  5  1  0  0  0  0
  5  6  2  0  0  0  0
  5  7  1  0  0  0  0
  7  8  1  0  0  0  0
  7  9  1  0  0  0  0
  9 10  1  0  0  0  0
  9 11  1  0  0  0  0
  9 19  1  0  0  0  0
 11 12  1  0  0  0  0
 11 13  1  0  0  0  0
 11 14  1  0  0  0  0
 14 15  2  0  0  0  0
 14 16  1  0  0  0  0
 16 17  1  0  0  0  0
 16 18  1  0  0  0  0
 19 20  2  0  0  0  0
 19 21  1  0  0  0  0
 21 22  1  0  0  0  0
 21 23  1  0  0  0  0
 23 24  1  0  0  0  0
 23 25  1  0  0  0  0
 23 26  1  0  0  0  0
M  END
$$$$

  -OEChem-03222214023D

 26 25  0     1  0  0  0  0  0999 V2000
   -2.5773   -3.7936   -0.1291 H   0  0  0  0  0  0  0  0  0  0  0  0
   -2.6036   -2.7652   -0.5003 C   0  0  0  0  0  0  0  0  0  0  0  0
   -3.3111   -2.1904    0.1022 H   0  0  0  0  0  0  0  0  0  0  0  0
   -2.9442   -2.7736   -1.5385 H   0  0  0  0  0  0  0  0  0  0  0  0
   -1.2232   -2.1421   -0.4144 C   0  0  0  0  0  0  0  0  0  0  0  0
   -0.2905   -2.7810    0.0407 O   0  0  0  0  0  0  0  0  0  0  0  0
   -1.0303   -0.8463   -0.8472 N   0  0  0  0  0  0  0  0  0  0  0  0
   -1.8460   -0.3525   -1.2184 H   0  0  0  0  0  0  0  0  0  0  0  0
    0.2488   -0.1162   -0.8040 C   0  0  1  0  0  0  0  0  0  0  0  0
    0.9966   -0.6925   -1.3605 H   0  0  0  0  0  0  0  0  0  0  0  0
    0.1548    1.3017   -1.4303 C   0  0  0  0  0  0  0  0  0  0  0  0
    0.9300    1.9422   -0.9984 H   0  0  0  0  0  0  0  0  0  0  0  0
    0.3810    1.2096   -2.4959 H   0  0  0  0  0  0  0  0  0  0  0  0
   -1.1931    2.0178   -1.3358 C   0  0  0  0  0  0  0  0  0  0  0  0
   -2.2650    1.4858   -1.5718 O   0  0  0  0  0  0  0  0  0  0  0  0
   -1.2715    3.3150   -0.9176 N   0  0  0  0  0  0  0  0  0  0  0  0
   -2.1765    3.7695   -0.9999 H   0  0  0  0  0  0  0  0  0  0  0  0
   -0.4230    3.8655   -0.8294 H   0  0  0  0  0  0  0  0  0  0  0  0
    0.7941    0.0228    0.6339 C   0  0  0  0  0  0  0  0  0  0  0  0
    2.0026    0.0808    0.8169 O   0  0  0  0  0  0  0  0  0  0  0  0
   -0.0589    0.3903    1.6590 N   0  0  0  0  0  0  0  0  0  0  0  0
   -1.0524    0.2836    1.4773 H   0  0  0  0  0  0  0  0  0  0  0  0
    0.3882    0.5820    3.0326 C   0  0  0  0  0  0  0  0  0  0  0  0
    1.1596    1.3578    3.0806 H   0  0  0  0  0  0  0  0  0  0  0  0
   -0.4502    0.8917    3.6637 H   0  0  0  0  0  0  0  0  0  0  0  0
    0.8001   -0.3501    3.4334 H   0  0  0  0  0  0  0  0  0  0  0  0
  1  2  1  0  0  0  0
  2  3  1  0  0  0  0
  2  4  1  0  0  0  0
  2  5  1  0  0  0  0
  5  6  2  0  0  0  0
  5  7  1  0  0  0  0
  7  8  1  0  0  0  0
  7  9  1  0  0  0  0
  9 10  1  0  0  0  0
  9 11  1  0  0  0  0
  9 19  1  0  0  0  0
 11 12  1  0  0  0  0
 11 13  1  0  0  0  0
 11 14  1  0  0  0  0
 14 15  2  0  0  0  0
 14 16  1  0  0  0  0
 16 17  1  0  0  0  0
 16 18  1  0  0  0  0
 19 20  2  0  0  0  0
 19 21  1  0  0  0  0
 21 22  1  0  0  0  0
 21 23  1  0  0  0  0
 23 24  1  0  0  0  0
 23 25  1  0  0  0  0
 23 26  1  0  0  0  0
M  END
$$$$

  -OEChem-03222214023D

 26 25  0     1  0  0  0  0  0999 V2000
   -2.5457   -3.8137   -0.0952 H   0  0  0  0  0  0  0  0  0  0  0  0
   -2.5868   -2.7867   -0.4687 C   0  0  0  0  0  0  0  0  0  0  0  0
   -3.2731   -2.2109    0.1567 H   0  0  0  0  0  0  0  0  0  0  0  0
   -2.9640   -2.7995   -1.4942 H   0  0  0  0  0  0  0  0  0  0  0  0
   -1.2046   -2.1621   -0.4344 C   0  0  0  0  0  0  0  0  0  0  0  0
   -0.2502   -2.8097   -0.0404 O   0  0  0  0  0  0  0  0  0  0  0  0
   -1.0311   -0.8604   -0.8578 N   0  0  0  0  0  0  0  0  0  0  0  0
   -1.8706   -0.3450   -1.1335 H   0  0  0  0  0  0  0  0  0  0  0  0
    0.2402   -0.1175   -0.8126 C   0  0  1  0  0  0  0  0  0  0  0  0
    0.9921   -0.6828   -1.3753 H   0  0  0  0  0  0  0  0  0  0  0  0
    0.1402    1.3096   -1.4202 C   0  0  0  0  0  0  0  0  0  0  0  0
    0.9163    1.9427   -0.9790 H   0  0  0  0  0  0  0  0  0  0  0  0
    0.3686    1.2275   -2.4858 H   0  0  0  0  0  0  0  0  0  0  0  0
   -1.1999    2.0438   -1.3264 C   0  0  0  0  0  0  0  0  0  0  0  0
   -2.2922    1.5015   -1.3098 O   0  0  0  0  0  0  0  0  0  0  0  0
   -1.2395    3.4058   -1.2442 N   0  0  0  0  0  0  0  0  0  0  0  0
   -2.1528    3.8447   -1.3193 H   0  0  0  0  0  0  0  0  0  0  0  0
   -0.3922    3.9445   -1.3939 H   0  0  0  0  0  0  0  0  0  0  0  0
    0.7837    0.0119    0.6267 C   0  0  0  0  0  0  0  0  0  0  0  0
    1.9916    0.0724    0.8131 O   0  0  0  0  0  0  0  0  0  0  0  0
   -0.0744    0.3608    1.6540 N   0  0  0  0  0  0  0  0  0  0  0  0
   -1.0693    0.2930    1.4596 H   0  0  0  0  0  0  0  0  0  0  0  0
    0.3670    0.5740    3.0260 C   0  0  0  0  0  0  0  0  0  0  0  0
    1.1091    1.3781    3.0700 H   0  0  0  0  0  0  0  0  0  0  0  0
   -0.4816    0.8540    3.6573 H   0  0  0  0  0  0  0  0  0  0  0  0
    0.8138   -0.3407    3.4296 H   0  0  0  0  0  0  0  0  0  0  0  0
  1  2  1  0  0  0  0
  2  3  1  0  0  0  0
  2  4  1  0  0  0  0
  2  5  1  0  0  0  0
  5  6  2  0  0  0  0
  5  7  1  0  0  0  0
  7  8  1  0  0  0  0
  7  9  1  0  0  0  0
  9 10  1  0  0  0  0
  9 11  1  0  0  0  0
  9 19  1  0  0  0  0
 11 12  1  0  0  0  0
 11 13  1  0  0  0  0
 11 14  1  0  0  0  0
 14 15  2  0  0  0  0
 14 16  1  0  0  0  0
 16 17  1  0  0  0  0
 16 18  1  0  0  0  0
 19 20  2  0  0  0  0
 19 21  1  0  0  0  0
 21 22  1  0  0  0  0
 21 23  1  0  0  0  0
 23 24  1  0  0  0  0
 23 25  1  0  0  0  0
 23 26  1  0  0  0  0
M  END
$$$$

  -OEChem-03222214023D

 26 25  0     1  0  0  0  0  0999 V2000
   -2.5163   -3.8123   -0.0229 H   0  0  0  0  0  0  0  0  0  0  0  0
   -2.5684   -2.7898   -0.4071 C   0  0  0  0  0  0  0  0  0  0  0  0
   -3.2163   -2.2004    0.2461 H   0  0  0  0  0  0  0  0  0  0  0  0
   -2.9988   -2.8124   -1.4112 H   0  0  0  0  0  0  0  0  0  0  0  0
   -1.1815   -2.1770   -0.4527 C   0  0  0  0  0  0  0  0  0  0  0  0
   -0.2124   -2.8295   -0.1050 O   0  0  0  0  0  0  0  0  0  0  0  0
   -1.0208   -0.8786   -0.8912 N   0  0  0  0  0  0  0  0  0  0  0  0
   -1.8736   -0.3490   -1.0865 H   0  0  0  0  0  0  0  0  0  0  0  0
    0.2464   -0.1283   -0.8463 C   0  0  1  0  0  0  0  0  0  0  0  0
    1.0065   -0.6924   -1.3992 H   0  0  0  0  0  0  0  0  0  0  0  0
    0.1400    1.2951   -1.4616 C   0  0  0  0  0  0  0  0  0  0  0  0
    0.9130    1.9341   -1.0237 H   0  0  0  0  0  0  0  0  0  0  0  0
    0.3712    1.2040   -2.5260 H   0  0  0  0  0  0  0  0  0  0  0  0
   -1.2003    2.0317   -1.3797 C   0  0  0  0  0  0  0  0  0  0  0  0
   -2.2707    1.5150   -1.1049 O   0  0  0  0  0  0  0  0  0  0  0  0
   -1.2639    3.3732   -1.6239 N   0  0  0  0  0  0  0  0  0  0  0  0
   -2.1434    3.8332   -1.4060 H   0  0  0  0  0  0  0  0  0  0  0  0
   -0.4042    3.9102   -1.6803 H   0  0  0  0  0  0  0  0  0  0  0  0
    0.7738    0.0153    0.5976 C   0  0  0  0  0  0  0  0  0  0  0  0
    1.9788    0.0695    0.8020 O   0  0  0  0  0  0  0  0  0  0  0  0
   -0.0990    0.3687    1.6109 N   0  0  0  0  0  0  0  0  0  0  0  0
   -1.0910    0.3309    1.3934 H   0  0  0  0  0  0  0  0  0  0  0  0
    0.3187    0.5911    2.9888 C   0  0  0  0  0  0  0  0  0  0  0  0
    1.0530    1.4017    3.0418 H   0  0  0  0  0  0  0  0  0  0  0  0
   -0.5426    0.8656    3.6053 H   0  0  0  0  0  0  0  0  0  0  0  0
    0.7668   -0.3182    3.4028 H   0  0  0  0  0  0  0  0  0  0  0  0
  1  2  1  0  0  0  0
  2  3  1  0  0  0  0
  2  4  1  0  0  0  0
  2  5  1  0  0  0  0
  5  6  2  0  0  0  0
  5  7  1  0  0  0  0
  7  8  1  0  0  0  0
  7  9  1  0  0  0  0
  9 10  1  0  0  0  0
  9 11  1  0  0  0  0
  9 19  1  0  0  0  0
 11 12  1  0  0  0  0
 11 13  1  0  0  0  0
 11 14  1  0  0  0  0
 14 15  2  0  0  0  0
 14 16  1  0  0  0  0
 16 17  1  0  0  0  0
 16 18  1  0  0  0  0
 19 20  2  0  0  0  0
 19 21  1  0  0  0  0
 21 22  1  0  0  0  0
 21 23  1  0  0  0  0
 23 24  1  0  0  0  0
 23 25  1  0  0  0  0
 23 26  1  0  0  0  0
M  END
$$$$

  -OEChem-03222214023D

 26 25  0     1  0  0  0  0  0999 V2000
   -2.4981   -3.8084    0.0180 H   0  0  0  0  0  0  0  0  0  0  0  0
   -2.5583   -2.7852   -0.3636 C   0  0  0  0  0  0  0  0  0  0  0  0
   -3.1585   -2.1870    0.3262 H   0  0  0  0  0  0  0  0  0  0  0  0
   -3.0468   -2.8016   -1.3409 H   0  0  0  0  0  0  0  0  0  0  0  0
   -1.1679   -2.1919   -0.4905 C   0  0  0  0  0  0  0  0  0  0  0  0
   -0.1897   -2.8637   -0.2117 O   0  0  0  0  0  0  0  0  0  0  0  0
   -1.0145   -0.8911   -0.9260 N   0  0  0  0  0  0  0  0  0  0  0  0
   -1.8716   -0.3429   -1.0250 H   0  0  0  0  0  0  0  0  0  0  0  0
    0.2555   -0.1453   -0.8668 C   0  0  1  0  0  0  0  0  0  0  0  0
    1.0202   -0.7039   -1.4190 H   0  0  0  0  0  0  0  0  0  0  0  0
    0.1502    1.2850   -1.4643 C   0  0  0  0  0  0  0  0  0  0  0  0
    0.9194    1.9230   -1.0179 H   0  0  0  0  0  0  0  0  0  0  0  0
    0.3819    1.2056   -2.5296 H   0  0  0  0  0  0  0  0  0  0  0  0
   -1.1941    2.0110   -1.3702 C   0  0  0  0  0  0  0  0  0  0  0  0
   -2.2004    1.5500   -0.8562 O   0  0  0  0  0  0  0  0  0  0  0  0
   -1.3337    3.2747   -1.8668 N   0  0  0  0  0  0  0  0  0  0  0  0
   -2.1914    3.7633   -1.6254 H   0  0  0  0  0  0  0  0  0  0  0  0
   -0.5053    3.7970   -2.1343 H   0  0  0  0  0  0  0  0  0  0  0  0
    0.7657   -0.0135    0.5843 C   0  0  0  0  0  0  0  0  0  0  0  0
    1.9681    0.0181    0.8078 O   0  0  0  0  0  0  0  0  0  0  0  0
   -0.1188    0.3374    1.5884 N   0  0  0  0  0  0  0  0  0  0  0  0
   -1.1015    0.4032    1.3347 H   0  0  0  0  0  0  0  0  0  0  0  0
    0.2847    0.6056    2.9622 C   0  0  0  0  0  0  0  0  0  0  0  0
    0.9851    1.4465    2.9988 H   0  0  0  0  0  0  0  0  0  0  0  0
   -0.5892    0.8563    3.5710 H   0  0  0  0  0  0  0  0  0  0  0  0
    0.7680   -0.2759    3.3964 H   0  0  0  0  0  0  0  0  0  0  0  0
  1  2  1  0  0  0  0
  2  3  1  0  0  0  0
  2  4  1  0  0  0  0
  2  5  1  0  0  0  0
  5  6  2  0  0  0  0
  5  7  1  0  0  0  0
  7  8  1  0  0  0  0
  7  9  1  0  0  0  0
  9 10  1  0  0  0  0
  9 11  1  0  0  0  0
  9 19  1  0  0  0  0
 11 12  1  0  0  0  0
 11 13  1  0  0  0  0
 11 14  1  0  0  0  0
 14 15  2  0  0  0  0
 14 16  1  0  0  0  0
 16 17  1  0  0  0  0
 16 18  1  0  0  0  0
 19 20  2  0  0  0  0
 19 21  1  0  0  0  0
 21 22  1  0  0  0  0
 21 23  1  0  0  0  0
 23 24  1  0  0  0  0
 23 25  1  0  0  0  0
 23 26  1  0  0  0  0
M  END
$$$$

  -OEChem-03222214023D

 26 25  0     1  0  0  0  0  0999 V2000
   -2.5082   -3.7996    0.0057 H   0  0  0  0  0  0  0  0  0  0  0  0
   -2.5638   -2.7677   -0.3526 C   0  0  0  0  0  0  0  0  0  0  0  0
   -3.1233   -2.1727    0.3732 H   0  0  0  0  0  0  0  0  0  0  0  0
   -3.0920   -2.7545   -1.3090 H   0  0  0  0  0  0  0  0  0  0  0  0
   -1.1684   -2.1980   -0.5241 C   0  0  0  0  0  0  0  0  0  0  0  0
   -0.1924   -2.8909   -0.2932 O   0  0  0  0  0  0  0  0  0  0  0  0
   -1.0091   -0.8949   -0.9510 N   0  0  0  0  0  0  0  0  0  0  0  0
   -1.8605   -0.3313   -0.9755 H   0  0  0  0  0  0  0  0  0  0  0  0
    0.2690   -0.1631   -0.8686 C   0  0  1  0  0  0  0  0  0  0  0  0
    1.0364   -0.7207   -1.4179 H   0  0  0  0  0  0  0  0  0  0  0  0
    0.1695    1.2698   -1.4562 C   0  0  0  0  0  0  0  0  0  0  0  0
    0.9300    1.9115   -1.0004 H   0  0  0  0  0  0  0  0  0  0  0  0
    0.4079    1.1980   -2.5206 H   0  0  0  0  0  0  0  0  0  0  0  0
   -1.1856    1.9714   -1.3550 C   0  0  0  0  0  0  0  0  0  0  0  0
   -2.0927    1.5987   -0.6274 O   0  0  0  0  0  0  0  0  0  0  0  0
   -1.4493    3.0959   -2.0823 N   0  0  0  0  0  0  0  0  0  0  0  0
   -2.2931    3.6057   -1.8354 H   0  0  0  0  0  0  0  0  0  0  0  0
   -0.6855    3.5703   -2.5536 H   0  0  0  0  0  0  0  0  0  0  0  0
    0.7641   -0.0458    0.5891 C   0  0  0  0  0  0  0  0  0  0  0  0
    1.9640   -0.0416    0.8282 O   0  0  0  0  0  0  0  0  0  0  0  0
   -0.1292    0.3088    1.5841 N   0  0  0  0  0  0  0  0  0  0  0  0
   -1.0893    0.4856    1.2938 H   0  0  0  0  0  0  0  0  0  0  0  0
    0.2713    0.6291    2.9475 C   0  0  0  0  0  0  0  0  0  0  0  0
    0.9072    1.5203    2.9604 H   0  0  0  0  0  0  0  0  0  0  0  0
   -0.6113    0.8219    3.5649 H   0  0  0  0  0  0  0  0  0  0  0  0
    0.8250   -0.2063    3.3892 H   0  0  0  0  0  0  0  0  0  0  0  0
  1  2  1  0  0  0  0
  2  3  1  0  0  0  0
  2  4  1  0  0  0  0
  2  5  1  0  0  0  0
  5  6  2  0  0  0  0
  5  7  1  0  0  0  0
  7  8  1  0  0  0  0
  7  9  1  0  0  0  0
  9 10  1  0  0  0  0
  9 11  1  0  0  0  0
  9 19  1  0  0  0  0
 11 12  1  0  0  0  0
 11 13  1  0  0  0  0
 11 14  1  0  0  0  0
 14 15  2  0  0  0  0
 14 16  1  0  0  0  0
 16 17  1  0  0  0  0
 16 18  1  0  0  0  0
 19 20  2  0  0  0  0
 19 21  1  0  0  0  0
 21 22  1  0  0  0  0
 21 23  1  0  0  0  0
 23 24  1  0  0  0  0
 23 25  1  0  0  0  0
 23 26  1  0  0  0  0
M  END
$$$$

  -OEChem-03222214023D

 26 25  0     1  0  0  0  0  0999 V2000
   -2.5091   -3.7827    0.0049 H   0  0  0  0  0  0  0  0  0  0  0  0
   -2.5649   -2.7484   -0.3462 C   0  0  0  0  0  0  0  0  0  0  0  0
   -3.0980   -2.1527    0.3986 H   0  0  0  0  0  0  0  0  0  0  0  0
   -3.1196   -2.7253   -1.2873 H   0  0  0  0  0  0  0  0  0  0  0  0
   -1.1693   -2.1909   -0.5528 C   0  0  0  0  0  0  0  0  0  0  0  0
   -0.1951   -2.8973   -0.3588 O   0  0  0  0  0  0  0  0  0  0  0  0
   -1.0077   -0.8848   -0.9711 N   0  0  0  0  0  0  0  0  0  0  0  0
   -1.8540   -0.3151   -0.9466 H   0  0  0  0  0  0  0  0  0  0  0  0
    0.2770   -0.1659   -0.8625 C   0  0  1  0  0  0  0  0  0  0  0  0
    1.0472   -0.7257   -1.4062 H   0  0  0  0  0  0  0  0  0  0  0  0
    0.1879    1.2652   -1.4499 C   0  0  0  0  0  0  0  0  0  0  0  0
    0.9332    1.9140   -0.9792 H   0  0  0  0  0  0  0  0  0  0  0  0
    0.4428    1.1996   -2.5107 H   0  0  0  0  0  0  0  0  0  0  0  0
   -1.1815    1.9330   -1.3523 C   0  0  0  0  0  0  0  0  0  0  0  0
   -1.9714    1.6932   -0.4525 O   0  0  0  0  0  0  0  0  0  0  0  0
   -1.5918    2.8569   -2.2694 N   0  0  0  0  0  0  0  0  0  0  0  0
   -2.4271    3.3853   -2.0329 H   0  0  0  0  0  0  0  0  0  0  0  0
   -0.9118    3.2435   -2.9166 H   0  0  0  0  0  0  0  0  0  0  0  0
    0.7596   -0.0601    0.6009 C   0  0  0  0  0  0  0  0  0  0  0  0
    1.9564   -0.0945    0.8526 O   0  0  0  0  0  0  0  0  0  0  0  0
   -0.1370    0.2986    1.5917 N   0  0  0  0  0  0  0  0  0  0  0  0
   -1.0687    0.5683    1.2771 H   0  0  0  0  0  0  0  0  0  0  0  0
    0.2678    0.6284    2.9517 C   0  0  0  0  0  0  0  0  0  0  0  0
    0.8980    1.5238    2.9574 H   0  0  0  0  0  0  0  0  0  0  0  0
   -0.6132    0.8179    3.5723 H   0  0  0  0  0  0  0  0  0  0  0  0
    0.8290   -0.2010    3.3953 H   0  0  0  0  0  0  0  0  0  0  0  0
  1  2  1  0  0  0  0
  2  3  1  0  0  0  0
  2  4  1  0  0  0  0
  2  5  1  0  0  0  0
  5  6  2  0  0  0  0
  5  7  1  0  0  0  0
  7  8  1  0  0  0  0
  7  9  1  0  0  0  0
  9 10  1  0  0  0  0
  9 11  1  0  0  0  0
  9 19  1  0  0  0  0
 11 12  1  0  0  0  0
 11 13  1  0  0  0  0
 11 14  1  0  0  0  0
 14 15  2  0  0  0  0
 14 16  1  0  0  0  0
 16 17  1  0  0  0  0
 16 18  1  0  0  0  0
 19 20  2  0  0  0  0
 19 21  1  0  0  0  0
 21 22  1  0  0  0  0
 21 23  1  0  0  0  0
 23 24  1  0  0  0  0
 23 25  1  0  0  0  0
 23 26  1  0  0  0  0
M  END
$$$$

  -OEChem-03222214023D

 26 25  0     1  0  0  0  0  0999 V2000
   -2.5263   -3.7565   -0.0203 H   0  0  0  0  0  0  0  0  0  0  0  0
   -2.5750   -2.7202   -0.3663 C   0  0  0  0  0  0  0  0  0  0  0  0
   -3.1086   -2.1259    0.3795 H   0  0  0  0  0  0  0  0  0  0  0  0
   -3.1248   -2.6893   -1.3101 H   0  0  0  0  0  0  0  0  0  0  0  0
   -1.1750   -2.1699   -0.5634 C   0  0  0  0  0  0  0  0  0  0  0  0
   -0.2062   -2.8855   -0.3772 O   0  0  0  0  0  0  0  0  0  0  0  0
   -1.0047   -0.8616   -0.9717 N   0  0  0  0  0  0  0  0  0  0  0  0
   -1.8482   -0.2908   -0.9409 H   0  0  0  0  0  0  0  0  0  0  0  0
    0.2854   -0.1536   -0.8450 C   0  0  1  0  0  0  0  0  0  0  0  0
    1.0552   -0.7171   -1.3855 H   0  0  0  0  0  0  0  0  0  0  0  0
    0.2038    1.2729   -1.4399 C   0  0  0  0  0  0  0  0  0  0  0  0
    0.9341    1.9309   -0.9589 H   0  0  0  0  0  0  0  0  0  0  0  0
    0.4733    1.2100   -2.4971 H   0  0  0  0  0  0  0  0  0  0  0  0
   -1.1791    1.9074   -1.3466 C   0  0  0  0  0  0  0  0  0  0  0  0
   -1.8453    1.8532   -0.3263 O   0  0  0  0  0  0  0  0  0  0  0  0
   -1.7597    2.5409   -2.4075 N   0  0  0  0  0  0  0  0  0  0  0  0
   -2.5963    3.0806   -2.2030 H   0  0  0  0  0  0  0  0  0  0  0  0
   -1.1841    2.7833   -3.2079 H   0  0  0  0  0  0  0  0  0  0  0  0
    0.7655   -0.0561    0.6205 C   0  0  0  0  0  0  0  0  0  0  0  0
    1.9593   -0.1311    0.8769 O   0  0  0  0  0  0  0  0  0  0  0  0
   -0.1266    0.3056    1.6139 N   0  0  0  0  0  0  0  0  0  0  0  0
   -1.0345    0.6424    1.2928 H   0  0  0  0  0  0  0  0  0  0  0  0
    0.2865    0.6131    2.9767 C   0  0  0  0  0  0  0  0  0  0  0  0
    0.9287    1.4997    2.9926 H   0  0  0  0  0  0  0  0  0  0  0  0
   -0.5905    0.8062    3.6016 H   0  0  0  0  0  0  0  0  0  0  0  0
    0.8370   -0.2291    3.4091 H   0  0  0  0  0  0  0  0  0  0  0  0
  1  2  1  0  0  0  0
  2  3  1  0  0  0  0
  2  4  1  0  0  0  0
  2  5  1  0  0  0  0
  5  6  2  0  0  0  0
  5  7  1  0  0  0  0
  7  8  1  0  0  0  0
  7  9  1  0  0  0  0
  9 10  1  0  0  0  0
  9 11  1  0  0  0  0
  9 19  1  0  0  0  0
 11 12  1  0  0  0  0
 11 13  1  0  0  0  0
 11 14  1  0  0  0  0
 14 15  2  0  0  0  0
 14 16  1  0  0  0  0
 16 17  1  0  0  0  0
 16 18  1  0  0  0  0
 19 20  2  0  0  0  0
 19 21  1  0  0  0  0
 21 22  1  0  0  0  0
 21 23  1  0  0  0  0
 23 24  1  0  0  0  0
 23 25  1  0  0  0  0
 23 26  1  0  0  0  0
M  END
$$$$

  -OEChem-03222214023D

 26 25  0     1  0  0  0  0  0999 V2000
   -2.5417   -3.7433   -0.0449 H   0  0  0  0  0  0  0  0  0  0  0  0
   -2.5864   -2.7086   -0.3968 C   0  0  0  0  0  0  0  0  0  0  0  0
   -3.1396   -2.1135    0.3337 H   0  0  0  0  0  0  0  0  0  0  0  0
   -3.1137   -2.6841   -1.3535 H   0  0  0  0  0  0  0  0  0  0  0  0
   -1.1841   -2.1545   -0.5633 C   0  0  0  0  0  0  0  0  0  0  0  0
   -0.2191   -2.8705   -0.3609 O   0  0  0  0  0  0  0  0  0  0  0  0
   -1.0059   -0.8455   -0.9678 N   0  0  0  0  0  0  0  0  0  0  0  0
   -1.8503   -0.2775   -0.9753 H   0  0  0  0  0  0  0  0  0  0  0  0
    0.2885   -0.1446   -0.8343 C   0  0  1  0  0  0  0  0  0  0  0  0
    1.0567   -0.7115   -1.3736 H   0  0  0  0  0  0  0  0  0  0  0  0
    0.2179    1.2824   -1.4259 C   0  0  0  0  0  0  0  0  0  0  0  0
    0.9436    1.9395   -0.9359 H   0  0  0  0  0  0  0  0  0  0  0  0
    0.4937    1.2291   -2.4820 H   0  0  0  0  0  0  0  0  0  0  0  0
   -1.1687    1.9013   -1.3260 C   0  0  0  0  0  0  0  0  0  0  0  0
   -1.7122    2.0701   -0.2495 O   0  0  0  0  0  0  0  0  0  0  0  0
   -1.9135    2.2052   -2.4293 N   0  0  0  0  0  0  0  0  0  0  0  0
   -2.7484    2.7605   -2.2621 H   0  0  0  0  0  0  0  0  0  0  0  0
   -1.4497    2.2517   -3.3314 H   0  0  0  0  0  0  0  0  0  0  0  0
    0.7677   -0.0518    0.6321 C   0  0  0  0  0  0  0  0  0  0  0  0
    1.9596   -0.1515    0.8889 O   0  0  0  0  0  0  0  0  0  0  0  0
   -0.1205    0.3133    1.6280 N   0  0  0  0  0  0  0  0  0  0  0  0
   -1.0097    0.6951    1.3061 H   0  0  0  0  0  0  0  0  0  0  0  0
    0.3047    0.6133    2.9885 C   0  0  0  0  0  0  0  0  0  0  0  0
    0.9653    1.4863    2.9996 H   0  0  0  0  0  0  0  0  0  0  0  0
   -0.5651    0.8262    3.6173 H   0  0  0  0  0  0  0  0  0  0  0  0
    0.8398   -0.2398    3.4188 H   0  0  0  0  0  0  0  0  0  0  0  0
  1  2  1  0  0  0  0
  2  3  1  0  0  0  0
  2  4  1  0  0  0  0
  2  5  1  0  0  0  0
  5  6  2  0  0  0  0
  5  7  1  0  0  0  0
  7  8  1  0  0  0  0
  7  9  1  0  0  0  0
  9 10  1  0  0  0  0
  9 11  1  0  0  0  0
  9 19  1  0  0  0  0
 11 12  1  0  0  0  0
 11 13  1  0  0  0  0
 11 14  1  0  0  0  0
 14 15  2  0  0  0  0
 14 16  1  0  0  0  0
 16 17  1  0  0  0  0
 16 18  1  0  0  0  0
 19 20  2  0  0  0  0
 19 21  1  0  0  0  0
 21 22  1  0  0  0  0
 21 23  1  0  0  0  0
 23 24  1  0  0  0  0
 23 25  1  0  0  0  0
 23 26  1  0  0  0  0
M  END
$$$$

  -OEChem-03222214023D

 26 25  0     1  0  0  0  0  0999 V2000
   -2.5685   -3.7429   -0.0790 H   0  0  0  0  0  0  0  0  0  0  0  0
   -2.5995   -2.7089   -0.4345 C   0  0  0  0  0  0  0  0  0  0  0  0
   -3.1827   -2.1124    0.2711 H   0  0  0  0  0  0  0  0  0  0  0  0
   -3.0878   -2.6875   -1.4116 H   0  0  0  0  0  0  0  0  0  0  0  0
   -1.1921   -2.1530   -0.5446 C   0  0  0  0  0  0  0  0  0  0  0  0
   -0.2349   -2.8640   -0.2948 O   0  0  0  0  0  0  0  0  0  0  0  0
   -1.0006   -0.8480   -0.9558 N   0  0  0  0  0  0  0  0  0  0  0  0
   -1.8442   -0.2869   -1.0483 H   0  0  0  0  0  0  0  0  0  0  0  0
    0.2954   -0.1479   -0.8279 C   0  0  1  0  0  0  0  0  0  0  0  0
    1.0636   -0.7147   -1.3670 H   0  0  0  0  0  0  0  0  0  0  0  0
    0.2205    1.2797   -1.4163 C   0  0  0  0  0  0  0  0  0  0  0  0
    0.9470    1.9375   -0.9282 H   0  0  0  0  0  0  0  0  0  0  0  0
    0.4891    1.2341   -2.4745 H   0  0  0  0  0  0  0  0  0  0  0  0
   -1.1681    1.8889   -1.3018 C   0  0  0  0  0  0  0  0  0  0  0  0
   -1.5947    2.2981   -0.2393 O   0  0  0  0  0  0  0  0  0  0  0  0
   -2.0501    1.8938   -2.3447 N   0  0  0  0  0  0  0  0  0  0  0  0
   -2.8764    2.4723   -2.2146 H   0  0  0  0  0  0  0  0  0  0  0  0
   -1.6855    1.7475   -3.2813 H   0  0  0  0  0  0  0  0  0  0  0  0
    0.7761   -0.0442    0.6378 C   0  0  0  0  0  0  0  0  0  0  0  0
    1.9669   -0.1574    0.8945 O   0  0  0  0  0  0  0  0  0  0  0  0
   -0.1086    0.3301    1.6337 N   0  0  0  0  0  0  0  0  0  0  0  0
   -0.9913    0.7261    1.3137 H   0  0  0  0  0  0  0  0  0  0  0  0
    0.3231    0.6294    2.9927 C   0  0  0  0  0  0  0  0  0  0  0  0
    0.9897    1.4980    3.0006 H   0  0  0  0  0  0  0  0  0  0  0  0
   -0.5433    0.8488    3.6240 H   0  0  0  0  0  0  0  0  0  0  0  0
    0.8541   -0.2263    3.4232 H   0  0  0  0  0  0  0  0  0  0  0  0
  1  2  1  0  0  0  0
  2  3  1  0  0  0  0
  2  4  1  0  0  0  0
  2  5  1  0  0  0  0
  5  6  2  0  0  0  0
  5  7  1  0  0  0  0
  7  8  1  0  0  0  0
  7  9  1  0  0  0  0
  9 10  1  0  0  0  0
  9 11  1  0  0  0  0
  9 19  1  0  0  0  0
 11 12  1  0  0  0  0
 11 13  1  0  0  0  0
 11 14  1  0  0  0  0
 14 15  2  0  0  0  0
 14 16  1  0  0  0  0
 16 17  1  0  0  0  0
 16 18  1  0  0  0  0
 19 20  2  0  0  0  0
 19 21  1  0  0  0  0
 21 22  1  0  0  0  0
 21 23  1  0  0  0  0
 23 24  1  0  0  0  0
 23 25  1  0  0  0  0
 23 26  1  0  0  0  0
M  END
$$$$

  -OEChem-03222214023D

 26 25  0     1  0  0  0  0  0999 V2000
   -2.5704   -3.7777   -0.0969 H   0  0  0  0  0  0  0  0  0  0  0  0
   -2.6030   -2.7432   -0.4503 C   0  0  0  0  0  0  0  0  0  0  0  0
   -3.2159   -2.1567    0.2383 H   0  0  0  0  0  0  0  0  0  0  0  0
   -3.0602   -2.7248   -1.4423 H   0  0  0  0  0  0  0  0  0  0  0  0
   -1.2000   -2.1697   -0.5140 C   0  0  0  0  0  0  0  0  0  0  0  0
   -0.2438   -2.8656   -0.2231 O   0  0  0  0  0  0  0  0  0  0  0  0
   -1.0090   -0.8657   -0.9292 N   0  0  0  0  0  0  0  0  0  0  0  0
   -1.8511   -0.3195   -1.0961 H   0  0  0  0  0  0  0  0  0  0  0  0
    0.2843   -0.1581   -0.8153 C   0  0  1  0  0  0  0  0  0  0  0  0
    1.0501   -0.7249   -1.3581 H   0  0  0  0  0  0  0  0  0  0  0  0
    0.2035    1.2681   -1.4072 C   0  0  0  0  0  0  0  0  0  0  0  0
    0.9341    1.9265   -0.9255 H   0  0  0  0  0  0  0  0  0  0  0  0
    0.4646    1.2229   -2.4672 H   0  0  0  0  0  0  0  0  0  0  0  0
   -1.1832    1.8795   -1.2866 C   0  0  0  0  0  0  0  0  0  0  0  0
   -1.5113    2.5300   -0.3151 O   0  0  0  0  0  0  0  0  0  0  0  0
   -2.1500    1.6878   -2.2333 N   0  0  0  0  0  0  0  0  0  0  0  0
   -2.9536    2.3064   -2.1538 H   0  0  0  0  0  0  0  0  0  0  0  0
   -1.8542    1.3763   -3.1538 H   0  0  0  0  0  0  0  0  0  0  0  0
    0.7786   -0.0453    0.6450 C   0  0  0  0  0  0  0  0  0  0  0  0
    1.9742   -0.1391    0.8860 O   0  0  0  0  0  0  0  0  0  0  0  0
   -0.0957    0.3279    1.6509 N   0  0  0  0  0  0  0  0  0  0  0  0
   -1.0048    0.6718    1.3515 H   0  0  0  0  0  0  0  0  0  0  0  0
    0.3508    0.6487    3.0003 C   0  0  0  0  0  0  0  0  0  0  0  0
    1.0031    1.5280    2.9892 H   0  0  0  0  0  0  0  0  0  0  0  0
   -0.5094    0.8614    3.6421 H   0  0  0  0  0  0  0  0  0  0  0  0
    0.9016   -0.1937    3.4318 H   0  0  0  0  0  0  0  0  0  0  0  0
  1  2  1  0  0  0  0
  2  3  1  0  0  0  0
  2  4  1  0  0  0  0
  2  5  1  0  0  0  0
  5  6  2  0  0  0  0
  5  7  1  0  0  0  0
  7  8  1  0  0  0  0
  7  9  1  0  0  0  0
  9 10  1  0  0  0  0
  9 11  1  0  0  0  0
  9 19  1  0  0  0  0
 11 12  1  0  0  0  0
 11 13  1  0  0  0  0
 11 14  1  0  0  0  0
 14 15  2  0  0  0  0
 14 16  1  0  0  0  0
 16 17  1  0  0  0  0
 16 18  1  0  0  0  0
 19 20  2  0  0  0  0
 19 21  1  0  0  0  0
 21 22  1  0  0  0  0
 21 23  1  0  0  0  0
 23 24  1  0  0  0  0
 23 25  1  0  0  0  0
 23 26  1  0  0  0  0
M  END
$$$$

  -OEChem-03222214023D

 26 25  0     1  0  0  0  0  0999 V2000
   -2.5511   -3.8215   -0.0881 H   0  0  0  0  0  0  0  0  0  0  0  0
   -2.5952   -2.7857   -0.4365 C   0  0  0  0  0  0  0  0  0  0  0  0
   -3.2233   -2.2111    0.2486 H   0  0  0  0  0  0  0  0  0  0  0  0
   -3.0426   -2.7690   -1.4331 H   0  0  0  0  0  0  0  0  0  0  0  0
   -1.2001   -2.1916   -0.4840 C   0  0  0  0  0  0  0  0  0  0  0  0
   -0.2371   -2.8733   -0.1831 O   0  0  0  0  0  0  0  0  0  0  0  0
   -1.0249   -0.8835   -0.8929 N   0  0  0  0  0  0  0  0  0  0  0  0
   -1.8719   -0.3504   -1.0779 H   0  0  0  0  0  0  0  0  0  0  0  0
    0.2613   -0.1617   -0.7944 C   0  0  1  0  0  0  0  0  0  0  0  0
    1.0234   -0.7251   -1.3460 H   0  0  0  0  0  0  0  0  0  0  0  0
    0.1721    1.2615   -1.3945 C   0  0  0  0  0  0  0  0  0  0  0  0
    0.9063    1.9215   -0.9200 H   0  0  0  0  0  0  0  0  0  0  0  0
    0.4299    1.2098   -2.4551 H   0  0  0  0  0  0  0  0  0  0  0  0
   -1.2110    1.8846   -1.2799 C   0  0  0  0  0  0  0  0  0  0  0  0
   -1.4609    2.7529   -0.4699 O   0  0  0  0  0  0  0  0  0  0  0  0
   -2.2295    1.5599   -2.1325 N   0  0  0  0  0  0  0  0  0  0  0  0
   -3.0058    2.2177   -2.1268 H   0  0  0  0  0  0  0  0  0  0  0  0
   -1.9785    1.1042   -3.0051 H   0  0  0  0  0  0  0  0  0  0  0  0
    0.7796   -0.0493    0.6577 C   0  0  0  0  0  0  0  0  0  0  0  0
    1.9822   -0.1068    0.8729 O   0  0  0  0  0  0  0  0  0  0  0  0
   -0.0792    0.3081    1.6824 N   0  0  0  0  0  0  0  0  0  0  0  0
   -1.0247    0.5679    1.4189 H   0  0  0  0  0  0  0  0  0  0  0  0
    0.3866    0.6469    3.0210 C   0  0  0  0  0  0  0  0  0  0  0  0
    1.0187    1.5407    2.9910 H   0  0  0  0  0  0  0  0  0  0  0  0
   -0.4651    0.8448    3.6788 H   0  0  0  0  0  0  0  0  0  0  0  0
    0.9649   -0.1803    3.4466 H   0  0  0  0  0  0  0  0  0  0  0  0
  1  2  1  0  0  0  0
  2  3  1  0  0  0  0
  2  4  1  0  0  0  0
  2  5  1  0  0  0  0
  5  6  2  0  0  0  0
  5  7  1  0  0  0  0
  7  8  1  0  0  0  0
  7  9  1  0  0  0  0
  9 10  1  0  0  0  0
  9 11  1  0  0  0  0
  9 19  1  0  0  0  0
 11 12  1  0  0  0  0
 11 13  1  0  0  0  0
 11 14  1  0  0  0  0
 14 15  2  0  0  0  0
 14 16  1  0  0  0  0
 16 17  1  0  0  0  0
 16 18  1  0  0  0  0
 19 20  2  0  0  0  0
 19 21  1  0  0  0  0
 21 22  1  0  0  0  0
 21 23  1  0  0  0  0
 23 24  1  0  0  0  0
 23 25  1  0  0  0  0
 23 26  1  0  0  0  0
M  END
$$$$

  -OEChem-03222214023D

 26 25  0     1  0  0  0  0  0999 V2000
   -2.5087   -3.8568   -0.0488 H   0  0  0  0  0  0  0  0  0  0  0  0
   -2.5750   -2.8202   -0.3917 C   0  0  0  0  0  0  0  0  0  0  0  0
   -3.2068   -2.2611    0.3025 H   0  0  0  0  0  0  0  0  0  0  0  0
   -3.0330   -2.8067   -1.3836 H   0  0  0  0  0  0  0  0  0  0  0  0
   -1.1912   -2.2009   -0.4490 C   0  0  0  0  0  0  0  0  0  0  0  0
   -0.2138   -2.8653   -0.1565 O   0  0  0  0  0  0  0  0  0  0  0  0
   -1.0426   -0.8873   -0.8515 N   0  0  0  0  0  0  0  0  0  0  0  0
   -1.9005   -0.3650   -1.0166 H   0  0  0  0  0  0  0  0  0  0  0  0
    0.2335   -0.1463   -0.7723 C   0  0  1  0  0  0  0  0  0  0  0  0
    0.9915   -0.7067   -1.3328 H   0  0  0  0  0  0  0  0  0  0  0  0
    0.1341    1.2712   -1.3871 C   0  0  0  0  0  0  0  0  0  0  0  0
    0.8711    1.9349   -0.9223 H   0  0  0  0  0  0  0  0  0  0  0  0
    0.3901    1.2054   -2.4473 H   0  0  0  0  0  0  0  0  0  0  0  0
   -1.2445    1.9089   -1.2857 C   0  0  0  0  0  0  0  0  0  0  0  0
   -1.4300    2.9522   -0.6951 O   0  0  0  0  0  0  0  0  0  0  0  0
   -2.3016    1.4807   -2.0407 N   0  0  0  0  0  0  0  0  0  0  0  0
   -3.0475    2.1677   -2.1257 H   0  0  0  0  0  0  0  0  0  0  0  0
   -2.0838    0.8993   -2.8449 H   0  0  0  0  0  0  0  0  0  0  0  0
    0.7814   -0.0334    0.6687 C   0  0  0  0  0  0  0  0  0  0  0  0
    1.9897   -0.0602    0.8550 O   0  0  0  0  0  0  0  0  0  0  0  0
   -0.0575    0.3038    1.7163 N   0  0  0  0  0  0  0  0  0  0  0  0
   -1.0349    0.4672    1.4997 H   0  0  0  0  0  0  0  0  0  0  0  0
    0.4254    0.6004    3.0590 C   0  0  0  0  0  0  0  0  0  0  0  0
    1.0703    1.4853    3.0467 H   0  0  0  0  0  0  0  0  0  0  0  0
   -0.4165    0.7934    3.7306 H   0  0  0  0  0  0  0  0  0  0  0  0
    0.9956   -0.2463    3.4560 H   0  0  0  0  0  0  0  0  0  0  0  0
  1  2  1  0  0  0  0
  2  3  1  0  0  0  0
  2  4  1  0  0  0  0
  2  5  1  0  0  0  0
  5  6  2  0  0  0  0
  5  7  1  0  0  0  0
  7  8  1  0  0  0  0
  7  9  1  0  0  0  0
  9 10  1  0  0  0  0
  9 11  1  0  0  0  0
  9 19  1  0  0  0  0
 11 12  1  0  0  0  0
 11 13  1  0  0  0  0
 11 14  1  0  0  0  0
 14 15  2  0  0  0  0
 14 16  1  0  0  0  0
 16 17  1  0  0  0  0
 16 18  1  0  0  0  0
 19 20  2  0  0  0  0
 19 21  1  0  0  0  0
 21 22  1  0  0  0  0
 21 23  1  0  0  0  0
 23 24  1  0  0  0  0
 23 25  1  0  0  0  0
 23 26  1  0  0  0  0
M  END
$$$$

  -OEChem-03222214023D

 26 25  0     1  0  0  0  0  0999 V2000
   -2.4527   -3.8793    0.0074 H   0  0  0  0  0  0  0  0  0  0  0  0
   -2.5439   -2.8419   -0.3274 C   0  0  0  0  0  0  0  0  0  0  0  0
   -3.1589   -2.2947    0.3911 H   0  0  0  0  0  0  0  0  0  0  0  0
   -3.0355   -2.8304   -1.3031 H   0  0  0  0  0  0  0  0  0  0  0  0
   -1.1709   -2.2043   -0.4300 C   0  0  0  0  0  0  0  0  0  0  0  0
   -0.1758   -2.8587   -0.1782 O   0  0  0  0  0  0  0  0  0  0  0  0
   -1.0526   -0.8846   -0.8237 N   0  0  0  0  0  0  0  0  0  0  0  0
   -1.9228   -0.3663   -0.9242 H   0  0  0  0  0  0  0  0  0  0  0  0
    0.2144   -0.1267   -0.7617 C   0  0  1  0  0  0  0  0  0  0  0  0
    0.9686   -0.6795   -1.3350 H   0  0  0  0  0  0  0  0  0  0  0  0
    0.1078    1.2937   -1.3732 C   0  0  0  0  0  0  0  0  0  0  0  0
    0.8524    1.9528   -0.9138 H   0  0  0  0  0  0  0  0  0  0  0  0
    0.3563    1.2259   -2.4352 H   0  0  0  0  0  0  0  0  0  0  0  0
   -1.2625    1.9525   -1.2730 C   0  0  0  0  0  0  0  0  0  0  0  0
   -1.3909    3.1081   -0.9270 O   0  0  0  0  0  0  0  0  0  0  0  0
   -2.3644    1.4473   -1.9066 N   0  0  0  0  0  0  0  0  0  0  0  0
   -3.0849    2.1479   -2.0688 H   0  0  0  0  0  0  0  0  0  0  0  0
   -2.1874    0.7643   -2.6375 H   0  0  0  0  0  0  0  0  0  0  0  0
    0.7830   -0.0229    0.6719 C   0  0  0  0  0  0  0  0  0  0  0  0
    1.9940   -0.0255    0.8402 O   0  0  0  0  0  0  0  0  0  0  0  0
   -0.0456    0.2907    1.7350 N   0  0  0  0  0  0  0  0  0  0  0  0
   -1.0398    0.3675    1.5512 H   0  0  0  0  0  0  0  0  0  0  0  0
    0.4460    0.5404    3.0841 C   0  0  0  0  0  0  0  0  0  0  0  0
    1.1100    1.4112    3.0945 H   0  0  0  0  0  0  0  0  0  0  0  0
   -0.3906    0.7348    3.7619 H   0  0  0  0  0  0  0  0  0  0  0  0
    0.9983   -0.3288    3.4569 H   0  0  0  0  0  0  0  0  0  0  0  0
  1  2  1  0  0  0  0
  2  3  1  0  0  0  0
  2  4  1  0  0  0  0
  2  5  1  0  0  0  0
  5  6  2  0  0  0  0
  5  7  1  0  0  0  0
  7  8  1  0  0  0  0
  7  9  1  0  0  0  0
  9 10  1  0  0  0  0
  9 11  1  0  0  0  0
  9 19  1  0  0  0  0
 11 12  1  0  0  0  0
 11 13  1  0  0  0  0
 11 14  1  0  0  0  0
 14 15  2  0  0  0  0
 14 16  1  0  0  0  0
 16 17  1  0  0  0  0
 16 18  1  0  0  0  0
 19 20  2  0  0  0  0
 19 21  1  0  0  0  0
 21 22  1  0  0  0  0
 21 23  1  0  0  0  0
 23 24  1  0  0  0  0
 23 25  1  0  0  0  0
 23 26  1  0  0  0  0
M  END
$$$$

  -OEChem-03222214023D

 26 25  0     1  0  0  0  0  0999 V2000
   -2.4417   -3.9746   -0.1840 H   0  0  0  0  0  0  0  0  0  0  0  0
   -2.4767   -2.9897   -0.6588 C   0  0  0  0  0  0  0  0  0  0  0  0
   -3.3788   -2.4718   -0.3243 H   0  0  0  0  0  0  0  0  0  0  0  0
   -2.5211   -3.1252   -1.7424 H   0  0  0  0  0  0  0  0  0  0  0  0
   -1.2449   -2.1868   -0.2841 C   0  0  0  0  0  0  0  0  0  0  0  0
   -0.4134   -2.6716    0.4593 O   0  0  0  0  0  0  0  0  0  0  0  0
   -1.0807   -0.9103   -0.7937 N   0  0  0  0  0  0  0  0  0  0  0  0
   -1.6921   -0.6997   -1.5797 H   0  0  0  0  0  0  0  0  0  0  0  0
    0.2088   -0.1857   -0.7583 C   0  0  1  0  0  0  0  0  0  0  0  0
    0.9629   -0.7956   -1.2701 H   0  0  0  0  0  0  0  0  0  0  0  0
    0.1529    1.2048   -1.4523 C   0  0  0  0  0  0  0  0  0  0  0  0
    0.9383    1.8466   -1.0377 H   0  0  0  0  0  0  0  0  0  0  0  0
    0.4064    1.0448   -2.5032 H   0  0  0  0  0  0  0  0  0  0  0  0
   -1.1528    2.0062   -1.4609 C   0  0  0  0  0  0  0  0  0  0  0  0
   -1.1239    3.2194   -1.4825 O   0  0  0  0  0  0  0  0  0  0  0  0
   -2.4120    1.5144   -1.2623 N   0  0  0  0  0  0  0  0  0  0  0  0
   -3.0966    2.2439   -1.0775 H   0  0  0  0  0  0  0  0  0  0  0  0
   -2.4779    0.6504   -0.7382 H   0  0  0  0  0  0  0  0  0  0  0  0
    0.7516    0.0367    0.6745 C   0  0  0  0  0  0  0  0  0  0  0  0
    1.9611    0.0446    0.8561 O   0  0  0  0  0  0  0  0  0  0  0  0
   -0.0871    0.4706    1.6857 N   0  0  0  0  0  0  0  0  0  0  0  0
   -1.0820    0.3538    1.5322 H   0  0  0  0  0  0  0  0  0  0  0  0
    0.3831    0.7339    3.0400 C   0  0  0  0  0  0  0  0  0  0  0  0
    1.1454    1.5201    3.0353 H   0  0  0  0  0  0  0  0  0  0  0  0
   -0.4471    1.0644    3.6712 H   0  0  0  0  0  0  0  0  0  0  0  0
    0.8139   -0.1725    3.4781 H   0  0  0  0  0  0  0  0  0  0  0  0
  1  2  1  0  0  0  0
  2  3  1  0  0  0  0
  2  4  1  0  0  0  0
  2  5  1  0  0  0  0
  5  6  2  0  0  0  0
  5  7  1  0  0  0  0
  7  8  1  0  0  0  0
  7  9  1  0  0  0  0
  9 10  1  0  0  0  0
  9 11  1  0  0  0  0
  9 19  1  0  0  0  0
 11 12  1  0  0  0  0
 11 13  1  0  0  0  0
 11 14  1  0  0  0  0
 14 15  2  0  0  0  0
 14 16  1  0  0  0  0
 16 17  1  0  0  0  0
 16 18  1  0  0  0  0
 19 20  2  0  0  0  0
 19 21  1  0  0  0  0
 21 22  1  0  0  0  0
 21 23  1  0  0  0  0
 23 24  1  0  0  0  0
 23 25  1  0  0  0  0
 23 26  1  0  0  0  0
M  END
$$$$

  -OEChem-03222214023D

 26 25  0     1  0  0  0  0  0999 V2000
   -2.4630   -3.9729   -0.2517 H   0  0  0  0  0  0  0  0  0  0  0  0
   -2.5135   -2.9650   -0.6743 C   0  0  0  0  0  0  0  0  0  0  0  0
   -3.3873   -2.4547   -0.2622 H   0  0  0  0  0  0  0  0  0  0  0  0
   -2.6242   -3.0459   -1.7585 H   0  0  0  0  0  0  0  0  0  0  0  0
   -1.2515   -2.1933   -0.3357 C   0  0  0  0  0  0  0  0  0  0  0  0
   -0.3899   -2.7111    0.3494 O   0  0  0  0  0  0  0  0  0  0  0  0
   -1.0954   -0.8996   -0.8001 N   0  0  0  0  0  0  0  0  0  0  0  0
   -1.7717   -0.6132   -1.5055 H   0  0  0  0  0  0  0  0  0  0  0  0
    0.1889   -0.1661   -0.7667 C   0  0  1  0  0  0  0  0  0  0  0  0
    0.9335   -0.7623   -1.3078 H   0  0  0  0  0  0  0  0  0  0  0  0
    0.1161    1.2319   -1.4423 C   0  0  0  0  0  0  0  0  0  0  0  0
    0.8949    1.8767   -1.0211 H   0  0  0  0  0  0  0  0  0  0  0  0
    0.3651    1.0903   -2.4973 H   0  0  0  0  0  0  0  0  0  0  0  0
   -1.1980    2.0168   -1.4274 C   0  0  0  0  0  0  0  0  0  0  0  0
   -1.2056    3.1987   -1.7035 O   0  0  0  0  0  0  0  0  0  0  0  0
   -2.3886    1.5803   -0.9181 N   0  0  0  0  0  0  0  0  0  0  0  0
   -3.0516    2.3296   -0.7339 H   0  0  0  0  0  0  0  0  0  0  0  0
   -2.3510    0.7913   -0.2831 H   0  0  0  0  0  0  0  0  0  0  0  0
    0.7667    0.0153    0.6578 C   0  0  0  0  0  0  0  0  0  0  0  0
    1.9805    0.0555    0.8022 O   0  0  0  0  0  0  0  0  0  0  0  0
   -0.0484    0.4093    1.7047 N   0  0  0  0  0  0  0  0  0  0  0  0
   -1.0392    0.2293    1.5956 H   0  0  0  0  0  0  0  0  0  0  0  0
    0.4653    0.6544    3.0471 C   0  0  0  0  0  0  0  0  0  0  0  0
    1.2178    1.4500    3.0310 H   0  0  0  0  0  0  0  0  0  0  0  0
   -0.3463    0.9640    3.7123 H   0  0  0  0  0  0  0  0  0  0  0  0
    0.9219   -0.2542    3.4537 H   0  0  0  0  0  0  0  0  0  0  0  0
  1  2  1  0  0  0  0
  2  3  1  0  0  0  0
  2  4  1  0  0  0  0
  2  5  1  0  0  0  0
  5  6  2  0  0  0  0
  5  7  1  0  0  0  0
  7  8  1  0  0  0  0
  7  9  1  0  0  0  0
  9 10  1  0  0  0  0
  9 11  1  0  0  0  0
  9 19  1  0  0  0  0
 11 12  1  0  0  0  0
 11 13  1  0  0  0  0
 11 14  1  0  0  0  0
 14 15  2  0  0  0  0
 14 16  1  0  0  0  0
 16 17  1  0  0  0  0
 16 18  1  0  0  0  0
 19 20  2  0  0  0  0
 19 21  1  0  0  0  0
 21 22  1  0  0  0  0
 21 23  1  0  0  0  0
 23 24  1  0  0  0  0
 23 25  1  0  0  0  0
 23 26  1  0  0  0  0
M  END
$$$$

  -OEChem-03222214023D

 26 25  0     1  0  0  0  0  0999 V2000
   -2.5789   -3.8576   -0.2894 H   0  0  0  0  0  0  0  0  0  0  0  0
   -2.5917   -2.8450   -0.7032 C   0  0  0  0  0  0  0  0  0  0  0  0
   -3.4554   -2.3121   -0.2987 H   0  0  0  0  0  0  0  0  0  0  0  0
   -2.6889   -2.9123   -1.7895 H   0  0  0  0  0  0  0  0  0  0  0  0
   -1.3114   -2.1168   -0.3391 C   0  0  0  0  0  0  0  0  0  0  0  0
   -0.4666   -2.6771    0.3331 O   0  0  0  0  0  0  0  0  0  0  0  0
   -1.1182   -0.8154   -0.7665 N   0  0  0  0  0  0  0  0  0  0  0  0
   -1.7747   -0.4993   -1.4763 H   0  0  0  0  0  0  0  0  0  0  0  0
    0.1938   -0.1335   -0.7139 C   0  0  1  0  0  0  0  0  0  0  0  0
    0.9086   -0.7364   -1.2868 H   0  0  0  0  0  0  0  0  0  0  0  0
    0.1249    1.2677   -1.3676 C   0  0  0  0  0  0  0  0  0  0  0  0
    1.0415    1.8173   -1.1298 H   0  0  0  0  0  0  0  0  0  0  0  0
    0.1045    1.1314   -2.4519 H   0  0  0  0  0  0  0  0  0  0  0  0
   -1.0645    2.1604   -1.0114 C   0  0  0  0  0  0  0  0  0  0  0  0
   -1.1667    3.2683   -1.4971 O   0  0  0  0  0  0  0  0  0  0  0  0
   -2.0778    1.8235   -0.1567 N   0  0  0  0  0  0  0  0  0  0  0  0
   -2.8637    2.4673   -0.1159 H   0  0  0  0  0  0  0  0  0  0  0  0
   -2.1805    0.8572    0.1303 H   0  0  0  0  0  0  0  0  0  0  0  0
    0.8175    0.0017    0.6974 C   0  0  0  0  0  0  0  0  0  0  0  0
    2.0350   -0.0378    0.8059 O   0  0  0  0  0  0  0  0  0  0  0  0
    0.0640    0.4042    1.7857 N   0  0  0  0  0  0  0  0  0  0  0  0
   -0.9434    0.3976    1.6839 H   0  0  0  0  0  0  0  0  0  0  0  0
    0.6327    0.6143    3.1112 C   0  0  0  0  0  0  0  0  0  0  0  0
    1.4040    1.3910    3.0787 H   0  0  0  0  0  0  0  0  0  0  0  0
   -0.1458    0.9318    3.8112 H   0  0  0  0  0  0  0  0  0  0  0  0
    1.0807   -0.3119    3.4863 H   0  0  0  0  0  0  0  0  0  0  0  0
  1  2  1  0  0  0  0
  2  3  1  0  0  0  0
  2  4  1  0  0  0  0
  2  5  1  0  0  0  0
  5  6  2  0  0  0  0
  5  7  1  0  0  0  0
  7  8  1  0  0  0  0
  7  9  1  0  0  0  0
  9 10  1  0  0  0  0
  9 11  1  0  0  0  0
  9 19  1  0  0  0  0
 11 12  1  0  0  0  0
 11 13  1  0  0  0  0
 11 14  1  0  0  0  0
 14 15  2  0  0  0  0
 14 16  1  0  0  0  0
 16 17  1  0  0  0  0
 16 18  1  0  0  0  0
 19 20  2  0  0  0  0
 19 21  1  0  0  0  0
 21 22  1  0  0  0  0
 21 23  1  0  0  0  0
 23 24  1  0  0  0  0
 23 25  1  0  0  0  0
 23 26  1  0  0  0  0
M  END
$$$$

  -OEChem-03222214023D

 26 25  0     1  0  0  0  0  0999 V2000
   -2.5176   -3.9152   -0.3101 H   0  0  0  0  0  0  0  0  0  0  0  0
   -2.5731   -2.8815   -0.6636 C   0  0  0  0  0  0  0  0  0  0  0  0
   -3.3862   -2.3733   -0.1395 H   0  0  0  0  0  0  0  0  0  0  0  0
   -2.7878   -2.8894   -1.7350 H   0  0  0  0  0  0  0  0  0  0  0  0
   -1.2591   -2.1694   -0.4018 C   0  0  0  0  0  0  0  0  0  0  0  0
   -0.3590   -2.7455    0.1816 O   0  0  0  0  0  0  0  0  0  0  0  0
   -1.0942   -0.8568   -0.8001 N   0  0  0  0  0  0  0  0  0  0  0  0
   -1.8587   -0.4473   -1.3320 H   0  0  0  0  0  0  0  0  0  0  0  0
    0.1857   -0.1221   -0.7371 C   0  0  1  0  0  0  0  0  0  0  0  0
    0.9274   -0.7100   -1.2910 H   0  0  0  0  0  0  0  0  0  0  0  0
    0.0861    1.2500   -1.4423 C   0  0  0  0  0  0  0  0  0  0  0  0
    0.9710    1.8445   -1.1948 H   0  0  0  0  0  0  0  0  0  0  0  0
    0.1017    1.0785   -2.5222 H   0  0  0  0  0  0  0  0  0  0  0  0
   -1.1512    2.0874   -1.1380 C   0  0  0  0  0  0  0  0  0  0  0  0
   -1.4479    3.0332   -1.8390 O   0  0  0  0  0  0  0  0  0  0  0  0
   -1.8073    2.0643    0.0581 N   0  0  0  0  0  0  0  0  0  0  0  0
   -2.3679    2.8967    0.2211 H   0  0  0  0  0  0  0  0  0  0  0  0
   -1.2822    1.6819    0.8395 H   0  0  0  0  0  0  0  0  0  0  0  0
    0.7727   -0.0039    0.6885 C   0  0  0  0  0  0  0  0  0  0  0  0
    1.9801    0.1404    0.8138 O   0  0  0  0  0  0  0  0  0  0  0  0
   -0.0495    0.3354    1.7503 N   0  0  0  0  0  0  0  0  0  0  0  0
   -0.9904   -0.0441    1.6846 H   0  0  0  0  0  0  0  0  0  0  0  0
    0.4844    0.5703    3.0879 C   0  0  0  0  0  0  0  0  0  0  0  0
    1.1880    1.4097    3.0792 H   0  0  0  0  0  0  0  0  0  0  0  0
   -0.3264    0.8097    3.7827 H   0  0  0  0  0  0  0  0  0  0  0  0
    1.0054   -0.3207    3.4544 H   0  0  0  0  0  0  0  0  0  0  0  0
  1  2  1  0  0  0  0
  2  3  1  0  0  0  0
  2  4  1  0  0  0  0
  2  5  1  0  0  0  0
  5  6  2  0  0  0  0
  5  7  1  0  0  0  0
  7  8  1  0  0  0  0
  7  9  1  0  0  0  0
  9 10  1  0  0  0  0
  9 11  1  0  0  0  0
  9 19  1  0  0  0  0
 11 12  1  0  0  0  0
 11 13  1  0  0  0  0
 11 14  1  0  0  0  0
 14 15  2  0  0  0  0
 14 16  1  0  0  0  0
 16 17  1  0  0  0  0
 16 18  1  0  0  0  0
 19 20  2  0  0  0  0
 19 21  1  0  0  0  0
 21 22  1  0  0  0  0
 21 23  1  0  0  0  0
 23 24  1  0  0  0  0
 23 25  1  0  0  0  0
 23 26  1  0  0  0  0
M  END
$$$$

  -OEChem-03222214023D

 26 25  0     1  0  0  0  0  0999 V2000
   -2.5441   -3.8802   -0.3184 H   0  0  0  0  0  0  0  0  0  0  0  0
   -2.5942   -2.8403   -0.6541 C   0  0  0  0  0  0  0  0  0  0  0  0
   -3.3994   -2.3350   -0.1151 H   0  0  0  0  0  0  0  0  0  0  0  0
   -2.8166   -2.8280   -1.7241 H   0  0  0  0  0  0  0  0  0  0  0  0
   -1.2733   -2.1424   -0.3897 C   0  0  0  0  0  0  0  0  0  0  0  0
   -0.3790   -2.7291    0.1925 O   0  0  0  0  0  0  0  0  0  0  0  0
   -1.0953   -0.8322   -0.7899 N   0  0  0  0  0  0  0  0  0  0  0  0
   -1.8501   -0.4223   -1.3355 H   0  0  0  0  0  0  0  0  0  0  0  0
    0.1928   -0.1128   -0.7294 C   0  0  1  0  0  0  0  0  0  0  0  0
    0.9274   -0.7057   -1.2874 H   0  0  0  0  0  0  0  0  0  0  0  0
    0.0918    1.2582   -1.4336 C   0  0  0  0  0  0  0  0  0  0  0  0
    0.9767    1.8549   -1.1927 H   0  0  0  0  0  0  0  0  0  0  0  0
    0.0980    1.0895   -2.5143 H   0  0  0  0  0  0  0  0  0  0  0  0
   -1.1490    2.0796   -1.1050 C   0  0  0  0  0  0  0  0  0  0  0  0
   -1.6240    2.8455   -1.9187 O   0  0  0  0  0  0  0  0  0  0  0  0
   -1.6351    2.2307    0.1611 N   0  0  0  0  0  0  0  0  0  0  0  0
   -2.2243    3.0504    0.2805 H   0  0  0  0  0  0  0  0  0  0  0  0
   -1.0120    1.9634    0.9198 H   0  0  0  0  0  0  0  0  0  0  0  0
    0.7869    0.0021    0.6938 C   0  0  0  0  0  0  0  0  0  0  0  0
    1.9980    0.1136    0.8170 O   0  0  0  0  0  0  0  0  0  0  0  0
   -0.0212    0.3532    1.7620 N   0  0  0  0  0  0  0  0  0  0  0  0
   -0.9896    0.0561    1.6734 H   0  0  0  0  0  0  0  0  0  0  0  0
    0.5130    0.5254    3.1088 C   0  0  0  0  0  0  0  0  0  0  0  0
    1.2577    1.3282    3.1282 H   0  0  0  0  0  0  0  0  0  0  0  0
   -0.2902    0.7860    3.8046 H   0  0  0  0  0  0  0  0  0  0  0  0
    0.9852   -0.4005    3.4543 H   0  0  0  0  0  0  0  0  0  0  0  0
  1  2  1  0  0  0  0
  2  3  1  0  0  0  0
  2  4  1  0  0  0  0
  2  5  1  0  0  0  0
  5  6  2  0  0  0  0
  5  7  1  0  0  0  0
  7  8  1  0  0  0  0
  7  9  1  0  0  0  0
  9 10  1  0  0  0  0
  9 11  1  0  0  0  0
  9 19  1  0  0  0  0
 11 12  1  0  0  0  0
 11 13  1  0  0  0  0
 11 14  1  0  0  0  0
 14 15  2  0  0  0  0
 14 16  1  0  0  0  0
 16 17  1  0  0  0  0
 16 18  1  0  0  0  0
 19 20  2  0  0  0  0
 19 21  1  0  0  0  0
 21 22  1  0  0  0  0
 21 23  1  0  0  0  0
 23 24  1  0  0  0  0
 23 25  1  0  0  0  0
 23 26  1  0  0  0  0
M  END
$$$$

  -OEChem-03222214023D

 26 25  0     1  0  0  0  0  0999 V2000
   -2.5793   -3.8413   -0.3177 H   0  0  0  0  0  0  0  0  0  0  0  0
   -2.6159   -2.8010   -0.6540 C   0  0  0  0  0  0  0  0  0  0  0  0
   -3.4188   -2.2864   -0.1206 H   0  0  0  0  0  0  0  0  0  0  0  0
   -2.8314   -2.7869   -1.7252 H   0  0  0  0  0  0  0  0  0  0  0  0
   -1.2893   -2.1171   -0.3818 C   0  0  0  0  0  0  0  0  0  0  0  0
   -0.4038   -2.7148    0.2028 O   0  0  0  0  0  0  0  0  0  0  0  0
   -1.0928   -0.8111   -0.7871 N   0  0  0  0  0  0  0  0  0  0  0  0
   -1.8371   -0.3962   -1.3442 H   0  0  0  0  0  0  0  0  0  0  0  0
    0.2055   -0.1105   -0.7265 C   0  0  1  0  0  0  0  0  0  0  0  0
    0.9325   -0.7091   -1.2883 H   0  0  0  0  0  0  0  0  0  0  0  0
    0.1090    1.2631   -1.4227 C   0  0  0  0  0  0  0  0  0  0  0  0
    0.9969    1.8569   -1.1861 H   0  0  0  0  0  0  0  0  0  0  0  0
    0.1045    1.1029   -2.5048 H   0  0  0  0  0  0  0  0  0  0  0  0
   -1.1313    2.0723   -1.0660 C   0  0  0  0  0  0  0  0  0  0  0  0
   -1.7814    2.6348   -1.9240 O   0  0  0  0  0  0  0  0  0  0  0  0
   -1.4672    2.3940    0.2172 N   0  0  0  0  0  0  0  0  0  0  0  0
   -2.0970    3.1868    0.3069 H   0  0  0  0  0  0  0  0  0  0  0  0
   -0.7684    2.2284    0.9387 H   0  0  0  0  0  0  0  0  0  0  0  0
    0.8026    0.0040    0.6955 C   0  0  0  0  0  0  0  0  0  0  0  0
    2.0161    0.0840    0.8206 O   0  0  0  0  0  0  0  0  0  0  0  0
    0.0037    0.3730    1.7639 N   0  0  0  0  0  0  0  0  0  0  0  0
   -0.9844    0.1579    1.6576 H   0  0  0  0  0  0  0  0  0  0  0  0
    0.5308    0.5227    3.1158 C   0  0  0  0  0  0  0  0  0  0  0  0
    1.3031    1.2989    3.1445 H   0  0  0  0  0  0  0  0  0  0  0  0
   -0.2697    0.8094    3.8046 H   0  0  0  0  0  0  0  0  0  0  0  0
    0.9671   -0.4202    3.4627 H   0  0  0  0  0  0  0  0  0  0  0  0
  1  2  1  0  0  0  0
  2  3  1  0  0  0  0
  2  4  1  0  0  0  0
  2  5  1  0  0  0  0
  5  6  2  0  0  0  0
  5  7  1  0  0  0  0
  7  8  1  0  0  0  0
  7  9  1  0  0  0  0
  9 10  1  0  0  0  0
  9 11  1  0  0  0  0
  9 19  1  0  0  0  0
 11 12  1  0  0  0  0
 11 13  1  0  0  0  0
 11 14  1  0  0  0  0
 14 15  2  0  0  0  0
 14 16  1  0  0  0  0
 16 17  1  0  0  0  0
 16 18  1  0  0  0  0
 19 20  2  0  0  0  0
 19 21  1  0  0  0  0
 21 22  1  0  0  0  0
 21 23  1  0  0  0  0
 23 24  1  0  0  0  0
 23 25  1  0  0  0  0
 23 26  1  0  0  0  0
M  END
$$$$

  -OEChem-03222214023D

 26 25  0     1  0  0  0  0  0999 V2000
   -2.6179   -3.7910   -0.2979 H   0  0  0  0  0  0  0  0  0  0  0  0
   -2.6356   -2.7535   -0.6438 C   0  0  0  0  0  0  0  0  0  0  0  0
   -3.4237   -2.2175   -0.1094 H   0  0  0  0  0  0  0  0  0  0  0  0
   -2.8589   -2.7442   -1.7134 H   0  0  0  0  0  0  0  0  0  0  0  0
   -1.2930   -2.0950   -0.3877 C   0  0  0  0  0  0  0  0  0  0  0  0
   -0.4125   -2.7092    0.1875 O   0  0  0  0  0  0  0  0  0  0  0  0
   -1.0759   -0.7940   -0.7978 N   0  0  0  0  0  0  0  0  0  0  0  0
   -1.8178   -0.3632   -1.3474 H   0  0  0  0  0  0  0  0  0  0  0  0
    0.2297   -0.1080   -0.7325 C   0  0  1  0  0  0  0  0  0  0  0  0
    0.9548   -0.7093   -1.2937 H   0  0  0  0  0  0  0  0  0  0  0  0
    0.1349    1.2688   -1.4193 C   0  0  0  0  0  0  0  0  0  0  0  0
    1.0236    1.8617   -1.1846 H   0  0  0  0  0  0  0  0  0  0  0  0
    0.1223    1.1192   -2.5029 H   0  0  0  0  0  0  0  0  0  0  0  0
   -1.1081    2.0612   -1.0380 C   0  0  0  0  0  0  0  0  0  0  0  0
   -1.9187    2.4013   -1.8768 O   0  0  0  0  0  0  0  0  0  0  0  0
   -1.3190    2.5474    0.2201 N   0  0  0  0  0  0  0  0  0  0  0  0
   -2.0109    3.2879    0.2960 H   0  0  0  0  0  0  0  0  0  0  0  0
   -0.5525    2.4989    0.8878 H   0  0  0  0  0  0  0  0  0  0  0  0
    0.8192    0.0077    0.6924 C   0  0  0  0  0  0  0  0  0  0  0  0
    2.0330    0.0648    0.8276 O   0  0  0  0  0  0  0  0  0  0  0  0
    0.0193    0.3922    1.7539 N   0  0  0  0  0  0  0  0  0  0  0  0
   -0.9779    0.2406    1.6282 H   0  0  0  0  0  0  0  0  0  0  0  0
    0.5311    0.5379    3.1116 C   0  0  0  0  0  0  0  0  0  0  0  0
    1.3212    1.2954    3.1466 H   0  0  0  0  0  0  0  0  0  0  0  0
   -0.2720    0.8481    3.7870 H   0  0  0  0  0  0  0  0  0  0  0  0
    0.9392   -0.4131    3.4700 H   0  0  0  0  0  0  0  0  0  0  0  0
  1  2  1  0  0  0  0
  2  3  1  0  0  0  0
  2  4  1  0  0  0  0
  2  5  1  0  0  0  0
  5  6  2  0  0  0  0
  5  7  1  0  0  0  0
  7  8  1  0  0  0  0
  7  9  1  0  0  0  0
  9 10  1  0  0  0  0
  9 11  1  0  0  0  0
  9 19  1  0  0  0  0
 11 12  1  0  0  0  0
 11 13  1  0  0  0  0
 11 14  1  0  0  0  0
 14 15  2  0  0  0  0
 14 16  1  0  0  0  0
 16 17  1  0  0  0  0
 16 18  1  0  0  0  0
 19 20  2  0  0  0  0
 19 21  1  0  0  0  0
 21 22  1  0  0  0  0
 21 23  1  0  0  0  0
 23 24  1  0  0  0  0
 23 25  1  0  0  0  0
 23 26  1  0  0  0  0
M  END
$$$$

  -OEChem-03222214023D

 26 25  0     1  0  0  0  0  0999 V2000
   -2.6513   -3.7459   -0.2723 H   0  0  0  0  0  0  0  0  0  0  0  0
   -2.6517   -2.7122   -0.6300 C   0  0  0  0  0  0  0  0  0  0  0  0
   -3.4213   -2.1536   -0.0921 H   0  0  0  0  0  0  0  0  0  0  0  0
   -2.8882   -2.7102   -1.6968 H   0  0  0  0  0  0  0  0  0  0  0  0
   -1.2928   -2.0783   -0.3983 C   0  0  0  0  0  0  0  0  0  0  0  0
   -0.4136   -2.7080    0.1624 O   0  0  0  0  0  0  0  0  0  0  0  0
   -1.0574   -0.7828   -0.8146 N   0  0  0  0  0  0  0  0  0  0  0  0
   -1.8046   -0.3270   -1.3386 H   0  0  0  0  0  0  0  0  0  0  0  0
    0.2532   -0.1077   -0.7441 C   0  0  1  0  0  0  0  0  0  0  0  0
    0.9785   -0.7115   -1.3020 H   0  0  0  0  0  0  0  0  0  0  0  0
    0.1616    1.2720   -1.4228 C   0  0  0  0  0  0  0  0  0  0  0  0
    1.0512    1.8642   -1.1892 H   0  0  0  0  0  0  0  0  0  0  0  0
    0.1413    1.1317   -2.5074 H   0  0  0  0  0  0  0  0  0  0  0  0
   -1.0838    2.0486   -1.0217 C   0  0  0  0  0  0  0  0  0  0  0  0
   -2.0257    2.1595   -1.7825 O   0  0  0  0  0  0  0  0  0  0  0  0
   -1.1902    2.7037    0.1714 N   0  0  0  0  0  0  0  0  0  0  0  0
   -1.9440    3.3807    0.2475 H   0  0  0  0  0  0  0  0  0  0  0  0
   -0.3631    2.7900    0.7569 H   0  0  0  0  0  0  0  0  0  0  0  0
    0.8308    0.0125    0.6846 C   0  0  0  0  0  0  0  0  0  0  0  0
    2.0441    0.0524    0.8320 O   0  0  0  0  0  0  0  0  0  0  0  0
    0.0247    0.4116    1.7356 N   0  0  0  0  0  0  0  0  0  0  0  0
   -0.9758    0.3061    1.5925 H   0  0  0  0  0  0  0  0  0  0  0  0
    0.5212    0.5650    3.0978 C   0  0  0  0  0  0  0  0  0  0  0  0
    1.3169    1.3161    3.1352 H   0  0  0  0  0  0  0  0  0  0  0  0
   -0.2872    0.8876    3.7608 H   0  0  0  0  0  0  0  0  0  0  0  0
    0.9174   -0.3859    3.4695 H   0  0  0  0  0  0  0  0  0  0  0  0
  1  2  1  0  0  0  0
  2  3  1  0  0  0  0
  2  4  1  0  0  0  0
  2  5  1  0  0  0  0
  5  6  2  0  0  0  0
  5  7  1  0  0  0  0
  7  8  1  0  0  0  0
  7  9  1  0  0  0  0
  9 10  1  0  0  0  0
  9 11  1  0  0  0  0
  9 19  1  0  0  0  0
 11 12  1  0  0  0  0
 11 13  1  0  0  0  0
 11 14  1  0  0  0  0
 14 15  2  0  0  0  0
 14 16  1  0  0  0  0
 16 17  1  0  0  0  0
 16 18  1  0  0  0  0
 19 20  2  0  0  0  0
 19 21  1  0  0  0  0
 21 22  1  0  0  0  0
 21 23  1  0  0  0  0
 23 24  1  0  0  0  0
 23 25  1  0  0  0  0
 23 26  1  0  0  0  0
M  END
$$$$

  -OEChem-03222214023D

 26 25  0     1  0  0  0  0  0999 V2000
   -2.6684   -3.7128   -0.2449 H   0  0  0  0  0  0  0  0  0  0  0  0
   -2.6594   -2.6796   -0.6036 C   0  0  0  0  0  0  0  0  0  0  0  0
   -3.4025   -2.1060   -0.0447 H   0  0  0  0  0  0  0  0  0  0  0  0
   -2.9266   -2.6730   -1.6631 H   0  0  0  0  0  0  0  0  0  0  0  0
   -1.2824   -2.0722   -0.4124 C   0  0  0  0  0  0  0  0  0  0  0  0
   -0.3989   -2.7184    0.1226 O   0  0  0  0  0  0  0  0  0  0  0  0
   -1.0355   -0.7818   -0.8360 N   0  0  0  0  0  0  0  0  0  0  0  0
   -1.7991   -0.2941   -1.3077 H   0  0  0  0  0  0  0  0  0  0  0  0
    0.2754   -0.1090   -0.7633 C   0  0  1  0  0  0  0  0  0  0  0  0
    1.0042   -0.7128   -1.3165 H   0  0  0  0  0  0  0  0  0  0  0  0
    0.1864    1.2746   -1.4348 C   0  0  0  0  0  0  0  0  0  0  0  0
    1.0781    1.8639   -1.2009 H   0  0  0  0  0  0  0  0  0  0  0  0
    0.1601    1.1415   -2.5201 H   0  0  0  0  0  0  0  0  0  0  0  0
   -1.0594    2.0446   -1.0233 C   0  0  0  0  0  0  0  0  0  0  0  0
   -2.0979    1.9406   -1.6497 O   0  0  0  0  0  0  0  0  0  0  0  0
   -1.0834    2.8650    0.0678 N   0  0  0  0  0  0  0  0  0  0  0  0
   -1.8898    3.4758    0.1629 H   0  0  0  0  0  0  0  0  0  0  0  0
   -0.2109    3.0858    0.5400 H   0  0  0  0  0  0  0  0  0  0  0  0
    0.8370    0.0178    0.6707 C   0  0  0  0  0  0  0  0  0  0  0  0
    2.0487    0.0483    0.8351 O   0  0  0  0  0  0  0  0  0  0  0  0
    0.0172    0.4257    1.7076 N   0  0  0  0  0  0  0  0  0  0  0  0
   -0.9825    0.3433    1.5467 H   0  0  0  0  0  0  0  0  0  0  0  0
    0.4930    0.5937    3.0751 C   0  0  0  0  0  0  0  0  0  0  0  0
    1.2887    1.3449    3.1168 H   0  0  0  0  0  0  0  0  0  0  0  0
   -0.3255    0.9237    3.7218 H   0  0  0  0  0  0  0  0  0  0  0  0
    0.8823   -0.3536    3.4628 H   0  0  0  0  0  0  0  0  0  0  0  0
  1  2  1  0  0  0  0
  2  3  1  0  0  0  0
  2  4  1  0  0  0  0
  2  5  1  0  0  0  0
  5  6  2  0  0  0  0
  5  7  1  0  0  0  0
  7  8  1  0  0  0  0
  7  9  1  0  0  0  0
  9 10  1  0  0  0  0
  9 11  1  0  0  0  0
  9 19  1  0  0  0  0
 11 12  1  0  0  0  0
 11 13  1  0  0  0  0
 11 14  1  0  0  0  0
 14 15  2  0  0  0  0
 14 16  1  0  0  0  0
 16 17  1  0  0  0  0
 16 18  1  0  0  0  0
 19 20  2  0  0  0  0
 19 21  1  0  0  0  0
 21 22  1  0  0  0  0
 21 23  1  0  0  0  0
 23 24  1  0  0  0  0
 23 25  1  0  0  0  0
 23 26  1  0  0  0  0
M  END
$$$$

  -OEChem-03222214023D

 26 25  0     1  0  0  0  0  0999 V2000
   -2.6658   -3.7010   -0.2002 H   0  0  0  0  0  0  0  0  0  0  0  0
   -2.6547   -2.6697   -0.5640 C   0  0  0  0  0  0  0  0  0  0  0  0
   -3.3648   -2.0812    0.0219 H   0  0  0  0  0  0  0  0  0  0  0  0
   -2.9639   -2.6628   -1.6121 H   0  0  0  0  0  0  0  0  0  0  0  0
   -1.2618   -2.0838   -0.4321 C   0  0  0  0  0  0  0  0  0  0  0  0
   -0.3634   -2.7450    0.0585 O   0  0  0  0  0  0  0  0  0  0  0  0
   -1.0164   -0.7956   -0.8617 N   0  0  0  0  0  0  0  0  0  0  0  0
   -1.8043   -0.2755   -1.2546 H   0  0  0  0  0  0  0  0  0  0  0  0
    0.2889   -0.1145   -0.7881 C   0  0  1  0  0  0  0  0  0  0  0  0
    1.0248   -0.7131   -1.3372 H   0  0  0  0  0  0  0  0  0  0  0  0
    0.2022    1.2777   -1.4460 C   0  0  0  0  0  0  0  0  0  0  0  0
    1.0985    1.8582   -1.2084 H   0  0  0  0  0  0  0  0  0  0  0  0
    0.1743    1.1543   -2.5320 H   0  0  0  0  0  0  0  0  0  0  0  0
   -1.0393    2.0575   -1.0349 C   0  0  0  0  0  0  0  0  0  0  0  0
   -2.1406    1.7825   -1.4782 O   0  0  0  0  0  0  0  0  0  0  0  0
   -0.9939    3.0427   -0.0910 N   0  0  0  0  0  0  0  0  0  0  0  0
   -1.8320    3.6037    0.0307 H   0  0  0  0  0  0  0  0  0  0  0  0
   -0.0931    3.3810    0.2347 H   0  0  0  0  0  0  0  0  0  0  0  0
    0.8323    0.0193    0.6512 C   0  0  0  0  0  0  0  0  0  0  0  0
    2.0414    0.0537    0.8331 O   0  0  0  0  0  0  0  0  0  0  0  0
   -0.0066    0.4265    1.6731 N   0  0  0  0  0  0  0  0  0  0  0  0
   -1.0037    0.3549    1.4927 H   0  0  0  0  0  0  0  0  0  0  0  0
    0.4463    0.6147    3.0456 C   0  0  0  0  0  0  0  0  0  0  0  0
    1.2355    1.3724    3.0902 H   0  0  0  0  0  0  0  0  0  0  0  0
   -0.3846    0.9461    3.6755 H   0  0  0  0  0  0  0  0  0  0  0  0
    0.8367   -0.3247    3.4508 H   0  0  0  0  0  0  0  0  0  0  0  0
  1  2  1  0  0  0  0
  2  3  1  0  0  0  0
  2  4  1  0  0  0  0
  2  5  1  0  0  0  0
  5  6  2  0  0  0  0
  5  7  1  0  0  0  0
  7  8  1  0  0  0  0
  7  9  1  0  0  0  0
  9 10  1  0  0  0  0
  9 11  1  0  0  0  0
  9 19  1  0  0  0  0
 11 12  1  0  0  0  0
 11 13  1  0  0  0  0
 11 14  1  0  0  0  0
 14 15  2  0  0  0  0
 14 16  1  0  0  0  0
 16 17  1  0  0  0  0
 16 18  1  0  0  0  0
 19 20  2  0  0  0  0
 19 21  1  0  0  0  0
 21 22  1  0  0  0  0
 21 23  1  0  0  0  0
 23 24  1  0  0  0  0
 23 25  1  0  0  0  0
 23 26  1  0  0  0  0
M  END
$$$$

  -OEChem-03222214023D

 26 25  0     1  0  0  0  0  0999 V2000
   -2.6370   -3.7154   -0.1494 H   0  0  0  0  0  0  0  0  0  0  0  0
   -2.6368   -2.6863   -0.5197 C   0  0  0  0  0  0  0  0  0  0  0  0
   -3.3154   -2.0897    0.0947 H   0  0  0  0  0  0  0  0  0  0  0  0
   -2.9948   -2.6836   -1.5522 H   0  0  0  0  0  0  0  0  0  0  0  0
   -1.2357   -2.1082   -0.4561 C   0  0  0  0  0  0  0  0  0  0  0  0
   -0.3152   -2.7790   -0.0224 O   0  0  0  0  0  0  0  0  0  0  0  0
   -1.0074   -0.8170   -0.8852 N   0  0  0  0  0  0  0  0  0  0  0  0
   -1.8204   -0.2750   -1.1880 H   0  0  0  0  0  0  0  0  0  0  0  0
    0.2883   -0.1198   -0.8091 C   0  0  1  0  0  0  0  0  0  0  0  0
    1.0333   -0.7084   -1.3573 H   0  0  0  0  0  0  0  0  0  0  0  0
    0.2028    1.2840   -1.4481 C   0  0  0  0  0  0  0  0  0  0  0  0
    1.1041    1.8530   -1.2011 H   0  0  0  0  0  0  0  0  0  0  0  0
    0.1802    1.1717   -2.5353 H   0  0  0  0  0  0  0  0  0  0  0  0
   -1.0322    2.0848   -1.0460 C   0  0  0  0  0  0  0  0  0  0  0  0
   -2.1665    1.6966   -1.2694 O   0  0  0  0  0  0  0  0  0  0  0  0
   -0.9308    3.2409   -0.3270 N   0  0  0  0  0  0  0  0  0  0  0  0
   -1.7829    3.7762   -0.1875 H   0  0  0  0  0  0  0  0  0  0  0  0
   -0.0206    3.6684   -0.1855 H   0  0  0  0  0  0  0  0  0  0  0  0
    0.8175    0.0150    0.6351 C   0  0  0  0  0  0  0  0  0  0  0  0
    2.0244    0.0531    0.8312 O   0  0  0  0  0  0  0  0  0  0  0  0
   -0.0378    0.4089    1.6486 N   0  0  0  0  0  0  0  0  0  0  0  0
   -1.0328    0.3487    1.4520 H   0  0  0  0  0  0  0  0  0  0  0  0
    0.3976    0.6154    3.0240 C   0  0  0  0  0  0  0  0  0  0  0  0
    1.1773    1.3830    3.0698 H   0  0  0  0  0  0  0  0  0  0  0  0
   -0.4439    0.9431    3.6417 H   0  0  0  0  0  0  0  0  0  0  0  0
    0.7948   -0.3155    3.4420 H   0  0  0  0  0  0  0  0  0  0  0  0
  1  2  1  0  0  0  0
  2  3  1  0  0  0  0
  2  4  1  0  0  0  0
  2  5  1  0  0  0  0
  5  6  2  0  0  0  0
  5  7  1  0  0  0  0
  7  8  1  0  0  0  0
  7  9  1  0  0  0  0
  9 10  1  0  0  0  0
  9 11  1  0  0  0  0
  9 19  1  0  0  0  0
 11 12  1  0  0  0  0
 11 13  1  0  0  0  0
 11 14  1  0  0  0  0
 14 15  2  0  0  0  0
 14 16  1  0  0  0  0
 16 17  1  0  0  0  0
 16 18  1  0  0  0  0
 19 20  2  0  0  0  0
 19 21  1  0  0  0  0
 21 22  1  0  0  0  0
 21 23  1  0  0  0  0
 23 24  1  0  0  0  0
 23 25  1  0  0  0  0
 23 26  1  0  0  0  0
M  END
$$$$

  -OEChem-03222214023D

 26 25  0     1  0  0  0  0  0999 V2000
   -2.5963   -3.7304   -0.0838 H   0  0  0  0  0  0  0  0  0  0  0  0
   -2.6132   -2.7061   -0.4668 C   0  0  0  0  0  0  0  0  0  0  0  0
   -3.2703   -2.1039    0.1653 H   0  0  0  0  0  0  0  0  0  0  0  0
   -3.0090   -2.7172   -1.4853 H   0  0  0  0  0  0  0  0  0  0  0  0
   -1.2124   -2.1236   -0.4631 C   0  0  0  0  0  0  0  0  0  0  0  0
   -0.2739   -2.7896   -0.0616 O   0  0  0  0  0  0  0  0  0  0  0  0
   -1.0044   -0.8343   -0.9086 N   0  0  0  0  0  0  0  0  0  0  0  0
   -1.8346   -0.2859   -1.1457 H   0  0  0  0  0  0  0  0  0  0  0  0
    0.2826   -0.1210   -0.8405 C   0  0  1  0  0  0  0  0  0  0  0  0
    1.0355   -0.7058   -1.3814 H   0  0  0  0  0  0  0  0  0  0  0  0
    0.1950    1.2843   -1.4810 C   0  0  0  0  0  0  0  0  0  0  0  0
    1.0999    1.8476   -1.2343 H   0  0  0  0  0  0  0  0  0  0  0  0
    0.1769    1.1669   -2.5675 H   0  0  0  0  0  0  0  0  0  0  0  0
   -1.0324    2.1102   -1.0974 C   0  0  0  0  0  0  0  0  0  0  0  0
   -2.1657    1.6595   -1.0692 O   0  0  0  0  0  0  0  0  0  0  0  0
   -0.9078    3.4058   -0.6862 N   0  0  0  0  0  0  0  0  0  0  0  0
   -1.7326    3.8328   -0.2746 H   0  0  0  0  0  0  0  0  0  0  0  0
    0.0164    3.7698   -0.4752 H   0  0  0  0  0  0  0  0  0  0  0  0
    0.7985    0.0302    0.6064 C   0  0  0  0  0  0  0  0  0  0  0  0
    2.0026    0.0809    0.8162 O   0  0  0  0  0  0  0  0  0  0  0  0
   -0.0731    0.4225    1.6068 N   0  0  0  0  0  0  0  0  0  0  0  0
   -1.0651    0.3588    1.3948 H   0  0  0  0  0  0  0  0  0  0  0  0
    0.3416    0.6318    2.9879 C   0  0  0  0  0  0  0  0  0  0  0  0
    1.1038    1.4157    3.0459 H   0  0  0  0  0  0  0  0  0  0  0  0
   -0.5141    0.9377    3.5972 H   0  0  0  0  0  0  0  0  0  0  0  0
    0.7539   -0.2923    3.4068 H   0  0  0  0  0  0  0  0  0  0  0  0
  1  2  1  0  0  0  0
  2  3  1  0  0  0  0
  2  4  1  0  0  0  0
  2  5  1  0  0  0  0
  5  6  2  0  0  0  0
  5  7  1  0  0  0  0
  7  8  1  0  0  0  0
  7  9  1  0  0  0  0
  9 10  1  0  0  0  0
  9 11  1  0  0  0  0
  9 19  1  0  0  0  0
 11 12  1  0  0  0  0
 11 13  1  0  0  0  0
 11 14  1  0  0  0  0
 14 15  2  0  0  0  0
 14 16  1  0  0  0  0
 16 17  1  0  0  0  0
 16 18  1  0  0  0  0
 19 20  2  0  0  0  0
 19 21  1  0  0  0  0
 21 22  1  0  0  0  0
 21 23  1  0  0  0  0
 23 24  1  0  0  0  0
 23 25  1  0  0  0  0
 23 26  1  0  0  0  0
M  END
$$$$

  -OEChem-03222214023D

 26 25  0     1  0  0  0  0  0999 V2000
   -2.5607   -3.7440   -0.0416 H   0  0  0  0  0  0  0  0  0  0  0  0
   -2.5919   -2.7205   -0.4254 C   0  0  0  0  0  0  0  0  0  0  0  0
   -3.2072   -2.1123    0.2421 H   0  0  0  0  0  0  0  0  0  0  0  0
   -3.0458   -2.7304   -1.4193 H   0  0  0  0  0  0  0  0  0  0  0  0
   -1.1890   -2.1486   -0.5027 C   0  0  0  0  0  0  0  0  0  0  0  0
   -0.2314   -2.8311   -0.1817 O   0  0  0  0  0  0  0  0  0  0  0  0
   -1.0005   -0.8514   -0.9341 N   0  0  0  0  0  0  0  0  0  0  0  0
   -1.8433   -0.2891   -1.0709 H   0  0  0  0  0  0  0  0  0  0  0  0
    0.2812   -0.1295   -0.8524 C   0  0  1  0  0  0  0  0  0  0  0  0
    1.0410   -0.6999   -1.3992 H   0  0  0  0  0  0  0  0  0  0  0  0
    0.1851    1.2876   -1.4674 C   0  0  0  0  0  0  0  0  0  0  0  0
    1.0870    1.8487   -1.2053 H   0  0  0  0  0  0  0  0  0  0  0  0
    0.1735    1.1863   -2.5556 H   0  0  0  0  0  0  0  0  0  0  0  0
   -1.0426    2.1150   -1.0806 C   0  0  0  0  0  0  0  0  0  0  0  0
   -2.1313    1.6380   -0.8044 O   0  0  0  0  0  0  0  0  0  0  0  0
   -0.9709    3.4756   -0.9996 N   0  0  0  0  0  0  0  0  0  0  0  0
   -1.7664    3.9459   -0.5775 H   0  0  0  0  0  0  0  0  0  0  0  0
   -0.0604    3.9243   -1.0140 H   0  0  0  0  0  0  0  0  0  0  0  0
    0.7872    0.0046    0.5997 C   0  0  0  0  0  0  0  0  0  0  0  0
    1.9896    0.0386    0.8224 O   0  0  0  0  0  0  0  0  0  0  0  0
   -0.0936    0.3772    1.5993 N   0  0  0  0  0  0  0  0  0  0  0  0
   -1.0814    0.3995    1.3578 H   0  0  0  0  0  0  0  0  0  0  0  0
    0.3091    0.6200    2.9783 C   0  0  0  0  0  0  0  0  0  0  0  0
    1.0454    1.4291    3.0268 H   0  0  0  0  0  0  0  0  0  0  0  0
   -0.5583    0.9064    3.5806 H   0  0  0  0  0  0  0  0  0  0  0  0
    0.7496   -0.2841    3.4117 H   0  0  0  0  0  0  0  0  0  0  0  0
  1  2  1  0  0  0  0
  2  3  1  0  0  0  0
  2  4  1  0  0  0  0
  2  5  1  0  0  0  0
  5  6  2  0  0  0  0
  5  7  1  0  0  0  0
  7  8  1  0  0  0  0
  7  9  1  0  0  0  0
  9 10  1  0  0  0  0
  9 11  1  0  0  0  0
  9 19  1  0  0  0  0
 11 12  1  0  0  0  0
 11 13  1  0  0  0  0
 11 14  1  0  0  0  0
 14 15  2  0  0  0  0
 14 16  1  0  0  0  0
 16 17  1  0  0  0  0
 16 18  1  0  0  0  0
 19 20  2  0  0  0  0
 19 21  1  0  0  0  0
 21 22  1  0  0  0  0
 21 23  1  0  0  0  0
 23 24  1  0  0  0  0
 23 25  1  0  0  0  0
 23 26  1  0  0  0  0
M  END
$$$$

  -OEChem-03222214023D

 26 25  0     1  0  0  0  0  0999 V2000
   -2.5404   -3.7627   -0.0451 H   0  0  0  0  0  0  0  0  0  0  0  0
   -2.5830   -2.7304   -0.4040 C   0  0  0  0  0  0  0  0  0  0  0  0
   -3.1594   -2.1338    0.3071 H   0  0  0  0  0  0  0  0  0  0  0  0
   -3.0859   -2.7150   -1.3739 H   0  0  0  0  0  0  0  0  0  0  0  0
   -1.1813   -2.1657   -0.5385 C   0  0  0  0  0  0  0  0  0  0  0  0
   -0.2146   -2.8637   -0.2848 O   0  0  0  0  0  0  0  0  0  0  0  0
   -1.0040   -0.8621   -0.9561 N   0  0  0  0  0  0  0  0  0  0  0  0
   -1.8489   -0.2899   -1.0050 H   0  0  0  0  0  0  0  0  0  0  0  0
    0.2789   -0.1436   -0.8573 C   0  0  1  0  0  0  0  0  0  0  0  0
    1.0421   -0.7062   -1.4073 H   0  0  0  0  0  0  0  0  0  0  0  0
    0.1837    1.2815   -1.4532 C   0  0  0  0  0  0  0  0  0  0  0  0
    1.0829    1.8411   -1.1785 H   0  0  0  0  0  0  0  0  0  0  0  0
    0.1773    1.1922   -2.5425 H   0  0  0  0  0  0  0  0  0  0  0  0
   -1.0452    2.1055   -1.0623 C   0  0  0  0  0  0  0  0  0  0  0  0
   -2.0498    1.6396   -0.5483 O   0  0  0  0  0  0  0  0  0  0  0  0
   -1.0760    3.4536   -1.2735 N   0  0  0  0  0  0  0  0  0  0  0  0
   -1.8456    3.9615   -0.8465 H   0  0  0  0  0  0  0  0  0  0  0  0
   -0.2165    3.9367   -1.5156 H   0  0  0  0  0  0  0  0  0  0  0  0
    0.7757   -0.0300    0.6003 C   0  0  0  0  0  0  0  0  0  0  0  0
    1.9763   -0.0197    0.8351 O   0  0  0  0  0  0  0  0  0  0  0  0
   -0.1119    0.3316    1.5979 N   0  0  0  0  0  0  0  0  0  0  0  0
   -1.0802    0.4799    1.3189 H   0  0  0  0  0  0  0  0  0  0  0  0
    0.2902    0.6342    2.9649 C   0  0  0  0  0  0  0  0  0  0  0  0
    0.9503    1.5075    2.9866 H   0  0  0  0  0  0  0  0  0  0  0  0
   -0.5900    0.8484    3.5785 H   0  0  0  0  0  0  0  0  0  0  0  0
    0.8185   -0.2181    3.4049 H   0  0  0  0  0  0  0  0  0  0  0  0
  1  2  1  0  0  0  0
  2  3  1  0  0  0  0
  2  4  1  0  0  0  0
  2  5  1  0  0  0  0
  5  6  2  0  0  0  0
  5  7  1  0  0  0  0
  7  8  1  0  0  0  0
  7  9  1  0  0  0  0
  9 10  1  0  0  0  0
  9 11  1  0  0  0  0
  9 19  1  0  0  0  0
 11 12  1  0  0  0  0
 11 13  1  0  0  0  0
 11 14  1  0  0  0  0
 14 15  2  0  0  0  0
 14 16  1  0  0  0  0
 16 17  1  0  0  0  0
 16 18  1  0  0  0  0
 19 20  2  0  0  0  0
 19 21  1  0  0  0  0
 21 22  1  0  0  0  0
 21 23  1  0  0  0  0
 23 24  1  0  0  0  0
 23 25  1  0  0  0  0
 23 26  1  0  0  0  0
M  END
$$$$

  -OEChem-03222214023D

 26 25  0     1  0  0  0  0  0999 V2000
   -2.5362   -3.7610   -0.0550 H   0  0  0  0  0  0  0  0  0  0  0  0
   -2.5810   -2.7237   -0.3986 C   0  0  0  0  0  0  0  0  0  0  0  0
   -3.1313   -2.1324    0.3374 H   0  0  0  0  0  0  0  0  0  0  0  0
   -3.1123   -2.6909   -1.3528 H   0  0  0  0  0  0  0  0  0  0  0  0
   -1.1793   -2.1679   -0.5671 C   0  0  0  0  0  0  0  0  0  0  0  0
   -0.2107   -2.8783   -0.3589 O   0  0  0  0  0  0  0  0  0  0  0  0
   -1.0065   -0.8583   -0.9678 N   0  0  0  0  0  0  0  0  0  0  0  0
   -1.8495   -0.2829   -0.9539 H   0  0  0  0  0  0  0  0  0  0  0  0
    0.2775   -0.1445   -0.8447 C   0  0  1  0  0  0  0  0  0  0  0  0
    1.0442   -0.7052   -1.3922 H   0  0  0  0  0  0  0  0  0  0  0  0
    0.1828    1.2773   -1.4456 C   0  0  0  0  0  0  0  0  0  0  0  0
    1.0718    1.8473   -1.1586 H   0  0  0  0  0  0  0  0  0  0  0  0
    0.1930    1.1828   -2.5346 H   0  0  0  0  0  0  0  0  0  0  0  0
   -1.0604    2.0866   -1.0719 C   0  0  0  0  0  0  0  0  0  0  0  0
   -1.9506    1.6736   -0.3449 O   0  0  0  0  0  0  0  0  0  0  0  0
   -1.2387    3.3532   -1.5478 N   0  0  0  0  0  0  0  0  0  0  0  0
   -1.9953    3.8901   -1.1331 H   0  0  0  0  0  0  0  0  0  0  0  0
   -0.4606    3.8277   -1.9948 H   0  0  0  0  0  0  0  0  0  0  0  0
    0.7704   -0.0455    0.6159 C   0  0  0  0  0  0  0  0  0  0  0  0
    1.9702   -0.0623    0.8546 O   0  0  0  0  0  0  0  0  0  0  0  0
   -0.1152    0.3081    1.6178 N   0  0  0  0  0  0  0  0  0  0  0  0
   -1.0606    0.5479    1.3197 H   0  0  0  0  0  0  0  0  0  0  0  0
    0.2983    0.6275    2.9775 C   0  0  0  0  0  0  0  0  0  0  0  0
    0.9335    1.5191    2.9857 H   0  0  0  0  0  0  0  0  0  0  0  0
   -0.5788    0.8184    3.6032 H   0  0  0  0  0  0  0  0  0  0  0  0
    0.8568   -0.2078    3.4131 H   0  0  0  0  0  0  0  0  0  0  0  0
  1  2  1  0  0  0  0
  2  3  1  0  0  0  0
  2  4  1  0  0  0  0
  2  5  1  0  0  0  0
  5  6  2  0  0  0  0
  5  7  1  0  0  0  0
  7  8  1  0  0  0  0
  7  9  1  0  0  0  0
  9 10  1  0  0  0  0
  9 11  1  0  0  0  0
  9 19  1  0  0  0  0
 11 12  1  0  0  0  0
 11 13  1  0  0  0  0
 11 14  1  0  0  0  0
 14 15  2  0  0  0  0
 14 16  1  0  0  0  0
 16 17  1  0  0  0  0
 16 18  1  0  0  0  0
 19 20  2  0  0  0  0
 19 21  1  0  0  0  0
 21 22  1  0  0  0  0
 21 23  1  0  0  0  0
 23 24  1  0  0  0  0
 23 25  1  0  0  0  0
 23 26  1  0  0  0  0
M  END
$$$$

  -OEChem-03222214023D

 26 25  0     1  0  0  0  0  0999 V2000
   -2.5301   -3.7595   -0.0649 H   0  0  0  0  0  0  0  0  0  0  0  0
   -2.5808   -2.7204   -0.4024 C   0  0  0  0  0  0  0  0  0  0  0  0
   -3.1213   -2.1343    0.3446 H   0  0  0  0  0  0  0  0  0  0  0  0
   -3.1251   -2.6833   -1.3490 H   0  0  0  0  0  0  0  0  0  0  0  0
   -1.1822   -2.1622   -0.5866 C   0  0  0  0  0  0  0  0  0  0  0  0
   -0.2110   -2.8764   -0.4056 O   0  0  0  0  0  0  0  0  0  0  0  0
   -1.0154   -0.8464   -0.9705 N   0  0  0  0  0  0  0  0  0  0  0  0
   -1.8585   -0.2747   -0.9258 H   0  0  0  0  0  0  0  0  0  0  0  0
    0.2682   -0.1357   -0.8244 C   0  0  1  0  0  0  0  0  0  0  0  0
    1.0372   -0.6978   -1.3675 H   0  0  0  0  0  0  0  0  0  0  0  0
    0.1784    1.2770   -1.4440 C   0  0  0  0  0  0  0  0  0  0  0  0
    1.0541    1.8610   -1.1448 H   0  0  0  0  0  0  0  0  0  0  0  0
    0.2112    1.1700   -2.5313 H   0  0  0  0  0  0  0  0  0  0  0  0
   -1.0828    2.0670   -1.0969 C   0  0  0  0  0  0  0  0  0  0  0  0
   -1.8417    1.7620   -0.1907 O   0  0  0  0  0  0  0  0  0  0  0  0
   -1.4236    3.1913   -1.7917 N   0  0  0  0  0  0  0  0  0  0  0  0
   -2.1655    3.7597   -1.3921 H   0  0  0  0  0  0  0  0  0  0  0  0
   -0.7417    3.6104   -2.4162 H   0  0  0  0  0  0  0  0  0  0  0  0
    0.7637   -0.0475    0.6372 C   0  0  0  0  0  0  0  0  0  0  0  0
    1.9637   -0.0929    0.8715 O   0  0  0  0  0  0  0  0  0  0  0  0
   -0.1121    0.2973    1.6504 N   0  0  0  0  0  0  0  0  0  0  0  0
   -1.0366    0.6081    1.3492 H   0  0  0  0  0  0  0  0  0  0  0  0
    0.3215    0.6098    3.0056 C   0  0  0  0  0  0  0  0  0  0  0  0
    0.9571    1.5013    3.0092 H   0  0  0  0  0  0  0  0  0  0  0  0
   -0.5464    0.7978    3.6448 H   0  0  0  0  0  0  0  0  0  0  0  0
    0.8862   -0.2275    3.4292 H   0  0  0  0  0  0  0  0  0  0  0  0
  1  2  1  0  0  0  0
  2  3  1  0  0  0  0
  2  4  1  0  0  0  0
  2  5  1  0  0  0  0
  5  6  2  0  0  0  0
  5  7  1  0  0  0  0
  7  8  1  0  0  0  0
  7  9  1  0  0  0  0
  9 10  1  0  0  0  0
  9 11  1  0  0  0  0
  9 19  1  0  0  0  0
 11 12  1  0  0  0  0
 11 13  1  0  0  0  0
 11 14  1  0  0  0  0
 14 15  2  0  0  0  0
 14 16  1  0  0  0  0
 16 17  1  0  0  0  0
 16 18  1  0  0  0  0
 19 20  2  0  0  0  0
 19 21  1  0  0  0  0
 21 22  1  0  0  0  0
 21 23  1  0  0  0  0
 23 24  1  0  0  0  0
 23 25  1  0  0  0  0
 23 26  1  0  0  0  0
M  END
$$$$

  -OEChem-03222214023D

 26 25  0     1  0  0  0  0  0999 V2000
   -2.5315   -3.7621   -0.0915 H   0  0  0  0  0  0  0  0  0  0  0  0
   -2.5858   -2.7186   -0.4149 C   0  0  0  0  0  0  0  0  0  0  0  0
   -3.1300   -2.1450    0.3394 H   0  0  0  0  0  0  0  0  0  0  0  0
   -3.1284   -2.6710   -1.3621 H   0  0  0  0  0  0  0  0  0  0  0  0
   -1.1891   -2.1527   -0.5894 C   0  0  0  0  0  0  0  0  0  0  0  0
   -0.2165   -2.8669   -0.4175 O   0  0  0  0  0  0  0  0  0  0  0  0
   -1.0263   -0.8321   -0.9599 N   0  0  0  0  0  0  0  0  0  0  0  0
   -1.8720   -0.2669   -0.9126 H   0  0  0  0  0  0  0  0  0  0  0  0
    0.2569   -0.1228   -0.8011 C   0  0  1  0  0  0  0  0  0  0  0  0
    1.0253   -0.6887   -1.3413 H   0  0  0  0  0  0  0  0  0  0  0  0
    0.1736    1.2802   -1.4397 C   0  0  0  0  0  0  0  0  0  0  0  0
    1.0388    1.8758   -1.1339 H   0  0  0  0  0  0  0  0  0  0  0  0
    0.2241    1.1605   -2.5251 H   0  0  0  0  0  0  0  0  0  0  0  0
   -1.1005    2.0537   -1.1114 C   0  0  0  0  0  0  0  0  0  0  0  0
   -1.7175    1.9126   -0.0693 O   0  0  0  0  0  0  0  0  0  0  0  0
   -1.6200    2.9677   -1.9819 N   0  0  0  0  0  0  0  0  0  0  0  0
   -2.3492    3.5714   -1.6119 H   0  0  0  0  0  0  0  0  0  0  0  0
   -1.0477    3.2829   -2.7589 H   0  0  0  0  0  0  0  0  0  0  0  0
    0.7613   -0.0417    0.6588 C   0  0  0  0  0  0  0  0  0  0  0  0
    1.9616   -0.1168    0.8846 O   0  0  0  0  0  0  0  0  0  0  0  0
   -0.1023    0.2959    1.6845 N   0  0  0  0  0  0  0  0  0  0  0  0
   -1.0071    0.6651    1.3887 H   0  0  0  0  0  0  0  0  0  0  0  0
    0.3534    0.5901    3.0367 C   0  0  0  0  0  0  0  0  0  0  0  0
    0.9857    1.4838    3.0416 H   0  0  0  0  0  0  0  0  0  0  0  0
   -0.5040    0.7652    3.6936 H   0  0  0  0  0  0  0  0  0  0  0  0
    0.9280   -0.2509    3.4391 H   0  0  0  0  0  0  0  0  0  0  0  0
  1  2  1  0  0  0  0
  2  3  1  0  0  0  0
  2  4  1  0  0  0  0
  2  5  1  0  0  0  0
  5  6  2  0  0  0  0
  5  7  1  0  0  0  0
  7  8  1  0  0  0  0
  7  9  1  0  0  0  0
  9 10  1  0  0  0  0
  9 11  1  0  0  0  0
  9 19  1  0  0  0  0
 11 12  1  0  0  0  0
 11 13  1  0  0  0  0
 11 14  1  0  0  0  0
 14 15  2  0  0  0  0
 14 16  1  0  0  0  0
 16 17  1  0  0  0  0
 16 18  1  0  0  0  0
 19 20  2  0  0  0  0
 19 21  1  0  0  0  0
 21 22  1  0  0  0  0
 21 23  1  0  0  0  0
 23 24  1  0  0  0  0
 23 25  1  0  0  0  0
 23 26  1  0  0  0  0
M  END
$$$$

  -OEChem-03222214023D

 26 25  0     1  0  0  0  0  0999 V2000
   -2.5490   -3.7518   -0.1262 H   0  0  0  0  0  0  0  0  0  0  0  0
   -2.5980   -2.7040   -0.4362 C   0  0  0  0  0  0  0  0  0  0  0  0
   -3.1533   -2.1406    0.3176 H   0  0  0  0  0  0  0  0  0  0  0  0
   -3.1260   -2.6434   -1.3908 H   0  0  0  0  0  0  0  0  0  0  0  0
   -1.1983   -2.1371   -0.5811 C   0  0  0  0  0  0  0  0  0  0  0  0
   -0.2299   -2.8517   -0.3902 O   0  0  0  0  0  0  0  0  0  0  0  0
   -1.0282   -0.8159   -0.9473 N   0  0  0  0  0  0  0  0  0  0  0  0
   -1.8753   -0.2530   -0.9365 H   0  0  0  0  0  0  0  0  0  0  0  0
    0.2580   -0.1115   -0.7845 C   0  0  1  0  0  0  0  0  0  0  0  0
    1.0240   -0.6824   -1.3229 H   0  0  0  0  0  0  0  0  0  0  0  0
    0.1819    1.2870   -1.4316 C   0  0  0  0  0  0  0  0  0  0  0  0
    1.0430    1.8865   -1.1215 H   0  0  0  0  0  0  0  0  0  0  0  0
    0.2411    1.1648   -2.5162 H   0  0  0  0  0  0  0  0  0  0  0  0
   -1.0976    2.0493   -1.1042 C   0  0  0  0  0  0  0  0  0  0  0  0
   -1.5635    2.1077    0.0190 O   0  0  0  0  0  0  0  0  0  0  0  0
   -1.8273    2.6733   -2.0746 N   0  0  0  0  0  0  0  0  0  0  0  0
   -2.5556    3.3009   -1.7444 H   0  0  0  0  0  0  0  0  0  0  0  0
   -1.3954    2.8352   -2.9790 H   0  0  0  0  0  0  0  0  0  0  0  0
    0.7662   -0.0328    0.6750 C   0  0  0  0  0  0  0  0  0  0  0  0
    1.9649   -0.1387    0.8975 O   0  0  0  0  0  0  0  0  0  0  0  0
   -0.0891    0.3064    1.7073 N   0  0  0  0  0  0  0  0  0  0  0  0
   -0.9721    0.7274    1.4160 H   0  0  0  0  0  0  0  0  0  0  0  0
    0.3813    0.5749    3.0601 C   0  0  0  0  0  0  0  0  0  0  0  0
    1.0196    1.4643    3.0744 H   0  0  0  0  0  0  0  0  0  0  0  0
   -0.4688    0.7442    3.7277 H   0  0  0  0  0  0  0  0  0  0  0  0
    0.9540   -0.2765    3.4430 H   0  0  0  0  0  0  0  0  0  0  0  0
  1  2  1  0  0  0  0
  2  3  1  0  0  0  0
  2  4  1  0  0  0  0
  2  5  1  0  0  0  0
  5  6  2  0  0  0  0
  5  7  1  0  0  0  0
  7  8  1  0  0  0  0
  7  9  1  0  0  0  0
  9 10  1  0  0  0  0
  9 11  1  0  0  0  0
  9 19  1  0  0  0  0
 11 12  1  0  0  0  0
 11 13  1  0  0  0  0
 11 14  1  0  0  0  0
 14 15  2  0  0  0  0
 14 16  1  0  0  0  0
 16 17  1  0  0  0  0
 16 18  1  0  0  0  0
 19 20  2  0  0  0  0
 19 21  1  0  0  0  0
 21 22  1  0  0  0  0
 21 23  1  0  0  0  0
 23 24  1  0  0  0  0
 23 25  1  0  0  0  0
 23 26  1  0  0  0  0
M  END
$$$$

  -OEChem-03222214023D

 26 25  0     1  0  0  0  0  0999 V2000
   -2.5751   -3.7264   -0.1364 H   0  0  0  0  0  0  0  0  0  0  0  0
   -2.6117   -2.6841   -0.4662 C   0  0  0  0  0  0  0  0  0  0  0  0
   -3.1908   -2.1070    0.2588 H   0  0  0  0  0  0  0  0  0  0  0  0
   -3.1071   -2.6399   -1.4391 H   0  0  0  0  0  0  0  0  0  0  0  0
   -1.2067   -2.1219   -0.5737 C   0  0  0  0  0  0  0  0  0  0  0  0
   -0.2466   -2.8396   -0.3561 O   0  0  0  0  0  0  0  0  0  0  0  0
   -1.0215   -0.8035   -0.9434 N   0  0  0  0  0  0  0  0  0  0  0  0
   -1.8658   -0.2387   -0.9861 H   0  0  0  0  0  0  0  0  0  0  0  0
    0.2696   -0.1067   -0.7790 C   0  0  1  0  0  0  0  0  0  0  0  0
    1.0345   -0.6806   -1.3159 H   0  0  0  0  0  0  0  0  0  0  0  0
    0.1970    1.2926   -1.4230 C   0  0  0  0  0  0  0  0  0  0  0  0
    1.0562    1.8929   -1.1078 H   0  0  0  0  0  0  0  0  0  0  0  0
    0.2577    1.1809   -2.5084 H   0  0  0  0  0  0  0  0  0  0  0  0
   -1.0847    2.0412   -1.0806 C   0  0  0  0  0  0  0  0  0  0  0  0
   -1.4004    2.3132    0.0618 O   0  0  0  0  0  0  0  0  0  0  0  0
   -2.0169    2.3370   -2.0335 N   0  0  0  0  0  0  0  0  0  0  0  0
   -2.7539    2.9732   -1.7404 H   0  0  0  0  0  0  0  0  0  0  0  0
   -1.7322    2.3164   -3.0081 H   0  0  0  0  0  0  0  0  0  0  0  0
    0.7741   -0.0252    0.6817 C   0  0  0  0  0  0  0  0  0  0  0  0
    1.9688   -0.1615    0.9090 O   0  0  0  0  0  0  0  0  0  0  0  0
   -0.0798    0.3246    1.7120 N   0  0  0  0  0  0  0  0  0  0  0  0
   -0.9431    0.7827    1.4197 H   0  0  0  0  0  0  0  0  0  0  0  0
    0.3971    0.5809    3.0647 C   0  0  0  0  0  0  0  0  0  0  0  0
    1.0737    1.4418    3.0757 H   0  0  0  0  0  0  0  0  0  0  0  0
   -0.4464    0.7921    3.7287 H   0  0  0  0  0  0  0  0  0  0  0  0
    0.9307   -0.2925    3.4545 H   0  0  0  0  0  0  0  0  0  0  0  0
  1  2  1  0  0  0  0
  2  3  1  0  0  0  0
  2  4  1  0  0  0  0
  2  5  1  0  0  0  0
  5  6  2  0  0  0  0
  5  7  1  0  0  0  0
  7  8  1  0  0  0  0
  7  9  1  0  0  0  0
  9 10  1  0  0  0  0
  9 11  1  0  0  0  0
  9 19  1  0  0  0  0
 11 12  1  0  0  0  0
 11 13  1  0  0  0  0
 11 14  1  0  0  0  0
 14 15  2  0  0  0  0
 14 16  1  0  0  0  0
 16 17  1  0  0  0  0
 16 18  1  0  0  0  0
 19 20  2  0  0  0  0
 19 21  1  0  0  0  0
 21 22  1  0  0  0  0
 21 23  1  0  0  0  0
 23 24  1  0  0  0  0
 23 25  1  0  0  0  0
 23 26  1  0  0  0  0
M  END
$$$$

  -OEChem-03222214023D

 26 25  0     1  0  0  0  0  0999 V2000
   -2.5898   -3.7258   -0.1471 H   0  0  0  0  0  0  0  0  0  0  0  0
   -2.6175   -2.6845   -0.4808 C   0  0  0  0  0  0  0  0  0  0  0  0
   -3.2119   -2.1046    0.2294 H   0  0  0  0  0  0  0  0  0  0  0  0
   -3.0913   -2.6426   -1.4644 H   0  0  0  0  0  0  0  0  0  0  0  0
   -1.2095   -2.1251   -0.5582 C   0  0  0  0  0  0  0  0  0  0  0  0
   -0.2564   -2.8401   -0.3052 O   0  0  0  0  0  0  0  0  0  0  0  0
   -1.0126   -0.8123   -0.9415 N   0  0  0  0  0  0  0  0  0  0  0  0
   -1.8533   -0.2486   -1.0387 H   0  0  0  0  0  0  0  0  0  0  0  0
    0.2812   -0.1174   -0.7852 C   0  0  1  0  0  0  0  0  0  0  0  0
    1.0468   -0.6909   -1.3216 H   0  0  0  0  0  0  0  0  0  0  0  0
    0.2025    1.2852   -1.4207 C   0  0  0  0  0  0  0  0  0  0  0  0
    1.0630    1.8863   -1.1100 H   0  0  0  0  0  0  0  0  0  0  0  0
    0.2499    1.1859   -2.5078 H   0  0  0  0  0  0  0  0  0  0  0  0
   -1.0795    2.0173   -1.0509 C   0  0  0  0  0  0  0  0  0  0  0  0
   -1.2581    2.5058    0.0471 O   0  0  0  0  0  0  0  0  0  0  0  0
   -2.1510    2.0585   -1.8972 N   0  0  0  0  0  0  0  0  0  0  0  0
   -2.8838    2.7113   -1.6295 H   0  0  0  0  0  0  0  0  0  0  0  0
   -1.9845    1.8776   -2.8826 H   0  0  0  0  0  0  0  0  0  0  0  0
    0.7804   -0.0233    0.6765 C   0  0  0  0  0  0  0  0  0  0  0  0
    1.9722   -0.1691    0.9115 O   0  0  0  0  0  0  0  0  0  0  0  0
   -0.0780    0.3402    1.6990 N   0  0  0  0  0  0  0  0  0  0  0  0
   -0.9371    0.8003    1.4023 H   0  0  0  0  0  0  0  0  0  0  0  0
    0.3940    0.6026    3.0522 C   0  0  0  0  0  0  0  0  0  0  0  0
    1.0705    1.4635    3.0618 H   0  0  0  0  0  0  0  0  0  0  0  0
   -0.4522    0.8167    3.7118 H   0  0  0  0  0  0  0  0  0  0  0  0
    0.9262   -0.2688    3.4484 H   0  0  0  0  0  0  0  0  0  0  0  0
  1  2  1  0  0  0  0
  2  3  1  0  0  0  0
  2  4  1  0  0  0  0
  2  5  1  0  0  0  0
  5  6  2  0  0  0  0
  5  7  1  0  0  0  0
  7  8  1  0  0  0  0
  7  9  1  0  0  0  0
  9 10  1  0  0  0  0
  9 11  1  0  0  0  0
  9 19  1  0  0  0  0
 11 12  1  0  0  0  0
 11 13  1  0  0  0  0
 11 14  1  0  0  0  0
 14 15  2  0  0  0  0
 14 16  1  0  0  0  0
 16 17  1  0  0  0  0
 16 18  1  0  0  0  0
 19 20  2  0  0  0  0
 19 21  1  0  0  0  0
 21 22  1  0  0  0  0
 21 23  1  0  0  0  0
 23 24  1  0  0  0  0
 23 25  1  0  0  0  0
 23 26  1  0  0  0  0
M  END
$$$$

  -OEChem-03222214023D

 26 25  0     1  0  0  0  0  0999 V2000
   -2.5772   -3.7516   -0.1269 H   0  0  0  0  0  0  0  0  0  0  0  0
   -2.6088   -2.7133   -0.4696 C   0  0  0  0  0  0  0  0  0  0  0  0
   -3.2103   -2.1305    0.2321 H   0  0  0  0  0  0  0  0  0  0  0  0
   -3.0776   -2.6826   -1.4560 H   0  0  0  0  0  0  0  0  0  0  0  0
   -1.2035   -2.1463   -0.5443 C   0  0  0  0  0  0  0  0  0  0  0  0
   -0.2474   -2.8528   -0.2800 O   0  0  0  0  0  0  0  0  0  0  0  0
   -1.0127   -0.8348   -0.9352 N   0  0  0  0  0  0  0  0  0  0  0  0
   -1.8556   -0.2771   -1.0492 H   0  0  0  0  0  0  0  0  0  0  0  0
    0.2785   -0.1327   -0.7900 C   0  0  1  0  0  0  0  0  0  0  0  0
    1.0450   -0.6998   -1.3318 H   0  0  0  0  0  0  0  0  0  0  0  0
    0.1917    1.2762   -1.4102 C   0  0  0  0  0  0  0  0  0  0  0  0
    1.0551    1.8748   -1.1026 H   0  0  0  0  0  0  0  0  0  0  0  0
    0.2253    1.1919   -2.4992 H   0  0  0  0  0  0  0  0  0  0  0  0
   -1.0874    1.9991   -1.0162 C   0  0  0  0  0  0  0  0  0  0  0  0
   -1.1614    2.6967   -0.0256 O   0  0  0  0  0  0  0  0  0  0  0  0
   -2.2373    1.8782   -1.7451 N   0  0  0  0  0  0  0  0  0  0  0  0
   -2.9539    2.5629   -1.5150 H   0  0  0  0  0  0  0  0  0  0  0  0
   -2.1499    1.5636   -2.7071 H   0  0  0  0  0  0  0  0  0  0  0  0
    0.7803   -0.0311    0.6700 C   0  0  0  0  0  0  0  0  0  0  0  0
    1.9738   -0.1639    0.9029 O   0  0  0  0  0  0  0  0  0  0  0  0
   -0.0790    0.3328    1.6924 N   0  0  0  0  0  0  0  0  0  0  0  0
   -0.9618    0.7466    1.4037 H   0  0  0  0  0  0  0  0  0  0  0  0
    0.3933    0.6182    3.0412 C   0  0  0  0  0  0  0  0  0  0  0  0
    1.0617    1.4855    3.0376 H   0  0  0  0  0  0  0  0  0  0  0  0
   -0.4534    0.8340    3.6995 H   0  0  0  0  0  0  0  0  0  0  0  0
    0.9345   -0.2424    3.4484 H   0  0  0  0  0  0  0  0  0  0  0  0
  1  2  1  0  0  0  0
  2  3  1  0  0  0  0
  2  4  1  0  0  0  0
  2  5  1  0  0  0  0
  5  6  2  0  0  0  0
  5  7  1  0  0  0  0
  7  8  1  0  0  0  0
  7  9  1  0  0  0  0
  9 10  1  0  0  0  0
  9 11  1  0  0  0  0
  9 19  1  0  0  0  0
 11 12  1  0  0  0  0
 11 13  1  0  0  0  0
 11 14  1  0  0  0  0
 14 15  2  0  0  0  0
 14 16  1  0  0  0  0
 16 17  1  0  0  0  0
 16 18  1  0  0  0  0
 19 20  2  0  0  0  0
 19 21  1  0  0  0  0
 21 22  1  0  0  0  0
 21 23  1  0  0  0  0
 23 24  1  0  0  0  0
 23 25  1  0  0  0  0
 23 26  1  0  0  0  0
M  END
$$$$

  -OEChem-03222214023D

 26 25  0     1  0  0  0  0  0999 V2000
   -2.5476   -3.7947   -0.1065 H   0  0  0  0  0  0  0  0  0  0  0  0
   -2.5939   -2.7552   -0.4438 C   0  0  0  0  0  0  0  0  0  0  0  0
   -3.1990   -2.1837    0.2642 H   0  0  0  0  0  0  0  0  0  0  0  0
   -3.0683   -2.7255   -1.4277 H   0  0  0  0  0  0  0  0  0  0  0  0
   -1.1960   -2.1707   -0.5235 C   0  0  0  0  0  0  0  0  0  0  0  0
   -0.2300   -2.8649   -0.2638 O   0  0  0  0  0  0  0  0  0  0  0  0
   -1.0234   -0.8548   -0.9091 N   0  0  0  0  0  0  0  0  0  0  0  0
   -1.8734   -0.3055   -1.0108 H   0  0  0  0  0  0  0  0  0  0  0  0
    0.2621   -0.1389   -0.7810 C   0  0  1  0  0  0  0  0  0  0  0  0
    1.0251   -0.7000   -1.3343 H   0  0  0  0  0  0  0  0  0  0  0  0
    0.1705    1.2739   -1.3932 C   0  0  0  0  0  0  0  0  0  0  0  0
    1.0406    1.8671   -1.0923 H   0  0  0  0  0  0  0  0  0  0  0  0
    0.1937    1.1935   -2.4827 H   0  0  0  0  0  0  0  0  0  0  0  0
   -1.1008    2.0065   -0.9902 C   0  0  0  0  0  0  0  0  0  0  0  0
   -1.1054    2.8999   -0.1696 O   0  0  0  0  0  0  0  0  0  0  0  0
   -2.2959    1.7783   -1.6146 N   0  0  0  0  0  0  0  0  0  0  0  0
   -2.9921    2.5013   -1.4451 H   0  0  0  0  0  0  0  0  0  0  0  0
   -2.2599    1.3451   -2.5326 H   0  0  0  0  0  0  0  0  0  0  0  0
    0.7824   -0.0421    0.6723 C   0  0  0  0  0  0  0  0  0  0  0  0
    1.9838   -0.1283    0.8844 O   0  0  0  0  0  0  0  0  0  0  0  0
   -0.0679    0.3044    1.7083 N   0  0  0  0  0  0  0  0  0  0  0  0
   -1.0033    0.6042    1.4528 H   0  0  0  0  0  0  0  0  0  0  0  0
    0.4119    0.6122    3.0495 C   0  0  0  0  0  0  0  0  0  0  0  0
    1.0534    1.4995    3.0320 H   0  0  0  0  0  0  0  0  0  0  0  0
   -0.4322    0.8067    3.7179 H   0  0  0  0  0  0  0  0  0  0  0  0
    0.9841   -0.2292    3.4546 H   0  0  0  0  0  0  0  0  0  0  0  0
  1  2  1  0  0  0  0
  2  3  1  0  0  0  0
  2  4  1  0  0  0  0
  2  5  1  0  0  0  0
  5  6  2  0  0  0  0
  5  7  1  0  0  0  0
  7  8  1  0  0  0  0
  7  9  1  0  0  0  0
  9 10  1  0  0  0  0
  9 11  1  0  0  0  0
  9 19  1  0  0  0  0
 11 12  1  0  0  0  0
 11 13  1  0  0  0  0
 11 14  1  0  0  0  0
 14 15  2  0  0  0  0
 14 16  1  0  0  0  0
 16 17  1  0  0  0  0
 16 18  1  0  0  0  0
 19 20  2  0  0  0  0
 19 21  1  0  0  0  0
 21 22  1  0  0  0  0
 21 23  1  0  0  0  0
 23 24  1  0  0  0  0
 23 25  1  0  0  0  0
 23 26  1  0  0  0  0
M  END
$$$$

  -OEChem-03222214023D

 26 25  0     1  0  0  0  0  0999 V2000
   -2.4999   -3.8313   -0.0740 H   0  0  0  0  0  0  0  0  0  0  0  0
   -2.5693   -2.7893   -0.3999 C   0  0  0  0  0  0  0  0  0  0  0  0
   -3.1727   -2.2357    0.3233 H   0  0  0  0  0  0  0  0  0  0  0  0
   -3.0600   -2.7584   -1.3758 H   0  0  0  0  0  0  0  0  0  0  0  0
   -1.1829   -2.1804   -0.4962 C   0  0  0  0  0  0  0  0  0  0  0  0
   -0.2023   -2.8606   -0.2552 O   0  0  0  0  0  0  0  0  0  0  0  0
   -1.0360   -0.8591   -0.8747 N   0  0  0  0  0  0  0  0  0  0  0  0
   -1.8947   -0.3183   -0.9417 H   0  0  0  0  0  0  0  0  0  0  0  0
    0.2426   -0.1277   -0.7671 C   0  0  1  0  0  0  0  0  0  0  0  0
    1.0002   -0.6842   -1.3322 H   0  0  0  0  0  0  0  0  0  0  0  0
    0.1464    1.2865   -1.3785 C   0  0  0  0  0  0  0  0  0  0  0  0
    1.0235    1.8741   -1.0870 H   0  0  0  0  0  0  0  0  0  0  0  0
    0.1604    1.2024   -2.4679 H   0  0  0  0  0  0  0  0  0  0  0  0
   -1.1143    2.0390   -0.9771 C   0  0  0  0  0  0  0  0  0  0  0  0
   -1.0773    3.0933   -0.3787 O   0  0  0  0  0  0  0  0  0  0  0  0
   -2.3415    1.7217   -1.4903 N   0  0  0  0  0  0  0  0  0  0  0  0
   -3.0199    2.4749   -1.3972 H   0  0  0  0  0  0  0  0  0  0  0  0
   -2.3455    1.1764   -2.3470 H   0  0  0  0  0  0  0  0  0  0  0  0
    0.7879   -0.0378    0.6769 C   0  0  0  0  0  0  0  0  0  0  0  0
    1.9947   -0.0888    0.8661 O   0  0  0  0  0  0  0  0  0  0  0  0
   -0.0491    0.2877    1.7302 N   0  0  0  0  0  0  0  0  0  0  0  0
   -1.0201    0.4845    1.5140 H   0  0  0  0  0  0  0  0  0  0  0  0
    0.4386    0.5624    3.0760 C   0  0  0  0  0  0  0  0  0  0  0  0
    1.0770    1.4522    3.0776 H   0  0  0  0  0  0  0  0  0  0  0  0
   -0.4018    0.7364    3.7547 H   0  0  0  0  0  0  0  0  0  0  0  0
    1.0165   -0.2874    3.4545 H   0  0  0  0  0  0  0  0  0  0  0  0
  1  2  1  0  0  0  0
  2  3  1  0  0  0  0
  2  4  1  0  0  0  0
  2  5  1  0  0  0  0
  5  6  2  0  0  0  0
  5  7  1  0  0  0  0
  7  8  1  0  0  0  0
  7  9  1  0  0  0  0
  9 10  1  0  0  0  0
  9 11  1  0  0  0  0
  9 19  1  0  0  0  0
 11 12  1  0  0  0  0
 11 13  1  0  0  0  0
 11 14  1  0  0  0  0
 14 15  2  0  0  0  0
 14 16  1  0  0  0  0
 16 17  1  0  0  0  0
 16 18  1  0  0  0  0
 19 20  2  0  0  0  0
 19 21  1  0  0  0  0
 21 22  1  0  0  0  0
 21 23  1  0  0  0  0
 23 24  1  0  0  0  0
 23 25  1  0  0  0  0
 23 26  1  0  0  0  0
M  END
$$$$

  -OEChem-03222214023D

 26 25  0     1  0  0  0  0  0999 V2000
   -2.4417   -3.8418   -0.0183 H   0  0  0  0  0  0  0  0  0  0  0  0
   -2.5325   -2.8038   -0.3514 C   0  0  0  0  0  0  0  0  0  0  0  0
   -3.1185   -2.2494    0.3855 H   0  0  0  0  0  0  0  0  0  0  0  0
   -3.0541   -2.7875   -1.3114 H   0  0  0  0  0  0  0  0  0  0  0  0
   -1.1566   -2.1816   -0.4981 C   0  0  0  0  0  0  0  0  0  0  0  0
   -0.1607   -2.8538   -0.3019 O   0  0  0  0  0  0  0  0  0  0  0  0
   -1.0387   -0.8522   -0.8587 N   0  0  0  0  0  0  0  0  0  0  0  0
   -1.9049   -0.3200   -0.8601 H   0  0  0  0  0  0  0  0  0  0  0  0
    0.2317   -0.1056   -0.7620 C   0  0  1  0  0  0  0  0  0  0  0  0
    0.9864   -0.6483   -1.3444 H   0  0  0  0  0  0  0  0  0  0  0  0
    0.1290    1.3195   -1.3520 C   0  0  0  0  0  0  0  0  0  0  0  0
    1.0123    1.8985   -1.0622 H   0  0  0  0  0  0  0  0  0  0  0  0
    0.1334    1.2473   -2.4425 H   0  0  0  0  0  0  0  0  0  0  0  0
   -1.1210    2.0867   -0.9409 C   0  0  0  0  0  0  0  0  0  0  0  0
   -1.0735    3.2440   -0.5806 O   0  0  0  0  0  0  0  0  0  0  0  0
   -2.3726    1.6960   -1.3295 N   0  0  0  0  0  0  0  0  0  0  0  0
   -3.0446    2.4600   -1.2964 H   0  0  0  0  0  0  0  0  0  0  0  0
   -2.4108    1.0696   -2.1278 H   0  0  0  0  0  0  0  0  0  0  0  0
    0.7942   -0.0367    0.6762 C   0  0  0  0  0  0  0  0  0  0  0  0
    2.0038   -0.0606    0.8504 O   0  0  0  0  0  0  0  0  0  0  0  0
   -0.0355    0.2579    1.7443 N   0  0  0  0  0  0  0  0  0  0  0  0
   -1.0253    0.3720    1.5568 H   0  0  0  0  0  0  0  0  0  0  0  0
    0.4572    0.4859    3.0971 C   0  0  0  0  0  0  0  0  0  0  0  0
    1.1152    1.3610    3.1222 H   0  0  0  0  0  0  0  0  0  0  0  0
   -0.3792    0.6617    3.7803 H   0  0  0  0  0  0  0  0  0  0  0  0
    1.0160   -0.3861    3.4532 H   0  0  0  0  0  0  0  0  0  0  0  0
  1  2  1  0  0  0  0
  2  3  1  0  0  0  0
  2  4  1  0  0  0  0
  2  5  1  0  0  0  0
  5  6  2  0  0  0  0
  5  7  1  0  0  0  0
  7  8  1  0  0  0  0
  7  9  1  0  0  0  0
  9 10  1  0  0  0  0
  9 11  1  0  0  0  0
  9 19  1  0  0  0  0
 11 12  1  0  0  0  0
 11 13  1  0  0  0  0
 11 14  1  0  0  0  0
 14 15  2  0  0  0  0
 14 16  1  0  0  0  0
 16 17  1  0  0  0  0
 16 18  1  0  0  0  0
 19 20  2  0  0  0  0
 19 21  1  0  0  0  0
 21 22  1  0  0  0  0
 21 23  1  0  0  0  0
 23 24  1  0  0  0  0
 23 25  1  0  0  0  0
 23 26  1  0  0  0  0
M  END
$$$$

  -OEChem-03222214023D

 26 25  0     1  0  0  0  0  0999 V2000
   -2.5286   -3.9101   -0.3032 H   0  0  0  0  0  0  0  0  0  0  0  0
   -2.5576   -2.8987   -0.7192 C   0  0  0  0  0  0  0  0  0  0  0  0
   -3.4349   -2.3817   -0.3234 H   0  0  0  0  0  0  0  0  0  0  0  0
   -2.6438   -2.9697   -1.8062 H   0  0  0  0  0  0  0  0  0  0  0  0
   -1.2951   -2.1448   -0.3450 C   0  0  0  0  0  0  0  0  0  0  0  0
   -0.4597   -2.6769    0.3611 O   0  0  0  0  0  0  0  0  0  0  0  0
   -1.1091   -0.8524   -0.8028 N   0  0  0  0  0  0  0  0  0  0  0  0
   -1.7503   -0.5705   -1.5413 H   0  0  0  0  0  0  0  0  0  0  0  0
    0.1947   -0.1547   -0.7547 C   0  0  1  0  0  0  0  0  0  0  0  0
    0.9258   -0.7560   -1.3079 H   0  0  0  0  0  0  0  0  0  0  0  0
    0.1270    1.2465   -1.4116 C   0  0  0  0  0  0  0  0  0  0  0  0
    1.0480    1.7923   -1.1795 H   0  0  0  0  0  0  0  0  0  0  0  0
    0.1053    1.1052   -2.4950 H   0  0  0  0  0  0  0  0  0  0  0  0
   -1.0602    2.1483   -1.0656 C   0  0  0  0  0  0  0  0  0  0  0  0
   -0.9399    3.3561   -1.0718 O   0  0  0  0  0  0  0  0  0  0  0  0
   -2.2982    1.7204   -0.6753 N   0  0  0  0  0  0  0  0  0  0  0  0
   -2.8903    2.4552   -0.2960 H   0  0  0  0  0  0  0  0  0  0  0  0
   -2.3668    0.7832   -0.2967 H   0  0  0  0  0  0  0  0  0  0  0  0
    0.7817    0.0110    0.6678 C   0  0  0  0  0  0  0  0  0  0  0  0
    1.9963    0.0042    0.8094 O   0  0  0  0  0  0  0  0  0  0  0  0
   -0.0171    0.4260    1.7185 N   0  0  0  0  0  0  0  0  0  0  0  0
   -1.0173    0.3165    1.6023 H   0  0  0  0  0  0  0  0  0  0  0  0
    0.5056    0.6691    3.0573 C   0  0  0  0  0  0  0  0  0  0  0  0
    1.2767    1.4465    3.0323 H   0  0  0  0  0  0  0  0  0  0  0  0
   -0.2969    1.0031    3.7218 H   0  0  0  0  0  0  0  0  0  0  0  0
    0.9410   -0.2468    3.4704 H   0  0  0  0  0  0  0  0  0  0  0  0
  1  2  1  0  0  0  0
  2  3  1  0  0  0  0
  2  4  1  0  0  0  0
  2  5  1  0  0  0  0
  5  6  2  0  0  0  0
  5  7  1  0  0  0  0
  7  8  1  0  0  0  0
  7  9  1  0  0  0  0
  9 10  1  0  0  0  0
  9 11  1  0  0  0  0
  9 19  1  0  0  0  0
 11 12  1  0  0  0  0
 11 13  1  0  0  0  0
 11 14  1  0  0  0  0
 14 15  2  0  0  0  0
 14 16  1  0  0  0  0
 16 17  1  0  0  0  0
 16 18  1  0  0  0  0
 19 20  2  0  0  0  0
 19 21  1  0  0  0  0
 21 22  1  0  0  0  0
 21 23  1  0  0  0  0
 23 24  1  0  0  0  0
 23 25  1  0  0  0  0
 23 26  1  0  0  0  0
M  END
$$$$

  -OEChem-03222214023D

 26 25  0     1  0  0  0  0  0999 V2000
   -2.5265   -3.9137   -0.3299 H   0  0  0  0  0  0  0  0  0  0  0  0
   -2.5684   -2.8893   -0.7115 C   0  0  0  0  0  0  0  0  0  0  0  0
   -3.4316   -2.3848   -0.2706 H   0  0  0  0  0  0  0  0  0  0  0  0
   -2.6901   -2.9255   -1.7969 H   0  0  0  0  0  0  0  0  0  0  0  0
   -1.2937   -2.1473   -0.3547 C   0  0  0  0  0  0  0  0  0  0  0  0
   -0.4460   -2.6904    0.3283 O   0  0  0  0  0  0  0  0  0  0  0  0
   -1.1119   -0.8469   -0.7885 N   0  0  0  0  0  0  0  0  0  0  0  0
   -1.7906   -0.5198   -1.4731 H   0  0  0  0  0  0  0  0  0  0  0  0
    0.1865   -0.1406   -0.7348 C   0  0  1  0  0  0  0  0  0  0  0  0
    0.9161   -0.7410   -1.2914 H   0  0  0  0  0  0  0  0  0  0  0  0
    0.1202    1.2535   -1.4058 C   0  0  0  0  0  0  0  0  0  0  0  0
    1.0340    1.8067   -1.1650 H   0  0  0  0  0  0  0  0  0  0  0  0
    0.1145    1.1020   -2.4882 H   0  0  0  0  0  0  0  0  0  0  0  0
   -1.0733    2.1540   -1.0850 C   0  0  0  0  0  0  0  0  0  0  0  0
   -1.0435    3.3361   -1.3597 O   0  0  0  0  0  0  0  0  0  0  0  0
   -2.2201    1.7563   -0.4570 N   0  0  0  0  0  0  0  0  0  0  0  0
   -2.8075    2.5187   -0.1281 H   0  0  0  0  0  0  0  0  0  0  0  0
   -2.1928    0.8852    0.0591 H   0  0  0  0  0  0  0  0  0  0  0  0
    0.7855    0.0085    0.6844 C   0  0  0  0  0  0  0  0  0  0  0  0
    2.0017    0.0469    0.8052 O   0  0  0  0  0  0  0  0  0  0  0  0
   -0.0053    0.4001    1.7507 N   0  0  0  0  0  0  0  0  0  0  0  0
   -0.9922    0.1854    1.6760 H   0  0  0  0  0  0  0  0  0  0  0  0
    0.5441    0.6394    3.0804 C   0  0  0  0  0  0  0  0  0  0  0  0
    1.3020    1.4294    3.0458 H   0  0  0  0  0  0  0  0  0  0  0  0
   -0.2478    0.9549    3.7663 H   0  0  0  0  0  0  0  0  0  0  0  0
    1.0041   -0.2728    3.4749 H   0  0  0  0  0  0  0  0  0  0  0  0
  1  2  1  0  0  0  0
  2  3  1  0  0  0  0
  2  4  1  0  0  0  0
  2  5  1  0  0  0  0
  5  6  2  0  0  0  0
  5  7  1  0  0  0  0
  7  8  1  0  0  0  0
  7  9  1  0  0  0  0
  9 10  1  0  0  0  0
  9 11  1  0  0  0  0
  9 19  1  0  0  0  0
 11 12  1  0  0  0  0
 11 13  1  0  0  0  0
 11 14  1  0  0  0  0
 14 15  2  0  0  0  0
 14 16  1  0  0  0  0
 16 17  1  0  0  0  0
 16 18  1  0  0  0  0
 19 20  2  0  0  0  0
 19 21  1  0  0  0  0
 21 22  1  0  0  0  0
 21 23  1  0  0  0  0
 23 24  1  0  0  0  0
 23 25  1  0  0  0  0
 23 26  1  0  0  0  0
M  END
$$$$

  -OEChem-03222214023D

 26 25  0     1  0  0  0  0  0999 V2000
   -2.5539   -3.8807   -0.3785 H   0  0  0  0  0  0  0  0  0  0  0  0
   -2.6011   -2.8374   -0.7040 C   0  0  0  0  0  0  0  0  0  0  0  0
   -3.4146   -2.3392   -0.1712 H   0  0  0  0  0  0  0  0  0  0  0  0
   -2.8091   -2.8148   -1.7765 H   0  0  0  0  0  0  0  0  0  0  0  0
   -1.2845   -2.1408   -0.4143 C   0  0  0  0  0  0  0  0  0  0  0  0
   -0.3949   -2.7341    0.1680 O   0  0  0  0  0  0  0  0  0  0  0  0
   -1.1069   -0.8192   -0.7761 N   0  0  0  0  0  0  0  0  0  0  0  0
   -1.8644   -0.3872   -1.3004 H   0  0  0  0  0  0  0  0  0  0  0  0
    0.1793   -0.1001   -0.6924 C   0  0  1  0  0  0  0  0  0  0  0  0
    0.9064   -0.7032   -1.2499 H   0  0  0  0  0  0  0  0  0  0  0  0
    0.1085    1.2569   -1.4267 C   0  0  0  0  0  0  0  0  0  0  0  0
    1.0933    1.7305   -1.3650 H   0  0  0  0  0  0  0  0  0  0  0  0
   -0.0955    1.0664   -2.4836 H   0  0  0  0  0  0  0  0  0  0  0  0
   -0.9189    2.2748   -0.9403 C   0  0  0  0  0  0  0  0  0  0  0  0
   -1.0182    3.3560   -1.4839 O   0  0  0  0  0  0  0  0  0  0  0  0
   -1.6904    2.1387    0.1761 N   0  0  0  0  0  0  0  0  0  0  0  0
   -2.1206    3.0114    0.4709 H   0  0  0  0  0  0  0  0  0  0  0  0
   -1.3197    1.5241    0.8928 H   0  0  0  0  0  0  0  0  0  0  0  0
    0.7879   -0.0141    0.7269 C   0  0  0  0  0  0  0  0  0  0  0  0
    1.9970    0.1337    0.8290 O   0  0  0  0  0  0  0  0  0  0  0  0
   -0.0113    0.3086    1.8115 N   0  0  0  0  0  0  0  0  0  0  0  0
   -0.9370   -0.1098    1.7788 H   0  0  0  0  0  0  0  0  0  0  0  0
    0.5572    0.5525    3.1334 C   0  0  0  0  0  0  0  0  0  0  0  0
    1.2590    1.3929    3.1014 H   0  0  0  0  0  0  0  0  0  0  0  0
   -0.2351    0.7959    3.8477 H   0  0  0  0  0  0  0  0  0  0  0  0
    1.0889   -0.3352    3.4920 H   0  0  0  0  0  0  0  0  0  0  0  0
  1  2  1  0  0  0  0
  2  3  1  0  0  0  0
  2  4  1  0  0  0  0
  2  5  1  0  0  0  0
  5  6  2  0  0  0  0
  5  7  1  0  0  0  0
  7  8  1  0  0  0  0
  7  9  1  0  0  0  0
  9 10  1  0  0  0  0
  9 11  1  0  0  0  0
  9 19  1  0  0  0  0
 11 12  1  0  0  0  0
 11 13  1  0  0  0  0
 11 14  1  0  0  0  0
 14 15  2  0  0  0  0
 14 16  1  0  0  0  0
 16 17  1  0  0  0  0
 16 18  1  0  0  0  0
 19 20  2  0  0  0  0
 19 21  1  0  0  0  0
 21 22  1  0  0  0  0
 21 23  1  0  0  0  0
 23 24  1  0  0  0  0
 23 25  1  0  0  0  0
 23 26  1  0  0  0  0
M  END
$$$$

  -OEChem-03222214023D

 26 25  0     1  0  0  0  0  0999 V2000
   -2.5544   -3.8725   -0.3702 H   0  0  0  0  0  0  0  0  0  0  0  0
   -2.6029   -2.8271   -0.6886 C   0  0  0  0  0  0  0  0  0  0  0  0
   -3.4071   -2.3295   -0.1413 H   0  0  0  0  0  0  0  0  0  0  0  0
   -2.8257   -2.7966   -1.7580 H   0  0  0  0  0  0  0  0  0  0  0  0
   -1.2806   -2.1357   -0.4133 C   0  0  0  0  0  0  0  0  0  0  0  0
   -0.3798   -2.7385    0.1419 O   0  0  0  0  0  0  0  0  0  0  0  0
   -1.1081   -0.8117   -0.7677 N   0  0  0  0  0  0  0  0  0  0  0  0
   -1.8727   -0.3760   -1.2778 H   0  0  0  0  0  0  0  0  0  0  0  0
    0.1761   -0.0907   -0.6848 C   0  0  1  0  0  0  0  0  0  0  0  0
    0.9020   -0.6921   -1.2454 H   0  0  0  0  0  0  0  0  0  0  0  0
    0.0915    1.2599   -1.4286 C   0  0  0  0  0  0  0  0  0  0  0  0
    1.0709    1.7446   -1.3709 H   0  0  0  0  0  0  0  0  0  0  0  0
   -0.1115    1.0605   -2.4845 H   0  0  0  0  0  0  0  0  0  0  0  0
   -0.9471    2.2667   -0.9428 C   0  0  0  0  0  0  0  0  0  0  0  0
   -1.2523    3.2143   -1.6382 O   0  0  0  0  0  0  0  0  0  0  0  0
   -1.4480    2.3274    0.3241 N   0  0  0  0  0  0  0  0  0  0  0  0
   -1.8869    3.2178    0.5429 H   0  0  0  0  0  0  0  0  0  0  0  0
   -0.8978    1.8713    1.0471 H   0  0  0  0  0  0  0  0  0  0  0  0
    0.7931   -0.0103    0.7313 C   0  0  0  0  0  0  0  0  0  0  0  0
    2.0041    0.1206    0.8318 O   0  0  0  0  0  0  0  0  0  0  0  0
    0.0059    0.3049    1.8261 N   0  0  0  0  0  0  0  0  0  0  0  0
   -0.9562   -0.0180    1.7602 H   0  0  0  0  0  0  0  0  0  0  0  0
    0.5702    0.4748    3.1610 C   0  0  0  0  0  0  0  0  0  0  0  0
    1.2978    1.2935    3.1705 H   0  0  0  0  0  0  0  0  0  0  0  0
   -0.2210    0.7114    3.8789 H   0  0  0  0  0  0  0  0  0  0  0  0
    1.0707   -0.4440    3.4849 H   0  0  0  0  0  0  0  0  0  0  0  0
  1  2  1  0  0  0  0
  2  3  1  0  0  0  0
  2  4  1  0  0  0  0
  2  5  1  0  0  0  0
  5  6  2  0  0  0  0
  5  7  1  0  0  0  0
  7  8  1  0  0  0  0
  7  9  1  0  0  0  0
  9 10  1  0  0  0  0
  9 11  1  0  0  0  0
  9 19  1  0  0  0  0
 11 12  1  0  0  0  0
 11 13  1  0  0  0  0
 11 14  1  0  0  0  0
 14 15  2  0  0  0  0
 14 16  1  0  0  0  0
 16 17  1  0  0  0  0
 16 18  1  0  0  0  0
 19 20  2  0  0  0  0
 19 21  1  0  0  0  0
 21 22  1  0  0  0  0
 21 23  1  0  0  0  0
 23 24  1  0  0  0  0
 23 25  1  0  0  0  0
 23 26  1  0  0  0  0
M  END
$$$$

  -OEChem-03222214023D

 26 25  0     1  0  0  0  0  0999 V2000
   -2.5774   -3.8489   -0.3673 H   0  0  0  0  0  0  0  0  0  0  0  0
   -2.6218   -2.8013   -0.6789 C   0  0  0  0  0  0  0  0  0  0  0  0
   -3.4202   -2.3029   -0.1239 H   0  0  0  0  0  0  0  0  0  0  0  0
   -2.8500   -2.7629   -1.7468 H   0  0  0  0  0  0  0  0  0  0  0  0
   -1.2940   -2.1194   -0.4067 C   0  0  0  0  0  0  0  0  0  0  0  0
   -0.3959   -2.7312    0.1430 O   0  0  0  0  0  0  0  0  0  0  0  0
   -1.1103   -0.7978   -0.7656 N   0  0  0  0  0  0  0  0  0  0  0  0
   -1.8676   -0.3597   -1.2850 H   0  0  0  0  0  0  0  0  0  0  0  0
    0.1812   -0.0903   -0.6832 C   0  0  1  0  0  0  0  0  0  0  0  0
    0.9021   -0.6956   -1.2460 H   0  0  0  0  0  0  0  0  0  0  0  0
    0.0965    1.2608   -1.4233 C   0  0  0  0  0  0  0  0  0  0  0  0
    1.0754    1.7464   -1.3711 H   0  0  0  0  0  0  0  0  0  0  0  0
   -0.1146    1.0664   -2.4787 H   0  0  0  0  0  0  0  0  0  0  0  0
   -0.9422    2.2547   -0.9134 C   0  0  0  0  0  0  0  0  0  0  0  0
   -1.4627    3.0429   -1.6770 O   0  0  0  0  0  0  0  0  0  0  0  0
   -1.1916    2.5054    0.4039 N   0  0  0  0  0  0  0  0  0  0  0  0
   -1.6461    3.3963    0.5843 H   0  0  0  0  0  0  0  0  0  0  0  0
   -0.5234    2.1450    1.0822 H   0  0  0  0  0  0  0  0  0  0  0  0
    0.7993   -0.0108    0.7326 C   0  0  0  0  0  0  0  0  0  0  0  0
    2.0131    0.0894    0.8354 O   0  0  0  0  0  0  0  0  0  0  0  0
    0.0219    0.3166    1.8299 N   0  0  0  0  0  0  0  0  0  0  0  0
   -0.9662    0.0935    1.7420 H   0  0  0  0  0  0  0  0  0  0  0  0
    0.5793    0.4404    3.1723 C   0  0  0  0  0  0  0  0  0  0  0  0
    1.3390    1.2290    3.2032 H   0  0  0  0  0  0  0  0  0  0  0  0
   -0.2086    0.6952    3.8875 H   0  0  0  0  0  0  0  0  0  0  0  0
    1.0392   -0.5036    3.4835 H   0  0  0  0  0  0  0  0  0  0  0  0
  1  2  1  0  0  0  0
  2  3  1  0  0  0  0
  2  4  1  0  0  0  0
  2  5  1  0  0  0  0
  5  6  2  0  0  0  0
  5  7  1  0  0  0  0
  7  8  1  0  0  0  0
  7  9  1  0  0  0  0
  9 10  1  0  0  0  0
  9 11  1  0  0  0  0
  9 19  1  0  0  0  0
 11 12  1  0  0  0  0
 11 13  1  0  0  0  0
 11 14  1  0  0  0  0
 14 15  2  0  0  0  0
 14 16  1  0  0  0  0
 16 17  1  0  0  0  0
 16 18  1  0  0  0  0
 19 20  2  0  0  0  0
 19 21  1  0  0  0  0
 21 22  1  0  0  0  0
 21 23  1  0  0  0  0
 23 24  1  0  0  0  0
 23 25  1  0  0  0  0
 23 26  1  0  0  0  0
M  END
$$$$

  -OEChem-03222214023D

 26 25  0     1  0  0  0  0  0999 V2000
   -2.6136   -3.8094   -0.3559 H   0  0  0  0  0  0  0  0  0  0  0  0
   -2.6401   -2.7623   -0.6709 C   0  0  0  0  0  0  0  0  0  0  0  0
   -3.4238   -2.2461   -0.1112 H   0  0  0  0  0  0  0  0  0  0  0  0
   -2.8760   -2.7227   -1.7372 H   0  0  0  0  0  0  0  0  0  0  0  0
   -1.2976   -2.1052   -0.4113 C   0  0  0  0  0  0  0  0  0  0  0  0
   -0.4048   -2.7329    0.1295 O   0  0  0  0  0  0  0  0  0  0  0  0
   -1.0952   -0.7881   -0.7754 N   0  0  0  0  0  0  0  0  0  0  0  0
   -1.8498   -0.3365   -1.2880 H   0  0  0  0  0  0  0  0  0  0  0  0
    0.2029   -0.0942   -0.6877 C   0  0  1  0  0  0  0  0  0  0  0  0
    0.9228   -0.7009   -1.2506 H   0  0  0  0  0  0  0  0  0  0  0  0
    0.1161    1.2607   -1.4172 C   0  0  0  0  0  0  0  0  0  0  0  0
    1.0932    1.7499   -1.3684 H   0  0  0  0  0  0  0  0  0  0  0  0
   -0.1039    1.0782   -2.4732 H   0  0  0  0  0  0  0  0  0  0  0  0
   -0.9262    2.2311   -0.8735 C   0  0  0  0  0  0  0  0  0  0  0  0
   -1.6591    2.8362   -1.6303 O   0  0  0  0  0  0  0  0  0  0  0  0
   -0.9638    2.6587    0.4215 N   0  0  0  0  0  0  0  0  0  0  0  0
   -1.4696    3.5253    0.5819 H   0  0  0  0  0  0  0  0  0  0  0  0
   -0.1936    2.4011    1.0355 H   0  0  0  0  0  0  0  0  0  0  0  0
    0.8122   -0.0133    0.7318 C   0  0  0  0  0  0  0  0  0  0  0  0
    2.0268    0.0671    0.8444 O   0  0  0  0  0  0  0  0  0  0  0  0
    0.0330    0.3292    1.8225 N   0  0  0  0  0  0  0  0  0  0  0  0
   -0.9668    0.1814    1.7141 H   0  0  0  0  0  0  0  0  0  0  0  0
    0.5728    0.4467    3.1722 C   0  0  0  0  0  0  0  0  0  0  0  0
    1.3505    1.2167    3.2110 H   0  0  0  0  0  0  0  0  0  0  0  0
   -0.2200    0.7241    3.8736 H   0  0  0  0  0  0  0  0  0  0  0  0
    1.0050   -0.5065    3.4949 H   0  0  0  0  0  0  0  0  0  0  0  0
  1  2  1  0  0  0  0
  2  3  1  0  0  0  0
  2  4  1  0  0  0  0
  2  5  1  0  0  0  0
  5  6  2  0  0  0  0
  5  7  1  0  0  0  0
  7  8  1  0  0  0  0
  7  9  1  0  0  0  0
  9 10  1  0  0  0  0
  9 11  1  0  0  0  0
  9 19  1  0  0  0  0
 11 12  1  0  0  0  0
 11 13  1  0  0  0  0
 11 14  1  0  0  0  0
 14 15  2  0  0  0  0
 14 16  1  0  0  0  0
 16 17  1  0  0  0  0
 16 18  1  0  0  0  0
 19 20  2  0  0  0  0
 19 21  1  0  0  0  0
 21 22  1  0  0  0  0
 21 23  1  0  0  0  0
 23 24  1  0  0  0  0
 23 25  1  0  0  0  0
 23 26  1  0  0  0  0
M  END
$$$$

  -OEChem-03222214023D

 26 25  0     1  0  0  0  0  0999 V2000
   -2.6393   -3.7727   -0.3278 H   0  0  0  0  0  0  0  0  0  0  0  0
   -2.6531   -2.7286   -0.6539 C   0  0  0  0  0  0  0  0  0  0  0  0
   -3.4220   -2.1940   -0.0909 H   0  0  0  0  0  0  0  0  0  0  0  0
   -2.9014   -2.6969   -1.7176 H   0  0  0  0  0  0  0  0  0  0  0  0
   -1.2971   -2.0902   -0.4173 C   0  0  0  0  0  0  0  0  0  0  0  0
   -0.4058   -2.7296    0.1125 O   0  0  0  0  0  0  0  0  0  0  0  0
   -1.0772   -0.7788   -0.7913 N   0  0  0  0  0  0  0  0  0  0  0  0
   -1.8355   -0.3079   -1.2819 H   0  0  0  0  0  0  0  0  0  0  0  0
    0.2266   -0.0965   -0.7011 C   0  0  1  0  0  0  0  0  0  0  0  0
    0.9462   -0.7046   -1.2622 H   0  0  0  0  0  0  0  0  0  0  0  0
    0.1413    1.2631   -1.4174 C   0  0  0  0  0  0  0  0  0  0  0  0
    1.1179    1.7534   -1.3718 H   0  0  0  0  0  0  0  0  0  0  0  0
   -0.0898    1.0959   -2.4735 H   0  0  0  0  0  0  0  0  0  0  0  0
   -0.9008    2.2093   -0.8374 C   0  0  0  0  0  0  0  0  0  0  0  0
   -1.8188    2.6155   -1.5226 O   0  0  0  0  0  0  0  0  0  0  0  0
   -0.7691    2.8059    0.3831 N   0  0  0  0  0  0  0  0  0  0  0  0
   -1.3430    3.6277    0.5488 H   0  0  0  0  0  0  0  0  0  0  0  0
    0.0906    2.6645    0.9085 H   0  0  0  0  0  0  0  0  0  0  0  0
    0.8223   -0.0108    0.7232 C   0  0  0  0  0  0  0  0  0  0  0  0
    2.0368    0.0556    0.8488 O   0  0  0  0  0  0  0  0  0  0  0  0
    0.0342    0.3483    1.8018 N   0  0  0  0  0  0  0  0  0  0  0  0
   -0.9686    0.2432    1.6768 H   0  0  0  0  0  0  0  0  0  0  0  0
    0.5562    0.4753    3.1572 C   0  0  0  0  0  0  0  0  0  0  0  0
    1.3392    1.2397    3.1990 H   0  0  0  0  0  0  0  0  0  0  0  0
   -0.2441    0.7654    3.8447 H   0  0  0  0  0  0  0  0  0  0  0  0
    0.9761   -0.4781    3.4950 H   0  0  0  0  0  0  0  0  0  0  0  0
  1  2  1  0  0  0  0
  2  3  1  0  0  0  0
  2  4  1  0  0  0  0
  2  5  1  0  0  0  0
  5  6  2  0  0  0  0
  5  7  1  0  0  0  0
  7  8  1  0  0  0  0
  7  9  1  0  0  0  0
  9 10  1  0  0  0  0
  9 11  1  0  0  0  0
  9 19  1  0  0  0  0
 11 12  1  0  0  0  0
 11 13  1  0  0  0  0
 11 14  1  0  0  0  0
 14 15  2  0  0  0  0
 14 16  1  0  0  0  0
 16 17  1  0  0  0  0
 16 18  1  0  0  0  0
 19 20  2  0  0  0  0
 19 21  1  0  0  0  0
 21 22  1  0  0  0  0
 21 23  1  0  0  0  0
 23 24  1  0  0  0  0
 23 25  1  0  0  0  0
 23 26  1  0  0  0  0
M  END
$$$$

  -OEChem-03222214023D

 26 25  0     1  0  0  0  0  0999 V2000
   -2.6831   -3.7047   -0.2859 H   0  0  0  0  0  0  0  0  0  0  0  0
   -2.6731   -2.6667   -0.6311 C   0  0  0  0  0  0  0  0  0  0  0  0
   -3.4271   -2.1034   -0.0762 H   0  0  0  0  0  0  0  0  0  0  0  0
   -2.9244   -2.6486   -1.6945 H   0  0  0  0  0  0  0  0  0  0  0  0
   -1.3015   -2.0565   -0.4109 C   0  0  0  0  0  0  0  0  0  0  0  0
   -0.4250   -2.7035    0.1342 O   0  0  0  0  0  0  0  0  0  0  0  0
   -1.0507   -0.7601   -0.8149 N   0  0  0  0  0  0  0  0  0  0  0  0
   -1.8061   -0.2708   -1.2942 H   0  0  0  0  0  0  0  0  0  0  0  0
    0.2642   -0.0986   -0.7326 C   0  0  1  0  0  0  0  0  0  0  0  0
    0.9809   -0.7180   -1.2848 H   0  0  0  0  0  0  0  0  0  0  0  0
    0.1863    1.2604   -1.4485 C   0  0  0  0  0  0  0  0  0  0  0  0
    1.1655    1.7466   -1.4133 H   0  0  0  0  0  0  0  0  0  0  0  0
   -0.0616    1.1028   -2.5021 H   0  0  0  0  0  0  0  0  0  0  0  0
   -0.8462    2.1945   -0.8375 C   0  0  0  0  0  0  0  0  0  0  0  0
   -1.9097    2.3947   -1.3924 O   0  0  0  0  0  0  0  0  0  0  0  0
   -0.5838    2.9528    0.2673 N   0  0  0  0  0  0  0  0  0  0  0  0
   -1.3531    3.4990    0.6432 H   0  0  0  0  0  0  0  0  0  0  0  0
    0.2111    2.7089    0.8539 H   0  0  0  0  0  0  0  0  0  0  0  0
    0.8423    0.0080    0.6972 C   0  0  0  0  0  0  0  0  0  0  0  0
    2.0547    0.0762    0.8386 O   0  0  0  0  0  0  0  0  0  0  0  0
    0.0373    0.4067    1.7500 N   0  0  0  0  0  0  0  0  0  0  0  0
   -0.9594    0.2562    1.6222 H   0  0  0  0  0  0  0  0  0  0  0  0
    0.5415    0.5662    3.1091 C   0  0  0  0  0  0  0  0  0  0  0  0
    1.3337    1.3218    3.1410 H   0  0  0  0  0  0  0  0  0  0  0  0
   -0.2648    0.8863    3.7759 H   0  0  0  0  0  0  0  0  0  0  0  0
    0.9446   -0.3820    3.4807 H   0  0  0  0  0  0  0  0  0  0  0  0
  1  2  1  0  0  0  0
  2  3  1  0  0  0  0
  2  4  1  0  0  0  0
  2  5  1  0  0  0  0
  5  6  2  0  0  0  0
  5  7  1  0  0  0  0
  7  8  1  0  0  0  0
  7  9  1  0  0  0  0
  9 10  1  0  0  0  0
  9 11  1  0  0  0  0
  9 19  1  0  0  0  0
 11 12  1  0  0  0  0
 11 13  1  0  0  0  0
 11 14  1  0  0  0  0
 14 15  2  0  0  0  0
 14 16  1  0  0  0  0
 16 17  1  0  0  0  0
 16 18  1  0  0  0  0
 19 20  2  0  0  0  0
 19 21  1  0  0  0  0
 21 22  1  0  0  0  0
 21 23  1  0  0  0  0
 23 24  1  0  0  0  0
 23 25  1  0  0  0  0
 23 26  1  0  0  0  0
M  END
$$$$

  -OEChem-03222214023D

 26 25  0     1  0  0  0  0  0999 V2000
   -2.6931   -3.6642   -0.2331 H   0  0  0  0  0  0  0  0  0  0  0  0
   -2.6735   -2.6288   -0.5850 C   0  0  0  0  0  0  0  0  0  0  0  0
   -3.3849   -2.0433    0.0025 H   0  0  0  0  0  0  0  0  0  0  0  0
   -2.9755   -2.6089   -1.6350 H   0  0  0  0  0  0  0  0  0  0  0  0
   -1.2781   -2.0524   -0.4360 C   0  0  0  0  0  0  0  0  0  0  0  0
   -0.3898   -2.7191    0.0650 O   0  0  0  0  0  0  0  0  0  0  0  0
   -1.0196   -0.7618   -0.8515 N   0  0  0  0  0  0  0  0  0  0  0  0
   -1.7987   -0.2340   -1.2469 H   0  0  0  0  0  0  0  0  0  0  0  0
    0.2931   -0.0983   -0.7624 C   0  0  1  0  0  0  0  0  0  0  0  0
    1.0180   -0.7161   -1.3055 H   0  0  0  0  0  0  0  0  0  0  0  0
    0.2125    1.2624   -1.4731 C   0  0  0  0  0  0  0  0  0  0  0  0
    1.1896    1.7529   -1.4361 H   0  0  0  0  0  0  0  0  0  0  0  0
   -0.0380    1.1116   -2.5270 H   0  0  0  0  0  0  0  0  0  0  0  0
   -0.8287    2.1767   -0.8482 C   0  0  0  0  0  0  0  0  0  0  0  0
   -1.9811    2.1670   -1.2403 O   0  0  0  0  0  0  0  0  0  0  0  0
   -0.5183    3.0674    0.1392 N   0  0  0  0  0  0  0  0  0  0  0  0
   -1.2968    3.5480    0.5801 H   0  0  0  0  0  0  0  0  0  0  0  0
    0.3626    2.9577    0.6355 H   0  0  0  0  0  0  0  0  0  0  0  0
    0.8485    0.0232    0.6742 C   0  0  0  0  0  0  0  0  0  0  0  0
    2.0586    0.0858    0.8378 O   0  0  0  0  0  0  0  0  0  0  0  0
    0.0238    0.4331    1.7071 N   0  0  0  0  0  0  0  0  0  0  0  0
   -0.9730    0.3093    1.5541 H   0  0  0  0  0  0  0  0  0  0  0  0
    0.4988    0.6046    3.0748 C   0  0  0  0  0  0  0  0  0  0  0  0
    1.2944    1.3560    3.1157 H   0  0  0  0  0  0  0  0  0  0  0  0
   -0.3200    0.9363    3.7202 H   0  0  0  0  0  0  0  0  0  0  0  0
    0.8874   -0.3419    3.4651 H   0  0  0  0  0  0  0  0  0  0  0  0
  1  2  1  0  0  0  0
  2  3  1  0  0  0  0
  2  4  1  0  0  0  0
  2  5  1  0  0  0  0
  5  6  2  0  0  0  0
  5  7  1  0  0  0  0
  7  8  1  0  0  0  0
  7  9  1  0  0  0  0
  9 10  1  0  0  0  0
  9 11  1  0  0  0  0
  9 19  1  0  0  0  0
 11 12  1  0  0  0  0
 11 13  1  0  0  0  0
 11 14  1  0  0  0  0
 14 15  2  0  0  0  0
 14 16  1  0  0  0  0
 16 17  1  0  0  0  0
 16 18  1  0  0  0  0
 19 20  2  0  0  0  0
 19 21  1  0  0  0  0
 21 22  1  0  0  0  0
 21 23  1  0  0  0  0
 23 24  1  0  0  0  0
 23 25  1  0  0  0  0
 23 26  1  0  0  0  0
M  END
$$$$

  -OEChem-03222214023D

 26 25  0     1  0  0  0  0  0999 V2000
   -2.6806   -3.6463   -0.1657 H   0  0  0  0  0  0  0  0  0  0  0  0
   -2.6632   -2.6170   -0.5354 C   0  0  0  0  0  0  0  0  0  0  0  0
   -3.3339   -2.0105    0.0780 H   0  0  0  0  0  0  0  0  0  0  0  0
   -3.0186   -2.6084   -1.5688 H   0  0  0  0  0  0  0  0  0  0  0  0
   -1.2532   -2.0614   -0.4677 C   0  0  0  0  0  0  0  0  0  0  0  0
   -0.3470   -2.7436   -0.0222 O   0  0  0  0  0  0  0  0  0  0  0  0
   -1.0001   -0.7730   -0.8924 N   0  0  0  0  0  0  0  0  0  0  0  0
   -1.8015   -0.2126   -1.1882 H   0  0  0  0  0  0  0  0  0  0  0  0
    0.3076   -0.1020   -0.7965 C   0  0  1  0  0  0  0  0  0  0  0  0
    1.0422   -0.7142   -1.3327 H   0  0  0  0  0  0  0  0  0  0  0  0
    0.2272    1.2660   -1.4961 C   0  0  0  0  0  0  0  0  0  0  0  0
    1.2043    1.7555   -1.4531 H   0  0  0  0  0  0  0  0  0  0  0  0
   -0.0224    1.1247   -2.5514 H   0  0  0  0  0  0  0  0  0  0  0  0
   -0.8182    2.1748   -0.8675 C   0  0  0  0  0  0  0  0  0  0  0  0
   -2.0076    1.9922   -1.0597 O   0  0  0  0  0  0  0  0  0  0  0  0
   -0.4787    3.1910   -0.0211 N   0  0  0  0  0  0  0  0  0  0  0  0
   -1.2404    3.6292    0.4882 H   0  0  0  0  0  0  0  0  0  0  0  0
    0.4653    3.2159    0.3549 H   0  0  0  0  0  0  0  0  0  0  0  0
    0.8408    0.0309    0.6473 C   0  0  0  0  0  0  0  0  0  0  0  0
    2.0483    0.0868    0.8330 O   0  0  0  0  0  0  0  0  0  0  0  0
   -0.0034    0.4440    1.6631 N   0  0  0  0  0  0  0  0  0  0  0  0
   -0.9998    0.3575    1.4824 H   0  0  0  0  0  0  0  0  0  0  0  0
    0.4431    0.6397    3.0367 C   0  0  0  0  0  0  0  0  0  0  0  0
    1.2339    1.3959    3.0808 H   0  0  0  0  0  0  0  0  0  0  0  0
   -0.3901    0.9774    3.6601 H   0  0  0  0  0  0  0  0  0  0  0  0
    0.8287   -0.2981    3.4506 H   0  0  0  0  0  0  0  0  0  0  0  0
  1  2  1  0  0  0  0
  2  3  1  0  0  0  0
  2  4  1  0  0  0  0
  2  5  1  0  0  0  0
  5  6  2  0  0  0  0
  5  7  1  0  0  0  0
  7  8  1  0  0  0  0
  7  9  1  0  0  0  0
  9 10  1  0  0  0  0
  9 11  1  0  0  0  0
  9 19  1  0  0  0  0
 11 12  1  0  0  0  0
 11 13  1  0  0  0  0
 11 14  1  0  0  0  0
 14 15  2  0  0  0  0
 14 16  1  0  0  0  0
 16 17  1  0  0  0  0
 16 18  1  0  0  0  0
 19 20  2  0  0  0  0
 19 21  1  0  0  0  0
 21 22  1  0  0  0  0
 21 23  1  0  0  0  0
 23 24  1  0  0  0  0
 23 25  1  0  0  0  0
 23 26  1  0  0  0  0
M  END
$$$$

  -OEChem-03222214023D

 26 25  0     1  0  0  0  0  0999 V2000
   -2.6541   -3.6569   -0.1166 H   0  0  0  0  0  0  0  0  0  0  0  0
   -2.6462   -2.6312   -0.4960 C   0  0  0  0  0  0  0  0  0  0  0  0
   -3.2840   -2.0145    0.1418 H   0  0  0  0  0  0  0  0  0  0  0  0
   -3.0480   -2.6287   -1.5122 H   0  0  0  0  0  0  0  0  0  0  0  0
   -1.2306   -2.0859   -0.4981 C   0  0  0  0  0  0  0  0  0  0  0  0
   -0.3062   -2.7801   -0.1120 O   0  0  0  0  0  0  0  0  0  0  0  0
   -0.9930   -0.7959   -0.9261 N   0  0  0  0  0  0  0  0  0  0  0  0
   -1.8114   -0.2188   -1.1303 H   0  0  0  0  0  0  0  0  0  0  0  0
    0.3076   -0.1129   -0.8240 C   0  0  1  0  0  0  0  0  0  0  0  0
    1.0514   -0.7149   -1.3588 H   0  0  0  0  0  0  0  0  0  0  0  0
    0.2253    1.2675   -1.5030 C   0  0  0  0  0  0  0  0  0  0  0  0
    1.2046    1.7518   -1.4510 H   0  0  0  0  0  0  0  0  0  0  0  0
   -0.0209    1.1395   -2.5604 H   0  0  0  0  0  0  0  0  0  0  0  0
   -0.8205    2.1792   -0.8729 C   0  0  0  0  0  0  0  0  0  0  0  0
   -2.0006    1.8733   -0.8366 O   0  0  0  0  0  0  0  0  0  0  0  0
   -0.4736    3.3319   -0.2289 N   0  0  0  0  0  0  0  0  0  0  0  0
   -1.1969    3.7668    0.3364 H   0  0  0  0  0  0  0  0  0  0  0  0
    0.5057    3.4920   -0.0111 H   0  0  0  0  0  0  0  0  0  0  0  0
    0.8247    0.0249    0.6247 C   0  0  0  0  0  0  0  0  0  0  0  0
    2.0298    0.0709    0.8285 O   0  0  0  0  0  0  0  0  0  0  0  0
   -0.0355    0.4320    1.6291 N   0  0  0  0  0  0  0  0  0  0  0  0
   -1.0298    0.4019    1.4187 H   0  0  0  0  0  0  0  0  0  0  0  0
    0.3896    0.6663    3.0031 C   0  0  0  0  0  0  0  0  0  0  0  0
    1.1590    1.4446    3.0406 H   0  0  0  0  0  0  0  0  0  0  0  0
   -0.4598    0.9927    3.6108 H   0  0  0  0  0  0  0  0  0  0  0  0
    0.7961   -0.2523    3.4388 H   0  0  0  0  0  0  0  0  0  0  0  0
  1  2  1  0  0  0  0
  2  3  1  0  0  0  0
  2  4  1  0  0  0  0
  2  5  1  0  0  0  0
  5  6  2  0  0  0  0
  5  7  1  0  0  0  0
  7  8  1  0  0  0  0
  7  9  1  0  0  0  0
  9 10  1  0  0  0  0
  9 11  1  0  0  0  0
  9 19  1  0  0  0  0
 11 12  1  0  0  0  0
 11 13  1  0  0  0  0
 11 14  1  0  0  0  0
 14 15  2  0  0  0  0
 14 16  1  0  0  0  0
 16 17  1  0  0  0  0
 16 18  1  0  0  0  0
 19 20  2  0  0  0  0
 19 21  1  0  0  0  0
 21 22  1  0  0  0  0
 21 23  1  0  0  0  0
 23 24  1  0  0  0  0
 23 25  1  0  0  0  0
 23 26  1  0  0  0  0
M  END
$$$$

  -OEChem-03222214023D

 26 25  0     1  0  0  0  0  0999 V2000
   -2.6226   -3.6823   -0.0946 H   0  0  0  0  0  0  0  0  0  0  0  0
   -2.6286   -2.6535   -0.4658 C   0  0  0  0  0  0  0  0  0  0  0  0
   -3.2272   -2.0387    0.2108 H   0  0  0  0  0  0  0  0  0  0  0  0
   -3.0837   -2.6400   -1.4591 H   0  0  0  0  0  0  0  0  0  0  0  0
   -1.2120   -2.1158   -0.5387 C   0  0  0  0  0  0  0  0  0  0  0  0
   -0.2710   -2.8245   -0.2251 O   0  0  0  0  0  0  0  0  0  0  0  0
   -0.9921   -0.8188   -0.9553 N   0  0  0  0  0  0  0  0  0  0  0  0
   -1.8207   -0.2314   -1.0650 H   0  0  0  0  0  0  0  0  0  0  0  0
    0.3033   -0.1288   -0.8377 C   0  0  1  0  0  0  0  0  0  0  0  0
    1.0553   -0.7172   -1.3763 H   0  0  0  0  0  0  0  0  0  0  0  0
    0.2176    1.2657   -1.4900 C   0  0  0  0  0  0  0  0  0  0  0  0
    1.1979    1.7463   -1.4229 H   0  0  0  0  0  0  0  0  0  0  0  0
   -0.0205    1.1537   -2.5509 H   0  0  0  0  0  0  0  0  0  0  0  0
   -0.8302    2.1796   -0.8586 C   0  0  0  0  0  0  0  0  0  0  0  0
   -1.9559    1.7959   -0.5847 O   0  0  0  0  0  0  0  0  0  0  0  0
   -0.5319    3.4594   -0.4895 N   0  0  0  0  0  0  0  0  0  0  0  0
   -1.2138    3.9290    0.0994 H   0  0  0  0  0  0  0  0  0  0  0  0
    0.4411    3.7496   -0.4713 H   0  0  0  0  0  0  0  0  0  0  0  0
    0.8068   -0.0051    0.6173 C   0  0  0  0  0  0  0  0  0  0  0  0
    2.0095    0.0195    0.8383 O   0  0  0  0  0  0  0  0  0  0  0  0
   -0.0650    0.3858    1.6179 N   0  0  0  0  0  0  0  0  0  0  0  0
   -1.0473    0.4724    1.3662 H   0  0  0  0  0  0  0  0  0  0  0  0
    0.3495    0.6773    2.9839 C   0  0  0  0  0  0  0  0  0  0  0  0
    1.0671    1.5042    2.9991 H   0  0  0  0  0  0  0  0  0  0  0  0
   -0.5173    0.9598    3.5892 H   0  0  0  0  0  0  0  0  0  0  0  0
    0.8163   -0.2037    3.4370 H   0  0  0  0  0  0  0  0  0  0  0  0
  1  2  1  0  0  0  0
  2  3  1  0  0  0  0
  2  4  1  0  0  0  0
  2  5  1  0  0  0  0
  5  6  2  0  0  0  0
  5  7  1  0  0  0  0
  7  8  1  0  0  0  0
  7  9  1  0  0  0  0
  9 10  1  0  0  0  0
  9 11  1  0  0  0  0
  9 19  1  0  0  0  0
 11 12  1  0  0  0  0
 11 13  1  0  0  0  0
 11 14  1  0  0  0  0
 14 15  2  0  0  0  0
 14 16  1  0  0  0  0
 16 17  1  0  0  0  0
 16 18  1  0  0  0  0
 19 20  2  0  0  0  0
 19 21  1  0  0  0  0
 21 22  1  0  0  0  0
 21 23  1  0  0  0  0
 23 24  1  0  0  0  0
 23 25  1  0  0  0  0
 23 26  1  0  0  0  0
M  END
$$$$

  -OEChem-03222214023D

 26 25  0     1  0  0  0  0  0999 V2000
   -2.5995   -3.7140   -0.1172 H   0  0  0  0  0  0  0  0  0  0  0  0
   -2.6192   -2.6748   -0.4570 C   0  0  0  0  0  0  0  0  0  0  0  0
   -3.1897   -2.0808    0.2611 H   0  0  0  0  0  0  0  0  0  0  0  0
   -3.1139   -2.6317   -1.4303 H   0  0  0  0  0  0  0  0  0  0  0  0
   -1.2058   -2.1350   -0.5693 C   0  0  0  0  0  0  0  0  0  0  0  0
   -0.2548   -2.8532   -0.3125 O   0  0  0  0  0  0  0  0  0  0  0  0
   -1.0005   -0.8288   -0.9654 N   0  0  0  0  0  0  0  0  0  0  0  0
   -1.8333   -0.2394   -0.9993 H   0  0  0  0  0  0  0  0  0  0  0  0
    0.2923   -0.1366   -0.8274 C   0  0  1  0  0  0  0  0  0  0  0  0
    1.0484   -0.7168   -1.3692 H   0  0  0  0  0  0  0  0  0  0  0  0
    0.2113    1.2659   -1.4658 C   0  0  0  0  0  0  0  0  0  0  0  0
    1.1914    1.7441   -1.3788 H   0  0  0  0  0  0  0  0  0  0  0  0
   -0.0105    1.1617   -2.5311 H   0  0  0  0  0  0  0  0  0  0  0  0
   -0.8408    2.1864   -0.8484 C   0  0  0  0  0  0  0  0  0  0  0  0
   -1.8746    1.7731   -0.3464 O   0  0  0  0  0  0  0  0  0  0  0  0
   -0.6607    3.5386   -0.8013 N   0  0  0  0  0  0  0  0  0  0  0  0
   -1.3122    4.0610   -0.2224 H   0  0  0  0  0  0  0  0  0  0  0  0
    0.2572    3.9207   -1.0071 H   0  0  0  0  0  0  0  0  0  0  0  0
    0.7911   -0.0341    0.6312 C   0  0  0  0  0  0  0  0  0  0  0  0
    1.9932   -0.0318    0.8577 O   0  0  0  0  0  0  0  0  0  0  0  0
   -0.0834    0.3381    1.6365 N   0  0  0  0  0  0  0  0  0  0  0  0
   -1.0420    0.5399    1.3540 H   0  0  0  0  0  0  0  0  0  0  0  0
    0.3394    0.6640    2.9919 C   0  0  0  0  0  0  0  0  0  0  0  0
    0.9834    1.5494    2.9905 H   0  0  0  0  0  0  0  0  0  0  0  0
   -0.5328    0.8687    3.6200 H   0  0  0  0  0  0  0  0  0  0  0  0
    0.8916   -0.1735    3.4314 H   0  0  0  0  0  0  0  0  0  0  0  0
  1  2  1  0  0  0  0
  2  3  1  0  0  0  0
  2  4  1  0  0  0  0
  2  5  1  0  0  0  0
  5  6  2  0  0  0  0
  5  7  1  0  0  0  0
  7  8  1  0  0  0  0
  7  9  1  0  0  0  0
  9 10  1  0  0  0  0
  9 11  1  0  0  0  0
  9 19  1  0  0  0  0
 11 12  1  0  0  0  0
 11 13  1  0  0  0  0
 11 14  1  0  0  0  0
 14 15  2  0  0  0  0
 14 16  1  0  0  0  0
 16 17  1  0  0  0  0
 16 18  1  0  0  0  0
 19 20  2  0  0  0  0
 19 21  1  0  0  0  0
 21 22  1  0  0  0  0
 21 23  1  0  0  0  0
 23 24  1  0  0  0  0
 23 25  1  0  0  0  0
 23 26  1  0  0  0  0
M  END
$$$$

  -OEChem-03222214023D

 26 25  0     1  0  0  0  0  0999 V2000
   -2.5807   -3.7315   -0.1417 H   0  0  0  0  0  0  0  0  0  0  0  0
   -2.6117   -2.6856   -0.4601 C   0  0  0  0  0  0  0  0  0  0  0  0
   -3.1692   -2.1086    0.2816 H   0  0  0  0  0  0  0  0  0  0  0  0
   -3.1261   -2.6251   -1.4220 H   0  0  0  0  0  0  0  0  0  0  0  0
   -1.2030   -2.1383   -0.5912 C   0  0  0  0  0  0  0  0  0  0  0  0
   -0.2447   -2.8603   -0.3752 O   0  0  0  0  0  0  0  0  0  0  0  0
   -1.0118   -0.8229   -0.9639 N   0  0  0  0  0  0  0  0  0  0  0  0
   -1.8481   -0.2395   -0.9528 H   0  0  0  0  0  0  0  0  0  0  0  0
    0.2761   -0.1272   -0.8030 C   0  0  1  0  0  0  0  0  0  0  0  0
    1.0361   -0.7042   -1.3430 H   0  0  0  0  0  0  0  0  0  0  0  0
    0.1982    1.2699   -1.4525 C   0  0  0  0  0  0  0  0  0  0  0  0
    1.1725    1.7561   -1.3484 H   0  0  0  0  0  0  0  0  0  0  0  0
    0.0004    1.1518   -2.5210 H   0  0  0  0  0  0  0  0  0  0  0  0
   -0.8700    2.1958   -0.8714 C   0  0  0  0  0  0  0  0  0  0  0  0
   -1.7819    1.8054   -0.1592 O   0  0  0  0  0  0  0  0  0  0  0  0
   -0.8490    3.5384   -1.1159 N   0  0  0  0  0  0  0  0  0  0  0  0
   -1.4809    4.1077   -0.5597 H   0  0  0  0  0  0  0  0  0  0  0  0
   -0.0170    3.9520   -1.5247 H   0  0  0  0  0  0  0  0  0  0  0  0
    0.7796   -0.0405    0.6562 C   0  0  0  0  0  0  0  0  0  0  0  0
    1.9824   -0.0685    0.8784 O   0  0  0  0  0  0  0  0  0  0  0  0
   -0.0855    0.3124    1.6757 N   0  0  0  0  0  0  0  0  0  0  0  0
   -1.0218    0.5975    1.3866 H   0  0  0  0  0  0  0  0  0  0  0  0
    0.3575    0.6302    3.0264 C   0  0  0  0  0  0  0  0  0  0  0  0
    0.9791    1.5315    3.0243 H   0  0  0  0  0  0  0  0  0  0  0  0
   -0.5063    0.8038    3.6752 H   0  0  0  0  0  0  0  0  0  0  0  0
    0.9391   -0.1989    3.4433 H   0  0  0  0  0  0  0  0  0  0  0  0
  1  2  1  0  0  0  0
  2  3  1  0  0  0  0
  2  4  1  0  0  0  0
  2  5  1  0  0  0  0
  5  6  2  0  0  0  0
  5  7  1  0  0  0  0
  7  8  1  0  0  0  0
  7  9  1  0  0  0  0
  9 10  1  0  0  0  0
  9 11  1  0  0  0  0
  9 19  1  0  0  0  0
 11 12  1  0  0  0  0
 11 13  1  0  0  0  0
 11 14  1  0  0  0  0
 14 15  2  0  0  0  0
 14 16  1  0  0  0  0
 16 17  1  0  0  0  0
 16 18  1  0  0  0  0
 19 20  2  0  0  0  0
 19 21  1  0  0  0  0
 21 22  1  0  0  0  0
 21 23  1  0  0  0  0
 23 24  1  0  0  0  0
 23 25  1  0  0  0  0
 23 26  1  0  0  0  0
M  END
$$$$

  -OEChem-03222214023D

 26 25  0     1  0  0  0  0  0999 V2000
   -2.5600   -3.7496   -0.1618 H   0  0  0  0  0  0  0  0  0  0  0  0
   -2.6058   -2.7012   -0.4700 C   0  0  0  0  0  0  0  0  0  0  0  0
   -3.1637   -2.1382    0.2822 H   0  0  0  0  0  0  0  0  0  0  0  0
   -3.1294   -2.6378   -1.4269 H   0  0  0  0  0  0  0  0  0  0  0  0
   -1.2046   -2.1359   -0.6073 C   0  0  0  0  0  0  0  0  0  0  0  0
   -0.2373   -2.8541   -0.4213 O   0  0  0  0  0  0  0  0  0  0  0  0
   -1.0306   -0.8105   -0.9532 N   0  0  0  0  0  0  0  0  0  0  0  0
   -1.8729   -0.2389   -0.9186 H   0  0  0  0  0  0  0  0  0  0  0  0
    0.2515   -0.1082   -0.7733 C   0  0  1  0  0  0  0  0  0  0  0  0
    1.0137   -0.6829   -1.3131 H   0  0  0  0  0  0  0  0  0  0  0  0
    0.1792    1.2804   -1.4407 C   0  0  0  0  0  0  0  0  0  0  0  0
    1.1476    1.7751   -1.3226 H   0  0  0  0  0  0  0  0  0  0  0  0
    0.0055    1.1448   -2.5113 H   0  0  0  0  0  0  0  0  0  0  0  0
   -0.9048    2.2102   -0.8989 C   0  0  0  0  0  0  0  0  0  0  0  0
   -1.6745    1.9021   -0.0039 O   0  0  0  0  0  0  0  0  0  0  0  0
   -1.0638    3.4693   -1.4010 N   0  0  0  0  0  0  0  0  0  0  0  0
   -1.6754    4.0874   -0.8750 H   0  0  0  0  0  0  0  0  0  0  0  0
   -0.3354    3.8579   -1.9917 H   0  0  0  0  0  0  0  0  0  0  0  0
    0.7678   -0.0385    0.6837 C   0  0  0  0  0  0  0  0  0  0  0  0
    1.9726   -0.0897    0.8921 O   0  0  0  0  0  0  0  0  0  0  0  0
   -0.0816    0.2896    1.7239 N   0  0  0  0  0  0  0  0  0  0  0  0
   -1.0013    0.6336    1.4445 H   0  0  0  0  0  0  0  0  0  0  0  0
    0.3907    0.5914    3.0687 C   0  0  0  0  0  0  0  0  0  0  0  0
    1.0109    1.4936    3.0629 H   0  0  0  0  0  0  0  0  0  0  0  0
   -0.4584    0.7559    3.7387 H   0  0  0  0  0  0  0  0  0  0  0  0
    0.9827   -0.2414    3.4629 H   0  0  0  0  0  0  0  0  0  0  0  0
  1  2  1  0  0  0  0
  2  3  1  0  0  0  0
  2  4  1  0  0  0  0
  2  5  1  0  0  0  0
  5  6  2  0  0  0  0
  5  7  1  0  0  0  0
  7  8  1  0  0  0  0
  7  9  1  0  0  0  0
  9 10  1  0  0  0  0
  9 11  1  0  0  0  0
  9 19  1  0  0  0  0
 11 12  1  0  0  0  0
 11 13  1  0  0  0  0
 11 14  1  0  0  0  0
 14 15  2  0  0  0  0
 14 16  1  0  0  0  0
 16 17  1  0  0  0  0
 16 18  1  0  0  0  0
 19 20  2  0  0  0  0
 19 21  1  0  0  0  0
 21 22  1  0  0  0  0
 21 23  1  0  0  0  0
 23 24  1  0  0  0  0
 23 25  1  0  0  0  0
 23 26  1  0  0  0  0
M  END
$$$$

  -OEChem-03222214023D

 26 25  0     1  0  0  0  0  0999 V2000
   -2.5514   -3.7586   -0.1806 H   0  0  0  0  0  0  0  0  0  0  0  0
   -2.6039   -2.7080   -0.4797 C   0  0  0  0  0  0  0  0  0  0  0  0
   -3.1675   -2.1556    0.2761 H   0  0  0  0  0  0  0  0  0  0  0  0
   -3.1257   -2.6396   -1.4373 H   0  0  0  0  0  0  0  0  0  0  0  0
   -1.2065   -2.1317   -0.6083 C   0  0  0  0  0  0  0  0  0  0  0  0
   -0.2345   -2.8459   -0.4330 O   0  0  0  0  0  0  0  0  0  0  0  0
   -1.0432   -0.7999   -0.9359 N   0  0  0  0  0  0  0  0  0  0  0  0
   -1.8914   -0.2390   -0.9022 H   0  0  0  0  0  0  0  0  0  0  0  0
    0.2339   -0.0905   -0.7481 C   0  0  1  0  0  0  0  0  0  0  0  0
    0.9968   -0.6644   -1.2883 H   0  0  0  0  0  0  0  0  0  0  0  0
    0.1596    1.2883   -1.4344 C   0  0  0  0  0  0  0  0  0  0  0  0
    1.1218    1.7943   -1.3139 H   0  0  0  0  0  0  0  0  0  0  0  0
   -0.0011    1.1332   -2.5045 H   0  0  0  0  0  0  0  0  0  0  0  0
   -0.9380    2.2158   -0.9183 C   0  0  0  0  0  0  0  0  0  0  0  0
   -1.5435    2.0397    0.1243 O   0  0  0  0  0  0  0  0  0  0  0  0
   -1.2988    3.3313   -1.6170 N   0  0  0  0  0  0  0  0  0  0  0  0
   -1.8920    3.9930   -1.1237 H   0  0  0  0  0  0  0  0  0  0  0  0
   -0.6986    3.6524   -2.3700 H   0  0  0  0  0  0  0  0  0  0  0  0
    0.7641   -0.0300    0.7054 C   0  0  0  0  0  0  0  0  0  0  0  0
    1.9700   -0.1044    0.9003 O   0  0  0  0  0  0  0  0  0  0  0  0
   -0.0705    0.2798    1.7630 N   0  0  0  0  0  0  0  0  0  0  0  0
   -0.9723    0.6765    1.4956 H   0  0  0  0  0  0  0  0  0  0  0  0
    0.4263    0.5542    3.1051 C   0  0  0  0  0  0  0  0  0  0  0  0
    1.0542    1.4511    3.1050 H   0  0  0  0  0  0  0  0  0  0  0  0
   -0.4108    0.7144    3.7912 H   0  0  0  0  0  0  0  0  0  0  0  0
    1.0171   -0.2903    3.4750 H   0  0  0  0  0  0  0  0  0  0  0  0
  1  2  1  0  0  0  0
  2  3  1  0  0  0  0
  2  4  1  0  0  0  0
  2  5  1  0  0  0  0
  5  6  2  0  0  0  0
  5  7  1  0  0  0  0
  7  8  1  0  0  0  0
  7  9  1  0  0  0  0
  9 10  1  0  0  0  0
  9 11  1  0  0  0  0
  9 19  1  0  0  0  0
 11 12  1  0  0  0  0
 11 13  1  0  0  0  0
 11 14  1  0  0  0  0
 14 15  2  0  0  0  0
 14 16  1  0  0  0  0
 16 17  1  0  0  0  0
 16 18  1  0  0  0  0
 19 20  2  0  0  0  0
 19 21  1  0  0  0  0
 21 22  1  0  0  0  0
 21 23  1  0  0  0  0
 23 24  1  0  0  0  0
 23 25  1  0  0  0  0
 23 26  1  0  0  0  0
M  END
$$$$

  -OEChem-03222214023D

 26 25  0     1  0  0  0  0  0999 V2000
   -2.5481   -3.7656   -0.1879 H   0  0  0  0  0  0  0  0  0  0  0  0
   -2.6056   -2.7141   -0.4838 C   0  0  0  0  0  0  0  0  0  0  0  0
   -3.1795   -2.1689    0.2693 H   0  0  0  0  0  0  0  0  0  0  0  0
   -3.1198   -2.6462   -1.4454 H   0  0  0  0  0  0  0  0  0  0  0  0
   -1.2111   -2.1274   -0.5987 C   0  0  0  0  0  0  0  0  0  0  0  0
   -0.2363   -2.8371   -0.4219 O   0  0  0  0  0  0  0  0  0  0  0  0
   -1.0538   -0.7927   -0.9190 N   0  0  0  0  0  0  0  0  0  0  0  0
   -1.9064   -0.2392   -0.9033 H   0  0  0  0  0  0  0  0  0  0  0  0
    0.2219   -0.0793   -0.7320 C   0  0  1  0  0  0  0  0  0  0  0  0
    0.9834   -0.6540   -1.2732 H   0  0  0  0  0  0  0  0  0  0  0  0
    0.1480    1.2943   -1.4286 C   0  0  0  0  0  0  0  0  0  0  0  0
    1.1073    1.8055   -1.3083 H   0  0  0  0  0  0  0  0  0  0  0  0
   -0.0062    1.1295   -2.4982 H   0  0  0  0  0  0  0  0  0  0  0  0
   -0.9544    2.2191   -0.9202 C   0  0  0  0  0  0  0  0  0  0  0  0
   -1.3803    2.2098    0.2196 O   0  0  0  0  0  0  0  0  0  0  0  0
   -1.5353    3.1378   -1.7456 N   0  0  0  0  0  0  0  0  0  0  0  0
   -2.1110    3.8399   -1.2884 H   0  0  0  0  0  0  0  0  0  0  0  0
   -1.0825    3.3539   -2.6281 H   0  0  0  0  0  0  0  0  0  0  0  0
    0.7624   -0.0225    0.7185 C   0  0  0  0  0  0  0  0  0  0  0  0
    1.9682   -0.1202    0.9043 O   0  0  0  0  0  0  0  0  0  0  0  0
   -0.0622    0.2791    1.7863 N   0  0  0  0  0  0  0  0  0  0  0  0
   -0.9434    0.7247    1.5288 H   0  0  0  0  0  0  0  0  0  0  0  0
    0.4544    0.5286    3.1257 C   0  0  0  0  0  0  0  0  0  0  0  0
    1.0896    1.4204    3.1314 H   0  0  0  0  0  0  0  0  0  0  0  0
   -0.3725    0.6842    3.8250 H   0  0  0  0  0  0  0  0  0  0  0  0
    1.0429   -0.3262    3.4754 H   0  0  0  0  0  0  0  0  0  0  0  0
  1  2  1  0  0  0  0
  2  3  1  0  0  0  0
  2  4  1  0  0  0  0
  2  5  1  0  0  0  0
  5  6  2  0  0  0  0
  5  7  1  0  0  0  0
  7  8  1  0  0  0  0
  7  9  1  0  0  0  0
  9 10  1  0  0  0  0
  9 11  1  0  0  0  0
  9 19  1  0  0  0  0
 11 12  1  0  0  0  0
 11 13  1  0  0  0  0
 11 14  1  0  0  0  0
 14 15  2  0  0  0  0
 14 16  1  0  0  0  0
 16 17  1  0  0  0  0
 16 18  1  0  0  0  0
 19 20  2  0  0  0  0
 19 21  1  0  0  0  0
 21 22  1  0  0  0  0
 21 23  1  0  0  0  0
 23 24  1  0  0  0  0
 23 25  1  0  0  0  0
 23 26  1  0  0  0  0
M  END
$$$$

  -OEChem-03222214023D

 26 25  0     1  0  0  0  0  0999 V2000
   -2.5648   -3.7459   -0.1948 H   0  0  0  0  0  0  0  0  0  0  0  0
   -2.6147   -2.6953   -0.4947 C   0  0  0  0  0  0  0  0  0  0  0  0
   -3.2003   -2.1462    0.2467 H   0  0  0  0  0  0  0  0  0  0  0  0
   -3.1122   -2.6296   -1.4654 H   0  0  0  0  0  0  0  0  0  0  0  0
   -1.2166   -2.1130   -0.5866 C   0  0  0  0  0  0  0  0  0  0  0  0
   -0.2480   -2.8261   -0.3926 O   0  0  0  0  0  0  0  0  0  0  0  0
   -1.0489   -0.7800   -0.9100 N   0  0  0  0  0  0  0  0  0  0  0  0
   -1.8994   -0.2244   -0.9288 H   0  0  0  0  0  0  0  0  0  0  0  0
    0.2312   -0.0730   -0.7238 C   0  0  1  0  0  0  0  0  0  0  0  0
    0.9906   -0.6517   -1.2638 H   0  0  0  0  0  0  0  0  0  0  0  0
    0.1584    1.2978   -1.4243 C   0  0  0  0  0  0  0  0  0  0  0  0
    1.1165    1.8118   -1.3025 H   0  0  0  0  0  0  0  0  0  0  0  0
    0.0079    1.1341   -2.4944 H   0  0  0  0  0  0  0  0  0  0  0  0
   -0.9451    2.2150   -0.9069 C   0  0  0  0  0  0  0  0  0  0  0  0
   -1.1850    2.3901    0.2717 O   0  0  0  0  0  0  0  0  0  0  0  0
   -1.7834    2.8631   -1.7676 N   0  0  0  0  0  0  0  0  0  0  0  0
   -2.3648    3.5856   -1.3509 H   0  0  0  0  0  0  0  0  0  0  0  0
   -1.5107    2.9390   -2.7425 H   0  0  0  0  0  0  0  0  0  0  0  0
    0.7708   -0.0151    0.7272 C   0  0  0  0  0  0  0  0  0  0  0  0
    1.9726   -0.1505    0.9157 O   0  0  0  0  0  0  0  0  0  0  0  0
   -0.0507    0.2946    1.7956 N   0  0  0  0  0  0  0  0  0  0  0  0
   -0.9081    0.7846    1.5405 H   0  0  0  0  0  0  0  0  0  0  0  0
    0.4735    0.5166    3.1372 C   0  0  0  0  0  0  0  0  0  0  0  0
    1.1380    1.3866    3.1494 H   0  0  0  0  0  0  0  0  0  0  0  0
   -0.3475    0.6946    3.8379 H   0  0  0  0  0  0  0  0  0  0  0  0
    1.0335   -0.3599    3.4802 H   0  0  0  0  0  0  0  0  0  0  0  0
  1  2  1  0  0  0  0
  2  3  1  0  0  0  0
  2  4  1  0  0  0  0
  2  5  1  0  0  0  0
  5  6  2  0  0  0  0
  5  7  1  0  0  0  0
  7  8  1  0  0  0  0
  7  9  1  0  0  0  0
  9 10  1  0  0  0  0
  9 11  1  0  0  0  0
  9 19  1  0  0  0  0
 11 12  1  0  0  0  0
 11 13  1  0  0  0  0
 11 14  1  0  0  0  0
 14 15  2  0  0  0  0
 14 16  1  0  0  0  0
 16 17  1  0  0  0  0
 16 18  1  0  0  0  0
 19 20  2  0  0  0  0
 19 21  1  0  0  0  0
 21 22  1  0  0  0  0
 21 23  1  0  0  0  0
 23 24  1  0  0  0  0
 23 25  1  0  0  0  0
 23 26  1  0  0  0  0
M  END
$$$$

  -OEChem-03222214023D

 26 25  0     1  0  0  0  0  0999 V2000
   -2.5881   -3.7212   -0.2000 H   0  0  0  0  0  0  0  0  0  0  0  0
   -2.6243   -2.6715   -0.5052 C   0  0  0  0  0  0  0  0  0  0  0  0
   -3.2188   -2.1151    0.2234 H   0  0  0  0  0  0  0  0  0  0  0  0
   -3.1031   -2.6062   -1.4851 H   0  0  0  0  0  0  0  0  0  0  0  0
   -1.2203   -2.1006   -0.5741 C   0  0  0  0  0  0  0  0  0  0  0  0
   -0.2618   -2.8191   -0.3527 O   0  0  0  0  0  0  0  0  0  0  0  0
   -1.0348   -0.7735   -0.9117 N   0  0  0  0  0  0  0  0  0  0  0  0
   -1.8790   -0.2110   -0.9701 H   0  0  0  0  0  0  0  0  0  0  0  0
    0.2524   -0.0773   -0.7304 C   0  0  1  0  0  0  0  0  0  0  0  0
    1.0101   -0.6605   -1.2677 H   0  0  0  0  0  0  0  0  0  0  0  0
    0.1788    1.2942   -1.4279 C   0  0  0  0  0  0  0  0  0  0  0  0
    1.1367    1.8095   -1.3089 H   0  0  0  0  0  0  0  0  0  0  0  0
    0.0207    1.1408   -2.4984 H   0  0  0  0  0  0  0  0  0  0  0  0
   -0.9222    2.1968   -0.8846 C   0  0  0  0  0  0  0  0  0  0  0  0
   -0.9824    2.5628    0.2721 O   0  0  0  0  0  0  0  0  0  0  0  0
   -1.9885    2.5538   -1.6591 N   0  0  0  0  0  0  0  0  0  0  0  0
   -2.5805    3.2819   -1.2671 H   0  0  0  0  0  0  0  0  0  0  0  0
   -1.8940    2.4782   -2.6671 H   0  0  0  0  0  0  0  0  0  0  0  0
    0.7822   -0.0118    0.7236 C   0  0  0  0  0  0  0  0  0  0  0  0
    1.9779   -0.1775    0.9255 O   0  0  0  0  0  0  0  0  0  0  0  0
   -0.0462    0.3173    1.7814 N   0  0  0  0  0  0  0  0  0  0  0  0
   -0.8861    0.8299    1.5174 H   0  0  0  0  0  0  0  0  0  0  0  0
    0.4693    0.5325    3.1274 C   0  0  0  0  0  0  0  0  0  0  0  0
    1.1491    1.3907    3.1439 H   0  0  0  0  0  0  0  0  0  0  0  0
   -0.3552    0.7272    3.8199 H   0  0  0  0  0  0  0  0  0  0  0  0
    1.0100   -0.3533    3.4775 H   0  0  0  0  0  0  0  0  0  0  0  0
  1  2  1  0  0  0  0
  2  3  1  0  0  0  0
  2  4  1  0  0  0  0
  2  5  1  0  0  0  0
  5  6  2  0  0  0  0
  5  7  1  0  0  0  0
  7  8  1  0  0  0  0
  7  9  1  0  0  0  0
  9 10  1  0  0  0  0
  9 11  1  0  0  0  0
  9 19  1  0  0  0  0
 11 12  1  0  0  0  0
 11 13  1  0  0  0  0
 11 14  1  0  0  0  0
 14 15  2  0  0  0  0
 14 16  1  0  0  0  0
 16 17  1  0  0  0  0
 16 18  1  0  0  0  0
 19 20  2  0  0  0  0
 19 21  1  0  0  0  0
 21 22  1  0  0  0  0
 21 23  1  0  0  0  0
 23 24  1  0  0  0  0
 23 25  1  0  0  0  0
 23 26  1  0  0  0  0
M  END
$$$$

  -OEChem-03222214023D

 26 25  0     1  0  0  0  0  0999 V2000
   -2.5983   -3.7175   -0.1965 H   0  0  0  0  0  0  0  0  0  0  0  0
   -2.6268   -2.6686   -0.5056 C   0  0  0  0  0  0  0  0  0  0  0  0
   -3.2228   -2.1060    0.2171 H   0  0  0  0  0  0  0  0  0  0  0  0
   -3.0995   -2.6043   -1.4886 H   0  0  0  0  0  0  0  0  0  0  0  0
   -1.2191   -2.1058   -0.5683 C   0  0  0  0  0  0  0  0  0  0  0  0
   -0.2658   -2.8247   -0.3282 O   0  0  0  0  0  0  0  0  0  0  0  0
   -1.0244   -0.7838   -0.9205 N   0  0  0  0  0  0  0  0  0  0  0  0
   -1.8652   -0.2188   -1.0019 H   0  0  0  0  0  0  0  0  0  0  0  0
    0.2658   -0.0912   -0.7432 C   0  0  1  0  0  0  0  0  0  0  0  0
    1.0251   -0.6732   -1.2796 H   0  0  0  0  0  0  0  0  0  0  0  0
    0.1876    1.2851   -1.4285 C   0  0  0  0  0  0  0  0  0  0  0  0
    1.1445    1.8030   -1.3105 H   0  0  0  0  0  0  0  0  0  0  0  0
    0.0184    1.1483   -2.4995 H   0  0  0  0  0  0  0  0  0  0  0  0
   -0.9130    2.1644   -0.8521 C   0  0  0  0  0  0  0  0  0  0  0  0
   -0.8267    2.7190    0.2243 O   0  0  0  0  0  0  0  0  0  0  0  0
   -2.1184    2.2940   -1.4815 N   0  0  0  0  0  0  0  0  0  0  0  0
   -2.7127    3.0308   -1.1088 H   0  0  0  0  0  0  0  0  0  0  0  0
   -2.1565    2.0854   -2.4745 H   0  0  0  0  0  0  0  0  0  0  0  0
    0.7865   -0.0138    0.7134 C   0  0  0  0  0  0  0  0  0  0  0  0
    1.9793   -0.1847    0.9262 O   0  0  0  0  0  0  0  0  0  0  0  0
   -0.0489    0.3309    1.7615 N   0  0  0  0  0  0  0  0  0  0  0  0
   -0.8991    0.8200    1.4929 H   0  0  0  0  0  0  0  0  0  0  0  0
    0.4579    0.5635    3.1082 C   0  0  0  0  0  0  0  0  0  0  0  0
    1.1352    1.4238    3.1190 H   0  0  0  0  0  0  0  0  0  0  0  0
   -0.3710    0.7635    3.7937 H   0  0  0  0  0  0  0  0  0  0  0  0
    0.9993   -0.3164    3.4717 H   0  0  0  0  0  0  0  0  0  0  0  0
  1  2  1  0  0  0  0
  2  3  1  0  0  0  0
  2  4  1  0  0  0  0
  2  5  1  0  0  0  0
  5  6  2  0  0  0  0
  5  7  1  0  0  0  0
  7  8  1  0  0  0  0
  7  9  1  0  0  0  0
  9 10  1  0  0  0  0
  9 11  1  0  0  0  0
  9 19  1  0  0  0  0
 11 12  1  0  0  0  0
 11 13  1  0  0  0  0
 11 14  1  0  0  0  0
 14 15  2  0  0  0  0
 14 16  1  0  0  0  0
 16 17  1  0  0  0  0
 16 18  1  0  0  0  0
 19 20  2  0  0  0  0
 19 21  1  0  0  0  0
 21 22  1  0  0  0  0
 21 23  1  0  0  0  0
 23 24  1  0  0  0  0
 23 25  1  0  0  0  0
 23 26  1  0  0  0  0
M  END
$$$$

  -OEChem-03222214023D

 26 25  0     1  0  0  0  0  0999 V2000
   -2.5849   -3.7425   -0.1803 H   0  0  0  0  0  0  0  0  0  0  0  0
   -2.6191   -2.6952   -0.4941 C   0  0  0  0  0  0  0  0  0  0  0  0
   -3.2177   -2.1329    0.2264 H   0  0  0  0  0  0  0  0  0  0  0  0
   -3.0926   -2.6383   -1.4771 H   0  0  0  0  0  0  0  0  0  0  0  0
   -1.2144   -2.1257   -0.5605 C   0  0  0  0  0  0  0  0  0  0  0  0
   -0.2578   -2.8379   -0.3145 O   0  0  0  0  0  0  0  0  0  0  0  0
   -1.0253   -0.8044   -0.9192 N   0  0  0  0  0  0  0  0  0  0  0  0
   -1.8678   -0.2414   -0.9956 H   0  0  0  0  0  0  0  0  0  0  0  0
    0.2646   -0.1079   -0.7527 C   0  0  1  0  0  0  0  0  0  0  0  0
    1.0231   -0.6849   -1.2959 H   0  0  0  0  0  0  0  0  0  0  0  0
    0.1846    1.2786   -1.4162 C   0  0  0  0  0  0  0  0  0  0  0  0
    1.1447    1.7916   -1.3010 H   0  0  0  0  0  0  0  0  0  0  0  0
    0.0003    1.1636   -2.4872 H   0  0  0  0  0  0  0  0  0  0  0  0
   -0.9078    2.1435   -0.8064 C   0  0  0  0  0  0  0  0  0  0  0  0
   -0.7170    2.8810    0.1379 O   0  0  0  0  0  0  0  0  0  0  0  0
   -2.1855    2.1246   -1.2909 N   0  0  0  0  0  0  0  0  0  0  0  0
   -2.7702    2.8826   -0.9460 H   0  0  0  0  0  0  0  0  0  0  0  0
   -2.3148    1.8050   -2.2459 H   0  0  0  0  0  0  0  0  0  0  0  0
    0.7866   -0.0280    0.7023 C   0  0  0  0  0  0  0  0  0  0  0  0
    1.9834   -0.1689    0.9124 O   0  0  0  0  0  0  0  0  0  0  0  0
   -0.0518    0.3167    1.7485 N   0  0  0  0  0  0  0  0  0  0  0  0
   -0.9466    0.7200    1.4893 H   0  0  0  0  0  0  0  0  0  0  0  0
    0.4512    0.5892    3.0890 C   0  0  0  0  0  0  0  0  0  0  0  0
    1.1059    1.4670    3.0803 H   0  0  0  0  0  0  0  0  0  0  0  0
   -0.3810    0.7818    3.7726 H   0  0  0  0  0  0  0  0  0  0  0  0
    1.0160   -0.2690    3.4686 H   0  0  0  0  0  0  0  0  0  0  0  0
  1  2  1  0  0  0  0
  2  3  1  0  0  0  0
  2  4  1  0  0  0  0
  2  5  1  0  0  0  0
  5  6  2  0  0  0  0
  5  7  1  0  0  0  0
  7  8  1  0  0  0  0
  7  9  1  0  0  0  0
  9 10  1  0  0  0  0
  9 11  1  0  0  0  0
  9 19  1  0  0  0  0
 11 12  1  0  0  0  0
 11 13  1  0  0  0  0
 11 14  1  0  0  0  0
 14 15  2  0  0  0  0
 14 16  1  0  0  0  0
 16 17  1  0  0  0  0
 16 18  1  0  0  0  0
 19 20  2  0  0  0  0
 19 21  1  0  0  0  0
 21 22  1  0  0  0  0
 21 23  1  0  0  0  0
 23 24  1  0  0  0  0
 23 25  1  0  0  0  0
 23 26  1  0  0  0  0
M  END
$$$$

  -OEChem-03222214023D

 26 25  0     1  0  0  0  0  0999 V2000
   -2.5549   -3.7776   -0.1559 H   0  0  0  0  0  0  0  0  0  0  0  0
   -2.6023   -2.7311   -0.4706 C   0  0  0  0  0  0  0  0  0  0  0  0
   -3.2035   -2.1750    0.2524 H   0  0  0  0  0  0  0  0  0  0  0  0
   -3.0816   -2.6807   -1.4511 H   0  0  0  0  0  0  0  0  0  0  0  0
   -1.2043   -2.1460   -0.5452 C   0  0  0  0  0  0  0  0  0  0  0  0
   -0.2386   -2.8475   -0.3048 O   0  0  0  0  0  0  0  0  0  0  0  0
   -1.0314   -0.8217   -0.9021 N   0  0  0  0  0  0  0  0  0  0  0  0
   -1.8794   -0.2653   -0.9602 H   0  0  0  0  0  0  0  0  0  0  0  0
    0.2556   -0.1151   -0.7529 C   0  0  1  0  0  0  0  0  0  0  0  0
    1.0108   -0.6843   -1.3088 H   0  0  0  0  0  0  0  0  0  0  0  0
    0.1723    1.2810   -1.3965 C   0  0  0  0  0  0  0  0  0  0  0  0
    1.1377    1.7866   -1.2903 H   0  0  0  0  0  0  0  0  0  0  0  0
   -0.0298    1.1805   -2.4657 H   0  0  0  0  0  0  0  0  0  0  0  0
   -0.9067    2.1464   -0.7639 C   0  0  0  0  0  0  0  0  0  0  0  0
   -0.6569    3.0556   -0.0010 O   0  0  0  0  0  0  0  0  0  0  0  0
   -2.2212    2.0284   -1.1207 N   0  0  0  0  0  0  0  0  0  0  0  0
   -2.7918    2.8182   -0.8266 H   0  0  0  0  0  0  0  0  0  0  0  0
   -2.4135    1.6058   -2.0235 H   0  0  0  0  0  0  0  0  0  0  0  0
    0.7919   -0.0403    0.6965 C   0  0  0  0  0  0  0  0  0  0  0  0
    1.9947   -0.1403    0.8932 O   0  0  0  0  0  0  0  0  0  0  0  0
   -0.0421    0.2918    1.7503 N   0  0  0  0  0  0  0  0  0  0  0  0
   -0.9853    0.5828    1.5176 H   0  0  0  0  0  0  0  0  0  0  0  0
    0.4588    0.5799    3.0885 C   0  0  0  0  0  0  0  0  0  0  0  0
    1.0935    1.4722    3.0752 H   0  0  0  0  0  0  0  0  0  0  0  0
   -0.3751    0.7563    3.7746 H   0  0  0  0  0  0  0  0  0  0  0  0
    1.0444   -0.2638    3.4693 H   0  0  0  0  0  0  0  0  0  0  0  0
  1  2  1  0  0  0  0
  2  3  1  0  0  0  0
  2  4  1  0  0  0  0
  2  5  1  0  0  0  0
  5  6  2  0  0  0  0
  5  7  1  0  0  0  0
  7  8  1  0  0  0  0
  7  9  1  0  0  0  0
  9 10  1  0  0  0  0
  9 11  1  0  0  0  0
  9 19  1  0  0  0  0
 11 12  1  0  0  0  0
 11 13  1  0  0  0  0
 11 14  1  0  0  0  0
 14 15  2  0  0  0  0
 14 16  1  0  0  0  0
 16 17  1  0  0  0  0
 16 18  1  0  0  0  0
 19 20  2  0  0  0  0
 19 21  1  0  0  0  0
 21 22  1  0  0  0  0
 21 23  1  0  0  0  0
 23 24  1  0  0  0  0
 23 25  1  0  0  0  0
 23 26  1  0  0  0  0
M  END
$$$$

  -OEChem-03222214023D

 26 25  0     1  0  0  0  0  0999 V2000
   -2.5139   -3.7954   -0.1085 H   0  0  0  0  0  0  0  0  0  0  0  0
   -2.5774   -2.7527   -0.4333 C   0  0  0  0  0  0  0  0  0  0  0  0
   -3.1738   -2.1956    0.2931 H   0  0  0  0  0  0  0  0  0  0  0  0
   -3.0724   -2.7178   -1.4068 H   0  0  0  0  0  0  0  0  0  0  0  0
   -1.1870   -2.1543   -0.5358 C   0  0  0  0  0  0  0  0  0  0  0  0
   -0.2101   -2.8470   -0.3170 O   0  0  0  0  0  0  0  0  0  0  0  0
   -1.0335   -0.8256   -0.8853 N   0  0  0  0  0  0  0  0  0  0  0  0
   -1.8871   -0.2760   -0.9084 H   0  0  0  0  0  0  0  0  0  0  0  0
    0.2499   -0.1091   -0.7518 C   0  0  1  0  0  0  0  0  0  0  0  0
    1.0003   -0.6702   -1.3220 H   0  0  0  0  0  0  0  0  0  0  0  0
    0.1650    1.2974   -1.3751 C   0  0  0  0  0  0  0  0  0  0  0  0
    1.1362    1.7936   -1.2747 H   0  0  0  0  0  0  0  0  0  0  0  0
   -0.0499    1.2104   -2.4430 H   0  0  0  0  0  0  0  0  0  0  0  0
   -0.8990    2.1712   -0.7266 C   0  0  0  0  0  0  0  0  0  0  0  0
   -0.6367    3.2216   -0.1798 O   0  0  0  0  0  0  0  0  0  0  0  0
   -2.2325    1.9662   -0.9489 N   0  0  0  0  0  0  0  0  0  0  0  0
   -2.8007    2.7746   -0.7047 H   0  0  0  0  0  0  0  0  0  0  0  0
   -2.4730    1.4552   -1.7918 H   0  0  0  0  0  0  0  0  0  0  0  0
    0.8008   -0.0468    0.6918 C   0  0  0  0  0  0  0  0  0  0  0  0
    2.0079   -0.1085    0.8747 O   0  0  0  0  0  0  0  0  0  0  0  0
   -0.0291    0.2669    1.7544 N   0  0  0  0  0  0  0  0  0  0  0  0
   -1.0037    0.4573    1.5492 H   0  0  0  0  0  0  0  0  0  0  0  0
    0.4691    0.5314    3.0984 C   0  0  0  0  0  0  0  0  0  0  0  0
    1.1165    1.4146    3.0992 H   0  0  0  0  0  0  0  0  0  0  0  0
   -0.3653    0.7119    3.7826 H   0  0  0  0  0  0  0  0  0  0  0  0
    1.0405   -0.3256    3.4704 H   0  0  0  0  0  0  0  0  0  0  0  0
  1  2  1  0  0  0  0
  2  3  1  0  0  0  0
  2  4  1  0  0  0  0
  2  5  1  0  0  0  0
  5  6  2  0  0  0  0
  5  7  1  0  0  0  0
  7  8  1  0  0  0  0
  7  9  1  0  0  0  0
  9 10  1  0  0  0  0
  9 11  1  0  0  0  0
  9 19  1  0  0  0  0
 11 12  1  0  0  0  0
 11 13  1  0  0  0  0
 11 14  1  0  0  0  0
 14 15  2  0  0  0  0
 14 16  1  0  0  0  0
 16 17  1  0  0  0  0
 16 18  1  0  0  0  0
 19 20  2  0  0  0  0
 19 21  1  0  0  0  0
 21 22  1  0  0  0  0
 21 23  1  0  0  0  0
 23 24  1  0  0  0  0
 23 25  1  0  0  0  0
 23 26  1  0  0  0  0
M  END
$$$$

  -OEChem-03222214023D

 26 25  0     1  0  0  0  0  0999 V2000
   -2.6161   -3.8256   -0.3045 H   0  0  0  0  0  0  0  0  0  0  0  0
   -2.6045   -2.8256   -0.7481 C   0  0  0  0  0  0  0  0  0  0  0  0
   -3.4797   -2.2754   -0.3944 H   0  0  0  0  0  0  0  0  0  0  0  0
   -2.6581   -2.9245   -1.8350 H   0  0  0  0  0  0  0  0  0  0  0  0
   -1.3340   -2.0953   -0.3538 C   0  0  0  0  0  0  0  0  0  0  0  0
   -0.5154   -2.6483    0.3558 O   0  0  0  0  0  0  0  0  0  0  0  0
   -1.1206   -0.8028   -0.7996 N   0  0  0  0  0  0  0  0  0  0  0  0
   -1.7438   -0.5082   -1.5471 H   0  0  0  0  0  0  0  0  0  0  0  0
    0.1986   -0.1369   -0.7321 C   0  0  1  0  0  0  0  0  0  0  0  0
    0.9152   -0.7525   -1.2889 H   0  0  0  0  0  0  0  0  0  0  0  0
    0.1348    1.2494   -1.4084 C   0  0  0  0  0  0  0  0  0  0  0  0
    1.1318    1.7015   -1.3736 H   0  0  0  0  0  0  0  0  0  0  0  0
   -0.1256    1.1197   -2.4614 H   0  0  0  0  0  0  0  0  0  0  0  0
   -0.8576    2.2380   -0.7979 C   0  0  0  0  0  0  0  0  0  0  0  0
   -0.5499    3.3938   -0.5914 O   0  0  0  0  0  0  0  0  0  0  0  0
   -2.1463    1.9255   -0.4662 N   0  0  0  0  0  0  0  0  0  0  0  0
   -2.6323    2.6433    0.0656 H   0  0  0  0  0  0  0  0  0  0  0  0
   -2.3750    0.9499   -0.3191 H   0  0  0  0  0  0  0  0  0  0  0  0
    0.7965    0.0130    0.6880 C   0  0  0  0  0  0  0  0  0  0  0  0
    2.0105   -0.0405    0.8237 O   0  0  0  0  0  0  0  0  0  0  0  0
    0.0180    0.4428    1.7479 N   0  0  0  0  0  0  0  0  0  0  0  0
   -0.9872    0.4110    1.6257 H   0  0  0  0  0  0  0  0  0  0  0  0
    0.5559    0.6780    3.0818 C   0  0  0  0  0  0  0  0  0  0  0  0
    1.3251    1.4570    3.0525 H   0  0  0  0  0  0  0  0  0  0  0  0
   -0.2391    1.0051    3.7584 H   0  0  0  0  0  0  0  0  0  0  0  0
    0.9981   -0.2400    3.4832 H   0  0  0  0  0  0  0  0  0  0  0  0
  1  2  1  0  0  0  0
  2  3  1  0  0  0  0
  2  4  1  0  0  0  0
  2  5  1  0  0  0  0
  5  6  2  0  0  0  0
  5  7  1  0  0  0  0
  7  8  1  0  0  0  0
  7  9  1  0  0  0  0
  9 10  1  0  0  0  0
  9 11  1  0  0  0  0
  9 19  1  0  0  0  0
 11 12  1  0  0  0  0
 11 13  1  0  0  0  0
 11 14  1  0  0  0  0
 14 15  2  0  0  0  0
 14 16  1  0  0  0  0
 16 17  1  0  0  0  0
 16 18  1  0  0  0  0
 19 20  2  0  0  0  0
 19 21  1  0  0  0  0
 21 22  1  0  0  0  0
 21 23  1  0  0  0  0
 23 24  1  0  0  0  0
 23 25  1  0  0  0  0
 23 26  1  0  0  0  0
M  END
$$$$

  -OEChem-03222214023D

 26 25  0     1  0  0  0  0  0999 V2000
   -2.5994   -3.8383   -0.3293 H   0  0  0  0  0  0  0  0  0  0  0  0
   -2.6054   -2.8239   -0.7389 C   0  0  0  0  0  0  0  0  0  0  0  0
   -3.4742   -2.2917   -0.3443 H   0  0  0  0  0  0  0  0  0  0  0  0
   -2.6863   -2.8862   -1.8268 H   0  0  0  0  0  0  0  0  0  0  0  0
   -1.3297   -2.0987   -0.3531 C   0  0  0  0  0  0  0  0  0  0  0  0
   -0.5056   -2.6542    0.3485 O   0  0  0  0  0  0  0  0  0  0  0  0
   -1.1216   -0.8002   -0.7817 N   0  0  0  0  0  0  0  0  0  0  0  0
   -1.7673   -0.4788   -1.4994 H   0  0  0  0  0  0  0  0  0  0  0  0
    0.1935   -0.1270   -0.7132 C   0  0  1  0  0  0  0  0  0  0  0  0
    0.9077   -0.7408   -1.2751 H   0  0  0  0  0  0  0  0  0  0  0  0
    0.1315    1.2567   -1.3956 C   0  0  0  0  0  0  0  0  0  0  0  0
    1.1277    1.7096   -1.3561 H   0  0  0  0  0  0  0  0  0  0  0  0
   -0.1219    1.1193   -2.4495 H   0  0  0  0  0  0  0  0  0  0  0  0
   -0.8631    2.2543   -0.8039 C   0  0  0  0  0  0  0  0  0  0  0  0
   -0.6547    3.4492   -0.8538 O   0  0  0  0  0  0  0  0  0  0  0  0
   -2.0777    1.9094   -0.2798 N   0  0  0  0  0  0  0  0  0  0  0  0
   -2.5654    2.6592    0.2039 H   0  0  0  0  0  0  0  0  0  0  0  0
   -2.2190    0.9469    0.0027 H   0  0  0  0  0  0  0  0  0  0  0  0
    0.8054    0.0123    0.7022 C   0  0  0  0  0  0  0  0  0  0  0  0
    2.0226   -0.0064    0.8169 O   0  0  0  0  0  0  0  0  0  0  0  0
    0.0376    0.4247    1.7770 N   0  0  0  0  0  0  0  0  0  0  0  0
   -0.9643    0.3035    1.6922 H   0  0  0  0  0  0  0  0  0  0  0  0
    0.5983    0.6396    3.1054 C   0  0  0  0  0  0  0  0  0  0  0  0
    1.3738    1.4123    3.0734 H   0  0  0  0  0  0  0  0  0  0  0  0
   -0.1832    0.9661    3.7981 H   0  0  0  0  0  0  0  0  0  0  0  0
    1.0390   -0.2866    3.4892 H   0  0  0  0  0  0  0  0  0  0  0  0
  1  2  1  0  0  0  0
  2  3  1  0  0  0  0
  2  4  1  0  0  0  0
  2  5  1  0  0  0  0
  5  6  2  0  0  0  0
  5  7  1  0  0  0  0
  7  8  1  0  0  0  0
  7  9  1  0  0  0  0
  9 10  1  0  0  0  0
  9 11  1  0  0  0  0
  9 19  1  0  0  0  0
 11 12  1  0  0  0  0
 11 13  1  0  0  0  0
 11 14  1  0  0  0  0
 14 15  2  0  0  0  0
 14 16  1  0  0  0  0
 16 17  1  0  0  0  0
 16 18  1  0  0  0  0
 19 20  2  0  0  0  0
 19 21  1  0  0  0  0
 21 22  1  0  0  0  0
 21 23  1  0  0  0  0
 23 24  1  0  0  0  0
 23 25  1  0  0  0  0
 23 26  1  0  0  0  0
M  END
$$$$

  -OEChem-03222214023D

 26 25  0     1  0  0  0  0  0999 V2000
   -2.5825   -3.8510   -0.3826 H   0  0  0  0  0  0  0  0  0  0  0  0
   -2.6120   -2.8145   -0.7314 C   0  0  0  0  0  0  0  0  0  0  0  0
   -3.4639   -2.3114   -0.2675 H   0  0  0  0  0  0  0  0  0  0  0  0
   -2.7436   -2.8144   -1.8164 H   0  0  0  0  0  0  0  0  0  0  0  0
   -1.3229   -2.1039   -0.3630 C   0  0  0  0  0  0  0  0  0  0  0  0
   -0.4837   -2.6742    0.3089 O   0  0  0  0  0  0  0  0  0  0  0  0
   -1.1187   -0.7965   -0.7628 N   0  0  0  0  0  0  0  0  0  0  0  0
   -1.8034   -0.4266   -1.4188 H   0  0  0  0  0  0  0  0  0  0  0  0
    0.1896   -0.1134   -0.6894 C   0  0  1  0  0  0  0  0  0  0  0  0
    0.9015   -0.7288   -1.2523 H   0  0  0  0  0  0  0  0  0  0  0  0
    0.1365    1.2609   -1.3912 C   0  0  0  0  0  0  0  0  0  0  0  0
    1.1320    1.7140   -1.3439 H   0  0  0  0  0  0  0  0  0  0  0  0
   -0.1006    1.1043   -2.4465 H   0  0  0  0  0  0  0  0  0  0  0  0
   -0.8629    2.2757   -0.8411 C   0  0  0  0  0  0  0  0  0  0  0  0
   -0.7856    3.4486   -1.1454 O   0  0  0  0  0  0  0  0  0  0  0  0
   -1.9689    1.9501   -0.1079 N   0  0  0  0  0  0  0  0  0  0  0  0
   -2.4483    2.7410    0.3144 H   0  0  0  0  0  0  0  0  0  0  0  0
   -1.9761    1.0504    0.3559 H   0  0  0  0  0  0  0  0  0  0  0  0
    0.8113    0.0034    0.7234 C   0  0  0  0  0  0  0  0  0  0  0  0
    2.0294    0.0507    0.8173 O   0  0  0  0  0  0  0  0  0  0  0  0
    0.0446    0.3859    1.8108 N   0  0  0  0  0  0  0  0  0  0  0  0
   -0.9310    0.1156    1.7723 H   0  0  0  0  0  0  0  0  0  0  0  0
    0.6292    0.6106    3.1283 C   0  0  0  0  0  0  0  0  0  0  0  0
    1.3942    1.3930    3.0814 H   0  0  0  0  0  0  0  0  0  0  0  0
   -0.1425    0.9294    3.8353 H   0  0  0  0  0  0  0  0  0  0  0  0
    1.0890   -0.3092    3.5051 H   0  0  0  0  0  0  0  0  0  0  0  0
  1  2  1  0  0  0  0
  2  3  1  0  0  0  0
  2  4  1  0  0  0  0
  2  5  1  0  0  0  0
  5  6  2  0  0  0  0
  5  7  1  0  0  0  0
  7  8  1  0  0  0  0
  7  9  1  0  0  0  0
  9 10  1  0  0  0  0
  9 11  1  0  0  0  0
  9 19  1  0  0  0  0
 11 12  1  0  0  0  0
 11 13  1  0  0  0  0
 11 14  1  0  0  0  0
 14 15  2  0  0  0  0
 14 16  1  0  0  0  0
 16 17  1  0  0  0  0
 16 18  1  0  0  0  0
 19 20  2  0  0  0  0
 19 21  1  0  0  0  0
 21 22  1  0  0  0  0
 21 23  1  0  0  0  0
 23 24  1  0  0  0  0
 23 25  1  0  0  0  0
 23 26  1  0  0  0  0
M  END
$$$$

  -OEChem-03222214023D

 26 25  0     1  0  0  0  0  0999 V2000
   -2.5749   -3.8446   -0.4151 H   0  0  0  0  0  0  0  0  0  0  0  0
   -2.6189   -2.7924   -0.7110 C   0  0  0  0  0  0  0  0  0  0  0  0
   -3.4202   -2.3029   -0.1523 H   0  0  0  0  0  0  0  0  0  0  0  0
   -2.8421   -2.7380   -1.7792 H   0  0  0  0  0  0  0  0  0  0  0  0
   -1.2932   -2.1136   -0.4221 C   0  0  0  0  0  0  0  0  0  0  0  0
   -0.3977   -2.7309    0.1256 O   0  0  0  0  0  0  0  0  0  0  0  0
   -1.1125   -0.7833   -0.7477 N   0  0  0  0  0  0  0  0  0  0  0  0
   -1.8756   -0.3290   -1.2437 H   0  0  0  0  0  0  0  0  0  0  0  0
    0.1769   -0.0741   -0.6522 C   0  0  1  0  0  0  0  0  0  0  0  0
    0.8886   -0.6909   -1.2147 H   0  0  0  0  0  0  0  0  0  0  0  0
    0.1241    1.2651   -1.4199 C   0  0  0  0  0  0  0  0  0  0  0  0
    1.1552    1.6046   -1.5577 H   0  0  0  0  0  0  0  0  0  0  0  0
   -0.2935    1.0832   -2.4137 H   0  0  0  0  0  0  0  0  0  0  0  0
   -0.6392    2.4346   -0.8033 C   0  0  0  0  0  0  0  0  0  0  0  0
   -0.6970    3.4973   -1.3883 O   0  0  0  0  0  0  0  0  0  0  0  0
   -1.2742    2.4291    0.4032 N   0  0  0  0  0  0  0  0  0  0  0  0
   -1.5508    3.3565    0.7139 H   0  0  0  0  0  0  0  0  0  0  0  0
   -0.9114    1.7820    1.0960 H   0  0  0  0  0  0  0  0  0  0  0  0
    0.8066   -0.0238    0.7595 C   0  0  0  0  0  0  0  0  0  0  0  0
    2.0180    0.1100    0.8482 O   0  0  0  0  0  0  0  0  0  0  0  0
    0.0301    0.2747    1.8670 N   0  0  0  0  0  0  0  0  0  0  0  0
   -0.9220   -0.0793    1.8172 H   0  0  0  0  0  0  0  0  0  0  0  0
    0.6143    0.4370    3.1945 C   0  0  0  0  0  0  0  0  0  0  0  0
    1.3327    1.2638    3.2006 H   0  0  0  0  0  0  0  0  0  0  0  0
   -0.1671    0.6573    3.9283 H   0  0  0  0  0  0  0  0  0  0  0  0
    1.1304   -0.4795    3.5003 H   0  0  0  0  0  0  0  0  0  0  0  0
  1  2  1  0  0  0  0
  2  3  1  0  0  0  0
  2  4  1  0  0  0  0
  2  5  1  0  0  0  0
  5  6  2  0  0  0  0
  5  7  1  0  0  0  0
  7  8  1  0  0  0  0
  7  9  1  0  0  0  0
  9 10  1  0  0  0  0
  9 11  1  0  0  0  0
  9 19  1  0  0  0  0
 11 12  1  0  0  0  0
 11 13  1  0  0  0  0
 11 14  1  0  0  0  0
 14 15  2  0  0  0  0
 14 16  1  0  0  0  0
 16 17  1  0  0  0  0
 16 18  1  0  0  0  0
 19 20  2  0  0  0  0
 19 21  1  0  0  0  0
 21 22  1  0  0  0  0
 21 23  1  0  0  0  0
 23 24  1  0  0  0  0
 23 25  1  0  0  0  0
 23 26  1  0  0  0  0
M  END
$$$$

  -OEChem-03222214023D

 26 25  0     1  0  0  0  0  0999 V2000
   -2.5824   -3.8405   -0.4057 H   0  0  0  0  0  0  0  0  0  0  0  0
   -2.6281   -2.7871   -0.6969 C   0  0  0  0  0  0  0  0  0  0  0  0
   -3.4185   -2.2974   -0.1230 H   0  0  0  0  0  0  0  0  0  0  0  0
   -2.8689   -2.7276   -1.7611 H   0  0  0  0  0  0  0  0  0  0  0  0
   -1.2956   -2.1136   -0.4272 C   0  0  0  0  0  0  0  0  0  0  0  0
   -0.3893   -2.7401    0.0919 O   0  0  0  0  0  0  0  0  0  0  0  0
   -1.1184   -0.7814   -0.7474 N   0  0  0  0  0  0  0  0  0  0  0  0
   -1.8884   -0.3218   -1.2271 H   0  0  0  0  0  0  0  0  0  0  0  0
    0.1697   -0.0708   -0.6519 C   0  0  1  0  0  0  0  0  0  0  0  0
    0.8815   -0.6841   -1.2182 H   0  0  0  0  0  0  0  0  0  0  0  0
    0.1039    1.2671   -1.4221 C   0  0  0  0  0  0  0  0  0  0  0  0
    1.1316    1.6154   -1.5623 H   0  0  0  0  0  0  0  0  0  0  0  0
   -0.3120    1.0791   -2.4158 H   0  0  0  0  0  0  0  0  0  0  0  0
   -0.6669    2.4317   -0.8042 C   0  0  0  0  0  0  0  0  0  0  0  0
   -0.9683    3.3865   -1.4920 O   0  0  0  0  0  0  0  0  0  0  0  0
   -0.9315    2.6047    0.5222 N   0  0  0  0  0  0  0  0  0  0  0  0
   -1.1931    3.5547    0.7709 H   0  0  0  0  0  0  0  0  0  0  0  0
   -0.3760    2.0631    1.1806 H   0  0  0  0  0  0  0  0  0  0  0  0
    0.8025   -0.0261    0.7586 C   0  0  0  0  0  0  0  0  0  0  0  0
    2.0153    0.0914    0.8493 O   0  0  0  0  0  0  0  0  0  0  0  0
    0.0351    0.2661    1.8732 N   0  0  0  0  0  0  0  0  0  0  0  0
   -0.9499    0.0260    1.7950 H   0  0  0  0  0  0  0  0  0  0  0  0
    0.6095    0.3669    3.2106 C   0  0  0  0  0  0  0  0  0  0  0  0
    1.3606    1.1632    3.2487 H   0  0  0  0  0  0  0  0  0  0  0  0
   -0.1716    0.5967    3.9417 H   0  0  0  0  0  0  0  0  0  0  0  0
    1.0848   -0.5780    3.4947 H   0  0  0  0  0  0  0  0  0  0  0  0
  1  2  1  0  0  0  0
  2  3  1  0  0  0  0
  2  4  1  0  0  0  0
  2  5  1  0  0  0  0
  5  6  2  0  0  0  0
  5  7  1  0  0  0  0
  7  8  1  0  0  0  0
  7  9  1  0  0  0  0
  9 10  1  0  0  0  0
  9 11  1  0  0  0  0
  9 19  1  0  0  0  0
 11 12  1  0  0  0  0
 11 13  1  0  0  0  0
 11 14  1  0  0  0  0
 14 15  2  0  0  0  0
 14 16  1  0  0  0  0
 16 17  1  0  0  0  0
 16 18  1  0  0  0  0
 19 20  2  0  0  0  0
 19 21  1  0  0  0  0
 21 22  1  0  0  0  0
 21 23  1  0  0  0  0
 23 24  1  0  0  0  0
 23 25  1  0  0  0  0
 23 26  1  0  0  0  0
M  END
$$$$

  -OEChem-03222214023D

 26 25  0     1  0  0  0  0  0999 V2000
   -2.6197   -3.8188   -0.4043 H   0  0  0  0  0  0  0  0  0  0  0  0
   -2.6520   -2.7649   -0.6951 C   0  0  0  0  0  0  0  0  0  0  0  0
   -3.4357   -2.2654   -0.1204 H   0  0  0  0  0  0  0  0  0  0  0  0
   -2.8930   -2.7023   -1.7591 H   0  0  0  0  0  0  0  0  0  0  0  0
   -1.3111   -2.1077   -0.4266 C   0  0  0  0  0  0  0  0  0  0  0  0
   -0.4104   -2.7459    0.0883 O   0  0  0  0  0  0  0  0  0  0  0  0
   -1.1164   -0.7796   -0.7538 N   0  0  0  0  0  0  0  0  0  0  0  0
   -1.8818   -0.3101   -1.2321 H   0  0  0  0  0  0  0  0  0  0  0  0
    0.1786   -0.0829   -0.6523 C   0  0  1  0  0  0  0  0  0  0  0  0
    0.8896   -0.6993   -1.2160 H   0  0  0  0  0  0  0  0  0  0  0  0
    0.1145    1.2574   -1.4155 C   0  0  0  0  0  0  0  0  0  0  0  0
    1.1404    1.6088   -1.5582 H   0  0  0  0  0  0  0  0  0  0  0  0
   -0.3071    1.0790   -2.4088 H   0  0  0  0  0  0  0  0  0  0  0  0
   -0.6567    2.4037   -0.7674 C   0  0  0  0  0  0  0  0  0  0  0  0
   -1.2062    3.2328   -1.4653 O   0  0  0  0  0  0  0  0  0  0  0  0
   -0.5832    2.7487    0.5500 N   0  0  0  0  0  0  0  0  0  0  0  0
   -0.8565    3.7038    0.7629 H   0  0  0  0  0  0  0  0  0  0  0  0
    0.1122    2.2832    1.1306 H   0  0  0  0  0  0  0  0  0  0  0  0
    0.8003   -0.0360    0.7630 C   0  0  0  0  0  0  0  0  0  0  0  0
    2.0137    0.0701    0.8637 O   0  0  0  0  0  0  0  0  0  0  0  0
    0.0307    0.2724    1.8709 N   0  0  0  0  0  0  0  0  0  0  0  0
   -0.9688    0.1161    1.7723 H   0  0  0  0  0  0  0  0  0  0  0  0
    0.5858    0.3669    3.2166 C   0  0  0  0  0  0  0  0  0  0  0  0
    1.3490    1.1508    3.2655 H   0  0  0  0  0  0  0  0  0  0  0  0
   -0.2030    0.6109    3.9345 H   0  0  0  0  0  0  0  0  0  0  0  0
    1.0402   -0.5855    3.5097 H   0  0  0  0  0  0  0  0  0  0  0  0
  1  2  1  0  0  0  0
  2  3  1  0  0  0  0
  2  4  1  0  0  0  0
  2  5  1  0  0  0  0
  5  6  2  0  0  0  0
  5  7  1  0  0  0  0
  7  8  1  0  0  0  0
  7  9  1  0  0  0  0
  9 10  1  0  0  0  0
  9 11  1  0  0  0  0
  9 19  1  0  0  0  0
 11 12  1  0  0  0  0
 11 13  1  0  0  0  0
 11 14  1  0  0  0  0
 14 15  2  0  0  0  0
 14 16  1  0  0  0  0
 16 17  1  0  0  0  0
 16 18  1  0  0  0  0
 19 20  2  0  0  0  0
 19 21  1  0  0  0  0
 21 22  1  0  0  0  0
 21 23  1  0  0  0  0
 23 24  1  0  0  0  0
 23 25  1  0  0  0  0
 23 26  1  0  0  0  0
M  END
$$$$

  -OEChem-03222214023D

 26 25  0     1  0  0  0  0  0999 V2000
   -2.6427   -3.7931   -0.3753 H   0  0  0  0  0  0  0  0  0  0  0  0
   -2.6629   -2.7420   -0.6774 C   0  0  0  0  0  0  0  0  0  0  0  0
   -3.4280   -2.2231   -0.0950 H   0  0  0  0  0  0  0  0  0  0  0  0
   -2.9211   -2.6868   -1.7377 H   0  0  0  0  0  0  0  0  0  0  0  0
   -1.3069   -2.1047   -0.4389 C   0  0  0  0  0  0  0  0  0  0  0  0
   -0.4052   -2.7552    0.0586 O   0  0  0  0  0  0  0  0  0  0  0  0
   -1.0986   -0.7808   -0.7738 N   0  0  0  0  0  0  0  0  0  0  0  0
   -1.8669   -0.2967   -1.2332 H   0  0  0  0  0  0  0  0  0  0  0  0
    0.2003   -0.0926   -0.6689 C   0  0  1  0  0  0  0  0  0  0  0  0
    0.9142   -0.7041   -1.2341 H   0  0  0  0  0  0  0  0  0  0  0  0
    0.1314    1.2593   -1.4071 C   0  0  0  0  0  0  0  0  0  0  0  0
    1.1536    1.6193   -1.5543 H   0  0  0  0  0  0  0  0  0  0  0  0
   -0.3038    1.1059   -2.3989 H   0  0  0  0  0  0  0  0  0  0  0  0
   -0.6389    2.3680   -0.7002 C   0  0  0  0  0  0  0  0  0  0  0  0
   -1.4279    3.0543   -1.3194 O   0  0  0  0  0  0  0  0  0  0  0  0
   -0.2904    2.8649    0.5220 N   0  0  0  0  0  0  0  0  0  0  0  0
   -0.6212    3.8012    0.7358 H   0  0  0  0  0  0  0  0  0  0  0  0
    0.5425    2.4991    0.9794 H   0  0  0  0  0  0  0  0  0  0  0  0
    0.8033   -0.0456    0.7541 C   0  0  0  0  0  0  0  0  0  0  0  0
    2.0153    0.0672    0.8699 O   0  0  0  0  0  0  0  0  0  0  0  0
    0.0178    0.2738    1.8471 N   0  0  0  0  0  0  0  0  0  0  0  0
   -0.9843    0.1551    1.7302 H   0  0  0  0  0  0  0  0  0  0  0  0
    0.5500    0.4048    3.1983 C   0  0  0  0  0  0  0  0  0  0  0  0
    1.3047    1.1970    3.2404 H   0  0  0  0  0  0  0  0  0  0  0  0
   -0.2528    0.6579    3.8974 H   0  0  0  0  0  0  0  0  0  0  0  0
    1.0084   -0.5360    3.5213 H   0  0  0  0  0  0  0  0  0  0  0  0
  1  2  1  0  0  0  0
  2  3  1  0  0  0  0
  2  4  1  0  0  0  0
  2  5  1  0  0  0  0
  5  6  2  0  0  0  0
  5  7  1  0  0  0  0
  7  8  1  0  0  0  0
  7  9  1  0  0  0  0
  9 10  1  0  0  0  0
  9 11  1  0  0  0  0
  9 19  1  0  0  0  0
 11 12  1  0  0  0  0
 11 13  1  0  0  0  0
 11 14  1  0  0  0  0
 14 15  2  0  0  0  0
 14 16  1  0  0  0  0
 16 17  1  0  0  0  0
 16 18  1  0  0  0  0
 19 20  2  0  0  0  0
 19 21  1  0  0  0  0
 21 22  1  0  0  0  0
 21 23  1  0  0  0  0
 23 24  1  0  0  0  0
 23 25  1  0  0  0  0
 23 26  1  0  0  0  0
M  END
$$$$

  -OEChem-03222214023D

 26 25  0     1  0  0  0  0  0999 V2000
   -2.6775   -3.7321   -0.3232 H   0  0  0  0  0  0  0  0  0  0  0  0
   -2.6767   -2.6870   -0.6460 C   0  0  0  0  0  0  0  0  0  0  0  0
   -3.4294   -2.1410   -0.0723 H   0  0  0  0  0  0  0  0  0  0  0  0
   -2.9369   -2.6472   -1.7066 H   0  0  0  0  0  0  0  0  0  0  0  0
   -1.3071   -2.0733   -0.4233 C   0  0  0  0  0  0  0  0  0  0  0  0
   -0.4212   -2.7281    0.0965 O   0  0  0  0  0  0  0  0  0  0  0  0
   -1.0692   -0.7644   -0.7950 N   0  0  0  0  0  0  0  0  0  0  0  0
   -1.8297   -0.2717   -1.2592 H   0  0  0  0  0  0  0  0  0  0  0  0
    0.2417   -0.0972   -0.7035 C   0  0  1  0  0  0  0  0  0  0  0  0
    0.9513   -0.7203   -1.2612 H   0  0  0  0  0  0  0  0  0  0  0  0
    0.1732    1.2551   -1.4383 C   0  0  0  0  0  0  0  0  0  0  0  0
    1.1932    1.6137   -1.6030 H   0  0  0  0  0  0  0  0  0  0  0  0
   -0.2842    1.1164   -2.4224 H   0  0  0  0  0  0  0  0  0  0  0  0
   -0.5812    2.3428   -0.6874 C   0  0  0  0  0  0  0  0  0  0  0  0
   -1.5682    2.8597   -1.1739 O   0  0  0  0  0  0  0  0  0  0  0  0
   -0.0530    2.9817    0.3978 N   0  0  0  0  0  0  0  0  0  0  0  0
   -0.6330    3.6863    0.8428 H   0  0  0  0  0  0  0  0  0  0  0  0
    0.7036    2.5347    0.9125 H   0  0  0  0  0  0  0  0  0  0  0  0
    0.8300   -0.0240    0.7246 C   0  0  0  0  0  0  0  0  0  0  0  0
    2.0409    0.0820    0.8546 O   0  0  0  0  0  0  0  0  0  0  0  0
    0.0304    0.3411    1.7938 N   0  0  0  0  0  0  0  0  0  0  0  0
   -0.9671    0.1924    1.6712 H   0  0  0  0  0  0  0  0  0  0  0  0
    0.5442    0.4880    3.1510 C   0  0  0  0  0  0  0  0  0  0  0  0
    1.3172    1.2628    3.1899 H   0  0  0  0  0  0  0  0  0  0  0  0
   -0.2633    0.7753    3.8313 H   0  0  0  0  0  0  0  0  0  0  0  0
    0.9747   -0.4564    3.5012 H   0  0  0  0  0  0  0  0  0  0  0  0
  1  2  1  0  0  0  0
  2  3  1  0  0  0  0
  2  4  1  0  0  0  0
  2  5  1  0  0  0  0
  5  6  2  0  0  0  0
  5  7  1  0  0  0  0
  7  8  1  0  0  0  0
  7  9  1  0  0  0  0
  9 10  1  0  0  0  0
  9 11  1  0  0  0  0
  9 19  1  0  0  0  0
 11 12  1  0  0  0  0
 11 13  1  0  0  0  0
 11 14  1  0  0  0  0
 14 15  2  0  0  0  0
 14 16  1  0  0  0  0
 16 17  1  0  0  0  0
 16 18  1  0  0  0  0
 19 20  2  0  0  0  0
 19 21  1  0  0  0  0
 21 22  1  0  0  0  0
 21 23  1  0  0  0  0
 23 24  1  0  0  0  0
 23 25  1  0  0  0  0
 23 26  1  0  0  0  0
M  END
$$$$

  -OEChem-03222214023D

 26 25  0     1  0  0  0  0  0999 V2000
   -2.6909   -3.6964   -0.2858 H   0  0  0  0  0  0  0  0  0  0  0  0
   -2.6805   -2.6546   -0.6186 C   0  0  0  0  0  0  0  0  0  0  0  0
   -3.4100   -2.0907   -0.0324 H   0  0  0  0  0  0  0  0  0  0  0  0
   -2.9657   -2.6199   -1.6730 H   0  0  0  0  0  0  0  0  0  0  0  0
   -1.2959   -2.0616   -0.4363 C   0  0  0  0  0  0  0  0  0  0  0  0
   -0.4059   -2.7282    0.0615 O   0  0  0  0  0  0  0  0  0  0  0  0
   -1.0470   -0.7596   -0.8233 N   0  0  0  0  0  0  0  0  0  0  0  0
   -1.8220   -0.2393   -1.2313 H   0  0  0  0  0  0  0  0  0  0  0  0
    0.2656   -0.0974   -0.7286 C   0  0  1  0  0  0  0  0  0  0  0  0
    0.9779   -0.7235   -1.2789 H   0  0  0  0  0  0  0  0  0  0  0  0
    0.2003    1.2540   -1.4610 C   0  0  0  0  0  0  0  0  0  0  0  0
    1.2192    1.6159   -1.6264 H   0  0  0  0  0  0  0  0  0  0  0  0
   -0.2620    1.1238   -2.4436 H   0  0  0  0  0  0  0  0  0  0  0  0
   -0.5578    2.3201   -0.6868 C   0  0  0  0  0  0  0  0  0  0  0  0
   -1.6820    2.6460   -1.0171 O   0  0  0  0  0  0  0  0  0  0  0  0
    0.0351    3.0668    0.2911 N   0  0  0  0  0  0  0  0  0  0  0  0
   -0.5711    3.6942    0.8107 H   0  0  0  0  0  0  0  0  0  0  0  0
    0.8892    2.7136    0.7178 H   0  0  0  0  0  0  0  0  0  0  0  0
    0.8405   -0.0069    0.7036 C   0  0  0  0  0  0  0  0  0  0  0  0
    2.0511    0.0932    0.8438 O   0  0  0  0  0  0  0  0  0  0  0  0
    0.0313    0.3772    1.7587 N   0  0  0  0  0  0  0  0  0  0  0  0
   -0.9682    0.2547    1.6229 H   0  0  0  0  0  0  0  0  0  0  0  0
    0.5303    0.5524    3.1176 C   0  0  0  0  0  0  0  0  0  0  0  0
    1.3001    1.3305    3.1491 H   0  0  0  0  0  0  0  0  0  0  0  0
   -0.2851    0.8493    3.7840 H   0  0  0  0  0  0  0  0  0  0  0  0
    0.9603   -0.3835    3.4900 H   0  0  0  0  0  0  0  0  0  0  0  0
  1  2  1  0  0  0  0
  2  3  1  0  0  0  0
  2  4  1  0  0  0  0
  2  5  1  0  0  0  0
  5  6  2  0  0  0  0
  5  7  1  0  0  0  0
  7  8  1  0  0  0  0
  7  9  1  0  0  0  0
  9 10  1  0  0  0  0
  9 11  1  0  0  0  0
  9 19  1  0  0  0  0
 11 12  1  0  0  0  0
 11 13  1  0  0  0  0
 11 14  1  0  0  0  0
 14 15  2  0  0  0  0
 14 16  1  0  0  0  0
 16 17  1  0  0  0  0
 16 18  1  0  0  0  0
 19 20  2  0  0  0  0
 19 21  1  0  0  0  0
 21 22  1  0  0  0  0
 21 23  1  0  0  0  0
 23 24  1  0  0  0  0
 23 25  1  0  0  0  0
 23 26  1  0  0  0  0
M  END
$$$$

  -OEChem-03222214023D

 26 25  0     1  0  0  0  0  0999 V2000
   -2.6952   -3.6610   -0.2343 H   0  0  0  0  0  0  0  0  0  0  0  0
   -2.6788   -2.6236   -0.5805 C   0  0  0  0  0  0  0  0  0  0  0  0
   -3.3704   -2.0376    0.0297 H   0  0  0  0  0  0  0  0  0  0  0  0
   -3.0087   -2.5956   -1.6219 H   0  0  0  0  0  0  0  0  0  0  0  0
   -1.2759   -2.0570   -0.4659 C   0  0  0  0  0  0  0  0  0  0  0  0
   -0.3752   -2.7401   -0.0113 O   0  0  0  0  0  0  0  0  0  0  0  0
   -1.0215   -0.7598   -0.8638 N   0  0  0  0  0  0  0  0  0  0  0  0
   -1.8141   -0.2075   -1.1891 H   0  0  0  0  0  0  0  0  0  0  0  0
    0.2893   -0.0976   -0.7585 C   0  0  1  0  0  0  0  0  0  0  0  0
    1.0095   -0.7232   -1.2992 H   0  0  0  0  0  0  0  0  0  0  0  0
    0.2208    1.2523   -1.4909 C   0  0  0  0  0  0  0  0  0  0  0  0
    1.2371    1.6224   -1.6526 H   0  0  0  0  0  0  0  0  0  0  0  0
   -0.2406    1.1257   -2.4743 H   0  0  0  0  0  0  0  0  0  0  0  0
   -0.5508    2.2976   -0.7036 C   0  0  0  0  0  0  0  0  0  0  0  0
   -1.7524    2.4218   -0.8518 O   0  0  0  0  0  0  0  0  0  0  0  0
    0.0626    3.1526    0.1668 N   0  0  0  0  0  0  0  0  0  0  0  0
   -0.5517    3.7053    0.7569 H   0  0  0  0  0  0  0  0  0  0  0  0
    0.9966    2.9151    0.4928 H   0  0  0  0  0  0  0  0  0  0  0  0
    0.8470    0.0099    0.6791 C   0  0  0  0  0  0  0  0  0  0  0  0
    2.0570    0.0941    0.8354 O   0  0  0  0  0  0  0  0  0  0  0  0
    0.0256    0.4075    1.7195 N   0  0  0  0  0  0  0  0  0  0  0  0
   -0.9750    0.3265    1.5619 H   0  0  0  0  0  0  0  0  0  0  0  0
    0.5056    0.6136    3.0805 C   0  0  0  0  0  0  0  0  0  0  0  0
    1.2760    1.3915    3.1037 H   0  0  0  0  0  0  0  0  0  0  0  0
   -0.3187    0.9269    3.7283 H   0  0  0  0  0  0  0  0  0  0  0  0
    0.9289   -0.3138    3.4807 H   0  0  0  0  0  0  0  0  0  0  0  0
  1  2  1  0  0  0  0
  2  3  1  0  0  0  0
  2  4  1  0  0  0  0
  2  5  1  0  0  0  0
  5  6  2  0  0  0  0
  5  7  1  0  0  0  0
  7  8  1  0  0  0  0
  7  9  1  0  0  0  0
  9 10  1  0  0  0  0
  9 11  1  0  0  0  0
  9 19  1  0  0  0  0
 11 12  1  0  0  0  0
 11 13  1  0  0  0  0
 11 14  1  0  0  0  0
 14 15  2  0  0  0  0
 14 16  1  0  0  0  0
 16 17  1  0  0  0  0
 16 18  1  0  0  0  0
 19 20  2  0  0  0  0
 19 21  1  0  0  0  0
 21 22  1  0  0  0  0
 21 23  1  0  0  0  0
 23 24  1  0  0  0  0
 23 25  1  0  0  0  0
 23 26  1  0  0  0  0
M  END
$$$$

  -OEChem-03222214023D

 26 25  0     1  0  0  0  0  0999 V2000
   -2.6844   -3.6454   -0.1852 H   0  0  0  0  0  0  0  0  0  0  0  0
   -2.6693   -2.6119   -0.5432 C   0  0  0  0  0  0  0  0  0  0  0  0
   -3.3213   -2.0090    0.0935 H   0  0  0  0  0  0  0  0  0  0  0  0
   -3.0489   -2.5888   -1.5677 H   0  0  0  0  0  0  0  0  0  0  0  0
   -1.2542   -2.0662   -0.5027 C   0  0  0  0  0  0  0  0  0  0  0  0
   -0.3394   -2.7650   -0.1026 O   0  0  0  0  0  0  0  0  0  0  0  0
   -1.0052   -0.7703   -0.9077 N   0  0  0  0  0  0  0  0  0  0  0  0
   -1.8145   -0.1929   -1.1357 H   0  0  0  0  0  0  0  0  0  0  0  0
    0.3018   -0.1031   -0.7912 C   0  0  1  0  0  0  0  0  0  0  0  0
    1.0309   -0.7230   -1.3261 H   0  0  0  0  0  0  0  0  0  0  0  0
    0.2279    1.2514   -1.5155 C   0  0  0  0  0  0  0  0  0  0  0  0
    1.2425    1.6285   -1.6720 H   0  0  0  0  0  0  0  0  0  0  0  0
   -0.2321    1.1304   -2.5002 H   0  0  0  0  0  0  0  0  0  0  0  0
   -0.5560    2.2789   -0.7159 C   0  0  0  0  0  0  0  0  0  0  0  0
   -1.7712    2.2195   -0.6548 O   0  0  0  0  0  0  0  0  0  0  0  0
    0.0587    3.2461    0.0265 N   0  0  0  0  0  0  0  0  0  0  0  0
   -0.5329    3.7409    0.6874 H   0  0  0  0  0  0  0  0  0  0  0  0
    1.0500    3.1376    0.2244 H   0  0  0  0  0  0  0  0  0  0  0  0
    0.8416    0.0157    0.6525 C   0  0  0  0  0  0  0  0  0  0  0  0
    2.0504    0.0791    0.8280 O   0  0  0  0  0  0  0  0  0  0  0  0
    0.0060    0.4184    1.6795 N   0  0  0  0  0  0  0  0  0  0  0  0
   -0.9924    0.4182    1.4871 H   0  0  0  0  0  0  0  0  0  0  0  0
    0.4654    0.6755    3.0383 C   0  0  0  0  0  0  0  0  0  0  0  0
    1.2231    1.4660    3.0455 H   0  0  0  0  0  0  0  0  0  0  0  0
   -0.3719    0.9956    3.6656 H   0  0  0  0  0  0  0  0  0  0  0  0
    0.8980   -0.2319    3.4727 H   0  0  0  0  0  0  0  0  0  0  0  0
  1  2  1  0  0  0  0
  2  3  1  0  0  0  0
  2  4  1  0  0  0  0
  2  5  1  0  0  0  0
  5  6  2  0  0  0  0
  5  7  1  0  0  0  0
  7  8  1  0  0  0  0
  7  9  1  0  0  0  0
  9 10  1  0  0  0  0
  9 11  1  0  0  0  0
  9 19  1  0  0  0  0
 11 12  1  0  0  0  0
 11 13  1  0  0  0  0
 11 14  1  0  0  0  0
 14 15  2  0  0  0  0
 14 16  1  0  0  0  0
 16 17  1  0  0  0  0
 16 18  1  0  0  0  0
 19 20  2  0  0  0  0
 19 21  1  0  0  0  0
 21 22  1  0  0  0  0
 21 23  1  0  0  0  0
 23 24  1  0  0  0  0
 23 25  1  0  0  0  0
 23 26  1  0  0  0  0
M  END
$$$$

  -OEChem-03222214023D

 26 25  0     1  0  0  0  0  0999 V2000
   -2.6660   -3.6565   -0.1634 H   0  0  0  0  0  0  0  0  0  0  0  0
   -2.6592   -2.6203   -0.5131 C   0  0  0  0  0  0  0  0  0  0  0  0
   -3.2673   -2.0163    0.1645 H   0  0  0  0  0  0  0  0  0  0  0  0
   -3.0956   -2.5835   -1.5142 H   0  0  0  0  0  0  0  0  0  0  0  0
   -1.2382   -2.0900   -0.5469 C   0  0  0  0  0  0  0  0  0  0  0  0
   -0.3090   -2.8078   -0.2194 O   0  0  0  0  0  0  0  0  0  0  0  0
   -1.0003   -0.7901   -0.9456 N   0  0  0  0  0  0  0  0  0  0  0  0
   -1.8199   -0.1965   -1.0725 H   0  0  0  0  0  0  0  0  0  0  0  0
    0.3028   -0.1194   -0.8100 C   0  0  1  0  0  0  0  0  0  0  0  0
    1.0418   -0.7287   -1.3435 H   0  0  0  0  0  0  0  0  0  0  0  0
    0.2276    1.2465   -1.5153 C   0  0  0  0  0  0  0  0  0  0  0  0
    1.2433    1.6259   -1.6578 H   0  0  0  0  0  0  0  0  0  0  0  0
   -0.2242    1.1374   -2.5050 H   0  0  0  0  0  0  0  0  0  0  0  0
   -0.5668    2.2653   -0.7109 C   0  0  0  0  0  0  0  0  0  0  0  0
   -1.7365    2.0643   -0.4302 O   0  0  0  0  0  0  0  0  0  0  0  0
    0.0133    3.3752   -0.1677 N   0  0  0  0  0  0  0  0  0  0  0  0
   -0.5348    3.8670    0.5321 H   0  0  0  0  0  0  0  0  0  0  0  0
    1.0276    3.4240   -0.1389 H   0  0  0  0  0  0  0  0  0  0  0  0
    0.8230   -0.0072    0.6415 C   0  0  0  0  0  0  0  0  0  0  0  0
    2.0296    0.0218    0.8407 O   0  0  0  0  0  0  0  0  0  0  0  0
   -0.0275    0.3881    1.6589 N   0  0  0  0  0  0  0  0  0  0  0  0
   -1.0053    0.5298    1.4134 H   0  0  0  0  0  0  0  0  0  0  0  0
    0.4207    0.7140    3.0062 C   0  0  0  0  0  0  0  0  0  0  0  0
    1.0946    1.5767    2.9881 H   0  0  0  0  0  0  0  0  0  0  0  0
   -0.4368    0.9561    3.6412 H   0  0  0  0  0  0  0  0  0  0  0  0
    0.9485   -0.1372    3.4494 H   0  0  0  0  0  0  0  0  0  0  0  0
  1  2  1  0  0  0  0
  2  3  1  0  0  0  0
  2  4  1  0  0  0  0
  2  5  1  0  0  0  0
  5  6  2  0  0  0  0
  5  7  1  0  0  0  0
  7  8  1  0  0  0  0
  7  9  1  0  0  0  0
  9 10  1  0  0  0  0
  9 11  1  0  0  0  0
  9 19  1  0  0  0  0
 11 12  1  0  0  0  0
 11 13  1  0  0  0  0
 11 14  1  0  0  0  0
 14 15  2  0  0  0  0
 14 16  1  0  0  0  0
 16 17  1  0  0  0  0
 16 18  1  0  0  0  0
 19 20  2  0  0  0  0
 19 21  1  0  0  0  0
 21 22  1  0  0  0  0
 21 23  1  0  0  0  0
 23 24  1  0  0  0  0
 23 25  1  0  0  0  0
 23 26  1  0  0  0  0
M  END
$$$$

  -OEChem-03222214023D

 26 25  0     1  0  0  0  0  0999 V2000
   -2.6369   -3.6885   -0.1717 H   0  0  0  0  0  0  0  0  0  0  0  0
   -2.6455   -2.6455   -0.5008 C   0  0  0  0  0  0  0  0  0  0  0  0
   -3.2320   -2.0570    0.2087 H   0  0  0  0  0  0  0  0  0  0  0  0
   -3.1152   -2.5906   -1.4857 H   0  0  0  0  0  0  0  0  0  0  0  0
   -1.2283   -2.1092   -0.5727 C   0  0  0  0  0  0  0  0  0  0  0  0
   -0.2869   -2.8322   -0.2952 O   0  0  0  0  0  0  0  0  0  0  0  0
   -1.0084   -0.8016   -0.9570 N   0  0  0  0  0  0  0  0  0  0  0  0
   -1.8354   -0.2087   -1.0184 H   0  0  0  0  0  0  0  0  0  0  0  0
    0.2885   -0.1231   -0.8015 C   0  0  1  0  0  0  0  0  0  0  0  0
    1.0346   -0.7263   -1.3326 H   0  0  0  0  0  0  0  0  0  0  0  0
    0.2194    1.2477   -1.5009 C   0  0  0  0  0  0  0  0  0  0  0  0
    1.2384    1.6251   -1.6230 H   0  0  0  0  0  0  0  0  0  0  0  0
   -0.2129    1.1389   -2.4991 H   0  0  0  0  0  0  0  0  0  0  0  0
   -0.5881    2.2766   -0.7185 C   0  0  0  0  0  0  0  0  0  0  0  0
   -1.6666    1.9945   -0.2212 O   0  0  0  0  0  0  0  0  0  0  0  0
   -0.1075    3.5270   -0.4564 N   0  0  0  0  0  0  0  0  0  0  0  0
   -0.6113    4.0612    0.2458 H   0  0  0  0  0  0  0  0  0  0  0  0
    0.8763    3.7150   -0.6242 H   0  0  0  0  0  0  0  0  0  0  0  0
    0.8018   -0.0212    0.6536 C   0  0  0  0  0  0  0  0  0  0  0  0
    2.0072   -0.0266    0.8624 O   0  0  0  0  0  0  0  0  0  0  0  0
   -0.0524    0.3578    1.6736 N   0  0  0  0  0  0  0  0  0  0  0  0
   -1.0010    0.6096    1.3973 H   0  0  0  0  0  0  0  0  0  0  0  0
    0.4011    0.6918    3.0170 C   0  0  0  0  0  0  0  0  0  0  0  0
    1.0448    1.5770    2.9955 H   0  0  0  0  0  0  0  0  0  0  0  0
   -0.4564    0.8997    3.6639 H   0  0  0  0  0  0  0  0  0  0  0  0
    0.9631   -0.1430    3.4490 H   0  0  0  0  0  0  0  0  0  0  0  0
  1  2  1  0  0  0  0
  2  3  1  0  0  0  0
  2  4  1  0  0  0  0
  2  5  1  0  0  0  0
  5  6  2  0  0  0  0
  5  7  1  0  0  0  0
  7  8  1  0  0  0  0
  7  9  1  0  0  0  0
  9 10  1  0  0  0  0
  9 11  1  0  0  0  0
  9 19  1  0  0  0  0
 11 12  1  0  0  0  0
 11 13  1  0  0  0  0
 11 14  1  0  0  0  0
 14 15  2  0  0  0  0
 14 16  1  0  0  0  0
 16 17  1  0  0  0  0
 16 18  1  0  0  0  0
 19 20  2  0  0  0  0
 19 21  1  0  0  0  0
 21 22  1  0  0  0  0
 21 23  1  0  0  0  0
 23 24  1  0  0  0  0
 23 25  1  0  0  0  0
 23 26  1  0  0  0  0
M  END
$$$$

  -OEChem-03222214023D

 26 25  0     1  0  0  0  0  0999 V2000
   -2.6119   -3.7121   -0.1891 H   0  0  0  0  0  0  0  0  0  0  0  0
   -2.6353   -2.6666   -0.5093 C   0  0  0  0  0  0  0  0  0  0  0  0
   -3.2169   -2.0904    0.2142 H   0  0  0  0  0  0  0  0  0  0  0  0
   -3.1199   -2.6081   -1.4868 H   0  0  0  0  0  0  0  0  0  0  0  0
   -1.2241   -2.1167   -0.5970 C   0  0  0  0  0  0  0  0  0  0  0  0
   -0.2722   -2.8411   -0.3621 O   0  0  0  0  0  0  0  0  0  0  0  0
   -1.0221   -0.7971   -0.9499 N   0  0  0  0  0  0  0  0  0  0  0  0
   -1.8557   -0.2121   -0.9690 H   0  0  0  0  0  0  0  0  0  0  0  0
    0.2673   -0.1108   -0.7687 C   0  0  1  0  0  0  0  0  0  0  0  0
    1.0177   -0.7082   -1.3005 H   0  0  0  0  0  0  0  0  0  0  0  0
    0.2095    1.2587   -1.4728 C   0  0  0  0  0  0  0  0  0  0  0  0
    1.2322    1.6340   -1.5687 H   0  0  0  0  0  0  0  0  0  0  0  0
   -0.1938    1.1391   -2.4816 H   0  0  0  0  0  0  0  0  0  0  0  0
   -0.6152    2.3082   -0.7343 C   0  0  0  0  0  0  0  0  0  0  0  0
   -1.5709    2.0120   -0.0350 O   0  0  0  0  0  0  0  0  0  0  0  0
   -0.3097    3.6369   -0.8001 N   0  0  0  0  0  0  0  0  0  0  0  0
   -0.7876    4.2396   -0.1361 H   0  0  0  0  0  0  0  0  0  0  0  0
    0.5902    3.9140   -1.1798 H   0  0  0  0  0  0  0  0  0  0  0  0
    0.7865   -0.0304    0.6868 C   0  0  0  0  0  0  0  0  0  0  0  0
    1.9924   -0.0683    0.8902 O   0  0  0  0  0  0  0  0  0  0  0  0
   -0.0579    0.3196    1.7243 N   0  0  0  0  0  0  0  0  0  0  0  0
   -0.9847    0.6450    1.4475 H   0  0  0  0  0  0  0  0  0  0  0  0
    0.4154    0.6293    3.0670 C   0  0  0  0  0  0  0  0  0  0  0  0
    1.0649    1.5105    3.0516 H   0  0  0  0  0  0  0  0  0  0  0  0
   -0.4324    0.8327    3.7283 H   0  0  0  0  0  0  0  0  0  0  0  0
    0.9774   -0.2158    3.4782 H   0  0  0  0  0  0  0  0  0  0  0  0
  1  2  1  0  0  0  0
  2  3  1  0  0  0  0
  2  4  1  0  0  0  0
  2  5  1  0  0  0  0
  5  6  2  0  0  0  0
  5  7  1  0  0  0  0
  7  8  1  0  0  0  0
  7  9  1  0  0  0  0
  9 10  1  0  0  0  0
  9 11  1  0  0  0  0
  9 19  1  0  0  0  0
 11 12  1  0  0  0  0
 11 13  1  0  0  0  0
 11 14  1  0  0  0  0
 14 15  2  0  0  0  0
 14 16  1  0  0  0  0
 16 17  1  0  0  0  0
 16 18  1  0  0  0  0
 19 20  2  0  0  0  0
 19 21  1  0  0  0  0
 21 22  1  0  0  0  0
 21 23  1  0  0  0  0
 23 24  1  0  0  0  0
 23 25  1  0  0  0  0
 23 26  1  0  0  0  0
M  END
$$$$

  -OEChem-03222214023D

 26 25  0     1  0  0  0  0  0999 V2000
   -2.5931   -3.7376   -0.2300 H   0  0  0  0  0  0  0  0  0  0  0  0
   -2.6283   -2.6859   -0.5281 C   0  0  0  0  0  0  0  0  0  0  0  0
   -3.2137   -2.1310    0.2093 H   0  0  0  0  0  0  0  0  0  0  0  0
   -3.1166   -2.6122   -1.5026 H   0  0  0  0  0  0  0  0  0  0  0  0
   -1.2234   -2.1187   -0.6083 C   0  0  0  0  0  0  0  0  0  0  0  0
   -0.2628   -2.8385   -0.3961 O   0  0  0  0  0  0  0  0  0  0  0  0
   -1.0400   -0.7885   -0.9307 N   0  0  0  0  0  0  0  0  0  0  0  0
   -1.8820   -0.2169   -0.9325 H   0  0  0  0  0  0  0  0  0  0  0  0
    0.2401   -0.0899   -0.7323 C   0  0  1  0  0  0  0  0  0  0  0  0
    0.9939   -0.6832   -1.2641 H   0  0  0  0  0  0  0  0  0  0  0  0
    0.1895    1.2732   -1.4514 C   0  0  0  0  0  0  0  0  0  0  0  0
    1.2127    1.6520   -1.5276 H   0  0  0  0  0  0  0  0  0  0  0  0
   -0.1870    1.1346   -2.4682 H   0  0  0  0  0  0  0  0  0  0  0  0
   -0.6529    2.3421   -0.7603 C   0  0  0  0  0  0  0  0  0  0  0  0
   -1.4560    2.0912    0.1224 O   0  0  0  0  0  0  0  0  0  0  0  0
   -0.5442    3.6593   -1.1006 N   0  0  0  0  0  0  0  0  0  0  0  0
   -0.9992    4.3201   -0.4768 H   0  0  0  0  0  0  0  0  0  0  0  0
    0.2452    3.9564   -1.6657 H   0  0  0  0  0  0  0  0  0  0  0  0
    0.7732   -0.0271    0.7200 C   0  0  0  0  0  0  0  0  0  0  0  0
    1.9812   -0.0834    0.9081 O   0  0  0  0  0  0  0  0  0  0  0  0
   -0.0562    0.2913    1.7790 N   0  0  0  0  0  0  0  0  0  0  0  0
   -0.9641    0.6756    1.5148 H   0  0  0  0  0  0  0  0  0  0  0  0
    0.4450    0.5725    3.1178 C   0  0  0  0  0  0  0  0  0  0  0  0
    1.0761    1.4671    3.1113 H   0  0  0  0  0  0  0  0  0  0  0  0
   -0.3895    0.7389    3.8054 H   0  0  0  0  0  0  0  0  0  0  0  0
    1.0342   -0.2720    3.4906 H   0  0  0  0  0  0  0  0  0  0  0  0
  1  2  1  0  0  0  0
  2  3  1  0  0  0  0
  2  4  1  0  0  0  0
  2  5  1  0  0  0  0
  5  6  2  0  0  0  0
  5  7  1  0  0  0  0
  7  8  1  0  0  0  0
  7  9  1  0  0  0  0
  9 10  1  0  0  0  0
  9 11  1  0  0  0  0
  9 19  1  0  0  0  0
 11 12  1  0  0  0  0
 11 13  1  0  0  0  0
 11 14  1  0  0  0  0
 14 15  2  0  0  0  0
 14 16  1  0  0  0  0
 16 17  1  0  0  0  0
 16 18  1  0  0  0  0
 19 20  2  0  0  0  0
 19 21  1  0  0  0  0
 21 22  1  0  0  0  0
 21 23  1  0  0  0  0
 23 24  1  0  0  0  0
 23 25  1  0  0  0  0
 23 26  1  0  0  0  0
M  END
$$$$

  -OEChem-03222214023D

 26 25  0     1  0  0  0  0  0999 V2000
   -2.5666   -3.7562   -0.2432 H   0  0  0  0  0  0  0  0  0  0  0  0
   -2.6180   -2.7034   -0.5352 C   0  0  0  0  0  0  0  0  0  0  0  0
   -3.2115   -2.1628    0.2059 H   0  0  0  0  0  0  0  0  0  0  0  0
   -3.1080   -2.6314   -1.5091 H   0  0  0  0  0  0  0  0  0  0  0  0
   -1.2217   -2.1146   -0.6122 C   0  0  0  0  0  0  0  0  0  0  0  0
   -0.2505   -2.8264   -0.4237 O   0  0  0  0  0  0  0  0  0  0  0  0
   -1.0586   -0.7755   -0.9091 N   0  0  0  0  0  0  0  0  0  0  0  0
   -1.9089   -0.2180   -0.9011 H   0  0  0  0  0  0  0  0  0  0  0  0
    0.2141   -0.0646   -0.7042 C   0  0  1  0  0  0  0  0  0  0  0  0
    0.9687   -0.6529   -1.2406 H   0  0  0  0  0  0  0  0  0  0  0  0
    0.1624    1.2927   -1.4353 C   0  0  0  0  0  0  0  0  0  0  0  0
    1.1842    1.6766   -1.5042 H   0  0  0  0  0  0  0  0  0  0  0  0
   -0.2000    1.1356   -2.4547 H   0  0  0  0  0  0  0  0  0  0  0  0
   -0.6906    2.3747   -0.7783 C   0  0  0  0  0  0  0  0  0  0  0  0
   -1.3115    2.2168    0.2574 O   0  0  0  0  0  0  0  0  0  0  0  0
   -0.8008    3.6143   -1.3384 N   0  0  0  0  0  0  0  0  0  0  0  0
   -1.2290    4.3284   -0.7557 H   0  0  0  0  0  0  0  0  0  0  0  0
   -0.1489    3.8806   -2.0695 H   0  0  0  0  0  0  0  0  0  0  0  0
    0.7638   -0.0189    0.7435 C   0  0  0  0  0  0  0  0  0  0  0  0
    1.9733   -0.0955    0.9164 O   0  0  0  0  0  0  0  0  0  0  0  0
   -0.0516    0.2693    1.8218 N   0  0  0  0  0  0  0  0  0  0  0  0
   -0.9417    0.7033    1.5751 H   0  0  0  0  0  0  0  0  0  0  0  0
    0.4746    0.5128    3.1586 C   0  0  0  0  0  0  0  0  0  0  0  0
    1.1134    1.4018    3.1628 H   0  0  0  0  0  0  0  0  0  0  0  0
   -0.3466    0.6700    3.8641 H   0  0  0  0  0  0  0  0  0  0  0  0
    1.0624   -0.3452    3.5014 H   0  0  0  0  0  0  0  0  0  0  0  0
  1  2  1  0  0  0  0
  2  3  1  0  0  0  0
  2  4  1  0  0  0  0
  2  5  1  0  0  0  0
  5  6  2  0  0  0  0
  5  7  1  0  0  0  0
  7  8  1  0  0  0  0
  7  9  1  0  0  0  0
  9 10  1  0  0  0  0
  9 11  1  0  0  0  0
  9 19  1  0  0  0  0
 11 12  1  0  0  0  0
 11 13  1  0  0  0  0
 11 14  1  0  0  0  0
 14 15  2  0  0  0  0
 14 16  1  0  0  0  0
 16 17  1  0  0  0  0
 16 18  1  0  0  0  0
 19 20  2  0  0  0  0
 19 21  1  0  0  0  0
 21 22  1  0  0  0  0
 21 23  1  0  0  0  0
 23 24  1  0  0  0  0
 23 25  1  0  0  0  0
 23 26  1  0  0  0  0
M  END
$$$$

  -OEChem-03222214023D

 26 25  0     1  0  0  0  0  0999 V2000
   -2.5515   -3.7712   -0.2584 H   0  0  0  0  0  0  0  0  0  0  0  0
   -2.6130   -2.7142   -0.5332 C   0  0  0  0  0  0  0  0  0  0  0  0
   -3.2084   -2.1903    0.2185 H   0  0  0  0  0  0  0  0  0  0  0  0
   -3.1066   -2.6308   -1.5045 H   0  0  0  0  0  0  0  0  0  0  0  0
   -1.2222   -2.1123   -0.6055 C   0  0  0  0  0  0  0  0  0  0  0  0
   -0.2447   -2.8184   -0.4295 O   0  0  0  0  0  0  0  0  0  0  0  0
   -1.0718   -0.7686   -0.8894 N   0  0  0  0  0  0  0  0  0  0  0  0
   -1.9281   -0.2215   -0.8842 H   0  0  0  0  0  0  0  0  0  0  0  0
    0.1973   -0.0489   -0.6875 C   0  0  1  0  0  0  0  0  0  0  0  0
    0.9515   -0.6329   -1.2292 H   0  0  0  0  0  0  0  0  0  0  0  0
    0.1390    1.3051   -1.4259 C   0  0  0  0  0  0  0  0  0  0  0  0
    1.1586    1.6942   -1.4992 H   0  0  0  0  0  0  0  0  0  0  0  0
   -0.2217    1.1353   -2.4440 H   0  0  0  0  0  0  0  0  0  0  0  0
   -0.7181    2.3923   -0.7827 C   0  0  0  0  0  0  0  0  0  0  0  0
   -1.1314    2.3591    0.3606 O   0  0  0  0  0  0  0  0  0  0  0  0
   -1.0680    3.5082   -1.4862 N   0  0  0  0  0  0  0  0  0  0  0  0
   -1.4650    4.2674   -0.9393 H   0  0  0  0  0  0  0  0  0  0  0  0
   -0.5787    3.7116   -2.3519 H   0  0  0  0  0  0  0  0  0  0  0  0
    0.7602   -0.0128    0.7563 C   0  0  0  0  0  0  0  0  0  0  0  0
    1.9694   -0.1139    0.9184 O   0  0  0  0  0  0  0  0  0  0  0  0
   -0.0453    0.2578    1.8471 N   0  0  0  0  0  0  0  0  0  0  0  0
   -0.9160    0.7352    1.6147 H   0  0  0  0  0  0  0  0  0  0  0  0
    0.4995    0.4712    3.1818 C   0  0  0  0  0  0  0  0  0  0  0  0
    1.1323    1.3646    3.1988 H   0  0  0  0  0  0  0  0  0  0  0  0
   -0.3123    0.6048    3.9030 H   0  0  0  0  0  0  0  0  0  0  0  0
    1.0979   -0.3910    3.4946 H   0  0  0  0  0  0  0  0  0  0  0  0
  1  2  1  0  0  0  0
  2  3  1  0  0  0  0
  2  4  1  0  0  0  0
  2  5  1  0  0  0  0
  5  6  2  0  0  0  0
  5  7  1  0  0  0  0
  7  8  1  0  0  0  0
  7  9  1  0  0  0  0
  9 10  1  0  0  0  0
  9 11  1  0  0  0  0
  9 19  1  0  0  0  0
 11 12  1  0  0  0  0
 11 13  1  0  0  0  0
 11 14  1  0  0  0  0
 14 15  2  0  0  0  0
 14 16  1  0  0  0  0
 16 17  1  0  0  0  0
 16 18  1  0  0  0  0
 19 20  2  0  0  0  0
 19 21  1  0  0  0  0
 21 22  1  0  0  0  0
 21 23  1  0  0  0  0
 23 24  1  0  0  0  0
 23 25  1  0  0  0  0
 23 26  1  0  0  0  0
M  END
$$$$

  -OEChem-03222214023D

 26 25  0     1  0  0  0  0  0999 V2000
   -2.5512   -3.7674   -0.2498 H   0  0  0  0  0  0  0  0  0  0  0  0
   -2.6135   -2.7111   -0.5272 C   0  0  0  0  0  0  0  0  0  0  0  0
   -3.2149   -2.1874    0.2198 H   0  0  0  0  0  0  0  0  0  0  0  0
   -3.1013   -2.6312   -1.5016 H   0  0  0  0  0  0  0  0  0  0  0  0
   -1.2233   -2.1065   -0.5919 C   0  0  0  0  0  0  0  0  0  0  0  0
   -0.2460   -2.8115   -0.4125 O   0  0  0  0  0  0  0  0  0  0  0  0
   -1.0732   -0.7623   -0.8753 N   0  0  0  0  0  0  0  0  0  0  0  0
   -1.9304   -0.2174   -0.8878 H   0  0  0  0  0  0  0  0  0  0  0  0
    0.1972   -0.0418   -0.6794 C   0  0  1  0  0  0  0  0  0  0  0  0
    0.9499   -0.6251   -1.2246 H   0  0  0  0  0  0  0  0  0  0  0  0
    0.1307    1.3098   -1.4213 C   0  0  0  0  0  0  0  0  0  0  0  0
    1.1476    1.7046   -1.5013 H   0  0  0  0  0  0  0  0  0  0  0  0
   -0.2325    1.1340   -2.4372 H   0  0  0  0  0  0  0  0  0  0  0  0
   -0.7263    2.3949   -0.7748 C   0  0  0  0  0  0  0  0  0  0  0  0
   -0.9193    2.5060    0.4196 O   0  0  0  0  0  0  0  0  0  0  0  0
   -1.3468    3.3387   -1.5413 N   0  0  0  0  0  0  0  0  0  0  0  0
   -1.7277    4.1329   -1.0339 H   0  0  0  0  0  0  0  0  0  0  0  0
   -1.0475    3.4545   -2.5041 H   0  0  0  0  0  0  0  0  0  0  0  0
    0.7651   -0.0081    0.7626 C   0  0  0  0  0  0  0  0  0  0  0  0
    1.9714   -0.1426    0.9224 O   0  0  0  0  0  0  0  0  0  0  0  0
   -0.0359    0.2609    1.8574 N   0  0  0  0  0  0  0  0  0  0  0  0
   -0.8894    0.7702    1.6338 H   0  0  0  0  0  0  0  0  0  0  0  0
    0.5188    0.4454    3.1926 C   0  0  0  0  0  0  0  0  0  0  0  0
    1.1733    1.3229    3.2173 H   0  0  0  0  0  0  0  0  0  0  0  0
   -0.2866    0.5905    3.9186 H   0  0  0  0  0  0  0  0  0  0  0  0
    1.0971   -0.4349    3.4928 H   0  0  0  0  0  0  0  0  0  0  0  0
  1  2  1  0  0  0  0
  2  3  1  0  0  0  0
  2  4  1  0  0  0  0
  2  5  1  0  0  0  0
  5  6  2  0  0  0  0
  5  7  1  0  0  0  0
  7  8  1  0  0  0  0
  7  9  1  0  0  0  0
  9 10  1  0  0  0  0
  9 11  1  0  0  0  0
  9 19  1  0  0  0  0
 11 12  1  0  0  0  0
 11 13  1  0  0  0  0
 11 14  1  0  0  0  0
 14 15  2  0  0  0  0
 14 16  1  0  0  0  0
 16 17  1  0  0  0  0
 16 18  1  0  0  0  0
 19 20  2  0  0  0  0
 19 21  1  0  0  0  0
 21 22  1  0  0  0  0
 21 23  1  0  0  0  0
 23 24  1  0  0  0  0
 23 25  1  0  0  0  0
 23 26  1  0  0  0  0
M  END
$$$$

  -OEChem-03222214023D

 26 25  0     1  0  0  0  0  0999 V2000
   -2.5685   -3.7490   -0.2456 H   0  0  0  0  0  0  0  0  0  0  0  0
   -2.6205   -2.6927   -0.5250 C   0  0  0  0  0  0  0  0  0  0  0  0
   -3.2248   -2.1638    0.2159 H   0  0  0  0  0  0  0  0  0  0  0  0
   -3.0988   -2.6106   -1.5039 H   0  0  0  0  0  0  0  0  0  0  0  0
   -1.2254   -2.0985   -0.5776 C   0  0  0  0  0  0  0  0  0  0  0  0
   -0.2559   -2.8089   -0.3799 O   0  0  0  0  0  0  0  0  0  0  0  0
   -1.0620   -0.7580   -0.8717 N   0  0  0  0  0  0  0  0  0  0  0  0
   -1.9142   -0.2075   -0.9154 H   0  0  0  0  0  0  0  0  0  0  0  0
    0.2145   -0.0464   -0.6820 C   0  0  1  0  0  0  0  0  0  0  0  0
    0.9645   -0.6335   -1.2266 H   0  0  0  0  0  0  0  0  0  0  0  0
    0.1448    1.3051   -1.4231 C   0  0  0  0  0  0  0  0  0  0  0  0
    1.1605    1.7025   -1.5075 H   0  0  0  0  0  0  0  0  0  0  0  0
   -0.2229    1.1340   -2.4382 H   0  0  0  0  0  0  0  0  0  0  0  0
   -0.7071    2.3807   -0.7566 C   0  0  0  0  0  0  0  0  0  0  0  0
   -0.6818    2.6441    0.4283 O   0  0  0  0  0  0  0  0  0  0  0  0
   -1.6114    3.1028   -1.4808 N   0  0  0  0  0  0  0  0  0  0  0  0
   -1.9980    3.9142   -1.0053 H   0  0  0  0  0  0  0  0  0  0  0  0
   -1.5226    3.1110   -2.4918 H   0  0  0  0  0  0  0  0  0  0  0  0
    0.7766   -0.0096    0.7620 C   0  0  0  0  0  0  0  0  0  0  0  0
    1.9781   -0.1734    0.9298 O   0  0  0  0  0  0  0  0  0  0  0  0
   -0.0282    0.2735    1.8511 N   0  0  0  0  0  0  0  0  0  0  0  0
   -0.8712    0.7966    1.6245 H   0  0  0  0  0  0  0  0  0  0  0  0
    0.5240    0.4516    3.1882 C   0  0  0  0  0  0  0  0  0  0  0  0
    1.1925    1.3185    3.2132 H   0  0  0  0  0  0  0  0  0  0  0  0
   -0.2813    0.6109    3.9112 H   0  0  0  0  0  0  0  0  0  0  0  0
    1.0873   -0.4368    3.4926 H   0  0  0  0  0  0  0  0  0  0  0  0
  1  2  1  0  0  0  0
  2  3  1  0  0  0  0
  2  4  1  0  0  0  0
  2  5  1  0  0  0  0
  5  6  2  0  0  0  0
  5  7  1  0  0  0  0
  7  8  1  0  0  0  0
  7  9  1  0  0  0  0
  9 10  1  0  0  0  0
  9 11  1  0  0  0  0
  9 19  1  0  0  0  0
 11 12  1  0  0  0  0
 11 13  1  0  0  0  0
 11 14  1  0  0  0  0
 14 15  2  0  0  0  0
 14 16  1  0  0  0  0
 16 17  1  0  0  0  0
 16 18  1  0  0  0  0
 19 20  2  0  0  0  0
 19 21  1  0  0  0  0
 21 22  1  0  0  0  0
 21 23  1  0  0  0  0
 23 24  1  0  0  0  0
 23 25  1  0  0  0  0
 23 26  1  0  0  0  0
M  END
$$$$

  -OEChem-03222214023D

 26 25  0     1  0  0  0  0  0999 V2000
   -2.5914   -3.7315   -0.2469 H   0  0  0  0  0  0  0  0  0  0  0  0
   -2.6297   -2.6752   -0.5285 C   0  0  0  0  0  0  0  0  0  0  0  0
   -3.2358   -2.1389    0.2056 H   0  0  0  0  0  0  0  0  0  0  0  0
   -3.0979   -2.5903   -1.5119 H   0  0  0  0  0  0  0  0  0  0  0  0
   -1.2279   -2.0955   -0.5691 C   0  0  0  0  0  0  0  0  0  0  0  0
   -0.2688   -2.8118   -0.3449 O   0  0  0  0  0  0  0  0  0  0  0  0
   -1.0461   -0.7611   -0.8803 N   0  0  0  0  0  0  0  0  0  0  0  0
   -1.8908   -0.2024   -0.9555 H   0  0  0  0  0  0  0  0  0  0  0  0
    0.2384   -0.0616   -0.6963 C   0  0  1  0  0  0  0  0  0  0  0  0
    0.9871   -0.6523   -1.2387 H   0  0  0  0  0  0  0  0  0  0  0  0
    0.1676    1.2934   -1.4287 C   0  0  0  0  0  0  0  0  0  0  0  0
    1.1829    1.6916   -1.5178 H   0  0  0  0  0  0  0  0  0  0  0  0
   -0.2096    1.1380   -2.4428 H   0  0  0  0  0  0  0  0  0  0  0  0
   -0.6759    2.3514   -0.7277 C   0  0  0  0  0  0  0  0  0  0  0  0
   -0.4528    2.7699    0.3893 O   0  0  0  0  0  0  0  0  0  0  0  0
   -1.8153    2.8352   -1.3039 N   0  0  0  0  0  0  0  0  0  0  0  0
   -2.2130    3.6503   -0.8438 H   0  0  0  0  0  0  0  0  0  0  0  0
   -1.9257    2.7281   -2.3071 H   0  0  0  0  0  0  0  0  0  0  0  0
    0.7885   -0.0167    0.7516 C   0  0  0  0  0  0  0  0  0  0  0  0
    1.9858   -0.1926    0.9336 O   0  0  0  0  0  0  0  0  0  0  0  0
   -0.0256    0.2885    1.8283 N   0  0  0  0  0  0  0  0  0  0  0  0
   -0.8811    0.7828    1.5917 H   0  0  0  0  0  0  0  0  0  0  0  0
    0.5142    0.4940    3.1663 C   0  0  0  0  0  0  0  0  0  0  0  0
    1.1811    1.3624    3.1796 H   0  0  0  0  0  0  0  0  0  0  0  0
   -0.2982    0.6667    3.8785 H   0  0  0  0  0  0  0  0  0  0  0  0
    1.0757   -0.3876    3.4934 H   0  0  0  0  0  0  0  0  0  0  0  0
  1  2  1  0  0  0  0
  2  3  1  0  0  0  0
  2  4  1  0  0  0  0
  2  5  1  0  0  0  0
  5  6  2  0  0  0  0
  5  7  1  0  0  0  0
  7  8  1  0  0  0  0
  7  9  1  0  0  0  0
  9 10  1  0  0  0  0
  9 11  1  0  0  0  0
  9 19  1  0  0  0  0
 11 12  1  0  0  0  0
 11 13  1  0  0  0  0
 11 14  1  0  0  0  0
 14 15  2  0  0  0  0
 14 16  1  0  0  0  0
 16 17  1  0  0  0  0
 16 18  1  0  0  0  0
 19 20  2  0  0  0  0
 19 21  1  0  0  0  0
 21 22  1  0  0  0  0
 21 23  1  0  0  0  0
 23 24  1  0  0  0  0
 23 25  1  0  0  0  0
 23 26  1  0  0  0  0
M  END
$$$$

  -OEChem-03222214023D

 26 25  0     1  0  0  0  0  0999 V2000
   -2.6009   -3.7337   -0.2463 H   0  0  0  0  0  0  0  0  0  0  0  0
   -2.6334   -2.6788   -0.5334 C   0  0  0  0  0  0  0  0  0  0  0  0
   -3.2441   -2.1367    0.1924 H   0  0  0  0  0  0  0  0  0  0  0  0
   -3.0923   -2.5975   -1.5215 H   0  0  0  0  0  0  0  0  0  0  0  0
   -1.2295   -2.1043   -0.5636 C   0  0  0  0  0  0  0  0  0  0  0  0
   -0.2760   -2.8198   -0.3155 O   0  0  0  0  0  0  0  0  0  0  0  0
   -1.0391   -0.7745   -0.8890 N   0  0  0  0  0  0  0  0  0  0  0  0
   -1.8801   -0.2135   -0.9840 H   0  0  0  0  0  0  0  0  0  0  0  0
    0.2497   -0.0803   -0.7118 C   0  0  1  0  0  0  0  0  0  0  0  0
    0.9972   -0.6712   -1.2555 H   0  0  0  0  0  0  0  0  0  0  0  0
    0.1795    1.2821   -1.4275 C   0  0  0  0  0  0  0  0  0  0  0  0
    1.1951    1.6795   -1.5187 H   0  0  0  0  0  0  0  0  0  0  0  0
   -0.2100    1.1495   -2.4400 H   0  0  0  0  0  0  0  0  0  0  0  0
   -0.6548    2.3172   -0.6867 C   0  0  0  0  0  0  0  0  0  0  0  0
   -0.2772    2.8936    0.3119 O   0  0  0  0  0  0  0  0  0  0  0  0
   -1.9327    2.6027   -1.0757 N   0  0  0  0  0  0  0  0  0  0  0  0
   -2.3331    3.4251   -0.6305 H   0  0  0  0  0  0  0  0  0  0  0  0
   -2.1954    2.3831   -2.0311 H   0  0  0  0  0  0  0  0  0  0  0  0
    0.7938   -0.0262    0.7373 C   0  0  0  0  0  0  0  0  0  0  0  0
    1.9923   -0.1854    0.9255 O   0  0  0  0  0  0  0  0  0  0  0  0
   -0.0263    0.2942    1.8054 N   0  0  0  0  0  0  0  0  0  0  0  0
   -0.9214    0.7085    1.5682 H   0  0  0  0  0  0  0  0  0  0  0  0
    0.5031    0.5459    3.1397 C   0  0  0  0  0  0  0  0  0  0  0  0
    1.1522    1.4279    3.1325 H   0  0  0  0  0  0  0  0  0  0  0  0
   -0.3156    0.7213    3.8438 H   0  0  0  0  0  0  0  0  0  0  0  0
    1.0809   -0.3148    3.4926 H   0  0  0  0  0  0  0  0  0  0  0  0
  1  2  1  0  0  0  0
  2  3  1  0  0  0  0
  2  4  1  0  0  0  0
  2  5  1  0  0  0  0
  5  6  2  0  0  0  0
  5  7  1  0  0  0  0
  7  8  1  0  0  0  0
  7  9  1  0  0  0  0
  9 10  1  0  0  0  0
  9 11  1  0  0  0  0
  9 19  1  0  0  0  0
 11 12  1  0  0  0  0
 11 13  1  0  0  0  0
 11 14  1  0  0  0  0
 14 15  2  0  0  0  0
 14 16  1  0  0  0  0
 16 17  1  0  0  0  0
 16 18  1  0  0  0  0
 19 20  2  0  0  0  0
 19 21  1  0  0  0  0
 21 22  1  0  0  0  0
 21 23  1  0  0  0  0
 23 24  1  0  0  0  0
 23 25  1  0  0  0  0
 23 26  1  0  0  0  0
M  END
$$$$

  -OEChem-03222214023D

 26 25  0     1  0  0  0  0  0999 V2000
   -2.5989   -3.7508   -0.2399 H   0  0  0  0  0  0  0  0  0  0  0  0
   -2.6306   -2.6966   -0.5303 C   0  0  0  0  0  0  0  0  0  0  0  0
   -3.2467   -2.1533    0.1900 H   0  0  0  0  0  0  0  0  0  0  0  0
   -3.0836   -2.6193   -1.5216 H   0  0  0  0  0  0  0  0  0  0  0  0
   -1.2270   -2.1203   -0.5540 C   0  0  0  0  0  0  0  0  0  0  0  0
   -0.2745   -2.8305   -0.2883 O   0  0  0  0  0  0  0  0  0  0  0  0
   -1.0358   -0.7930   -0.8895 N   0  0  0  0  0  0  0  0  0  0  0  0
   -1.8760   -0.2336   -0.9955 H   0  0  0  0  0  0  0  0  0  0  0  0
    0.2543   -0.0976   -0.7242 C   0  0  1  0  0  0  0  0  0  0  0  0
    1.0002   -0.6846   -1.2741 H   0  0  0  0  0  0  0  0  0  0  0  0
    0.1820    1.2756   -1.4173 C   0  0  0  0  0  0  0  0  0  0  0  0
    1.1976    1.6719   -1.5156 H   0  0  0  0  0  0  0  0  0  0  0  0
   -0.2248    1.1670   -2.4256 H   0  0  0  0  0  0  0  0  0  0  0  0
   -0.6399    2.2891   -0.6357 C   0  0  0  0  0  0  0  0  0  0  0  0
   -0.1640    3.0256    0.2026 O   0  0  0  0  0  0  0  0  0  0  0  0
   -1.9838    2.4249   -0.8419 N   0  0  0  0  0  0  0  0  0  0  0  0
   -2.3837    3.2570   -0.4139 H   0  0  0  0  0  0  0  0  0  0  0  0
   -2.3518    2.1118   -1.7340 H   0  0  0  0  0  0  0  0  0  0  0  0
    0.7994   -0.0369    0.7234 C   0  0  0  0  0  0  0  0  0  0  0  0
    2.0017   -0.1605    0.9108 O   0  0  0  0  0  0  0  0  0  0  0  0
   -0.0244    0.2898    1.7867 N   0  0  0  0  0  0  0  0  0  0  0  0
   -0.9596    0.6080    1.5584 H   0  0  0  0  0  0  0  0  0  0  0  0
    0.4950    0.5774    3.1177 C   0  0  0  0  0  0  0  0  0  0  0  0
    1.1231    1.4742    3.0963 H   0  0  0  0  0  0  0  0  0  0  0  0
   -0.3293    0.7457    3.8170 H   0  0  0  0  0  0  0  0  0  0  0  0
    1.0923   -0.2630    3.4870 H   0  0  0  0  0  0  0  0  0  0  0  0
  1  2  1  0  0  0  0
  2  3  1  0  0  0  0
  2  4  1  0  0  0  0
  2  5  1  0  0  0  0
  5  6  2  0  0  0  0
  5  7  1  0  0  0  0
  7  8  1  0  0  0  0
  7  9  1  0  0  0  0
  9 10  1  0  0  0  0
  9 11  1  0  0  0  0
  9 19  1  0  0  0  0
 11 12  1  0  0  0  0
 11 13  1  0  0  0  0
 11 14  1  0  0  0  0
 14 15  2  0  0  0  0
 14 16  1  0  0  0  0
 16 17  1  0  0  0  0
 16 18  1  0  0  0  0
 19 20  2  0  0  0  0
 19 21  1  0  0  0  0
 21 22  1  0  0  0  0
 21 23  1  0  0  0  0
 23 24  1  0  0  0  0
 23 25  1  0  0  0  0
 23 26  1  0  0  0  0
M  END
$$$$

  -OEChem-03222214023D

 26 25  0     1  0  0  0  0  0999 V2000
   -2.5826   -3.7677   -0.2144 H   0  0  0  0  0  0  0  0  0  0  0  0
   -2.6196   -2.7178   -0.5200 C   0  0  0  0  0  0  0  0  0  0  0  0
   -3.2455   -2.1688    0.1875 H   0  0  0  0  0  0  0  0  0  0  0  0
   -3.0649   -2.6580   -1.5161 H   0  0  0  0  0  0  0  0  0  0  0  0
   -1.2200   -2.1320   -0.5407 C   0  0  0  0  0  0  0  0  0  0  0  0
   -0.2639   -2.8349   -0.2690 O   0  0  0  0  0  0  0  0  0  0  0  0
   -1.0355   -0.8048   -0.8807 N   0  0  0  0  0  0  0  0  0  0  0  0
   -1.8779   -0.2499   -0.9866 H   0  0  0  0  0  0  0  0  0  0  0  0
    0.2546   -0.1057   -0.7295 C   0  0  1  0  0  0  0  0  0  0  0  0
    0.9972   -0.6876   -1.2892 H   0  0  0  0  0  0  0  0  0  0  0  0
    0.1805    1.2786   -1.4012 C   0  0  0  0  0  0  0  0  0  0  0  0
    1.1972    1.6700   -1.5096 H   0  0  0  0  0  0  0  0  0  0  0  0
   -0.2438    1.1882   -2.4040 H   0  0  0  0  0  0  0  0  0  0  0  0
   -0.6259    2.2827   -0.5911 C   0  0  0  0  0  0  0  0  0  0  0  0
   -0.1129    3.1744    0.0514 O   0  0  0  0  0  0  0  0  0  0  0  0
   -1.9920    2.3017   -0.6264 N   0  0  0  0  0  0  0  0  0  0  0  0
   -2.3938    3.1498   -0.2326 H   0  0  0  0  0  0  0  0  0  0  0  0
   -2.4374    1.8894   -1.4387 H   0  0  0  0  0  0  0  0  0  0  0  0
    0.8075   -0.0446    0.7147 C   0  0  0  0  0  0  0  0  0  0  0  0
    2.0130   -0.1400    0.8955 O   0  0  0  0  0  0  0  0  0  0  0  0
   -0.0151    0.2807    1.7797 N   0  0  0  0  0  0  0  0  0  0  0  0
   -0.9753    0.5268    1.5665 H   0  0  0  0  0  0  0  0  0  0  0  0
    0.4986    0.5685    3.1129 C   0  0  0  0  0  0  0  0  0  0  0  0
    1.1301    1.4631    3.0936 H   0  0  0  0  0  0  0  0  0  0  0  0
   -0.3281    0.7413    3.8082 H   0  0  0  0  0  0  0  0  0  0  0  0
    1.0910   -0.2738    3.4858 H   0  0  0  0  0  0  0  0  0  0  0  0
  1  2  1  0  0  0  0
  2  3  1  0  0  0  0
  2  4  1  0  0  0  0
  2  5  1  0  0  0  0
  5  6  2  0  0  0  0
  5  7  1  0  0  0  0
  7  8  1  0  0  0  0
  7  9  1  0  0  0  0
  9 10  1  0  0  0  0
  9 11  1  0  0  0  0
  9 19  1  0  0  0  0
 11 12  1  0  0  0  0
 11 13  1  0  0  0  0
 11 14  1  0  0  0  0
 14 15  2  0  0  0  0
 14 16  1  0  0  0  0
 16 17  1  0  0  0  0
 16 18  1  0  0  0  0
 19 20  2  0  0  0  0
 19 21  1  0  0  0  0
 21 22  1  0  0  0  0
 21 23  1  0  0  0  0
 23 24  1  0  0  0  0
 23 25  1  0  0  0  0
 23 26  1  0  0  0  0
M  END
$$$$

  -OEChem-03222214023D

 26 25  0     1  0  0  0  0  0999 V2000
   -2.6207   -3.8119   -0.3289 H   0  0  0  0  0  0  0  0  0  0  0  0
   -2.6347   -2.7769   -0.6829 C   0  0  0  0  0  0  0  0  0  0  0  0
   -3.4391   -2.2428   -0.1716 H   0  0  0  0  0  0  0  0  0  0  0  0
   -2.8293   -2.7772   -1.7581 H   0  0  0  0  0  0  0  0  0  0  0  0
   -1.3025   -2.1102   -0.3939 C   0  0  0  0  0  0  0  0  0  0  0  0
   -0.4240   -2.7372    0.1679 O   0  0  0  0  0  0  0  0  0  0  0  0
   -1.0908   -0.8012   -0.7876 N   0  0  0  0  0  0  0  0  0  0  0  0
   -1.7926   -0.4088   -1.4054 H   0  0  0  0  0  0  0  0  0  0  0  0
    0.2219   -0.1297   -0.7026 C   0  0  1  0  0  0  0  0  0  0  0  0
    0.9337   -0.7348   -1.2766 H   0  0  0  0  0  0  0  0  0  0  0  0
    0.1418    1.2558   -1.3765 C   0  0  0  0  0  0  0  0  0  0  0  0
    1.1622    1.6174   -1.5411 H   0  0  0  0  0  0  0  0  0  0  0  0
   -0.3347    1.1698   -2.3558 H   0  0  0  0  0  0  0  0  0  0  0  0
   -0.5961    2.3045   -0.5496 C   0  0  0  0  0  0  0  0  0  0  0  0
   -0.0574    3.3280   -0.1825 O   0  0  0  0  0  0  0  0  0  0  0  0
   -1.9277    2.2174   -0.2517 N   0  0  0  0  0  0  0  0  0  0  0  0
   -2.3378    3.0770    0.1054 H   0  0  0  0  0  0  0  0  0  0  0  0
   -2.5021    1.5720   -0.7784 H   0  0  0  0  0  0  0  0  0  0  0  0
    0.8258   -0.0307    0.7198 C   0  0  0  0  0  0  0  0  0  0  0  0
    2.0380   -0.1176    0.8559 O   0  0  0  0  0  0  0  0  0  0  0  0
    0.0486    0.3528    1.7981 N   0  0  0  0  0  0  0  0  0  0  0  0
   -0.9394    0.5101    1.6293 H   0  0  0  0  0  0  0  0  0  0  0  0
    0.5965    0.6345    3.1183 C   0  0  0  0  0  0  0  0  0  0  0  0
    1.2899    1.4808    3.0714 H   0  0  0  0  0  0  0  0  0  0  0  0
   -0.2079    0.8835    3.8168 H   0  0  0  0  0  0  0  0  0  0  0  0
    1.1314   -0.2394    3.5050 H   0  0  0  0  0  0  0  0  0  0  0  0
  1  2  1  0  0  0  0
  2  3  1  0  0  0  0
  2  4  1  0  0  0  0
  2  5  1  0  0  0  0
  5  6  2  0  0  0  0
  5  7  1  0  0  0  0
  7  8  1  0  0  0  0
  7  9  1  0  0  0  0
  9 10  1  0  0  0  0
  9 11  1  0  0  0  0
  9 19  1  0  0  0  0
 11 12  1  0  0  0  0
 11 13  1  0  0  0  0
 11 14  1  0  0  0  0
 14 15  2  0  0  0  0
 14 16  1  0  0  0  0
 16 17  1  0  0  0  0
 16 18  1  0  0  0  0
 19 20  2  0  0  0  0
 19 21  1  0  0  0  0
 21 22  1  0  0  0  0
 21 23  1  0  0  0  0
 23 24  1  0  0  0  0
 23 25  1  0  0  0  0
 23 26  1  0  0  0  0
M  END
$$$$

  -OEChem-03222214023D

 26 25  0     1  0  0  0  0  0999 V2000
   -2.6226   -3.8081   -0.4026 H   0  0  0  0  0  0  0  0  0  0  0  0
   -2.6351   -2.7740   -0.7595 C   0  0  0  0  0  0  0  0  0  0  0  0
   -3.4962   -2.2624   -0.3231 H   0  0  0  0  0  0  0  0  0  0  0  0
   -2.7361   -2.7812   -1.8475 H   0  0  0  0  0  0  0  0  0  0  0  0
   -1.3521   -2.0687   -0.3598 C   0  0  0  0  0  0  0  0  0  0  0  0
   -0.5320   -2.6472    0.3280 O   0  0  0  0  0  0  0  0  0  0  0  0
   -1.1272   -0.7671   -0.7702 N   0  0  0  0  0  0  0  0  0  0  0  0
   -1.7687   -0.4260   -1.4814 H   0  0  0  0  0  0  0  0  0  0  0  0
    0.1951   -0.1123   -0.6836 C   0  0  1  0  0  0  0  0  0  0  0  0
    0.8979   -0.7425   -1.2419 H   0  0  0  0  0  0  0  0  0  0  0  0
    0.1379    1.2492   -1.4047 C   0  0  0  0  0  0  0  0  0  0  0  0
    1.1642    1.5936   -1.5685 H   0  0  0  0  0  0  0  0  0  0  0  0
   -0.3278    1.1326   -2.3861 H   0  0  0  0  0  0  0  0  0  0  0  0
   -0.5996    2.3410   -0.6367 C   0  0  0  0  0  0  0  0  0  0  0  0
   -0.1524    3.4651   -0.5366 O   0  0  0  0  0  0  0  0  0  0  0  0
   -1.8590    2.1658   -0.1346 N   0  0  0  0  0  0  0  0  0  0  0  0
   -2.1995    2.9195    0.4569 H   0  0  0  0  0  0  0  0  0  0  0  0
   -2.2027    1.2218   -0.0066 H   0  0  0  0  0  0  0  0  0  0  0  0
    0.8169    0.0106    0.7296 C   0  0  0  0  0  0  0  0  0  0  0  0
    2.0339   -0.0336    0.8369 O   0  0  0  0  0  0  0  0  0  0  0  0
    0.0632    0.4236    1.8141 N   0  0  0  0  0  0  0  0  0  0  0  0
   -0.9430    0.3419    1.7296 H   0  0  0  0  0  0  0  0  0  0  0  0
    0.6368    0.6398    3.1368 C   0  0  0  0  0  0  0  0  0  0  0  0
    1.4235    1.4006    3.0928 H   0  0  0  0  0  0  0  0  0  0  0  0
   -0.1342    0.9837    3.8326 H   0  0  0  0  0  0  0  0  0  0  0  0
    1.0670   -0.2896    3.5244 H   0  0  0  0  0  0  0  0  0  0  0  0
  1  2  1  0  0  0  0
  2  3  1  0  0  0  0
  2  4  1  0  0  0  0
  2  5  1  0  0  0  0
  5  6  2  0  0  0  0
  5  7  1  0  0  0  0
  7  8  1  0  0  0  0
  7  9  1  0  0  0  0
  9 10  1  0  0  0  0
  9 11  1  0  0  0  0
  9 19  1  0  0  0  0
 11 12  1  0  0  0  0
 11 13  1  0  0  0  0
 11 14  1  0  0  0  0
 14 15  2  0  0  0  0
 14 16  1  0  0  0  0
 16 17  1  0  0  0  0
 16 18  1  0  0  0  0
 19 20  2  0  0  0  0
 19 21  1  0  0  0  0
 21 22  1  0  0  0  0
 21 23  1  0  0  0  0
 23 24  1  0  0  0  0
 23 25  1  0  0  0  0
 23 26  1  0  0  0  0
M  END
$$$$

  -OEChem-03222214023D

 26 25  0     1  0  0  0  0  0999 V2000
   -2.6184   -3.8108   -0.4279 H   0  0  0  0  0  0  0  0  0  0  0  0
   -2.6372   -2.7683   -0.7586 C   0  0  0  0  0  0  0  0  0  0  0  0
   -3.4929   -2.2689   -0.2980 H   0  0  0  0  0  0  0  0  0  0  0  0
   -2.7527   -2.7486   -1.8451 H   0  0  0  0  0  0  0  0  0  0  0  0
   -1.3505   -2.0705   -0.3588 C   0  0  0  0  0  0  0  0  0  0  0  0
   -0.5284   -2.6539    0.3229 O   0  0  0  0  0  0  0  0  0  0  0  0
   -1.1275   -0.7629   -0.7482 N   0  0  0  0  0  0  0  0  0  0  0  0
   -1.7871   -0.3958   -1.4300 H   0  0  0  0  0  0  0  0  0  0  0  0
    0.1923   -0.1051   -0.6605 C   0  0  1  0  0  0  0  0  0  0  0  0
    0.8894   -0.7369   -1.2241 H   0  0  0  0  0  0  0  0  0  0  0  0
    0.1477    1.2540   -1.3871 C   0  0  0  0  0  0  0  0  0  0  0  0
    1.1775    1.5900   -1.5457 H   0  0  0  0  0  0  0  0  0  0  0  0
   -0.3123    1.1308   -2.3705 H   0  0  0  0  0  0  0  0  0  0  0  0
   -0.5874    2.3639   -0.6433 C   0  0  0  0  0  0  0  0  0  0  0  0
   -0.2718    3.5286   -0.7788 O   0  0  0  0  0  0  0  0  0  0  0  0
   -1.7734    2.1594    0.0047 N   0  0  0  0  0  0  0  0  0  0  0  0
   -2.1189    2.9549    0.5351 H   0  0  0  0  0  0  0  0  0  0  0  0
   -2.0043    1.2170    0.2939 H   0  0  0  0  0  0  0  0  0  0  0  0
    0.8286    0.0003    0.7474 C   0  0  0  0  0  0  0  0  0  0  0  0
    2.0482    0.0018    0.8319 O   0  0  0  0  0  0  0  0  0  0  0  0
    0.0843    0.3938    1.8458 N   0  0  0  0  0  0  0  0  0  0  0  0
   -0.9093    0.2014    1.8014 H   0  0  0  0  0  0  0  0  0  0  0  0
    0.6836    0.5961    3.1598 C   0  0  0  0  0  0  0  0  0  0  0  0
    1.4582    1.3692    3.1135 H   0  0  0  0  0  0  0  0  0  0  0  0
   -0.0770    0.9165    3.8779 H   0  0  0  0  0  0  0  0  0  0  0  0
    1.1350   -0.3338    3.5214 H   0  0  0  0  0  0  0  0  0  0  0  0
  1  2  1  0  0  0  0
  2  3  1  0  0  0  0
  2  4  1  0  0  0  0
  2  5  1  0  0  0  0
  5  6  2  0  0  0  0
  5  7  1  0  0  0  0
  7  8  1  0  0  0  0
  7  9  1  0  0  0  0
  9 10  1  0  0  0  0
  9 11  1  0  0  0  0
  9 19  1  0  0  0  0
 11 12  1  0  0  0  0
 11 13  1  0  0  0  0
 11 14  1  0  0  0  0
 14 15  2  0  0  0  0
 14 16  1  0  0  0  0
 16 17  1  0  0  0  0
 16 18  1  0  0  0  0
 19 20  2  0  0  0  0
 19 21  1  0  0  0  0
 21 22  1  0  0  0  0
 21 23  1  0  0  0  0
 23 24  1  0  0  0  0
 23 25  1  0  0  0  0
 23 26  1  0  0  0  0
M  END
$$$$

  -OEChem-03222214023D

 26 25  0     1  0  0  0  0  0999 V2000
   -2.6099   -3.8286   -0.4331 H   0  0  0  0  0  0  0  0  0  0  0  0
   -2.6363   -2.7814   -0.7480 C   0  0  0  0  0  0  0  0  0  0  0  0
   -3.4656   -2.2824   -0.2411 H   0  0  0  0  0  0  0  0  0  0  0  0
   -2.8026   -2.7449   -1.8273 H   0  0  0  0  0  0  0  0  0  0  0  0
   -1.3264   -2.0992   -0.4002 C   0  0  0  0  0  0  0  0  0  0  0  0
   -0.4672   -2.7042    0.2146 O   0  0  0  0  0  0  0  0  0  0  0  0
   -1.1216   -0.7778   -0.7479 N   0  0  0  0  0  0  0  0  0  0  0  0
   -1.8438   -0.3476   -1.3209 H   0  0  0  0  0  0  0  0  0  0  0  0
    0.1829   -0.0941   -0.6560 C   0  0  1  0  0  0  0  0  0  0  0  0
    0.8849   -0.7194   -1.2210 H   0  0  0  0  0  0  0  0  0  0  0  0
    0.1476    1.2581   -1.3992 C   0  0  0  0  0  0  0  0  0  0  0  0
    1.1819    1.5864   -1.5434 H   0  0  0  0  0  0  0  0  0  0  0  0
   -0.2889    1.1099   -2.3900 H   0  0  0  0  0  0  0  0  0  0  0  0
   -0.5935    2.4076   -0.7240 C   0  0  0  0  0  0  0  0  0  0  0  0
   -0.4383    3.5504   -1.1046 O   0  0  0  0  0  0  0  0  0  0  0  0
   -1.5579    2.2507    0.2284 N   0  0  0  0  0  0  0  0  0  0  0  0
   -1.8439    3.1245    0.6620 H   0  0  0  0  0  0  0  0  0  0  0  0
   -1.4808    1.4247    0.8095 H   0  0  0  0  0  0  0  0  0  0  0  0
    0.8138   -0.0293    0.7550 C   0  0  0  0  0  0  0  0  0  0  0  0
    2.0279    0.0867    0.8351 O   0  0  0  0  0  0  0  0  0  0  0  0
    0.0421    0.3067    1.8550 N   0  0  0  0  0  0  0  0  0  0  0  0
   -0.8876   -0.1015    1.8485 H   0  0  0  0  0  0  0  0  0  0  0  0
    0.6431    0.5590    3.1609 C   0  0  0  0  0  0  0  0  0  0  0  0
    1.3480    1.3954    3.1042 H   0  0  0  0  0  0  0  0  0  0  0  0
   -0.1302    0.8135    3.8920 H   0  0  0  0  0  0  0  0  0  0  0  0
    1.1787   -0.3284    3.5144 H   0  0  0  0  0  0  0  0  0  0  0  0
  1  2  1  0  0  0  0
  2  3  1  0  0  0  0
  2  4  1  0  0  0  0
  2  5  1  0  0  0  0
  5  6  2  0  0  0  0
  5  7  1  0  0  0  0
  7  8  1  0  0  0  0
  7  9  1  0  0  0  0
  9 10  1  0  0  0  0
  9 11  1  0  0  0  0
  9 19  1  0  0  0  0
 11 12  1  0  0  0  0
 11 13  1  0  0  0  0
 11 14  1  0  0  0  0
 14 15  2  0  0  0  0
 14 16  1  0  0  0  0
 16 17  1  0  0  0  0
 16 18  1  0  0  0  0
 19 20  2  0  0  0  0
 19 21  1  0  0  0  0
 21 22  1  0  0  0  0
 21 23  1  0  0  0  0
 23 24  1  0  0  0  0
 23 25  1  0  0  0  0
 23 26  1  0  0  0  0
M  END
$$$$

  -OEChem-03222214023D

 26 25  0     1  0  0  0  0  0999 V2000
   -2.5533   -3.8497   -0.3805 H   0  0  0  0  0  0  0  0  0  0  0  0
   -2.6002   -2.7946   -0.6657 C   0  0  0  0  0  0  0  0  0  0  0  0
   -3.3897   -2.3086   -0.0875 H   0  0  0  0  0  0  0  0  0  0  0  0
   -2.8432   -2.7300   -1.7291 H   0  0  0  0  0  0  0  0  0  0  0  0
   -1.2678   -2.1212   -0.3950 C   0  0  0  0  0  0  0  0  0  0  0  0
   -0.3675   -2.7427    0.1400 O   0  0  0  0  0  0  0  0  0  0  0  0
   -1.0851   -0.7926   -0.7273 N   0  0  0  0  0  0  0  0  0  0  0  0
   -1.8531   -0.3327   -1.2098 H   0  0  0  0  0  0  0  0  0  0  0  0
    0.2011   -0.0791   -0.6209 C   0  0  1  0  0  0  0  0  0  0  0  0
    0.9162   -0.7146   -1.1578 H   0  0  0  0  0  0  0  0  0  0  0  0
    0.1658    1.2326   -1.4417 C   0  0  0  0  0  0  0  0  0  0  0  0
    1.1909    1.4250   -1.7728 H   0  0  0  0  0  0  0  0  0  0  0  0
   -0.4366    1.0738   -2.3402 H   0  0  0  0  0  0  0  0  0  0  0  0
   -0.3037    2.5323   -0.7886 C   0  0  0  0  0  0  0  0  0  0  0  0
   -0.3281    3.5547   -1.4443 O   0  0  0  0  0  0  0  0  0  0  0  0
   -0.7327    2.6917    0.4957 N   0  0  0  0  0  0  0  0  0  0  0  0
   -0.3940    2.0212    1.1800 H   0  0  0  0  0  0  0  0  0  0  0  0
   -0.8213    3.6642    0.7765 H   0  0  0  0  0  0  0  0  0  0  0  0
    0.8110   -0.0182    0.7984 C   0  0  0  0  0  0  0  0  0  0  0  0
    2.0208    0.1119    0.9085 O   0  0  0  0  0  0  0  0  0  0  0  0
    0.0188    0.2855    1.8928 N   0  0  0  0  0  0  0  0  0  0  0  0
   -0.9565    0.0117    1.8044 H   0  0  0  0  0  0  0  0  0  0  0  0
    0.5689    0.4133    3.2383 C   0  0  0  0  0  0  0  0  0  0  0  0
    1.3132    1.2159    3.2760 H   0  0  0  0  0  0  0  0  0  0  0  0
   -0.2266    0.6502    3.9514 H   0  0  0  0  0  0  0  0  0  0  0  0
    1.0453   -0.5233    3.5470 H   0  0  0  0  0  0  0  0  0  0  0  0
  1  2  1  0  0  0  0
  2  3  1  0  0  0  0
  2  4  1  0  0  0  0
  2  5  1  0  0  0  0
  5  6  2  0  0  0  0
  5  7  1  0  0  0  0
  7  8  1  0  0  0  0
  7  9  1  0  0  0  0
  9 10  1  0  0  0  0
  9 11  1  0  0  0  0
  9 19  1  0  0  0  0
 11 12  1  0  0  0  0
 11 13  1  0  0  0  0
 11 14  1  0  0  0  0
 14 15  2  0  0  0  0
 14 16  1  0  0  0  0
 16 17  1  0  0  0  0
 16 18  1  0  0  0  0
 19 20  2  0  0  0  0
 19 21  1  0  0  0  0
 21 22  1  0  0  0  0
 21 23  1  0  0  0  0
 23 24  1  0  0  0  0
 23 25  1  0  0  0  0
 23 26  1  0  0  0  0
M  END
$$$$

  -OEChem-03222214023D

 26 25  0     1  0  0  0  0  0999 V2000
   -2.6363   -3.8061   -0.4207 H   0  0  0  0  0  0  0  0  0  0  0  0
   -2.6677   -2.7478   -0.6956 C   0  0  0  0  0  0  0  0  0  0  0  0
   -3.4430   -2.2539   -0.1048 H   0  0  0  0  0  0  0  0  0  0  0  0
   -2.9200   -2.6685   -1.7558 H   0  0  0  0  0  0  0  0  0  0  0  0
   -1.3207   -2.1007   -0.4329 C   0  0  0  0  0  0  0  0  0  0  0  0
   -0.4174   -2.7507    0.0621 O   0  0  0  0  0  0  0  0  0  0  0  0
   -1.1232   -0.7682   -0.7413 N   0  0  0  0  0  0  0  0  0  0  0  0
   -1.8925   -0.2859   -1.1993 H   0  0  0  0  0  0  0  0  0  0  0  0
    0.1742   -0.0755   -0.6366 C   0  0  1  0  0  0  0  0  0  0  0  0
    0.8766   -0.7022   -1.2003 H   0  0  0  0  0  0  0  0  0  0  0  0
    0.1272    1.2594   -1.4199 C   0  0  0  0  0  0  0  0  0  0  0  0
    1.1456    1.4583   -1.7665 H   0  0  0  0  0  0  0  0  0  0  0  0
   -0.4937    1.1295   -2.3105 H   0  0  0  0  0  0  0  0  0  0  0  0
   -0.3208    2.5387   -0.7129 C   0  0  0  0  0  0  0  0  0  0  0  0
   -0.6215    3.5102   -1.3779 O   0  0  0  0  0  0  0  0  0  0  0  0
   -0.2113    2.8046    0.6201 N   0  0  0  0  0  0  0  0  0  0  0  0
   -0.2449    3.7908    0.8614 H   0  0  0  0  0  0  0  0  0  0  0  0
    0.3520    2.1736    1.1874 H   0  0  0  0  0  0  0  0  0  0  0  0
    0.7954   -0.0557    0.7787 C   0  0  0  0  0  0  0  0  0  0  0  0
    2.0067    0.0644    0.8840 O   0  0  0  0  0  0  0  0  0  0  0  0
    0.0205    0.2359    1.8877 N   0  0  0  0  0  0  0  0  0  0  0  0
   -0.9778    0.0766    1.7835 H   0  0  0  0  0  0  0  0  0  0  0  0
    0.5698    0.3096    3.2373 C   0  0  0  0  0  0  0  0  0  0  0  0
    1.3269    1.0981    3.3039 H   0  0  0  0  0  0  0  0  0  0  0  0
   -0.2238    0.5343    3.9566 H   0  0  0  0  0  0  0  0  0  0  0  0
    1.0301   -0.6447    3.5151 H   0  0  0  0  0  0  0  0  0  0  0  0
  1  2  1  0  0  0  0
  2  3  1  0  0  0  0
  2  4  1  0  0  0  0
  2  5  1  0  0  0  0
  5  6  2  0  0  0  0
  5  7  1  0  0  0  0
  7  8  1  0  0  0  0
  7  9  1  0  0  0  0
  9 10  1  0  0  0  0
  9 11  1  0  0  0  0
  9 19  1  0  0  0  0
 11 12  1  0  0  0  0
 11 13  1  0  0  0  0
 11 14  1  0  0  0  0
 14 15  2  0  0  0  0
 14 16  1  0  0  0  0
 16 17  1  0  0  0  0
 16 18  1  0  0  0  0
 19 20  2  0  0  0  0
 19 21  1  0  0  0  0
 21 22  1  0  0  0  0
 21 23  1  0  0  0  0
 23 24  1  0  0  0  0
 23 25  1  0  0  0  0
 23 26  1  0  0  0  0
M  END
$$$$

  -OEChem-03222214023D

 26 25  0     1  0  0  0  0  0999 V2000
   -2.6465   -3.8059   -0.4108 H   0  0  0  0  0  0  0  0  0  0  0  0
   -2.6719   -2.7494   -0.6930 C   0  0  0  0  0  0  0  0  0  0  0  0
   -3.4359   -2.2447   -0.0967 H   0  0  0  0  0  0  0  0  0  0  0  0
   -2.9361   -2.6755   -1.7507 H   0  0  0  0  0  0  0  0  0  0  0  0
   -1.3165   -2.1119   -0.4503 C   0  0  0  0  0  0  0  0  0  0  0  0
   -0.4095   -2.7696    0.0276 O   0  0  0  0  0  0  0  0  0  0  0  0
   -1.1138   -0.7813   -0.7627 N   0  0  0  0  0  0  0  0  0  0  0  0
   -1.8877   -0.2898   -1.2031 H   0  0  0  0  0  0  0  0  0  0  0  0
    0.1836   -0.0897   -0.6504 C   0  0  1  0  0  0  0  0  0  0  0  0
    0.8944   -0.7023   -1.2183 H   0  0  0  0  0  0  0  0  0  0  0  0
    0.1246    1.2656   -1.3943 C   0  0  0  0  0  0  0  0  0  0  0  0
    1.1350    1.4864   -1.7504 H   0  0  0  0  0  0  0  0  0  0  0  0
   -0.5120    1.1670   -2.2782 H   0  0  0  0  0  0  0  0  0  0  0  0
   -0.3227    2.4946   -0.6072 C   0  0  0  0  0  0  0  0  0  0  0  0
   -0.9011    3.3966   -1.1808 O   0  0  0  0  0  0  0  0  0  0  0  0
    0.2168    2.8668    0.5895 N   0  0  0  0  0  0  0  0  0  0  0  0
    0.1653    3.8578    0.8048 H   0  0  0  0  0  0  0  0  0  0  0  0
    0.9777    2.3049    0.9701 H   0  0  0  0  0  0  0  0  0  0  0  0
    0.7794   -0.0728    0.7759 C   0  0  0  0  0  0  0  0  0  0  0  0
    1.9856    0.0858    0.8993 O   0  0  0  0  0  0  0  0  0  0  0  0
   -0.0195    0.2214    1.8667 N   0  0  0  0  0  0  0  0  0  0  0  0
   -1.0187    0.0909    1.7415 H   0  0  0  0  0  0  0  0  0  0  0  0
    0.4998    0.3614    3.2224 C   0  0  0  0  0  0  0  0  0  0  0  0
    1.2246    1.1805    3.2750 H   0  0  0  0  0  0  0  0  0  0  0  0
   -0.3157    0.5796    3.9186 H   0  0  0  0  0  0  0  0  0  0  0  0
    0.9904   -0.5644    3.5413 H   0  0  0  0  0  0  0  0  0  0  0  0
  1  2  1  0  0  0  0
  2  3  1  0  0  0  0
  2  4  1  0  0  0  0
  2  5  1  0  0  0  0
  5  6  2  0  0  0  0
  5  7  1  0  0  0  0
  7  8  1  0  0  0  0
  7  9  1  0  0  0  0
  9 10  1  0  0  0  0
  9 11  1  0  0  0  0
  9 19  1  0  0  0  0
 11 12  1  0  0  0  0
 11 13  1  0  0  0  0
 11 14  1  0  0  0  0
 14 15  2  0  0  0  0
 14 16  1  0  0  0  0
 16 17  1  0  0  0  0
 16 18  1  0  0  0  0
 19 20  2  0  0  0  0
 19 21  1  0  0  0  0
 21 22  1  0  0  0  0
 21 23  1  0  0  0  0
 23 24  1  0  0  0  0
 23 25  1  0  0  0  0
 23 26  1  0  0  0  0
M  END
$$$$

  -OEChem-03222214023D

 26 25  0     1  0  0  0  0  0999 V2000
   -2.6803   -3.7537   -0.3554 H   0  0  0  0  0  0  0  0  0  0  0  0
   -2.6847   -2.7039   -0.6625 C   0  0  0  0  0  0  0  0  0  0  0  0
   -3.4408   -2.1705   -0.0812 H   0  0  0  0  0  0  0  0  0  0  0  0
   -2.9445   -2.6501   -1.7226 H   0  0  0  0  0  0  0  0  0  0  0  0
   -1.3186   -2.0859   -0.4301 C   0  0  0  0  0  0  0  0  0  0  0  0
   -0.4280   -2.7452    0.0756 O   0  0  0  0  0  0  0  0  0  0  0  0
   -1.0879   -0.7696   -0.7807 N   0  0  0  0  0  0  0  0  0  0  0  0
   -1.8496   -0.2761   -1.2403 H   0  0  0  0  0  0  0  0  0  0  0  0
    0.2227   -0.1007   -0.6850 C   0  0  1  0  0  0  0  0  0  0  0  0
    0.9264   -0.7246   -1.2488 H   0  0  0  0  0  0  0  0  0  0  0  0
    0.1625    1.2562   -1.4224 C   0  0  0  0  0  0  0  0  0  0  0  0
    1.1659    1.4769   -1.7976 H   0  0  0  0  0  0  0  0  0  0  0  0
   -0.4955    1.1767   -2.2922 H   0  0  0  0  0  0  0  0  0  0  0  0
   -0.2606    2.4587   -0.5859 C   0  0  0  0  0  0  0  0  0  0  0  0
   -1.0748    3.2498   -1.0209 O   0  0  0  0  0  0  0  0  0  0  0  0
    0.4964    2.9297    0.4491 N   0  0  0  0  0  0  0  0  0  0  0  0
    0.1672    3.7640    0.9245 H   0  0  0  0  0  0  0  0  0  0  0  0
    1.1789    2.3128    0.8893 H   0  0  0  0  0  0  0  0  0  0  0  0
    0.8093   -0.0570    0.7446 C   0  0  0  0  0  0  0  0  0  0  0  0
    2.0164    0.0877    0.8762 O   0  0  0  0  0  0  0  0  0  0  0  0
    0.0023    0.2850    1.8158 N   0  0  0  0  0  0  0  0  0  0  0  0
   -0.9941    0.1337    1.6885 H   0  0  0  0  0  0  0  0  0  0  0  0
    0.5101    0.4415    3.1742 C   0  0  0  0  0  0  0  0  0  0  0  0
    1.2530    1.2447    3.2186 H   0  0  0  0  0  0  0  0  0  0  0  0
   -0.3078    0.6931    3.8561 H   0  0  0  0  0  0  0  0  0  0  0  0
    0.9755   -0.4884    3.5181 H   0  0  0  0  0  0  0  0  0  0  0  0
  1  2  1  0  0  0  0
  2  3  1  0  0  0  0
  2  4  1  0  0  0  0
  2  5  1  0  0  0  0
  5  6  2  0  0  0  0
  5  7  1  0  0  0  0
  7  8  1  0  0  0  0
  7  9  1  0  0  0  0
  9 10  1  0  0  0  0
  9 11  1  0  0  0  0
  9 19  1  0  0  0  0
 11 12  1  0  0  0  0
 11 13  1  0  0  0  0
 11 14  1  0  0  0  0
 14 15  2  0  0  0  0
 14 16  1  0  0  0  0
 16 17  1  0  0  0  0
 16 18  1  0  0  0  0
 19 20  2  0  0  0  0
 19 21  1  0  0  0  0
 21 22  1  0  0  0  0
 21 23  1  0  0  0  0
 23 24  1  0  0  0  0
 23 25  1  0  0  0  0
 23 26  1  0  0  0  0
M  END
$$$$

  -OEChem-03222214023D

 26 25  0     1  0  0  0  0  0999 V2000
   -2.6891   -3.7196   -0.3102 H   0  0  0  0  0  0  0  0  0  0  0  0
   -2.6862   -2.6729   -0.6277 C   0  0  0  0  0  0  0  0  0  0  0  0
   -3.4164   -2.1219   -0.0302 H   0  0  0  0  0  0  0  0  0  0  0  0
   -2.9754   -2.6252   -1.6803 H   0  0  0  0  0  0  0  0  0  0  0  0
   -1.3048   -2.0742   -0.4408 C   0  0  0  0  0  0  0  0  0  0  0  0
   -0.4102   -2.7420    0.0470 O   0  0  0  0  0  0  0  0  0  0  0  0
   -1.0648   -0.7644   -0.8083 N   0  0  0  0  0  0  0  0  0  0  0  0
   -1.8384   -0.2510   -1.2250 H   0  0  0  0  0  0  0  0  0  0  0  0
    0.2471   -0.0999   -0.7126 C   0  0  1  0  0  0  0  0  0  0  0  0
    0.9525   -0.7290   -1.2688 H   0  0  0  0  0  0  0  0  0  0  0  0
    0.1943    1.2552   -1.4494 C   0  0  0  0  0  0  0  0  0  0  0  0
    1.1967    1.4777   -1.8258 H   0  0  0  0  0  0  0  0  0  0  0  0
   -0.4670    1.1866   -2.3180 H   0  0  0  0  0  0  0  0  0  0  0  0
   -0.2276    2.4358   -0.5852 C   0  0  0  0  0  0  0  0  0  0  0  0
   -1.2207    3.0812   -0.8606 O   0  0  0  0  0  0  0  0  0  0  0  0
    0.6111    2.9890    0.3405 N   0  0  0  0  0  0  0  0  0  0  0  0
    0.2271    3.7394    0.9059 H   0  0  0  0  0  0  0  0  0  0  0  0
    1.3729    2.4159    0.7030 H   0  0  0  0  0  0  0  0  0  0  0  0
    0.8249   -0.0370    0.7200 C   0  0  0  0  0  0  0  0  0  0  0  0
    2.0323    0.1043    0.8552 O   0  0  0  0  0  0  0  0  0  0  0  0
    0.0125    0.3246    1.7806 N   0  0  0  0  0  0  0  0  0  0  0  0
   -0.9858    0.1939    1.6458 H   0  0  0  0  0  0  0  0  0  0  0  0
    0.5114    0.5069    3.1387 C   0  0  0  0  0  0  0  0  0  0  0  0
    1.2598    1.3054    3.1712 H   0  0  0  0  0  0  0  0  0  0  0  0
   -0.3096    0.7785    3.8090 H   0  0  0  0  0  0  0  0  0  0  0  0
    0.9676   -0.4187    3.5054 H   0  0  0  0  0  0  0  0  0  0  0  0
  1  2  1  0  0  0  0
  2  3  1  0  0  0  0
  2  4  1  0  0  0  0
  2  5  1  0  0  0  0
  5  6  2  0  0  0  0
  5  7  1  0  0  0  0
  7  8  1  0  0  0  0
  7  9  1  0  0  0  0
  9 10  1  0  0  0  0
  9 11  1  0  0  0  0
  9 19  1  0  0  0  0
 11 12  1  0  0  0  0
 11 13  1  0  0  0  0
 11 14  1  0  0  0  0
 14 15  2  0  0  0  0
 14 16  1  0  0  0  0
 16 17  1  0  0  0  0
 16 18  1  0  0  0  0
 19 20  2  0  0  0  0
 19 21  1  0  0  0  0
 21 22  1  0  0  0  0
 21 23  1  0  0  0  0
 23 24  1  0  0  0  0
 23 25  1  0  0  0  0
 23 26  1  0  0  0  0
M  END
$$$$

  -OEChem-03222214023D

 26 25  0     1  0  0  0  0  0999 V2000
   -2.6924   -3.6948   -0.2786 H   0  0  0  0  0  0  0  0  0  0  0  0
   -2.6851   -2.6510   -0.6056 C   0  0  0  0  0  0  0  0  0  0  0  0
   -3.3951   -2.0860    0.0033 H   0  0  0  0  0  0  0  0  0  0  0  0
   -2.9975   -2.6092   -1.6519 H   0  0  0  0  0  0  0  0  0  0  0  0
   -1.2929   -2.0670   -0.4567 C   0  0  0  0  0  0  0  0  0  0  0  0
   -0.3918   -2.7437    0.0063 O   0  0  0  0  0  0  0  0  0  0  0  0
   -1.0483   -0.7620   -0.8366 N   0  0  0  0  0  0  0  0  0  0  0  0
   -1.8345   -0.2284   -1.2013 H   0  0  0  0  0  0  0  0  0  0  0  0
    0.2633   -0.0990   -0.7379 C   0  0  1  0  0  0  0  0  0  0  0  0
    0.9712   -0.7312   -1.2872 H   0  0  0  0  0  0  0  0  0  0  0  0
    0.2116    1.2519   -1.4788 C   0  0  0  0  0  0  0  0  0  0  0  0
    1.2127    1.4788   -1.8561 H   0  0  0  0  0  0  0  0  0  0  0  0
   -0.4519    1.1861   -2.3456 H   0  0  0  0  0  0  0  0  0  0  0  0
   -0.2168    2.4167   -0.5991 C   0  0  0  0  0  0  0  0  0  0  0  0
   -1.3340    2.8884   -0.6931 O   0  0  0  0  0  0  0  0  0  0  0  0
    0.6599    3.0580    0.2293 N   0  0  0  0  0  0  0  0  0  0  0  0
    0.2517    3.7347    0.8665 H   0  0  0  0  0  0  0  0  0  0  0  0
    1.5030    2.5552    0.5037 H   0  0  0  0  0  0  0  0  0  0  0  0
    0.8377   -0.0167    0.6951 C   0  0  0  0  0  0  0  0  0  0  0  0
    2.0469    0.1096    0.8316 O   0  0  0  0  0  0  0  0  0  0  0  0
    0.0245    0.3606    1.7494 N   0  0  0  0  0  0  0  0  0  0  0  0
   -0.9773    0.2755    1.6037 H   0  0  0  0  0  0  0  0  0  0  0  0
    0.5189    0.5812    3.1030 C   0  0  0  0  0  0  0  0  0  0  0  0
    1.2624    1.3849    3.1154 H   0  0  0  0  0  0  0  0  0  0  0  0
   -0.3052    0.8653    3.7644 H   0  0  0  0  0  0  0  0  0  0  0  0
    0.9798   -0.3318    3.4946 H   0  0  0  0  0  0  0  0  0  0  0  0
  1  2  1  0  0  0  0
  2  3  1  0  0  0  0
  2  4  1  0  0  0  0
  2  5  1  0  0  0  0
  5  6  2  0  0  0  0
  5  7  1  0  0  0  0
  7  8  1  0  0  0  0
  7  9  1  0  0  0  0
  9 10  1  0  0  0  0
  9 11  1  0  0  0  0
  9 19  1  0  0  0  0
 11 12  1  0  0  0  0
 11 13  1  0  0  0  0
 11 14  1  0  0  0  0
 14 15  2  0  0  0  0
 14 16  1  0  0  0  0
 16 17  1  0  0  0  0
 16 18  1  0  0  0  0
 19 20  2  0  0  0  0
 19 21  1  0  0  0  0
 21 22  1  0  0  0  0
 21 23  1  0  0  0  0
 23 24  1  0  0  0  0
 23 25  1  0  0  0  0
 23 26  1  0  0  0  0
M  END
$$$$

  -OEChem-03222214023D

 26 25  0     1  0  0  0  0  0999 V2000
   -2.6890   -3.6735   -0.2346 H   0  0  0  0  0  0  0  0  0  0  0  0
   -2.6801   -2.6347   -0.5764 C   0  0  0  0  0  0  0  0  0  0  0  0
   -3.3580   -2.0519    0.0520 H   0  0  0  0  0  0  0  0  0  0  0  0
   -3.0331   -2.6020   -1.6100 H   0  0  0  0  0  0  0  0  0  0  0  0
   -1.2751   -2.0687   -0.4906 C   0  0  0  0  0  0  0  0  0  0  0  0
   -0.3615   -2.7593   -0.0742 O   0  0  0  0  0  0  0  0  0  0  0  0
   -1.0326   -0.7654   -0.8768 N   0  0  0  0  0  0  0  0  0  0  0  0
   -1.8355   -0.2076   -1.1607 H   0  0  0  0  0  0  0  0  0  0  0  0
    0.2760   -0.0993   -0.7677 C   0  0  1  0  0  0  0  0  0  0  0  0
    0.9905   -0.7301   -1.3100 H   0  0  0  0  0  0  0  0  0  0  0  0
    0.2201    1.2492   -1.5107 C   0  0  0  0  0  0  0  0  0  0  0  0
    1.2207    1.4850   -1.8838 H   0  0  0  0  0  0  0  0  0  0  0  0
   -0.4414    1.1835   -2.3791 H   0  0  0  0  0  0  0  0  0  0  0  0
   -0.2243    2.3966   -0.6184 C   0  0  0  0  0  0  0  0  0  0  0  0
   -1.4036    2.6776   -0.5145 O   0  0  0  0  0  0  0  0  0  0  0  0
    0.6618    3.1310    0.1166 N   0  0  0  0  0  0  0  0  0  0  0  0
    0.2495    3.7319    0.8236 H   0  0  0  0  0  0  0  0  0  0  0  0
    1.5799    2.7240    0.2847 H   0  0  0  0  0  0  0  0  0  0  0  0
    0.8410   -0.0030    0.6686 C   0  0  0  0  0  0  0  0  0  0  0  0
    2.0517    0.0975    0.8150 O   0  0  0  0  0  0  0  0  0  0  0  0
    0.0232    0.3818    1.7164 N   0  0  0  0  0  0  0  0  0  0  0  0
   -0.9782    0.3889    1.5430 H   0  0  0  0  0  0  0  0  0  0  0  0
    0.5105    0.6595    3.0615 C   0  0  0  0  0  0  0  0  0  0  0  0
    1.2229    1.4909    3.0485 H   0  0  0  0  0  0  0  0  0  0  0  0
   -0.3230    0.9298    3.7168 H   0  0  0  0  0  0  0  0  0  0  0  0
    1.0066   -0.2236    3.4778 H   0  0  0  0  0  0  0  0  0  0  0  0
  1  2  1  0  0  0  0
  2  3  1  0  0  0  0
  2  4  1  0  0  0  0
  2  5  1  0  0  0  0
  5  6  2  0  0  0  0
  5  7  1  0  0  0  0
  7  8  1  0  0  0  0
  7  9  1  0  0  0  0
  9 10  1  0  0  0  0
  9 11  1  0  0  0  0
  9 19  1  0  0  0  0
 11 12  1  0  0  0  0
 11 13  1  0  0  0  0
 11 14  1  0  0  0  0
 14 15  2  0  0  0  0
 14 16  1  0  0  0  0
 16 17  1  0  0  0  0
 16 18  1  0  0  0  0
 19 20  2  0  0  0  0
 19 21  1  0  0  0  0
 21 22  1  0  0  0  0
 21 23  1  0  0  0  0
 23 24  1  0  0  0  0
 23 25  1  0  0  0  0
 23 26  1  0  0  0  0
M  END
$$$$

  -OEChem-03222214023D

 26 25  0     1  0  0  0  0  0999 V2000
   -2.6799   -3.6705   -0.2161 H   0  0  0  0  0  0  0  0  0  0  0  0
   -2.6744   -2.6292   -0.5507 C   0  0  0  0  0  0  0  0  0  0  0  0
   -3.3094   -2.0419    0.1171 H   0  0  0  0  0  0  0  0  0  0  0  0
   -3.0809   -2.5832   -1.5639 H   0  0  0  0  0  0  0  0  0  0  0  0
   -1.2590   -2.0831   -0.5350 C   0  0  0  0  0  0  0  0  0  0  0  0
   -0.3329   -2.7932   -0.1832 O   0  0  0  0  0  0  0  0  0  0  0  0
   -1.0220   -0.7781   -0.9187 N   0  0  0  0  0  0  0  0  0  0  0  0
   -1.8382   -0.1988   -1.1054 H   0  0  0  0  0  0  0  0  0  0  0  0
    0.2825   -0.1091   -0.7898 C   0  0  1  0  0  0  0  0  0  0  0  0
    1.0074   -0.7325   -1.3268 H   0  0  0  0  0  0  0  0  0  0  0  0
    0.2185    1.2419   -1.5270 C   0  0  0  0  0  0  0  0  0  0  0  0
    1.2195    1.4901   -1.8903 H   0  0  0  0  0  0  0  0  0  0  0  0
   -0.4372    1.1776   -2.3997 H   0  0  0  0  0  0  0  0  0  0  0  0
   -0.2472    2.3703   -0.6217 C   0  0  0  0  0  0  0  0  0  0  0  0
   -1.4211    2.4617   -0.3100 O   0  0  0  0  0  0  0  0  0  0  0  0
    0.6246    3.2334   -0.0229 N   0  0  0  0  0  0  0  0  0  0  0  0
    0.2395    3.7819    0.7402 H   0  0  0  0  0  0  0  0  0  0  0  0
    1.6064    2.9695    0.0021 H   0  0  0  0  0  0  0  0  0  0  0  0
    0.8309   -0.0095    0.6532 C   0  0  0  0  0  0  0  0  0  0  0  0
    2.0416    0.0508    0.8191 O   0  0  0  0  0  0  0  0  0  0  0  0
    0.0021    0.3747    1.6925 N   0  0  0  0  0  0  0  0  0  0  0  0
   -0.9772    0.5312    1.4660 H   0  0  0  0  0  0  0  0  0  0  0  0
    0.4843    0.7287    3.0212 C   0  0  0  0  0  0  0  0  0  0  0  0
    1.1152    1.6222    2.9749 H   0  0  0  0  0  0  0  0  0  0  0  0
   -0.3597    0.9333    3.6869 H   0  0  0  0  0  0  0  0  0  0  0  0
    1.0677   -0.0941    3.4478 H   0  0  0  0  0  0  0  0  0  0  0  0
  1  2  1  0  0  0  0
  2  3  1  0  0  0  0
  2  4  1  0  0  0  0
  2  5  1  0  0  0  0
  5  6  2  0  0  0  0
  5  7  1  0  0  0  0
  7  8  1  0  0  0  0
  7  9  1  0  0  0  0
  9 10  1  0  0  0  0
  9 11  1  0  0  0  0
  9 19  1  0  0  0  0
 11 12  1  0  0  0  0
 11 13  1  0  0  0  0
 11 14  1  0  0  0  0
 14 15  2  0  0  0  0
 14 16  1  0  0  0  0
 16 17  1  0  0  0  0
 16 18  1  0  0  0  0
 19 20  2  0  0  0  0
 19 21  1  0  0  0  0
 21 22  1  0  0  0  0
 21 23  1  0  0  0  0
 23 24  1  0  0  0  0
 23 25  1  0  0  0  0
 23 26  1  0  0  0  0
M  END
$$$$

  -OEChem-03222214023D

 26 25  0     1  0  0  0  0  0999 V2000
   -2.6526   -3.6958   -0.2186 H   0  0  0  0  0  0  0  0  0  0  0  0
   -2.6622   -2.6490   -0.5355 C   0  0  0  0  0  0  0  0  0  0  0  0
   -3.2720   -2.0747    0.1658 H   0  0  0  0  0  0  0  0  0  0  0  0
   -3.1072   -2.5871   -1.5314 H   0  0  0  0  0  0  0  0  0  0  0  0
   -1.2485   -2.0995   -0.5651 C   0  0  0  0  0  0  0  0  0  0  0  0
   -0.3088   -2.8153   -0.2646 O   0  0  0  0  0  0  0  0  0  0  0  0
   -1.0282   -0.7889   -0.9404 N   0  0  0  0  0  0  0  0  0  0  0  0
   -1.8547   -0.2053   -1.0522 H   0  0  0  0  0  0  0  0  0  0  0  0
    0.2693   -0.1109   -0.7901 C   0  0  1  0  0  0  0  0  0  0  0  0
    1.0036   -0.7286   -1.3211 H   0  0  0  0  0  0  0  0  0  0  0  0
    0.2094    1.2408   -1.5280 C   0  0  0  0  0  0  0  0  0  0  0  0
    1.2163    1.4905   -1.8736 H   0  0  0  0  0  0  0  0  0  0  0  0
   -0.4300    1.1715   -2.4121 H   0  0  0  0  0  0  0  0  0  0  0  0
   -0.2795    2.3722   -0.6367 C   0  0  0  0  0  0  0  0  0  0  0  0
   -1.3850    2.3197   -0.1246 O   0  0  0  0  0  0  0  0  0  0  0  0
    0.5346    3.3945   -0.2427 N   0  0  0  0  0  0  0  0  0  0  0  0
    0.2014    3.9407    0.5463 H   0  0  0  0  0  0  0  0  0  0  0  0
    1.5346    3.2905   -0.3895 H   0  0  0  0  0  0  0  0  0  0  0  0
    0.8071   -0.0119    0.6576 C   0  0  0  0  0  0  0  0  0  0  0  0
    2.0174    0.0080    0.8370 O   0  0  0  0  0  0  0  0  0  0  0  0
   -0.0284    0.3623    1.6951 N   0  0  0  0  0  0  0  0  0  0  0  0
   -0.9728    0.6381    1.4299 H   0  0  0  0  0  0  0  0  0  0  0  0
    0.4593    0.7364    3.0162 C   0  0  0  0  0  0  0  0  0  0  0  0
    1.0629    1.6480    2.9578 H   0  0  0  0  0  0  0  0  0  0  0  0
   -0.3825    0.9179    3.6912 H   0  0  0  0  0  0  0  0  0  0  0  0
    1.0719   -0.0663    3.4400 H   0  0  0  0  0  0  0  0  0  0  0  0
  1  2  1  0  0  0  0
  2  3  1  0  0  0  0
  2  4  1  0  0  0  0
  2  5  1  0  0  0  0
  5  6  2  0  0  0  0
  5  7  1  0  0  0  0
  7  8  1  0  0  0  0
  7  9  1  0  0  0  0
  9 10  1  0  0  0  0
  9 11  1  0  0  0  0
  9 19  1  0  0  0  0
 11 12  1  0  0  0  0
 11 13  1  0  0  0  0
 11 14  1  0  0  0  0
 14 15  2  0  0  0  0
 14 16  1  0  0  0  0
 16 17  1  0  0  0  0
 16 18  1  0  0  0  0
 19 20  2  0  0  0  0
 19 21  1  0  0  0  0
 21 22  1  0  0  0  0
 21 23  1  0  0  0  0
 23 24  1  0  0  0  0
 23 25  1  0  0  0  0
 23 26  1  0  0  0  0
M  END
$$$$

  -OEChem-03222214023D

 26 25  0     1  0  0  0  0  0999 V2000
   -2.6308   -3.7239   -0.2460 H   0  0  0  0  0  0  0  0  0  0  0  0
   -2.6540   -2.6716   -0.5432 C   0  0  0  0  0  0  0  0  0  0  0  0
   -3.2567   -2.1156    0.1789 H   0  0  0  0  0  0  0  0  0  0  0  0
   -3.1160   -2.5951   -1.5304 H   0  0  0  0  0  0  0  0  0  0  0  0
   -1.2451   -2.1104   -0.5847 C   0  0  0  0  0  0  0  0  0  0  0  0
   -0.2959   -2.8268   -0.3174 O   0  0  0  0  0  0  0  0  0  0  0  0
   -1.0408   -0.7902   -0.9351 N   0  0  0  0  0  0  0  0  0  0  0  0
   -1.8749   -0.2122   -1.0090 H   0  0  0  0  0  0  0  0  0  0  0  0
    0.2477   -0.1014   -0.7577 C   0  0  1  0  0  0  0  0  0  0  0  0
    0.9891   -0.7175   -1.2808 H   0  0  0  0  0  0  0  0  0  0  0  0
    0.2048    1.2450   -1.5087 C   0  0  0  0  0  0  0  0  0  0  0  0
    1.2233    1.4878   -1.8239 H   0  0  0  0  0  0  0  0  0  0  0  0
   -0.4036    1.1593   -2.4130 H   0  0  0  0  0  0  0  0  0  0  0  0
   -0.3118    2.4028   -0.6645 C   0  0  0  0  0  0  0  0  0  0  0  0
   -1.3039    2.2802    0.0347 O   0  0  0  0  0  0  0  0  0  0  0  0
    0.3569    3.5888   -0.5685 N   0  0  0  0  0  0  0  0  0  0  0  0
    0.0644    4.1992    0.1894 H   0  0  0  0  0  0  0  0  0  0  0  0
    1.3140    3.6310   -0.9052 H   0  0  0  0  0  0  0  0  0  0  0  0
    0.7853   -0.0135    0.6915 C   0  0  0  0  0  0  0  0  0  0  0  0
    1.9954   -0.0357    0.8733 O   0  0  0  0  0  0  0  0  0  0  0  0
   -0.0436    0.3370    1.7415 N   0  0  0  0  0  0  0  0  0  0  0  0
   -0.9606    0.6928    1.4720 H   0  0  0  0  0  0  0  0  0  0  0  0
    0.4587    0.6679    3.0688 C   0  0  0  0  0  0  0  0  0  0  0  0
    1.0714    1.5745    3.0313 H   0  0  0  0  0  0  0  0  0  0  0  0
   -0.3756    0.8383    3.7558 H   0  0  0  0  0  0  0  0  0  0  0  0
    1.0667   -0.1527    3.4645 H   0  0  0  0  0  0  0  0  0  0  0  0
  1  2  1  0  0  0  0
  2  3  1  0  0  0  0
  2  4  1  0  0  0  0
  2  5  1  0  0  0  0
  5  6  2  0  0  0  0
  5  7  1  0  0  0  0
  7  8  1  0  0  0  0
  7  9  1  0  0  0  0
  9 10  1  0  0  0  0
  9 11  1  0  0  0  0
  9 19  1  0  0  0  0
 11 12  1  0  0  0  0
 11 13  1  0  0  0  0
 11 14  1  0  0  0  0
 14 15  2  0  0  0  0
 14 16  1  0  0  0  0
 16 17  1  0  0  0  0
 16 18  1  0  0  0  0
 19 20  2  0  0  0  0
 19 21  1  0  0  0  0
 21 22  1  0  0  0  0
 21 23  1  0  0  0  0
 23 24  1  0  0  0  0
 23 25  1  0  0  0  0
 23 26  1  0  0  0  0
M  END
$$$$

  -OEChem-03222214023D

 26 25  0     1  0  0  0  0  0999 V2000
   -2.6109   -3.7458   -0.2826 H   0  0  0  0  0  0  0  0  0  0  0  0
   -2.6455   -2.6900   -0.5659 C   0  0  0  0  0  0  0  0  0  0  0  0
   -3.2581   -2.1511    0.1609 H   0  0  0  0  0  0  0  0  0  0  0  0
   -3.1040   -2.6059   -1.5539 H   0  0  0  0  0  0  0  0  0  0  0  0
   -1.2431   -2.1115   -0.5944 C   0  0  0  0  0  0  0  0  0  0  0  0
   -0.2856   -2.8260   -0.3524 O   0  0  0  0  0  0  0  0  0  0  0  0
   -1.0560   -0.7799   -0.9106 N   0  0  0  0  0  0  0  0  0  0  0  0
   -1.8979   -0.2115   -0.9603 H   0  0  0  0  0  0  0  0  0  0  0  0
    0.2241   -0.0806   -0.7132 C   0  0  1  0  0  0  0  0  0  0  0  0
    0.9679   -0.6932   -1.2373 H   0  0  0  0  0  0  0  0  0  0  0  0
    0.1948    1.2616   -1.4752 C   0  0  0  0  0  0  0  0  0  0  0  0
    1.2227    1.4982   -1.7632 H   0  0  0  0  0  0  0  0  0  0  0  0
   -0.3859    1.1586   -2.3957 H   0  0  0  0  0  0  0  0  0  0  0  0
   -0.3404    2.4492   -0.6825 C   0  0  0  0  0  0  0  0  0  0  0  0
   -1.1773    2.3245    0.1950 O   0  0  0  0  0  0  0  0  0  0  0  0
    0.1139    3.7182   -0.8987 N   0  0  0  0  0  0  0  0  0  0  0  0
   -0.1467    4.4067   -0.1983 H   0  0  0  0  0  0  0  0  0  0  0  0
    0.9654    3.8444   -1.4366 H   0  0  0  0  0  0  0  0  0  0  0  0
    0.7719   -0.0159    0.7341 C   0  0  0  0  0  0  0  0  0  0  0  0
    1.9827   -0.0681    0.9066 O   0  0  0  0  0  0  0  0  0  0  0  0
   -0.0461    0.3005    1.8028 N   0  0  0  0  0  0  0  0  0  0  0  0
   -0.9422    0.7140    1.5453 H   0  0  0  0  0  0  0  0  0  0  0  0
    0.4748    0.5821    3.1343 C   0  0  0  0  0  0  0  0  0  0  0  0
    1.0887    1.4886    3.1221 H   0  0  0  0  0  0  0  0  0  0  0  0
   -0.3503    0.7284    3.8379 H   0  0  0  0  0  0  0  0  0  0  0  0
    1.0861   -0.2535    3.4916 H   0  0  0  0  0  0  0  0  0  0  0  0
  1  2  1  0  0  0  0
  2  3  1  0  0  0  0
  2  4  1  0  0  0  0
  2  5  1  0  0  0  0
  5  6  2  0  0  0  0
  5  7  1  0  0  0  0
  7  8  1  0  0  0  0
  7  9  1  0  0  0  0
  9 10  1  0  0  0  0
  9 11  1  0  0  0  0
  9 19  1  0  0  0  0
 11 12  1  0  0  0  0
 11 13  1  0  0  0  0
 11 14  1  0  0  0  0
 14 15  2  0  0  0  0
 14 16  1  0  0  0  0
 16 17  1  0  0  0  0
 16 18  1  0  0  0  0
 19 20  2  0  0  0  0
 19 21  1  0  0  0  0
 21 22  1  0  0  0  0
 21 23  1  0  0  0  0
 23 24  1  0  0  0  0
 23 25  1  0  0  0  0
 23 26  1  0  0  0  0
M  END
$$$$

  -OEChem-03222214023D

 26 25  0     1  0  0  0  0  0999 V2000
   -2.5852   -3.7528   -0.2953 H   0  0  0  0  0  0  0  0  0  0  0  0
   -2.6310   -2.6952   -0.5704 C   0  0  0  0  0  0  0  0  0  0  0  0
   -3.2383   -2.1666    0.1683 H   0  0  0  0  0  0  0  0  0  0  0  0
   -3.1020   -2.6066   -1.5522 H   0  0  0  0  0  0  0  0  0  0  0  0
   -1.2334   -2.1058   -0.6102 C   0  0  0  0  0  0  0  0  0  0  0  0
   -0.2668   -2.8188   -0.4035 O   0  0  0  0  0  0  0  0  0  0  0  0
   -1.0638   -0.7644   -0.8937 N   0  0  0  0  0  0  0  0  0  0  0  0
   -1.9132   -0.2070   -0.9226 H   0  0  0  0  0  0  0  0  0  0  0  0
    0.2076   -0.0540   -0.6802 C   0  0  1  0  0  0  0  0  0  0  0  0
    0.9556   -0.6597   -1.2070 H   0  0  0  0  0  0  0  0  0  0  0  0
    0.1806    1.2861   -1.4493 C   0  0  0  0  0  0  0  0  0  0  0  0
    1.2125    1.5259   -1.7204 H   0  0  0  0  0  0  0  0  0  0  0  0
   -0.3805    1.1660   -2.3796 H   0  0  0  0  0  0  0  0  0  0  0  0
   -0.3717    2.4932   -0.6968 C   0  0  0  0  0  0  0  0  0  0  0  0
   -1.0178    2.4080    0.3315 O   0  0  0  0  0  0  0  0  0  0  0  0
   -0.1706    3.7626   -1.1562 N   0  0  0  0  0  0  0  0  0  0  0  0
   -0.4071    4.5093   -0.5086 H   0  0  0  0  0  0  0  0  0  0  0  0
    0.5315    3.9176   -1.8726 H   0  0  0  0  0  0  0  0  0  0  0  0
    0.7622   -0.0143    0.7665 C   0  0  0  0  0  0  0  0  0  0  0  0
    1.9723   -0.0978    0.9332 O   0  0  0  0  0  0  0  0  0  0  0  0
   -0.0485    0.2664    1.8507 N   0  0  0  0  0  0  0  0  0  0  0  0
   -0.9257    0.7267    1.6098 H   0  0  0  0  0  0  0  0  0  0  0  0
    0.4887    0.4993    3.1853 C   0  0  0  0  0  0  0  0  0  0  0  0
    1.1249    1.3903    3.1923 H   0  0  0  0  0  0  0  0  0  0  0  0
   -0.3268    0.6472    3.8995 H   0  0  0  0  0  0  0  0  0  0  0  0
    1.0819   -0.3602    3.5148 H   0  0  0  0  0  0  0  0  0  0  0  0
  1  2  1  0  0  0  0
  2  3  1  0  0  0  0
  2  4  1  0  0  0  0
  2  5  1  0  0  0  0
  5  6  2  0  0  0  0
  5  7  1  0  0  0  0
  7  8  1  0  0  0  0
  7  9  1  0  0  0  0
  9 10  1  0  0  0  0
  9 11  1  0  0  0  0
  9 19  1  0  0  0  0
 11 12  1  0  0  0  0
 11 13  1  0  0  0  0
 11 14  1  0  0  0  0
 14 15  2  0  0  0  0
 14 16  1  0  0  0  0
 16 17  1  0  0  0  0
 16 18  1  0  0  0  0
 19 20  2  0  0  0  0
 19 21  1  0  0  0  0
 21 22  1  0  0  0  0
 21 23  1  0  0  0  0
 23 24  1  0  0  0  0
 23 25  1  0  0  0  0
 23 26  1  0  0  0  0
M  END
$$$$

  -OEChem-03222214023D

 26 25  0     1  0  0  0  0  0999 V2000
   -2.5639   -3.7652   -0.3128 H   0  0  0  0  0  0  0  0  0  0  0  0
   -2.6217   -2.7044   -0.5729 C   0  0  0  0  0  0  0  0  0  0  0  0
   -3.2352   -2.1931    0.1727 H   0  0  0  0  0  0  0  0  0  0  0  0
   -3.0935   -2.6075   -1.5536 H   0  0  0  0  0  0  0  0  0  0  0  0
   -1.2309   -2.0990   -0.6043 C   0  0  0  0  0  0  0  0  0  0  0  0
   -0.2564   -2.8054   -0.4136 O   0  0  0  0  0  0  0  0  0  0  0  0
   -1.0772   -0.7515   -0.8690 N   0  0  0  0  0  0  0  0  0  0  0  0
   -1.9335   -0.2050   -0.8899 H   0  0  0  0  0  0  0  0  0  0  0  0
    0.1897   -0.0304   -0.6579 C   0  0  1  0  0  0  0  0  0  0  0  0
    0.9377   -0.6289   -1.1930 H   0  0  0  0  0  0  0  0  0  0  0  0
    0.1535    1.3080   -1.4314 C   0  0  0  0  0  0  0  0  0  0  0  0
    1.1842    1.5524   -1.7038 H   0  0  0  0  0  0  0  0  0  0  0  0
   -0.4050    1.1730   -2.3614 H   0  0  0  0  0  0  0  0  0  0  0  0
   -0.4037    2.5280   -0.7020 C   0  0  0  0  0  0  0  0  0  0  0  0
   -0.8225    2.5185    0.4394 O   0  0  0  0  0  0  0  0  0  0  0  0
   -0.4609    3.7417   -1.3239 N   0  0  0  0  0  0  0  0  0  0  0  0
   -0.6618    4.5353   -0.7215 H   0  0  0  0  0  0  0  0  0  0  0  0
    0.0717    3.8777   -2.1768 H   0  0  0  0  0  0  0  0  0  0  0  0
    0.7586   -0.0068    0.7841 C   0  0  0  0  0  0  0  0  0  0  0  0
    1.9681   -0.1171    0.9396 O   0  0  0  0  0  0  0  0  0  0  0  0
   -0.0433    0.2491    1.8815 N   0  0  0  0  0  0  0  0  0  0  0  0
   -0.9028    0.7489    1.6596 H   0  0  0  0  0  0  0  0  0  0  0  0
    0.5095    0.4338    3.2173 C   0  0  0  0  0  0  0  0  0  0  0  0
    1.1416    1.3272    3.2496 H   0  0  0  0  0  0  0  0  0  0  0  0
   -0.2976    0.5503    3.9466 H   0  0  0  0  0  0  0  0  0  0  0  0
    1.1105   -0.4345    3.5074 H   0  0  0  0  0  0  0  0  0  0  0  0
  1  2  1  0  0  0  0
  2  3  1  0  0  0  0
  2  4  1  0  0  0  0
  2  5  1  0  0  0  0
  5  6  2  0  0  0  0
  5  7  1  0  0  0  0
  7  8  1  0  0  0  0
  7  9  1  0  0  0  0
  9 10  1  0  0  0  0
  9 11  1  0  0  0  0
  9 19  1  0  0  0  0
 11 12  1  0  0  0  0
 11 13  1  0  0  0  0
 11 14  1  0  0  0  0
 14 15  2  0  0  0  0
 14 16  1  0  0  0  0
 16 17  1  0  0  0  0
 16 18  1  0  0  0  0
 19 20  2  0  0  0  0
 19 21  1  0  0  0  0
 21 22  1  0  0  0  0
 21 23  1  0  0  0  0
 23 24  1  0  0  0  0
 23 25  1  0  0  0  0
 23 26  1  0  0  0  0
M  END
$$$$

  -OEChem-03222214023D

 26 25  0     1  0  0  0  0  0999 V2000
   -2.5529   -3.7731   -0.3229 H   0  0  0  0  0  0  0  0  0  0  0  0
   -2.6182   -2.7080   -0.5630 C   0  0  0  0  0  0  0  0  0  0  0  0
   -3.2275   -2.2142    0.1976 H   0  0  0  0  0  0  0  0  0  0  0  0
   -3.0994   -2.5960   -1.5375 H   0  0  0  0  0  0  0  0  0  0  0  0
   -1.2307   -2.0949   -0.5957 C   0  0  0  0  0  0  0  0  0  0  0  0
   -0.2532   -2.7991   -0.4144 O   0  0  0  0  0  0  0  0  0  0  0  0
   -1.0835   -0.7449   -0.8525 N   0  0  0  0  0  0  0  0  0  0  0  0
   -1.9418   -0.2026   -0.8789 H   0  0  0  0  0  0  0  0  0  0  0  0
    0.1839   -0.0210   -0.6493 C   0  0  1  0  0  0  0  0  0  0  0  0
    0.9292   -0.6144   -1.1937 H   0  0  0  0  0  0  0  0  0  0  0  0
    0.1353    1.3202   -1.4198 C   0  0  0  0  0  0  0  0  0  0  0  0
    1.1617    1.5707   -1.7025 H   0  0  0  0  0  0  0  0  0  0  0  0
   -0.4299    1.1802   -2.3450 H   0  0  0  0  0  0  0  0  0  0  0  0
   -0.4184    2.5426   -0.6907 C   0  0  0  0  0  0  0  0  0  0  0  0
   -0.5890    2.6251    0.5088 O   0  0  0  0  0  0  0  0  0  0  0  0
   -0.7562    3.6667   -1.3875 N   0  0  0  0  0  0  0  0  0  0  0  0
   -0.9245    4.4956   -0.8235 H   0  0  0  0  0  0  0  0  0  0  0  0
   -0.4251    3.7652   -2.3417 H   0  0  0  0  0  0  0  0  0  0  0  0
    0.7612   -0.0100    0.7896 C   0  0  0  0  0  0  0  0  0  0  0  0
    1.9687   -0.1469    0.9397 O   0  0  0  0  0  0  0  0  0  0  0  0
   -0.0367    0.2340    1.8931 N   0  0  0  0  0  0  0  0  0  0  0  0
   -0.8897    0.7474    1.6831 H   0  0  0  0  0  0  0  0  0  0  0  0
    0.5252    0.3993    3.2277 C   0  0  0  0  0  0  0  0  0  0  0  0
    1.1594    1.2910    3.2678 H   0  0  0  0  0  0  0  0  0  0  0  0
   -0.2769    0.5081    3.9637 H   0  0  0  0  0  0  0  0  0  0  0  0
    1.1263   -0.4740    3.5024 H   0  0  0  0  0  0  0  0  0  0  0  0
  1  2  1  0  0  0  0
  2  3  1  0  0  0  0
  2  4  1  0  0  0  0
  2  5  1  0  0  0  0
  5  6  2  0  0  0  0
  5  7  1  0  0  0  0
  7  8  1  0  0  0  0
  7  9  1  0  0  0  0
  9 10  1  0  0  0  0
  9 11  1  0  0  0  0
  9 19  1  0  0  0  0
 11 12  1  0  0  0  0
 11 13  1  0  0  0  0
 11 14  1  0  0  0  0
 14 15  2  0  0  0  0
 14 16  1  0  0  0  0
 16 17  1  0  0  0  0
 16 18  1  0  0  0  0
 19 20  2  0  0  0  0
 19 21  1  0  0  0  0
 21 22  1  0  0  0  0
 21 23  1  0  0  0  0
 23 24  1  0  0  0  0
 23 25  1  0  0  0  0
 23 26  1  0  0  0  0
M  END
$$$$

  -OEChem-03222214023D

 26 25  0     1  0  0  0  0  0999 V2000
   -2.5614   -3.7640   -0.2997 H   0  0  0  0  0  0  0  0  0  0  0  0
   -2.6216   -2.7020   -0.5546 C   0  0  0  0  0  0  0  0  0  0  0  0
   -3.2371   -2.1967    0.1934 H   0  0  0  0  0  0  0  0  0  0  0  0
   -3.0927   -2.6016   -1.5353 H   0  0  0  0  0  0  0  0  0  0  0  0
   -1.2321   -2.0932   -0.5823 C   0  0  0  0  0  0  0  0  0  0  0  0
   -0.2574   -2.7996   -0.3964 O   0  0  0  0  0  0  0  0  0  0  0  0
   -1.0801   -0.7443   -0.8428 N   0  0  0  0  0  0  0  0  0  0  0  0
   -1.9365   -0.2008   -0.8863 H   0  0  0  0  0  0  0  0  0  0  0  0
    0.1911   -0.0236   -0.6493 C   0  0  1  0  0  0  0  0  0  0  0  0
    0.9337   -0.6147   -1.1997 H   0  0  0  0  0  0  0  0  0  0  0  0
    0.1299    1.3199   -1.4146 C   0  0  0  0  0  0  0  0  0  0  0  0
    1.1515    1.5760   -1.7095 H   0  0  0  0  0  0  0  0  0  0  0  0
   -0.4450    1.1799   -2.3337 H   0  0  0  0  0  0  0  0  0  0  0  0
   -0.4168    2.5365   -0.6706 C   0  0  0  0  0  0  0  0  0  0  0  0
   -0.3358    2.7220    0.5258 O   0  0  0  0  0  0  0  0  0  0  0  0
   -1.0501    3.5352   -1.3526 N   0  0  0  0  0  0  0  0  0  0  0  0
   -1.1994    4.3919   -0.8261 H   0  0  0  0  0  0  0  0  0  0  0  0
   -0.9388    3.5791   -2.3602 H   0  0  0  0  0  0  0  0  0  0  0  0
    0.7709   -0.0153    0.7884 C   0  0  0  0  0  0  0  0  0  0  0  0
    1.9755   -0.1754    0.9384 O   0  0  0  0  0  0  0  0  0  0  0  0
   -0.0254    0.2321    1.8930 N   0  0  0  0  0  0  0  0  0  0  0  0
   -0.8853    0.7336    1.6902 H   0  0  0  0  0  0  0  0  0  0  0  0
    0.5408    0.3927    3.2266 C   0  0  0  0  0  0  0  0  0  0  0  0
    1.1868    1.2761    3.2635 H   0  0  0  0  0  0  0  0  0  0  0  0
   -0.2580    0.5135    3.9643 H   0  0  0  0  0  0  0  0  0  0  0  0
    1.1310   -0.4879    3.5016 H   0  0  0  0  0  0  0  0  0  0  0  0
  1  2  1  0  0  0  0
  2  3  1  0  0  0  0
  2  4  1  0  0  0  0
  2  5  1  0  0  0  0
  5  6  2  0  0  0  0
  5  7  1  0  0  0  0
  7  8  1  0  0  0  0
  7  9  1  0  0  0  0
  9 10  1  0  0  0  0
  9 11  1  0  0  0  0
  9 19  1  0  0  0  0
 11 12  1  0  0  0  0
 11 13  1  0  0  0  0
 11 14  1  0  0  0  0
 14 15  2  0  0  0  0
 14 16  1  0  0  0  0
 16 17  1  0  0  0  0
 16 18  1  0  0  0  0
 19 20  2  0  0  0  0
 19 21  1  0  0  0  0
 21 22  1  0  0  0  0
 21 23  1  0  0  0  0
 23 24  1  0  0  0  0
 23 25  1  0  0  0  0
 23 26  1  0  0  0  0
M  END
$$$$

  -OEChem-03222214023D

 26 25  0     1  0  0  0  0  0999 V2000
   -2.5830   -3.7506   -0.2891 H   0  0  0  0  0  0  0  0  0  0  0  0
   -2.6309   -2.6898   -0.5522 C   0  0  0  0  0  0  0  0  0  0  0  0
   -3.2478   -2.1732    0.1870 H   0  0  0  0  0  0  0  0  0  0  0  0
   -3.0929   -2.5926   -1.5376 H   0  0  0  0  0  0  0  0  0  0  0  0
   -1.2353   -2.0942   -0.5719 C   0  0  0  0  0  0  0  0  0  0  0  0
   -0.2699   -2.8069   -0.3638 O   0  0  0  0  0  0  0  0  0  0  0  0
   -1.0661   -0.7500   -0.8469 N   0  0  0  0  0  0  0  0  0  0  0  0
   -1.9149   -0.1986   -0.9243 H   0  0  0  0  0  0  0  0  0  0  0  0
    0.2141   -0.0418   -0.6619 C   0  0  1  0  0  0  0  0  0  0  0  0
    0.9536   -0.6353   -1.2138 H   0  0  0  0  0  0  0  0  0  0  0  0
    0.1493    1.3073   -1.4162 C   0  0  0  0  0  0  0  0  0  0  0  0
    1.1683    1.5657   -1.7189 H   0  0  0  0  0  0  0  0  0  0  0  0
   -0.4343    1.1817   -2.3319 H   0  0  0  0  0  0  0  0  0  0  0  0
   -0.3819    2.5095   -0.6400 C   0  0  0  0  0  0  0  0  0  0  0  0
   -0.0632    2.8012    0.4934 O   0  0  0  0  0  0  0  0  0  0  0  0
   -1.3131    3.3396   -1.1947 N   0  0  0  0  0  0  0  0  0  0  0  0
   -1.4692    4.2078   -0.6890 H   0  0  0  0  0  0  0  0  0  0  0  0
   -1.4393    3.3178   -2.2012 H   0  0  0  0  0  0  0  0  0  0  0  0
    0.7851   -0.0309    0.7788 C   0  0  0  0  0  0  0  0  0  0  0  0
    1.9862   -0.2040    0.9393 O   0  0  0  0  0  0  0  0  0  0  0  0
   -0.0183    0.2355    1.8742 N   0  0  0  0  0  0  0  0  0  0  0  0
   -0.8994    0.6918    1.6637 H   0  0  0  0  0  0  0  0  0  0  0  0
    0.5400    0.4352    3.2057 C   0  0  0  0  0  0  0  0  0  0  0  0
    1.1872    1.3186    3.2184 H   0  0  0  0  0  0  0  0  0  0  0  0
   -0.2629    0.5804    3.9345 H   0  0  0  0  0  0  0  0  0  0  0  0
    1.1273   -0.4372    3.5110 H   0  0  0  0  0  0  0  0  0  0  0  0
  1  2  1  0  0  0  0
  2  3  1  0  0  0  0
  2  4  1  0  0  0  0
  2  5  1  0  0  0  0
  5  6  2  0  0  0  0
  5  7  1  0  0  0  0
  7  8  1  0  0  0  0
  7  9  1  0  0  0  0
  9 10  1  0  0  0  0
  9 11  1  0  0  0  0
  9 19  1  0  0  0  0
 11 12  1  0  0  0  0
 11 13  1  0  0  0  0
 11 14  1  0  0  0  0
 14 15  2  0  0  0  0
 14 16  1  0  0  0  0
 16 17  1  0  0  0  0
 16 18  1  0  0  0  0
 19 20  2  0  0  0  0
 19 21  1  0  0  0  0
 21 22  1  0  0  0  0
 21 23  1  0  0  0  0
 23 24  1  0  0  0  0
 23 25  1  0  0  0  0
 23 26  1  0  0  0  0
M  END
$$$$

  -OEChem-03222214023D

 26 25  0     1  0  0  0  0  0999 V2000
   -2.6051   -3.7393   -0.2862 H   0  0  0  0  0  0  0  0  0  0  0  0
   -2.6390   -2.6802   -0.5576 C   0  0  0  0  0  0  0  0  0  0  0  0
   -3.2640   -2.1526    0.1668 H   0  0  0  0  0  0  0  0  0  0  0  0
   -3.0831   -2.5862   -1.5515 H   0  0  0  0  0  0  0  0  0  0  0  0
   -1.2378   -2.0976   -0.5578 C   0  0  0  0  0  0  0  0  0  0  0  0
   -0.2836   -2.8138   -0.3147 O   0  0  0  0  0  0  0  0  0  0  0  0
   -1.0511   -0.7604   -0.8543 N   0  0  0  0  0  0  0  0  0  0  0  0
   -1.8923   -0.2038   -0.9681 H   0  0  0  0  0  0  0  0  0  0  0  0
    0.2361   -0.0622   -0.6797 C   0  0  1  0  0  0  0  0  0  0  0  0
    0.9734   -0.6595   -1.2305 H   0  0  0  0  0  0  0  0  0  0  0  0
    0.1677    1.2908   -1.4236 C   0  0  0  0  0  0  0  0  0  0  0  0
    1.1840    1.5517   -1.7338 H   0  0  0  0  0  0  0  0  0  0  0  0
   -0.4266    1.1830   -2.3345 H   0  0  0  0  0  0  0  0  0  0  0  0
   -0.3492    2.4719   -0.6095 C   0  0  0  0  0  0  0  0  0  0  0  0
    0.1721    2.8821    0.4060 O   0  0  0  0  0  0  0  0  0  0  0  0
   -1.5054    3.1102   -0.9570 N   0  0  0  0  0  0  0  0  0  0  0  0
   -1.6736    3.9828   -0.4623 H   0  0  0  0  0  0  0  0  0  0  0  0
   -1.8424    3.0059   -1.9082 H   0  0  0  0  0  0  0  0  0  0  0  0
    0.7995   -0.0364    0.7629 C   0  0  0  0  0  0  0  0  0  0  0  0
    1.9995   -0.2040    0.9341 O   0  0  0  0  0  0  0  0  0  0  0  0
   -0.0109    0.2555    1.8467 N   0  0  0  0  0  0  0  0  0  0  0  0
   -0.9247    0.6373    1.6314 H   0  0  0  0  0  0  0  0  0  0  0  0
    0.5325    0.4930    3.1780 C   0  0  0  0  0  0  0  0  0  0  0  0
    1.1786    1.3773    3.1740 H   0  0  0  0  0  0  0  0  0  0  0  0
   -0.2785    0.6574    3.8935 H   0  0  0  0  0  0  0  0  0  0  0  0
    1.1174   -0.3699    3.5139 H   0  0  0  0  0  0  0  0  0  0  0  0
  1  2  1  0  0  0  0
  2  3  1  0  0  0  0
  2  4  1  0  0  0  0
  2  5  1  0  0  0  0
  5  6  2  0  0  0  0
  5  7  1  0  0  0  0
  7  8  1  0  0  0  0
  7  9  1  0  0  0  0
  9 10  1  0  0  0  0
  9 11  1  0  0  0  0
  9 19  1  0  0  0  0
 11 12  1  0  0  0  0
 11 13  1  0  0  0  0
 11 14  1  0  0  0  0
 14 15  2  0  0  0  0
 14 16  1  0  0  0  0
 16 17  1  0  0  0  0
 16 18  1  0  0  0  0
 19 20  2  0  0  0  0
 19 21  1  0  0  0  0
 21 22  1  0  0  0  0
 21 23  1  0  0  0  0
 23 24  1  0  0  0  0
 23 25  1  0  0  0  0
 23 26  1  0  0  0  0
M  END
$$$$

  -OEChem-03222214023D

 26 25  0     1  0  0  0  0  0999 V2000
   -2.6164   -3.7407   -0.2831 H   0  0  0  0  0  0  0  0  0  0  0  0
   -2.6423   -2.6843   -0.5658 C   0  0  0  0  0  0  0  0  0  0  0  0
   -3.2803   -2.1482    0.1406 H   0  0  0  0  0  0  0  0  0  0  0  0
   -3.0661   -2.6002   -1.5692 H   0  0  0  0  0  0  0  0  0  0  0  0
   -1.2402   -2.1047   -0.5443 C   0  0  0  0  0  0  0  0  0  0  0  0
   -0.2944   -2.8176   -0.2626 O   0  0  0  0  0  0  0  0  0  0  0  0
   -1.0422   -0.7742   -0.8629 N   0  0  0  0  0  0  0  0  0  0  0  0
   -1.8766   -0.2178   -1.0182 H   0  0  0  0  0  0  0  0  0  0  0  0
    0.2497   -0.0818   -0.6979 C   0  0  1  0  0  0  0  0  0  0  0  0
    0.9867   -0.6799   -1.2480 H   0  0  0  0  0  0  0  0  0  0  0  0
    0.1769    1.2776   -1.4273 C   0  0  0  0  0  0  0  0  0  0  0  0
    1.1891    1.5434   -1.7471 H   0  0  0  0  0  0  0  0  0  0  0  0
   -0.4319    1.1909   -2.3308 H   0  0  0  0  0  0  0  0  0  0  0  0
   -0.3275    2.4302   -0.5691 C   0  0  0  0  0  0  0  0  0  0  0  0
    0.3397    2.9724    0.2866 O   0  0  0  0  0  0  0  0  0  0  0  0
   -1.6095    2.8874   -0.6826 N   0  0  0  0  0  0  0  0  0  0  0  0
   -1.7868    3.7611   -0.1928 H   0  0  0  0  0  0  0  0  0  0  0  0
   -2.1074    2.6956   -1.5451 H   0  0  0  0  0  0  0  0  0  0  0  0
    0.8074   -0.0373    0.7462 C   0  0  0  0  0  0  0  0  0  0  0  0
    2.0073   -0.1935    0.9258 O   0  0  0  0  0  0  0  0  0  0  0  0
   -0.0084    0.2781    1.8195 N   0  0  0  0  0  0  0  0  0  0  0  0
   -0.9447    0.5992    1.6027 H   0  0  0  0  0  0  0  0  0  0  0  0
    0.5233    0.5451    3.1499 C   0  0  0  0  0  0  0  0  0  0  0  0
    1.1679    1.4304    3.1315 H   0  0  0  0  0  0  0  0  0  0  0  0
   -0.2934    0.7235    3.8556 H   0  0  0  0  0  0  0  0  0  0  0  0
    1.1070   -0.3094    3.5085 H   0  0  0  0  0  0  0  0  0  0  0  0
  1  2  1  0  0  0  0
  2  3  1  0  0  0  0
  2  4  1  0  0  0  0
  2  5  1  0  0  0  0
  5  6  2  0  0  0  0
  5  7  1  0  0  0  0
  7  8  1  0  0  0  0
  7  9  1  0  0  0  0
  9 10  1  0  0  0  0
  9 11  1  0  0  0  0
  9 19  1  0  0  0  0
 11 12  1  0  0  0  0
 11 13  1  0  0  0  0
 11 14  1  0  0  0  0
 14 15  2  0  0  0  0
 14 16  1  0  0  0  0
 16 17  1  0  0  0  0
 16 18  1  0  0  0  0
 19 20  2  0  0  0  0
 19 21  1  0  0  0  0
 21 22  1  0  0  0  0
 21 23  1  0  0  0  0
 23 24  1  0  0  0  0
 23 25  1  0  0  0  0
 23 26  1  0  0  0  0
M  END
$$$$

  -OEChem-03222214023D

 26 25  0     1  0  0  0  0  0999 V2000
   -2.6213   -3.7559   -0.2951 H   0  0  0  0  0  0  0  0  0  0  0  0
   -2.6440   -2.7009   -0.5837 C   0  0  0  0  0  0  0  0  0  0  0  0
   -3.3096   -2.1654    0.0974 H   0  0  0  0  0  0  0  0  0  0  0  0
   -3.0333   -2.6241   -1.6017 H   0  0  0  0  0  0  0  0  0  0  0  0
   -1.2470   -2.1126   -0.5160 C   0  0  0  0  0  0  0  0  0  0  0  0
   -0.3099   -2.8131   -0.1802 O   0  0  0  0  0  0  0  0  0  0  0  0
   -1.0428   -0.7874   -0.8523 N   0  0  0  0  0  0  0  0  0  0  0  0
   -1.8671   -0.2431   -1.0825 H   0  0  0  0  0  0  0  0  0  0  0  0
    0.2521   -0.0961   -0.7055 C   0  0  1  0  0  0  0  0  0  0  0  0
    0.9844   -0.6947   -1.2611 H   0  0  0  0  0  0  0  0  0  0  0  0
    0.1754    1.2696   -1.4213 C   0  0  0  0  0  0  0  0  0  0  0  0
    1.1833    1.5346   -1.7556 H   0  0  0  0  0  0  0  0  0  0  0  0
   -0.4519    1.2012   -2.3132 H   0  0  0  0  0  0  0  0  0  0  0  0
   -0.3105    2.4038   -0.5291 C   0  0  0  0  0  0  0  0  0  0  0  0
    0.4381    3.0932    0.1309 O   0  0  0  0  0  0  0  0  0  0  0  0
   -1.6381    2.7075   -0.4183 N   0  0  0  0  0  0  0  0  0  0  0  0
   -1.8239    3.5890    0.0544 H   0  0  0  0  0  0  0  0  0  0  0  0
   -2.2557    2.4104   -1.1652 H   0  0  0  0  0  0  0  0  0  0  0  0
    0.8166   -0.0360    0.7350 C   0  0  0  0  0  0  0  0  0  0  0  0
    2.0198   -0.1659    0.9096 O   0  0  0  0  0  0  0  0  0  0  0  0
    0.0040    0.2950    1.8056 N   0  0  0  0  0  0  0  0  0  0  0  0
   -0.9558    0.5464    1.5988 H   0  0  0  0  0  0  0  0  0  0  0  0
    0.5298    0.5727    3.1359 C   0  0  0  0  0  0  0  0  0  0  0  0
    1.1752    1.4572    3.1134 H   0  0  0  0  0  0  0  0  0  0  0  0
   -0.2899    0.7576    3.8364 H   0  0  0  0  0  0  0  0  0  0  0  0
    1.1112   -0.2794    3.5039 H   0  0  0  0  0  0  0  0  0  0  0  0
  1  2  1  0  0  0  0
  2  3  1  0  0  0  0
  2  4  1  0  0  0  0
  2  5  1  0  0  0  0
  5  6  2  0  0  0  0
  5  7  1  0  0  0  0
  7  8  1  0  0  0  0
  7  9  1  0  0  0  0
  9 10  1  0  0  0  0
  9 11  1  0  0  0  0
  9 19  1  0  0  0  0
 11 12  1  0  0  0  0
 11 13  1  0  0  0  0
 11 14  1  0  0  0  0
 14 15  2  0  0  0  0
 14 16  1  0  0  0  0
 16 17  1  0  0  0  0
 16 18  1  0  0  0  0
 19 20  2  0  0  0  0
 19 21  1  0  0  0  0
 21 22  1  0  0  0  0
 21 23  1  0  0  0  0
 23 24  1  0  0  0  0
 23 25  1  0  0  0  0
 23 26  1  0  0  0  0
M  END
$$$$

  -OEChem-03222214023D

 26 25  0     1  0  0  0  0  0999 V2000
   -2.6417   -3.7833   -0.3573 H   0  0  0  0  0  0  0  0  0  0  0  0
   -2.6549   -2.7342   -0.6668 C   0  0  0  0  0  0  0  0  0  0  0  0
   -3.4107   -2.2052   -0.0814 H   0  0  0  0  0  0  0  0  0  0  0  0
   -2.9204   -2.6850   -1.7255 H   0  0  0  0  0  0  0  0  0  0  0  0
   -1.2912   -2.1079   -0.4422 C   0  0  0  0  0  0  0  0  0  0  0  0
   -0.3928   -2.7722    0.0399 O   0  0  0  0  0  0  0  0  0  0  0  0
   -1.0725   -0.7908   -0.8017 N   0  0  0  0  0  0  0  0  0  0  0  0
   -1.8305   -0.3190   -1.2826 H   0  0  0  0  0  0  0  0  0  0  0  0
    0.2343   -0.1140   -0.6890 C   0  0  1  0  0  0  0  0  0  0  0  0
    0.9495   -0.7223   -1.2561 H   0  0  0  0  0  0  0  0  0  0  0  0
    0.1536    1.2562   -1.3969 C   0  0  0  0  0  0  0  0  0  0  0  0
    1.1546    1.5088   -1.7608 H   0  0  0  0  0  0  0  0  0  0  0  0
   -0.5021    1.2033   -2.2689 H   0  0  0  0  0  0  0  0  0  0  0  0
   -0.2930    2.3919   -0.4842 C   0  0  0  0  0  0  0  0  0  0  0  0
    0.4757    3.2274   -0.0565 O   0  0  0  0  0  0  0  0  0  0  0  0
   -1.6035    2.5695   -0.1390 N   0  0  0  0  0  0  0  0  0  0  0  0
   -1.8037    3.4659    0.2981 H   0  0  0  0  0  0  0  0  0  0  0  0
   -2.3146    2.1247   -0.7068 H   0  0  0  0  0  0  0  0  0  0  0  0
    0.8298   -0.0378    0.7387 C   0  0  0  0  0  0  0  0  0  0  0  0
    2.0389   -0.1468    0.8850 O   0  0  0  0  0  0  0  0  0  0  0  0
    0.0438    0.3202    1.8199 N   0  0  0  0  0  0  0  0  0  0  0  0
   -0.9341    0.5189    1.6394 H   0  0  0  0  0  0  0  0  0  0  0  0
    0.5919    0.6084    3.1389 C   0  0  0  0  0  0  0  0  0  0  0  0
    1.2489    1.4835    3.0958 H   0  0  0  0  0  0  0  0  0  0  0  0
   -0.2154    0.8144    3.8478 H   0  0  0  0  0  0  0  0  0  0  0  0
    1.1666   -0.2470    3.5100 H   0  0  0  0  0  0  0  0  0  0  0  0
  1  2  1  0  0  0  0
  2  3  1  0  0  0  0
  2  4  1  0  0  0  0
  2  5  1  0  0  0  0
  5  6  2  0  0  0  0
  5  7  1  0  0  0  0
  7  8  1  0  0  0  0
  7  9  1  0  0  0  0
  9 10  1  0  0  0  0
  9 11  1  0  0  0  0
  9 19  1  0  0  0  0
 11 12  1  0  0  0  0
 11 13  1  0  0  0  0
 11 14  1  0  0  0  0
 14 15  2  0  0  0  0
 14 16  1  0  0  0  0
 16 17  1  0  0  0  0
 16 18  1  0  0  0  0
 19 20  2  0  0  0  0
 19 21  1  0  0  0  0
 21 22  1  0  0  0  0
 21 23  1  0  0  0  0
 23 24  1  0  0  0  0
 23 25  1  0  0  0  0
 23 26  1  0  0  0  0
M  END
$$$$

  -OEChem-03222214023D

 26 25  0     1  0  0  0  0  0999 V2000
   -2.6359   -3.7819   -0.3955 H   0  0  0  0  0  0  0  0  0  0  0  0
   -2.6457   -2.7444   -0.7423 C   0  0  0  0  0  0  0  0  0  0  0  0
   -3.4889   -2.2276   -0.2780 H   0  0  0  0  0  0  0  0  0  0  0  0
   -2.7749   -2.7400   -1.8273 H   0  0  0  0  0  0  0  0  0  0  0  0
   -1.3448   -2.0579   -0.3692 C   0  0  0  0  0  0  0  0  0  0  0  0
   -0.5103   -2.6558    0.2838 O   0  0  0  0  0  0  0  0  0  0  0  0
   -1.1197   -0.7518   -0.7635 N   0  0  0  0  0  0  0  0  0  0  0  0
   -1.7869   -0.3796   -1.4332 H   0  0  0  0  0  0  0  0  0  0  0  0
    0.1997   -0.0940   -0.6735 C   0  0  1  0  0  0  0  0  0  0  0  0
    0.8983   -0.7315   -1.2291 H   0  0  0  0  0  0  0  0  0  0  0  0
    0.1414    1.2532   -1.4246 C   0  0  0  0  0  0  0  0  0  0  0  0
    1.1457    1.4720   -1.8013 H   0  0  0  0  0  0  0  0  0  0  0  0
   -0.5201    1.1829   -2.2912 H   0  0  0  0  0  0  0  0  0  0  0  0
   -0.2821    2.4365   -0.5628 C   0  0  0  0  0  0  0  0  0  0  0  0
    0.4331    3.4029   -0.3956 O   0  0  0  0  0  0  0  0  0  0  0  0
   -1.5373    2.5310   -0.0306 N   0  0  0  0  0  0  0  0  0  0  0  0
   -1.6743    3.2951    0.6262 H   0  0  0  0  0  0  0  0  0  0  0  0
   -2.1095    1.6982    0.0287 H   0  0  0  0  0  0  0  0  0  0  0  0
    0.8221    0.0129    0.7409 C   0  0  0  0  0  0  0  0  0  0  0  0
    2.0383   -0.0386    0.8521 O   0  0  0  0  0  0  0  0  0  0  0  0
    0.0623    0.4101    1.8271 N   0  0  0  0  0  0  0  0  0  0  0  0
   -0.9417    0.3044    1.7404 H   0  0  0  0  0  0  0  0  0  0  0  0
    0.6306    0.6047    3.1554 C   0  0  0  0  0  0  0  0  0  0  0  0
    1.4187    1.3647    3.1266 H   0  0  0  0  0  0  0  0  0  0  0  0
   -0.1428    0.9398    3.8529 H   0  0  0  0  0  0  0  0  0  0  0  0
    1.0571   -0.3317    3.5306 H   0  0  0  0  0  0  0  0  0  0  0  0
  1  2  1  0  0  0  0
  2  3  1  0  0  0  0
  2  4  1  0  0  0  0
  2  5  1  0  0  0  0
  5  6  2  0  0  0  0
  5  7  1  0  0  0  0
  7  8  1  0  0  0  0
  7  9  1  0  0  0  0
  9 10  1  0  0  0  0
  9 11  1  0  0  0  0
  9 19  1  0  0  0  0
 11 12  1  0  0  0  0
 11 13  1  0  0  0  0
 11 14  1  0  0  0  0
 14 15  2  0  0  0  0
 14 16  1  0  0  0  0
 16 17  1  0  0  0  0
 16 18  1  0  0  0  0
 19 20  2  0  0  0  0
 19 21  1  0  0  0  0
 21 22  1  0  0  0  0
 21 23  1  0  0  0  0
 23 24  1  0  0  0  0
 23 25  1  0  0  0  0
 23 26  1  0  0  0  0
M  END
$$$$

  -OEChem-03222214023D

 26 25  0     1  0  0  0  0  0999 V2000
   -2.6301   -3.7903   -0.4284 H   0  0  0  0  0  0  0  0  0  0  0  0
   -2.6475   -2.7443   -0.7481 C   0  0  0  0  0  0  0  0  0  0  0  0
   -3.4890   -2.2427   -0.2642 H   0  0  0  0  0  0  0  0  0  0  0  0
   -2.7854   -2.7123   -1.8316 H   0  0  0  0  0  0  0  0  0  0  0  0
   -1.3467   -2.0614   -0.3689 C   0  0  0  0  0  0  0  0  0  0  0  0
   -0.5126   -2.6620    0.2826 O   0  0  0  0  0  0  0  0  0  0  0  0
   -1.1234   -0.7497   -0.7445 N   0  0  0  0  0  0  0  0  0  0  0  0
   -1.7995   -0.3609   -1.3965 H   0  0  0  0  0  0  0  0  0  0  0  0
    0.1950   -0.0910   -0.6526 C   0  0  1  0  0  0  0  0  0  0  0  0
    0.8879   -0.7314   -1.2120 H   0  0  0  0  0  0  0  0  0  0  0  0
    0.1533    1.2548   -1.4072 C   0  0  0  0  0  0  0  0  0  0  0  0
    1.1629    1.4625   -1.7758 H   0  0  0  0  0  0  0  0  0  0  0  0
   -0.5019    1.1842   -2.2785 H   0  0  0  0  0  0  0  0  0  0  0  0
   -0.2677    2.4514   -0.5629 C   0  0  0  0  0  0  0  0  0  0  0  0
    0.3266    3.5090   -0.6139 O   0  0  0  0  0  0  0  0  0  0  0  0
   -1.4598    2.4837    0.1042 N   0  0  0  0  0  0  0  0  0  0  0  0
   -1.5918    3.2921    0.7064 H   0  0  0  0  0  0  0  0  0  0  0  0
   -1.9073    1.6052    0.3329 H   0  0  0  0  0  0  0  0  0  0  0  0
    0.8298   -0.0013    0.7569 C   0  0  0  0  0  0  0  0  0  0  0  0
    2.0488   -0.0050    0.8470 O   0  0  0  0  0  0  0  0  0  0  0  0
    0.0786    0.3786    1.8553 N   0  0  0  0  0  0  0  0  0  0  0  0
   -0.9140    0.1814    1.8001 H   0  0  0  0  0  0  0  0  0  0  0  0
    0.6696    0.5590    3.1762 C   0  0  0  0  0  0  0  0  0  0  0  0
    1.4478    1.3291    3.1462 H   0  0  0  0  0  0  0  0  0  0  0  0
   -0.0948    0.8723    3.8932 H   0  0  0  0  0  0  0  0  0  0  0  0
    1.1147   -0.3777    3.5278 H   0  0  0  0  0  0  0  0  0  0  0  0
  1  2  1  0  0  0  0
  2  3  1  0  0  0  0
  2  4  1  0  0  0  0
  2  5  1  0  0  0  0
  5  6  2  0  0  0  0
  5  7  1  0  0  0  0
  7  8  1  0  0  0  0
  7  9  1  0  0  0  0
  9 10  1  0  0  0  0
  9 11  1  0  0  0  0
  9 19  1  0  0  0  0
 11 12  1  0  0  0  0
 11 13  1  0  0  0  0
 11 14  1  0  0  0  0
 14 15  2  0  0  0  0
 14 16  1  0  0  0  0
 16 17  1  0  0  0  0
 16 18  1  0  0  0  0
 19 20  2  0  0  0  0
 19 21  1  0  0  0  0
 21 22  1  0  0  0  0
 21 23  1  0  0  0  0
 23 24  1  0  0  0  0
 23 25  1  0  0  0  0
 23 26  1  0  0  0  0
M  END
$$$$

  -OEChem-03222214023D

 26 25  0     1  0  0  0  0  0999 V2000
   -2.6401   -3.7909   -0.4425 H   0  0  0  0  0  0  0  0  0  0  0  0
   -2.6549   -2.7417   -0.7518 C   0  0  0  0  0  0  0  0  0  0  0  0
   -3.4815   -2.2373   -0.2454 H   0  0  0  0  0  0  0  0  0  0  0  0
   -2.8158   -2.6976   -1.8317 H   0  0  0  0  0  0  0  0  0  0  0  0
   -1.3401   -2.0742   -0.3942 C   0  0  0  0  0  0  0  0  0  0  0  0
   -0.4931   -2.6896    0.2268 O   0  0  0  0  0  0  0  0  0  0  0  0
   -1.1198   -0.7543   -0.7393 N   0  0  0  0  0  0  0  0  0  0  0  0
   -1.8246   -0.3271   -1.3348 H   0  0  0  0  0  0  0  0  0  0  0  0
    0.1942   -0.0895   -0.6433 C   0  0  1  0  0  0  0  0  0  0  0  0
    0.8842   -0.7281   -1.2084 H   0  0  0  0  0  0  0  0  0  0  0  0
    0.1706    1.2580   -1.3982 C   0  0  0  0  0  0  0  0  0  0  0  0
    1.1862    1.4522   -1.7577 H   0  0  0  0  0  0  0  0  0  0  0  0
   -0.4758    1.1832   -2.2760 H   0  0  0  0  0  0  0  0  0  0  0  0
   -0.2464    2.4814   -0.5894 C   0  0  0  0  0  0  0  0  0  0  0  0
    0.1873    3.5840   -0.8564 O   0  0  0  0  0  0  0  0  0  0  0  0
   -1.3028    2.4773    0.2753 N   0  0  0  0  0  0  0  0  0  0  0  0
   -1.4088    3.3421    0.7987 H   0  0  0  0  0  0  0  0  0  0  0  0
   -1.5163    1.5996    0.7321 H   0  0  0  0  0  0  0  0  0  0  0  0
    0.8298   -0.0335    0.7663 C   0  0  0  0  0  0  0  0  0  0  0  0
    2.0470    0.0399    0.8472 O   0  0  0  0  0  0  0  0  0  0  0  0
    0.0679    0.3127    1.8693 N   0  0  0  0  0  0  0  0  0  0  0  0
   -0.8879   -0.0274    1.8457 H   0  0  0  0  0  0  0  0  0  0  0  0
    0.6696    0.5288    3.1808 C   0  0  0  0  0  0  0  0  0  0  0  0
    1.4022    1.3420    3.1379 H   0  0  0  0  0  0  0  0  0  0  0  0
   -0.0996    0.8000    3.9101 H   0  0  0  0  0  0  0  0  0  0  0  0
    1.1734   -0.3802    3.5265 H   0  0  0  0  0  0  0  0  0  0  0  0
  1  2  1  0  0  0  0
  2  3  1  0  0  0  0
  2  4  1  0  0  0  0
  2  5  1  0  0  0  0
  5  6  2  0  0  0  0
  5  7  1  0  0  0  0
  7  8  1  0  0  0  0
  7  9  1  0  0  0  0
  9 10  1  0  0  0  0
  9 11  1  0  0  0  0
  9 19  1  0  0  0  0
 11 12  1  0  0  0  0
 11 13  1  0  0  0  0
 11 14  1  0  0  0  0
 14 15  2  0  0  0  0
 14 16  1  0  0  0  0
 16 17  1  0  0  0  0
 16 18  1  0  0  0  0
 19 20  2  0  0  0  0
 19 21  1  0  0  0  0
 21 22  1  0  0  0  0
 21 23  1  0  0  0  0
 23 24  1  0  0  0  0
 23 25  1  0  0  0  0
 23 26  1  0  0  0  0
M  END
$$$$

  -OEChem-03222214023D

 26 25  0     1  0  0  0  0  0999 V2000
   -2.6212   -3.8042   -0.4387 H   0  0  0  0  0  0  0  0  0  0  0  0
   -2.6466   -2.7505   -0.7317 C   0  0  0  0  0  0  0  0  0  0  0  0
   -3.4525   -2.2534   -0.1863 H   0  0  0  0  0  0  0  0  0  0  0  0
   -2.8491   -2.6902   -1.8039 H   0  0  0  0  0  0  0  0  0  0  0  0
   -1.3180   -2.0891   -0.4156 C   0  0  0  0  0  0  0  0  0  0  0  0
   -0.4415   -2.7187    0.1483 O   0  0  0  0  0  0  0  0  0  0  0  0
   -1.1135   -0.7605   -0.7354 N   0  0  0  0  0  0  0  0  0  0  0  0
   -1.8569   -0.3010   -1.2554 H   0  0  0  0  0  0  0  0  0  0  0  0
    0.1897   -0.0762   -0.6375 C   0  0  1  0  0  0  0  0  0  0  0  0
    0.8843   -0.7106   -1.2018 H   0  0  0  0  0  0  0  0  0  0  0  0
    0.1673    1.2630   -1.4105 C   0  0  0  0  0  0  0  0  0  0  0  0
    1.1874    1.4490   -1.7609 H   0  0  0  0  0  0  0  0  0  0  0  0
   -0.4640    1.1590   -2.2966 H   0  0  0  0  0  0  0  0  0  0  0  0
   -0.2606    2.5282   -0.6708 C   0  0  0  0  0  0  0  0  0  0  0  0
   -0.0344    3.6204   -1.1523 O   0  0  0  0  0  0  0  0  0  0  0  0
   -1.0443    2.5595    0.4450 N   0  0  0  0  0  0  0  0  0  0  0  0
   -1.1332    3.4894    0.8453 H   0  0  0  0  0  0  0  0  0  0  0  0
   -0.9483    1.7737    1.0793 H   0  0  0  0  0  0  0  0  0  0  0  0
    0.8231   -0.0438    0.7728 C   0  0  0  0  0  0  0  0  0  0  0  0
    2.0364    0.0725    0.8592 O   0  0  0  0  0  0  0  0  0  0  0  0
    0.0497    0.2651    1.8797 N   0  0  0  0  0  0  0  0  0  0  0  0
   -0.9000   -0.0956    1.8376 H   0  0  0  0  0  0  0  0  0  0  0  0
    0.6400    0.4377    3.2031 C   0  0  0  0  0  0  0  0  0  0  0  0
    1.3630    1.2604    3.1976 H   0  0  0  0  0  0  0  0  0  0  0  0
   -0.1370    0.6704    3.9375 H   0  0  0  0  0  0  0  0  0  0  0  0
    1.1522   -0.4783    3.5164 H   0  0  0  0  0  0  0  0  0  0  0  0
  1  2  1  0  0  0  0
  2  3  1  0  0  0  0
  2  4  1  0  0  0  0
  2  5  1  0  0  0  0
  5  6  2  0  0  0  0
  5  7  1  0  0  0  0
  7  8  1  0  0  0  0
  7  9  1  0  0  0  0
  9 10  1  0  0  0  0
  9 11  1  0  0  0  0
  9 19  1  0  0  0  0
 11 12  1  0  0  0  0
 11 13  1  0  0  0  0
 11 14  1  0  0  0  0
 14 15  2  0  0  0  0
 14 16  1  0  0  0  0
 16 17  1  0  0  0  0
 16 18  1  0  0  0  0
 19 20  2  0  0  0  0
 19 21  1  0  0  0  0
 21 22  1  0  0  0  0
 21 23  1  0  0  0  0
 23 24  1  0  0  0  0
 23 25  1  0  0  0  0
 23 26  1  0  0  0  0
M  END
$$$$

  -OEChem-03222214023D

 26 25  0     1  0  0  0  0  0999 V2000
   -2.6795   -3.7651   -0.4242 H   0  0  0  0  0  0  0  0  0  0  0  0
   -2.6915   -2.7068   -0.7006 C   0  0  0  0  0  0  0  0  0  0  0  0
   -3.4631   -2.1997   -0.1165 H   0  0  0  0  0  0  0  0  0  0  0  0
   -2.9349   -2.6251   -1.7627 H   0  0  0  0  0  0  0  0  0  0  0  0
   -1.3364   -2.0807   -0.4289 C   0  0  0  0  0  0  0  0  0  0  0  0
   -0.4481   -2.7445    0.0745 O   0  0  0  0  0  0  0  0  0  0  0  0
   -1.1149   -0.7520   -0.7382 N   0  0  0  0  0  0  0  0  0  0  0  0
   -1.8737   -0.2593   -1.2021 H   0  0  0  0  0  0  0  0  0  0  0  0
    0.1957   -0.0817   -0.6352 C   0  0  1  0  0  0  0  0  0  0  0  0
    0.8866   -0.7253   -1.1937 H   0  0  0  0  0  0  0  0  0  0  0  0
    0.1749    1.2543   -1.4272 C   0  0  0  0  0  0  0  0  0  0  0  0
    1.1111    1.2934   -1.9919 H   0  0  0  0  0  0  0  0  0  0  0  0
   -0.6349    1.2248   -2.1608 H   0  0  0  0  0  0  0  0  0  0  0  0
    0.0913    2.6032   -0.7067 C   0  0  0  0  0  0  0  0  0  0  0  0
    0.0760    3.6221   -1.3689 O   0  0  0  0  0  0  0  0  0  0  0  0
    0.0740    2.8267    0.6385 N   0  0  0  0  0  0  0  0  0  0  0  0
    0.2483    3.7917    0.9034 H   0  0  0  0  0  0  0  0  0  0  0  0
    0.4172    2.0836    1.2435 H   0  0  0  0  0  0  0  0  0  0  0  0
    0.8083   -0.0781    0.7834 C   0  0  0  0  0  0  0  0  0  0  0  0
    2.0199    0.0252    0.8998 O   0  0  0  0  0  0  0  0  0  0  0  0
    0.0255    0.2262    1.8840 N   0  0  0  0  0  0  0  0  0  0  0  0
   -0.9711    0.0603    1.7738 H   0  0  0  0  0  0  0  0  0  0  0  0
    0.5648    0.3041    3.2374 C   0  0  0  0  0  0  0  0  0  0  0  0
    1.3291    1.0856    3.3042 H   0  0  0  0  0  0  0  0  0  0  0  0
   -0.2319    0.5428    3.9486 H   0  0  0  0  0  0  0  0  0  0  0  0
    1.0135   -0.6525    3.5258 H   0  0  0  0  0  0  0  0  0  0  0  0
  1  2  1  0  0  0  0
  2  3  1  0  0  0  0
  2  4  1  0  0  0  0
  2  5  1  0  0  0  0
  5  6  2  0  0  0  0
  5  7  1  0  0  0  0
  7  8  1  0  0  0  0
  7  9  1  0  0  0  0
  9 10  1  0  0  0  0
  9 11  1  0  0  0  0
  9 19  1  0  0  0  0
 11 12  1  0  0  0  0
 11 13  1  0  0  0  0
 11 14  1  0  0  0  0
 14 15  2  0  0  0  0
 14 16  1  0  0  0  0
 16 17  1  0  0  0  0
 16 18  1  0  0  0  0
 19 20  2  0  0  0  0
 19 21  1  0  0  0  0
 21 22  1  0  0  0  0
 21 23  1  0  0  0  0
 23 24  1  0  0  0  0
 23 25  1  0  0  0  0
 23 26  1  0  0  0  0
M  END
$$$$

  -OEChem-03222214023D

 26 25  0     1  0  0  0  0  0999 V2000
   -2.6610   -3.7904   -0.4124 H   0  0  0  0  0  0  0  0  0  0  0  0
   -2.6791   -2.7335   -0.6940 C   0  0  0  0  0  0  0  0  0  0  0  0
   -3.4374   -2.2236   -0.0952 H   0  0  0  0  0  0  0  0  0  0  0  0
   -2.9463   -2.6570   -1.7508 H   0  0  0  0  0  0  0  0  0  0  0  0
   -1.3180   -2.1064   -0.4556 C   0  0  0  0  0  0  0  0  0  0  0  0
   -0.4125   -2.7731    0.0123 O   0  0  0  0  0  0  0  0  0  0  0  0
   -1.1086   -0.7754   -0.7628 N   0  0  0  0  0  0  0  0  0  0  0  0
   -1.8817   -0.2783   -1.1971 H   0  0  0  0  0  0  0  0  0  0  0  0
    0.1921   -0.0884   -0.6463 C   0  0  1  0  0  0  0  0  0  0  0  0
    0.9046   -0.6995   -1.2136 H   0  0  0  0  0  0  0  0  0  0  0  0
    0.1279    1.2756   -1.3865 C   0  0  0  0  0  0  0  0  0  0  0  0
    1.0526    1.3643   -1.9640 H   0  0  0  0  0  0  0  0  0  0  0  0
   -0.6942    1.2606   -2.1072 H   0  0  0  0  0  0  0  0  0  0  0  0
    0.0267    2.5758   -0.5850 C   0  0  0  0  0  0  0  0  0  0  0  0
   -0.3014    3.5948   -1.1610 O   0  0  0  0  0  0  0  0  0  0  0  0
    0.6612    2.8206    0.5980 N   0  0  0  0  0  0  0  0  0  0  0  0
    0.8582    3.7988    0.7855 H   0  0  0  0  0  0  0  0  0  0  0  0
    1.2997    2.1064    0.9512 H   0  0  0  0  0  0  0  0  0  0  0  0
    0.7683   -0.0896    0.7876 C   0  0  0  0  0  0  0  0  0  0  0  0
    1.9734    0.0651    0.9320 O   0  0  0  0  0  0  0  0  0  0  0  0
   -0.0498    0.2004    1.8651 N   0  0  0  0  0  0  0  0  0  0  0  0
   -1.0467    0.0731    1.7215 H   0  0  0  0  0  0  0  0  0  0  0  0
    0.4446    0.3473    3.2293 C   0  0  0  0  0  0  0  0  0  0  0  0
    1.1631    1.1711    3.2929 H   0  0  0  0  0  0  0  0  0  0  0  0
   -0.3847    0.5624    3.9099 H   0  0  0  0  0  0  0  0  0  0  0  0
    0.9350   -0.5745    3.5597 H   0  0  0  0  0  0  0  0  0  0  0  0
  1  2  1  0  0  0  0
  2  3  1  0  0  0  0
  2  4  1  0  0  0  0
  2  5  1  0  0  0  0
  5  6  2  0  0  0  0
  5  7  1  0  0  0  0
  7  8  1  0  0  0  0
  7  9  1  0  0  0  0
  9 10  1  0  0  0  0
  9 11  1  0  0  0  0
  9 19  1  0  0  0  0
 11 12  1  0  0  0  0
 11 13  1  0  0  0  0
 11 14  1  0  0  0  0
 14 15  2  0  0  0  0
 14 16  1  0  0  0  0
 16 17  1  0  0  0  0
 16 18  1  0  0  0  0
 19 20  2  0  0  0  0
 19 21  1  0  0  0  0
 21 22  1  0  0  0  0
 21 23  1  0  0  0  0
 23 24  1  0  0  0  0
 23 25  1  0  0  0  0
 23 26  1  0  0  0  0
M  END
$$$$

  -OEChem-03222214023D

 26 25  0     1  0  0  0  0  0999 V2000
   -2.6875   -3.7648   -0.3891 H   0  0  0  0  0  0  0  0  0  0  0  0
   -2.6933   -2.7107   -0.6818 C   0  0  0  0  0  0  0  0  0  0  0  0
   -3.4435   -2.1848   -0.0863 H   0  0  0  0  0  0  0  0  0  0  0  0
   -2.9623   -2.6420   -1.7387 H   0  0  0  0  0  0  0  0  0  0  0  0
   -1.3239   -2.0985   -0.4532 C   0  0  0  0  0  0  0  0  0  0  0  0
   -0.4253   -2.7726    0.0177 O   0  0  0  0  0  0  0  0  0  0  0  0
   -1.0975   -0.7739   -0.7757 N   0  0  0  0  0  0  0  0  0  0  0  0
   -1.8676   -0.2668   -1.2044 H   0  0  0  0  0  0  0  0  0  0  0  0
    0.2105   -0.1017   -0.6577 C   0  0  1  0  0  0  0  0  0  0  0  0
    0.9198   -0.7210   -1.2202 H   0  0  0  0  0  0  0  0  0  0  0  0
    0.1578    1.2641   -1.3917 C   0  0  0  0  0  0  0  0  0  0  0  0
    1.0802    1.3553   -1.9720 H   0  0  0  0  0  0  0  0  0  0  0  0
   -0.6684    1.2677   -2.1079 H   0  0  0  0  0  0  0  0  0  0  0  0
    0.0700    2.5374   -0.5496 C   0  0  0  0  0  0  0  0  0  0  0  0
   -0.5033    3.5108   -0.9988 O   0  0  0  0  0  0  0  0  0  0  0  0
    0.9091    2.8224    0.4893 N   0  0  0  0  0  0  0  0  0  0  0  0
    1.0282    3.8032    0.7225 H   0  0  0  0  0  0  0  0  0  0  0  0
    1.6225    2.1387    0.7487 H   0  0  0  0  0  0  0  0  0  0  0  0
    0.7820   -0.0881    0.7783 C   0  0  0  0  0  0  0  0  0  0  0  0
    1.9918    0.0331    0.9232 O   0  0  0  0  0  0  0  0  0  0  0  0
   -0.0365    0.2282    1.8480 N   0  0  0  0  0  0  0  0  0  0  0  0
   -1.0363    0.1326    1.7003 H   0  0  0  0  0  0  0  0  0  0  0  0
    0.4569    0.4015    3.2091 C   0  0  0  0  0  0  0  0  0  0  0  0
    1.1734    1.2283    3.2566 H   0  0  0  0  0  0  0  0  0  0  0  0
   -0.3727    0.6271    3.8860 H   0  0  0  0  0  0  0  0  0  0  0  0
    0.9495   -0.5130    3.5561 H   0  0  0  0  0  0  0  0  0  0  0  0
  1  2  1  0  0  0  0
  2  3  1  0  0  0  0
  2  4  1  0  0  0  0
  2  5  1  0  0  0  0
  5  6  2  0  0  0  0
  5  7  1  0  0  0  0
  7  8  1  0  0  0  0
  7  9  1  0  0  0  0
  9 10  1  0  0  0  0
  9 11  1  0  0  0  0
  9 19  1  0  0  0  0
 11 12  1  0  0  0  0
 11 13  1  0  0  0  0
 11 14  1  0  0  0  0
 14 15  2  0  0  0  0
 14 16  1  0  0  0  0
 16 17  1  0  0  0  0
 16 18  1  0  0  0  0
 19 20  2  0  0  0  0
 19 21  1  0  0  0  0
 21 22  1  0  0  0  0
 21 23  1  0  0  0  0
 23 24  1  0  0  0  0
 23 25  1  0  0  0  0
 23 26  1  0  0  0  0
M  END
$$$$

  -OEChem-03222214023D

 26 25  0     1  0  0  0  0  0999 V2000
   -2.7005   -3.7263   -0.3267 H   0  0  0  0  0  0  0  0  0  0  0  0
   -2.6949   -2.6789   -0.6427 C   0  0  0  0  0  0  0  0  0  0  0  0
   -3.4347   -2.1307   -0.0544 H   0  0  0  0  0  0  0  0  0  0  0  0
   -2.9696   -2.6300   -1.6992 H   0  0  0  0  0  0  0  0  0  0  0  0
   -1.3166   -2.0787   -0.4360 C   0  0  0  0  0  0  0  0  0  0  0  0
   -0.4257   -2.7507    0.0523 O   0  0  0  0  0  0  0  0  0  0  0  0
   -1.0729   -0.7670   -0.7960 N   0  0  0  0  0  0  0  0  0  0  0  0
   -1.8385   -0.2590   -1.2319 H   0  0  0  0  0  0  0  0  0  0  0  0
    0.2437   -0.1088   -0.6995 C   0  0  1  0  0  0  0  0  0  0  0  0
    0.9477   -0.7357   -1.2599 H   0  0  0  0  0  0  0  0  0  0  0  0
    0.1838    1.2560   -1.4320 C   0  0  0  0  0  0  0  0  0  0  0  0
    1.0932    1.3514   -2.0319 H   0  0  0  0  0  0  0  0  0  0  0  0
   -0.6594    1.2745   -2.1281 H   0  0  0  0  0  0  0  0  0  0  0  0
    0.1210    2.5012   -0.5503 C   0  0  0  0  0  0  0  0  0  0  0  0
   -0.6665    3.3913   -0.8071 O   0  0  0  0  0  0  0  0  0  0  0  0
    1.1380    2.8552    0.2909 N   0  0  0  0  0  0  0  0  0  0  0  0
    0.9976    3.6958    0.8418 H   0  0  0  0  0  0  0  0  0  0  0  0
    1.7657    2.1223    0.6274 H   0  0  0  0  0  0  0  0  0  0  0  0
    0.8144   -0.0646    0.7367 C   0  0  0  0  0  0  0  0  0  0  0  0
    2.0247    0.0434    0.8850 O   0  0  0  0  0  0  0  0  0  0  0  0
   -0.0046    0.2925    1.7931 N   0  0  0  0  0  0  0  0  0  0  0  0
   -1.0042    0.1930    1.6440 H   0  0  0  0  0  0  0  0  0  0  0  0
    0.4827    0.4793    3.1545 C   0  0  0  0  0  0  0  0  0  0  0  0
    1.2212    1.2870    3.1915 H   0  0  0  0  0  0  0  0  0  0  0  0
   -0.3463    0.7405    3.8194 H   0  0  0  0  0  0  0  0  0  0  0  0
    0.9473   -0.4408    3.5245 H   0  0  0  0  0  0  0  0  0  0  0  0
  1  2  1  0  0  0  0
  2  3  1  0  0  0  0
  2  4  1  0  0  0  0
  2  5  1  0  0  0  0
  5  6  2  0  0  0  0
  5  7  1  0  0  0  0
  7  8  1  0  0  0  0
  7  9  1  0  0  0  0
  9 10  1  0  0  0  0
  9 11  1  0  0  0  0
  9 19  1  0  0  0  0
 11 12  1  0  0  0  0
 11 13  1  0  0  0  0
 11 14  1  0  0  0  0
 14 15  2  0  0  0  0
 14 16  1  0  0  0  0
 16 17  1  0  0  0  0
 16 18  1  0  0  0  0
 19 20  2  0  0  0  0
 19 21  1  0  0  0  0
 21 22  1  0  0  0  0
 21 23  1  0  0  0  0
 23 24  1  0  0  0  0
 23 25  1  0  0  0  0
 23 26  1  0  0  0  0
M  END
$$$$

  -OEChem-03222214023D

 26 25  0     1  0  0  0  0  0999 V2000
   -2.7028   -3.7071   -0.3026 H   0  0  0  0  0  0  0  0  0  0  0  0
   -2.6946   -2.6618   -0.6246 C   0  0  0  0  0  0  0  0  0  0  0  0
   -3.4183   -2.1039   -0.0256 H   0  0  0  0  0  0  0  0  0  0  0  0
   -2.9890   -2.6162   -1.6759 H   0  0  0  0  0  0  0  0  0  0  0  0
   -1.3078   -2.0722   -0.4481 C   0  0  0  0  0  0  0  0  0  0  0  0
   -0.4121   -2.7483    0.0257 O   0  0  0  0  0  0  0  0  0  0  0  0
   -1.0617   -0.7644   -0.8192 N   0  0  0  0  0  0  0  0  0  0  0  0
   -1.8366   -0.2437   -1.2227 H   0  0  0  0  0  0  0  0  0  0  0  0
    0.2543   -0.1072   -0.7225 C   0  0  1  0  0  0  0  0  0  0  0  0
    0.9572   -0.7414   -1.2761 H   0  0  0  0  0  0  0  0  0  0  0  0
    0.2031    1.2503   -1.4644 C   0  0  0  0  0  0  0  0  0  0  0  0
    1.1144    1.3447   -2.0614 H   0  0  0  0  0  0  0  0  0  0  0  0
   -0.6383    1.2726   -2.1626 H   0  0  0  0  0  0  0  0  0  0  0  0
    0.1387    2.4821   -0.5675 C   0  0  0  0  0  0  0  0  0  0  0  0
   -0.8034    3.2478   -0.6365 O   0  0  0  0  0  0  0  0  0  0  0  0
    1.2071    2.9011    0.1738 N   0  0  0  0  0  0  0  0  0  0  0  0
    1.0285    3.6779    0.8022 H   0  0  0  0  0  0  0  0  0  0  0  0
    1.9024    2.1987    0.4319 H   0  0  0  0  0  0  0  0  0  0  0  0
    0.8309   -0.0431    0.7107 C   0  0  0  0  0  0  0  0  0  0  0  0
    2.0430    0.0627    0.8488 O   0  0  0  0  0  0  0  0  0  0  0  0
    0.0186    0.3281    1.7671 N   0  0  0  0  0  0  0  0  0  0  0  0
   -0.9837    0.2602    1.6183 H   0  0  0  0  0  0  0  0  0  0  0  0
    0.5138    0.5512    3.1198 C   0  0  0  0  0  0  0  0  0  0  0  0
    1.2436    1.3675    3.1330 H   0  0  0  0  0  0  0  0  0  0  0  0
   -0.3129    0.8185    3.7850 H   0  0  0  0  0  0  0  0  0  0  0  0
    0.9910   -0.3556    3.5063 H   0  0  0  0  0  0  0  0  0  0  0  0
  1  2  1  0  0  0  0
  2  3  1  0  0  0  0
  2  4  1  0  0  0  0
  2  5  1  0  0  0  0
  5  6  2  0  0  0  0
  5  7  1  0  0  0  0
  7  8  1  0  0  0  0
  7  9  1  0  0  0  0
  9 10  1  0  0  0  0
  9 11  1  0  0  0  0
  9 19  1  0  0  0  0
 11 12  1  0  0  0  0
 11 13  1  0  0  0  0
 11 14  1  0  0  0  0
 14 15  2  0  0  0  0
 14 16  1  0  0  0  0
 16 17  1  0  0  0  0
 16 18  1  0  0  0  0
 19 20  2  0  0  0  0
 19 21  1  0  0  0  0
 21 22  1  0  0  0  0
 21 23  1  0  0  0  0
 23 24  1  0  0  0  0
 23 25  1  0  0  0  0
 23 26  1  0  0  0  0
M  END
$$$$

  -OEChem-03222214023D

 26 25  0     1  0  0  0  0  0999 V2000
   -2.6936   -3.6997   -0.2824 H   0  0  0  0  0  0  0  0  0  0  0  0
   -2.6894   -2.6549   -0.6059 C   0  0  0  0  0  0  0  0  0  0  0  0
   -3.3906   -2.0918    0.0146 H   0  0  0  0  0  0  0  0  0  0  0  0
   -3.0161   -2.6092   -1.6476 H   0  0  0  0  0  0  0  0  0  0  0  0
   -1.2944   -2.0731   -0.4734 C   0  0  0  0  0  0  0  0  0  0  0  0
   -0.3858   -2.7567   -0.0358 O   0  0  0  0  0  0  0  0  0  0  0  0
   -1.0533   -0.7659   -0.8495 N   0  0  0  0  0  0  0  0  0  0  0  0
   -1.8458   -0.2262   -1.1889 H   0  0  0  0  0  0  0  0  0  0  0  0
    0.2586   -0.1027   -0.7483 C   0  0  1  0  0  0  0  0  0  0  0  0
    0.9646   -0.7390   -1.2955 H   0  0  0  0  0  0  0  0  0  0  0  0
    0.2102    1.2481   -1.4986 C   0  0  0  0  0  0  0  0  0  0  0  0
    1.1245    1.3447   -2.0905 H   0  0  0  0  0  0  0  0  0  0  0  0
   -0.6277    1.2701   -2.2008 H   0  0  0  0  0  0  0  0  0  0  0  0
    0.1346    2.4694   -0.5910 C   0  0  0  0  0  0  0  0  0  0  0  0
   -0.9093    3.0795   -0.4588 O   0  0  0  0  0  0  0  0  0  0  0  0
    1.2287    2.9649    0.0589 N   0  0  0  0  0  0  0  0  0  0  0  0
    1.0293    3.6734    0.7581 H   0  0  0  0  0  0  0  0  0  0  0  0
    1.9991    2.3159    0.2219 H   0  0  0  0  0  0  0  0  0  0  0  0
    0.8389   -0.0219    0.6828 C   0  0  0  0  0  0  0  0  0  0  0  0
    2.0523    0.0787    0.8142 O   0  0  0  0  0  0  0  0  0  0  0  0
    0.0318    0.3544    1.7414 N   0  0  0  0  0  0  0  0  0  0  0  0
   -0.9716    0.3482    1.5831 H   0  0  0  0  0  0  0  0  0  0  0  0
    0.5343    0.6286    3.0817 C   0  0  0  0  0  0  0  0  0  0  0  0
    1.2574    1.4506    3.0613 H   0  0  0  0  0  0  0  0  0  0  0  0
   -0.2896    0.9122    3.7434 H   0  0  0  0  0  0  0  0  0  0  0  0
    1.0214   -0.2606    3.4955 H   0  0  0  0  0  0  0  0  0  0  0  0
  1  2  1  0  0  0  0
  2  3  1  0  0  0  0
  2  4  1  0  0  0  0
  2  5  1  0  0  0  0
  5  6  2  0  0  0  0
  5  7  1  0  0  0  0
  7  8  1  0  0  0  0
  7  9  1  0  0  0  0
  9 10  1  0  0  0  0
  9 11  1  0  0  0  0
  9 19  1  0  0  0  0
 11 12  1  0  0  0  0
 11 13  1  0  0  0  0
 11 14  1  0  0  0  0
 14 15  2  0  0  0  0
 14 16  1  0  0  0  0
 16 17  1  0  0  0  0
 16 18  1  0  0  0  0
 19 20  2  0  0  0  0
 19 21  1  0  0  0  0
 21 22  1  0  0  0  0
 21 23  1  0  0  0  0
 23 24  1  0  0  0  0
 23 25  1  0  0  0  0
 23 26  1  0  0  0  0
M  END
$$$$

  -OEChem-03222214023D

 26 25  0     1  0  0  0  0  0999 V2000
   -2.6809   -3.6920   -0.2436 H   0  0  0  0  0  0  0  0  0  0  0  0
   -2.6817   -2.6493   -0.5744 C   0  0  0  0  0  0  0  0  0  0  0  0
   -3.3446   -2.0745    0.0768 H   0  0  0  0  0  0  0  0  0  0  0  0
   -3.0598   -2.6060   -1.5987 H   0  0  0  0  0  0  0  0  0  0  0  0
   -1.2754   -2.0826   -0.5166 C   0  0  0  0  0  0  0  0  0  0  0  0
   -0.3502   -2.7805   -0.1402 O   0  0  0  0  0  0  0  0  0  0  0  0
   -1.0439   -0.7737   -0.8918 N   0  0  0  0  0  0  0  0  0  0  0  0
   -1.8551   -0.2144   -1.1440 H   0  0  0  0  0  0  0  0  0  0  0  0
    0.2625   -0.1031   -0.7788 C   0  0  1  0  0  0  0  0  0  0  0  0
    0.9767   -0.7329   -1.3228 H   0  0  0  0  0  0  0  0  0  0  0  0
    0.2076    1.2476   -1.5269 C   0  0  0  0  0  0  0  0  0  0  0  0
    1.1231    1.3565   -2.1149 H   0  0  0  0  0  0  0  0  0  0  0  0
   -0.6286    1.2695   -2.2311 H   0  0  0  0  0  0  0  0  0  0  0  0
    0.1146    2.4511   -0.6001 C   0  0  0  0  0  0  0  0  0  0  0  0
   -0.9705    2.8792   -0.2540 O   0  0  0  0  0  0  0  0  0  0  0  0
    1.2188    3.0343   -0.0485 N   0  0  0  0  0  0  0  0  0  0  0  0
    1.0262    3.6667    0.7222 H   0  0  0  0  0  0  0  0  0  0  0  0
    2.0651    2.4681   -0.0144 H   0  0  0  0  0  0  0  0  0  0  0  0
    0.8341   -0.0163    0.6563 C   0  0  0  0  0  0  0  0  0  0  0  0
    2.0481    0.0619    0.7967 O   0  0  0  0  0  0  0  0  0  0  0  0
    0.0211    0.3569    1.7117 N   0  0  0  0  0  0  0  0  0  0  0  0
   -0.9653    0.4940    1.5090 H   0  0  0  0  0  0  0  0  0  0  0  0
    0.5252    0.7136    3.0317 C   0  0  0  0  0  0  0  0  0  0  0  0
    1.1388    1.6187    2.9762 H   0  0  0  0  0  0  0  0  0  0  0  0
   -0.3079    0.9003    3.7163 H   0  0  0  0  0  0  0  0  0  0  0  0
    1.1324   -0.1002    3.4421 H   0  0  0  0  0  0  0  0  0  0  0  0
  1  2  1  0  0  0  0
  2  3  1  0  0  0  0
  2  4  1  0  0  0  0
  2  5  1  0  0  0  0
  5  6  2  0  0  0  0
  5  7  1  0  0  0  0
  7  8  1  0  0  0  0
  7  9  1  0  0  0  0
  9 10  1  0  0  0  0
  9 11  1  0  0  0  0
  9 19  1  0  0  0  0
 11 12  1  0  0  0  0
 11 13  1  0  0  0  0
 11 14  1  0  0  0  0
 14 15  2  0  0  0  0
 14 16  1  0  0  0  0
 16 17  1  0  0  0  0
 16 18  1  0  0  0  0
 19 20  2  0  0  0  0
 19 21  1  0  0  0  0
 21 22  1  0  0  0  0
 21 23  1  0  0  0  0
 23 24  1  0  0  0  0
 23 25  1  0  0  0  0
 23 26  1  0  0  0  0
M  END
$$$$

  -OEChem-03222214023D

 26 25  0     1  0  0  0  0  0999 V2000
   -2.6552   -3.7069   -0.2413 H   0  0  0  0  0  0  0  0  0  0  0  0
   -2.6689   -2.6597   -0.5565 C   0  0  0  0  0  0  0  0  0  0  0  0
   -3.3031   -2.0942    0.1305 H   0  0  0  0  0  0  0  0  0  0  0  0
   -3.0898   -2.6015   -1.5632 H   0  0  0  0  0  0  0  0  0  0  0  0
   -1.2610   -2.0940   -0.5486 C   0  0  0  0  0  0  0  0  0  0  0  0
   -0.3221   -2.7972   -0.2181 O   0  0  0  0  0  0  0  0  0  0  0  0
   -1.0449   -0.7816   -0.9208 N   0  0  0  0  0  0  0  0  0  0  0  0
   -1.8698   -0.2149   -1.1010 H   0  0  0  0  0  0  0  0  0  0  0  0
    0.2532   -0.0995   -0.7888 C   0  0  1  0  0  0  0  0  0  0  0  0
    0.9784   -0.7245   -1.3241 H   0  0  0  0  0  0  0  0  0  0  0  0
    0.1937    1.2470   -1.5435 C   0  0  0  0  0  0  0  0  0  0  0  0
    1.1163    1.3634   -2.1187 H   0  0  0  0  0  0  0  0  0  0  0  0
   -0.6334    1.2589   -2.2587 H   0  0  0  0  0  0  0  0  0  0  0  0
    0.0714    2.4472   -0.6169 C   0  0  0  0  0  0  0  0  0  0  0  0
   -0.9903    2.6938   -0.0732 O   0  0  0  0  0  0  0  0  0  0  0  0
    1.1552    3.1724   -0.2144 N   0  0  0  0  0  0  0  0  0  0  0  0
    0.9993    3.7533    0.6041 H   0  0  0  0  0  0  0  0  0  0  0  0
    2.0698    2.7469   -0.3436 H   0  0  0  0  0  0  0  0  0  0  0  0
    0.8149   -0.0038    0.6504 C   0  0  0  0  0  0  0  0  0  0  0  0
    2.0292    0.0365    0.8022 O   0  0  0  0  0  0  0  0  0  0  0  0
   -0.0028    0.3637    1.7042 N   0  0  0  0  0  0  0  0  0  0  0  0
   -0.9555    0.6262    1.4628 H   0  0  0  0  0  0  0  0  0  0  0  0
    0.5104    0.7489    3.0125 C   0  0  0  0  0  0  0  0  0  0  0  0
    1.0943    1.6720    2.9382 H   0  0  0  0  0  0  0  0  0  0  0  0
   -0.3175    0.9154    3.7081 H   0  0  0  0  0  0  0  0  0  0  0  0
    1.1491   -0.0413    3.4213 H   0  0  0  0  0  0  0  0  0  0  0  0
  1  2  1  0  0  0  0
  2  3  1  0  0  0  0
  2  4  1  0  0  0  0
  2  5  1  0  0  0  0
  5  6  2  0  0  0  0
  5  7  1  0  0  0  0
  7  8  1  0  0  0  0
  7  9  1  0  0  0  0
  9 10  1  0  0  0  0
  9 11  1  0  0  0  0
  9 19  1  0  0  0  0
 11 12  1  0  0  0  0
 11 13  1  0  0  0  0
 11 14  1  0  0  0  0
 14 15  2  0  0  0  0
 14 16  1  0  0  0  0
 16 17  1  0  0  0  0
 16 18  1  0  0  0  0
 19 20  2  0  0  0  0
 19 21  1  0  0  0  0
 21 22  1  0  0  0  0
 21 23  1  0  0  0  0
 23 24  1  0  0  0  0
 23 25  1  0  0  0  0
 23 26  1  0  0  0  0
M  END
$$$$

  -OEChem-03222214023D

 26 25  0     1  0  0  0  0  0999 V2000
   -2.6252   -3.7268   -0.2358 H   0  0  0  0  0  0  0  0  0  0  0  0
   -2.6540   -2.6781   -0.5454 C   0  0  0  0  0  0  0  0  0  0  0  0
   -3.2722   -2.1199    0.1617 H   0  0  0  0  0  0  0  0  0  0  0  0
   -3.1026   -2.6173   -1.5398 H   0  0  0  0  0  0  0  0  0  0  0  0
   -1.2499   -2.1039   -0.5739 C   0  0  0  0  0  0  0  0  0  0  0  0
   -0.2972   -2.8097   -0.2922 O   0  0  0  0  0  0  0  0  0  0  0  0
   -1.0537   -0.7836   -0.9293 N   0  0  0  0  0  0  0  0  0  0  0  0
   -1.8902   -0.2175   -1.0451 H   0  0  0  0  0  0  0  0  0  0  0  0
    0.2341   -0.0872   -0.7726 C   0  0  1  0  0  0  0  0  0  0  0  0
    0.9698   -0.7094   -1.2968 H   0  0  0  0  0  0  0  0  0  0  0  0
    0.1853    1.2508   -1.5446 C   0  0  0  0  0  0  0  0  0  0  0  0
    1.1232    1.3615   -2.0956 H   0  0  0  0  0  0  0  0  0  0  0  0
   -0.6212    1.2446   -2.2825 H   0  0  0  0  0  0  0  0  0  0  0  0
    0.0273    2.4710   -0.6485 C   0  0  0  0  0  0  0  0  0  0  0  0
   -0.9490    2.5859    0.0721 O   0  0  0  0  0  0  0  0  0  0  0  0
    1.0278    3.3825   -0.4735 N   0  0  0  0  0  0  0  0  0  0  0  0
    0.9293    3.9777    0.3439 H   0  0  0  0  0  0  0  0  0  0  0  0
    1.9593    3.1250   -0.7859 H   0  0  0  0  0  0  0  0  0  0  0  0
    0.7880    0.0041    0.6706 C   0  0  0  0  0  0  0  0  0  0  0  0
    2.0011   -0.0016    0.8345 O   0  0  0  0  0  0  0  0  0  0  0  0
   -0.0321    0.3513    1.7288 N   0  0  0  0  0  0  0  0  0  0  0  0
   -0.9501    0.7073    1.4694 H   0  0  0  0  0  0  0  0  0  0  0  0
    0.4886    0.7053    3.0430 C   0  0  0  0  0  0  0  0  0  0  0  0
    1.1013    1.6105    2.9810 H   0  0  0  0  0  0  0  0  0  0  0  0
   -0.3359    0.8894    3.7382 H   0  0  0  0  0  0  0  0  0  0  0  0
    1.1011   -0.1089    3.4448 H   0  0  0  0  0  0  0  0  0  0  0  0
  1  2  1  0  0  0  0
  2  3  1  0  0  0  0
  2  4  1  0  0  0  0
  2  5  1  0  0  0  0
  5  6  2  0  0  0  0
  5  7  1  0  0  0  0
  7  8  1  0  0  0  0
  7  9  1  0  0  0  0
  9 10  1  0  0  0  0
  9 11  1  0  0  0  0
  9 19  1  0  0  0  0
 11 12  1  0  0  0  0
 11 13  1  0  0  0  0
 11 14  1  0  0  0  0
 14 15  2  0  0  0  0
 14 16  1  0  0  0  0
 16 17  1  0  0  0  0
 16 18  1  0  0  0  0
 19 20  2  0  0  0  0
 19 21  1  0  0  0  0
 21 22  1  0  0  0  0
 21 23  1  0  0  0  0
 23 24  1  0  0  0  0
 23 25  1  0  0  0  0
 23 26  1  0  0  0  0
M  END
$$$$

  -OEChem-03222214023D

 26 25  0     1  0  0  0  0  0999 V2000
   -2.6089   -3.7474   -0.2721 H   0  0  0  0  0  0  0  0  0  0  0  0
   -2.6476   -2.6936   -0.5626 C   0  0  0  0  0  0  0  0  0  0  0  0
   -3.2670   -2.1535    0.1574 H   0  0  0  0  0  0  0  0  0  0  0  0
   -3.1006   -2.6182   -1.5540 H   0  0  0  0  0  0  0  0  0  0  0  0
   -1.2480   -2.1082   -0.5862 C   0  0  0  0  0  0  0  0  0  0  0  0
   -0.2891   -2.8151   -0.3294 O   0  0  0  0  0  0  0  0  0  0  0  0
   -1.0649   -0.7781   -0.9115 N   0  0  0  0  0  0  0  0  0  0  0  0
   -1.9080   -0.2168   -0.9957 H   0  0  0  0  0  0  0  0  0  0  0  0
    0.2147   -0.0729   -0.7289 C   0  0  1  0  0  0  0  0  0  0  0  0
    0.9551   -0.6956   -1.2464 H   0  0  0  0  0  0  0  0  0  0  0  0
    0.1870    1.2576   -1.5176 C   0  0  0  0  0  0  0  0  0  0  0  0
    1.1443    1.3539   -2.0371 H   0  0  0  0  0  0  0  0  0  0  0  0
   -0.5918    1.2333   -2.2843 H   0  0  0  0  0  0  0  0  0  0  0  0
    0.0008    2.5107   -0.6699 C   0  0  0  0  0  0  0  0  0  0  0  0
   -0.8358    2.5628    0.2145 O   0  0  0  0  0  0  0  0  0  0  0  0
    0.8167    3.5981   -0.7919 N   0  0  0  0  0  0  0  0  0  0  0  0
    0.7653    4.2680   -0.0295 H   0  0  0  0  0  0  0  0  0  0  0  0
    1.6879    3.4885   -1.3013 H   0  0  0  0  0  0  0  0  0  0  0  0
    0.7681   -0.0009    0.7164 C   0  0  0  0  0  0  0  0  0  0  0  0
    1.9801   -0.0481    0.8830 O   0  0  0  0  0  0  0  0  0  0  0  0
   -0.0485    0.3178    1.7859 N   0  0  0  0  0  0  0  0  0  0  0  0
   -0.9383    0.7412    1.5287 H   0  0  0  0  0  0  0  0  0  0  0  0
    0.4817    0.6181    3.1096 C   0  0  0  0  0  0  0  0  0  0  0  0
    1.1001    1.5211    3.0787 H   0  0  0  0  0  0  0  0  0  0  0  0
   -0.3378    0.7807    3.8159 H   0  0  0  0  0  0  0  0  0  0  0  0
    1.0909   -0.2146    3.4768 H   0  0  0  0  0  0  0  0  0  0  0  0
  1  2  1  0  0  0  0
  2  3  1  0  0  0  0
  2  4  1  0  0  0  0
  2  5  1  0  0  0  0
  5  6  2  0  0  0  0
  5  7  1  0  0  0  0
  7  8  1  0  0  0  0
  7  9  1  0  0  0  0
  9 10  1  0  0  0  0
  9 11  1  0  0  0  0
  9 19  1  0  0  0  0
 11 12  1  0  0  0  0
 11 13  1  0  0  0  0
 11 14  1  0  0  0  0
 14 15  2  0  0  0  0
 14 16  1  0  0  0  0
 16 17  1  0  0  0  0
 16 18  1  0  0  0  0
 19 20  2  0  0  0  0
 19 21  1  0  0  0  0
 21 22  1  0  0  0  0
 21 23  1  0  0  0  0
 23 24  1  0  0  0  0
 23 25  1  0  0  0  0
 23 26  1  0  0  0  0
M  END
$$$$

  -OEChem-03222214023D

 26 25  0     1  0  0  0  0  0999 V2000
   -2.5956   -3.7557   -0.3177 H   0  0  0  0  0  0  0  0  0  0  0  0
   -2.6407   -2.6959   -0.5843 C   0  0  0  0  0  0  0  0  0  0  0  0
   -3.2621   -2.1758    0.1486 H   0  0  0  0  0  0  0  0  0  0  0  0
   -3.0961   -2.6010   -1.5729 H   0  0  0  0  0  0  0  0  0  0  0  0
   -1.2444   -2.1021   -0.5965 C   0  0  0  0  0  0  0  0  0  0  0  0
   -0.2810   -2.8117   -0.3653 O   0  0  0  0  0  0  0  0  0  0  0  0
   -1.0707   -0.7624   -0.8868 N   0  0  0  0  0  0  0  0  0  0  0  0
   -1.9183   -0.2059   -0.9510 H   0  0  0  0  0  0  0  0  0  0  0  0
    0.2030   -0.0517   -0.6817 C   0  0  1  0  0  0  0  0  0  0  0  0
    0.9457   -0.6727   -1.1979 H   0  0  0  0  0  0  0  0  0  0  0  0
    0.1914    1.2750   -1.4804 C   0  0  0  0  0  0  0  0  0  0  0  0
    1.1645    1.3629   -1.9713 H   0  0  0  0  0  0  0  0  0  0  0  0
   -0.5632    1.2329   -2.2701 H   0  0  0  0  0  0  0  0  0  0  0  0
   -0.0147    2.5579   -0.6804 C   0  0  0  0  0  0  0  0  0  0  0  0
   -0.6656    2.5988    0.3473 O   0  0  0  0  0  0  0  0  0  0  0  0
    0.5341    3.7430   -1.0779 N   0  0  0  0  0  0  0  0  0  0  0  0
    0.5115    4.4889   -0.3879 H   0  0  0  0  0  0  0  0  0  0  0  0
    1.2703    3.7266   -1.7762 H   0  0  0  0  0  0  0  0  0  0  0  0
    0.7583   -0.0076    0.7647 C   0  0  0  0  0  0  0  0  0  0  0  0
    1.9686   -0.0916    0.9301 O   0  0  0  0  0  0  0  0  0  0  0  0
   -0.0546    0.2788    1.8464 N   0  0  0  0  0  0  0  0  0  0  0  0
   -0.9269    0.7440    1.6036 H   0  0  0  0  0  0  0  0  0  0  0  0
    0.4853    0.5235    3.1778 C   0  0  0  0  0  0  0  0  0  0  0  0
    1.1030    1.4276    3.1797 H   0  0  0  0  0  0  0  0  0  0  0  0
   -0.3290    0.6554    3.8965 H   0  0  0  0  0  0  0  0  0  0  0  0
    1.0980   -0.3231    3.5056 H   0  0  0  0  0  0  0  0  0  0  0  0
  1  2  1  0  0  0  0
  2  3  1  0  0  0  0
  2  4  1  0  0  0  0
  2  5  1  0  0  0  0
  5  6  2  0  0  0  0
  5  7  1  0  0  0  0
  7  8  1  0  0  0  0
  7  9  1  0  0  0  0
  9 10  1  0  0  0  0
  9 11  1  0  0  0  0
  9 19  1  0  0  0  0
 11 12  1  0  0  0  0
 11 13  1  0  0  0  0
 11 14  1  0  0  0  0
 14 15  2  0  0  0  0
 14 16  1  0  0  0  0
 16 17  1  0  0  0  0
 16 18  1  0  0  0  0
 19 20  2  0  0  0  0
 19 21  1  0  0  0  0
 21 22  1  0  0  0  0
 21 23  1  0  0  0  0
 23 24  1  0  0  0  0
 23 25  1  0  0  0  0
 23 26  1  0  0  0  0
M  END
$$$$

  -OEChem-03222214023D

 26 25  0     1  0  0  0  0  0999 V2000
   -2.5777   -3.7591   -0.3414 H   0  0  0  0  0  0  0  0  0  0  0  0
   -2.6300   -2.6954   -0.5906 C   0  0  0  0  0  0  0  0  0  0  0  0
   -3.2494   -2.1911    0.1549 H   0  0  0  0  0  0  0  0  0  0  0  0
   -3.0926   -2.5872   -1.5745 H   0  0  0  0  0  0  0  0  0  0  0  0
   -1.2372   -2.0933   -0.6023 C   0  0  0  0  0  0  0  0  0  0  0  0
   -0.2685   -2.8028   -0.3959 O   0  0  0  0  0  0  0  0  0  0  0  0
   -1.0743   -0.7465   -0.8663 N   0  0  0  0  0  0  0  0  0  0  0  0
   -1.9267   -0.1964   -0.9163 H   0  0  0  0  0  0  0  0  0  0  0  0
    0.1956   -0.0297   -0.6539 C   0  0  1  0  0  0  0  0  0  0  0  0
    0.9398   -0.6422   -1.1785 H   0  0  0  0  0  0  0  0  0  0  0  0
    0.1801    1.3016   -1.4492 C   0  0  0  0  0  0  0  0  0  0  0  0
    1.1560    1.3926   -1.9342 H   0  0  0  0  0  0  0  0  0  0  0  0
   -0.5684    1.2486   -2.2440 H   0  0  0  0  0  0  0  0  0  0  0  0
   -0.0334    2.6018   -0.6767 C   0  0  0  0  0  0  0  0  0  0  0  0
   -0.4512    2.6609    0.4631 O   0  0  0  0  0  0  0  0  0  0  0  0
    0.2302    3.8094   -1.2562 N   0  0  0  0  0  0  0  0  0  0  0  0
    0.2422    4.6051   -0.6239 H   0  0  0  0  0  0  0  0  0  0  0  0
    0.7869    3.8311   -2.1042 H   0  0  0  0  0  0  0  0  0  0  0  0
    0.7556   -0.0126    0.7913 C   0  0  0  0  0  0  0  0  0  0  0  0
    1.9637   -0.1287    0.9546 O   0  0  0  0  0  0  0  0  0  0  0  0
   -0.0561    0.2446    1.8815 N   0  0  0  0  0  0  0  0  0  0  0  0
   -0.9183    0.7334    1.6534 H   0  0  0  0  0  0  0  0  0  0  0  0
    0.4901    0.4477    3.2172 C   0  0  0  0  0  0  0  0  0  0  0  0
    1.1230    1.3410    3.2392 H   0  0  0  0  0  0  0  0  0  0  0  0
   -0.3206    0.5766    3.9405 H   0  0  0  0  0  0  0  0  0  0  0  0
    1.0888   -0.4170    3.5227 H   0  0  0  0  0  0  0  0  0  0  0  0
  1  2  1  0  0  0  0
  2  3  1  0  0  0  0
  2  4  1  0  0  0  0
  2  5  1  0  0  0  0
  5  6  2  0  0  0  0
  5  7  1  0  0  0  0
  7  8  1  0  0  0  0
  7  9  1  0  0  0  0
  9 10  1  0  0  0  0
  9 11  1  0  0  0  0
  9 19  1  0  0  0  0
 11 12  1  0  0  0  0
 11 13  1  0  0  0  0
 11 14  1  0  0  0  0
 14 15  2  0  0  0  0
 14 16  1  0  0  0  0
 16 17  1  0  0  0  0
 16 18  1  0  0  0  0
 19 20  2  0  0  0  0
 19 21  1  0  0  0  0
 21 22  1  0  0  0  0
 21 23  1  0  0  0  0
 23 24  1  0  0  0  0
 23 25  1  0  0  0  0
 23 26  1  0  0  0  0
M  END
$$$$

  -OEChem-03222214023D

 26 25  0     1  0  0  0  0  0999 V2000
   -2.5706   -3.7562   -0.3465 H   0  0  0  0  0  0  0  0  0  0  0  0
   -2.6259   -2.6910   -0.5883 C   0  0  0  0  0  0  0  0  0  0  0  0
   -3.2460   -2.1931    0.1609 H   0  0  0  0  0  0  0  0  0  0  0  0
   -3.0892   -2.5772   -1.5712 H   0  0  0  0  0  0  0  0  0  0  0  0
   -1.2347   -2.0853   -0.5965 C   0  0  0  0  0  0  0  0  0  0  0  0
   -0.2637   -2.7945   -0.4013 O   0  0  0  0  0  0  0  0  0  0  0  0
   -1.0770   -0.7351   -0.8464 N   0  0  0  0  0  0  0  0  0  0  0  0
   -1.9315   -0.1889   -0.8968 H   0  0  0  0  0  0  0  0  0  0  0  0
    0.1930   -0.0156   -0.6393 C   0  0  1  0  0  0  0  0  0  0  0  0
    0.9358   -0.6200   -1.1752 H   0  0  0  0  0  0  0  0  0  0  0  0
    0.1611    1.3203   -1.4292 C   0  0  0  0  0  0  0  0  0  0  0  0
    1.1319    1.4188   -1.9232 H   0  0  0  0  0  0  0  0  0  0  0  0
   -0.5934    1.2590   -2.2178 H   0  0  0  0  0  0  0  0  0  0  0  0
   -0.0518    2.6272   -0.6660 C   0  0  0  0  0  0  0  0  0  0  0  0
   -0.2061    2.7228    0.5344 O   0  0  0  0  0  0  0  0  0  0  0  0
   -0.0838    3.8168   -1.3345 N   0  0  0  0  0  0  0  0  0  0  0  0
   -0.0360    4.6465   -0.7492 H   0  0  0  0  0  0  0  0  0  0  0  0
    0.2683    3.8501   -2.2855 H   0  0  0  0  0  0  0  0  0  0  0  0
    0.7611   -0.0172    0.8031 C   0  0  0  0  0  0  0  0  0  0  0  0
    1.9669   -0.1613    0.9612 O   0  0  0  0  0  0  0  0  0  0  0  0
   -0.0471    0.2229    1.9005 N   0  0  0  0  0  0  0  0  0  0  0  0
   -0.9133    0.7088    1.6880 H   0  0  0  0  0  0  0  0  0  0  0  0
    0.5047    0.3975    3.2381 C   0  0  0  0  0  0  0  0  0  0  0  0
    1.1380    1.2901    3.2763 H   0  0  0  0  0  0  0  0  0  0  0  0
   -0.3032    0.5108    3.9673 H   0  0  0  0  0  0  0  0  0  0  0  0
    1.1044   -0.4734    3.5232 H   0  0  0  0  0  0  0  0  0  0  0  0
  1  2  1  0  0  0  0
  2  3  1  0  0  0  0
  2  4  1  0  0  0  0
  2  5  1  0  0  0  0
  5  6  2  0  0  0  0
  5  7  1  0  0  0  0
  7  8  1  0  0  0  0
  7  9  1  0  0  0  0
  9 10  1  0  0  0  0
  9 11  1  0  0  0  0
  9 19  1  0  0  0  0
 11 12  1  0  0  0  0
 11 13  1  0  0  0  0
 11 14  1  0  0  0  0
 14 15  2  0  0  0  0
 14 16  1  0  0  0  0
 16 17  1  0  0  0  0
 16 18  1  0  0  0  0
 19 20  2  0  0  0  0
 19 21  1  0  0  0  0
 21 22  1  0  0  0  0
 21 23  1  0  0  0  0
 23 24  1  0  0  0  0
 23 25  1  0  0  0  0
 23 26  1  0  0  0  0
M  END
$$$$

  -OEChem-03222214023D

 26 25  0     1  0  0  0  0  0999 V2000
   -2.5734   -3.7531   -0.3431 H   0  0  0  0  0  0  0  0  0  0  0  0
   -2.6279   -2.6869   -0.5809 C   0  0  0  0  0  0  0  0  0  0  0  0
   -3.2486   -2.1921    0.1699 H   0  0  0  0  0  0  0  0  0  0  0  0
   -3.0905   -2.5696   -1.5637 H   0  0  0  0  0  0  0  0  0  0  0  0
   -1.2360   -2.0823   -0.5859 C   0  0  0  0  0  0  0  0  0  0  0  0
   -0.2664   -2.7932   -0.3911 O   0  0  0  0  0  0  0  0  0  0  0  0
   -1.0760   -0.7318   -0.8338 N   0  0  0  0  0  0  0  0  0  0  0  0
   -1.9291   -0.1848   -0.8949 H   0  0  0  0  0  0  0  0  0  0  0  0
    0.1980   -0.0153   -0.6369 C   0  0  1  0  0  0  0  0  0  0  0  0
    0.9380   -0.6132   -1.1837 H   0  0  0  0  0  0  0  0  0  0  0  0
    0.1479    1.3278   -1.4151 C   0  0  0  0  0  0  0  0  0  0  0  0
    1.1088    1.4356   -1.9260 H   0  0  0  0  0  0  0  0  0  0  0  0
   -0.6189    1.2662   -2.1917 H   0  0  0  0  0  0  0  0  0  0  0  0
   -0.0559    2.6315   -0.6431 C   0  0  0  0  0  0  0  0  0  0  0  0
    0.0632    2.7738    0.5556 O   0  0  0  0  0  0  0  0  0  0  0  0
   -0.3889    3.7757   -1.3088 N   0  0  0  0  0  0  0  0  0  0  0  0
   -0.3090    4.6307   -0.7648 H   0  0  0  0  0  0  0  0  0  0  0  0
   -0.2626    3.8063   -2.3150 H   0  0  0  0  0  0  0  0  0  0  0  0
    0.7704   -0.0277    0.8036 C   0  0  0  0  0  0  0  0  0  0  0  0
    1.9732   -0.1943    0.9603 O   0  0  0  0  0  0  0  0  0  0  0  0
   -0.0357    0.2093    1.9036 N   0  0  0  0  0  0  0  0  0  0  0  0
   -0.9189    0.6651    1.7010 H   0  0  0  0  0  0  0  0  0  0  0  0
    0.5181    0.3799    3.2408 C   0  0  0  0  0  0  0  0  0  0  0  0
    1.1479    1.2748    3.2813 H   0  0  0  0  0  0  0  0  0  0  0  0
   -0.2879    0.4865    3.9728 H   0  0  0  0  0  0  0  0  0  0  0  0
    1.1223   -0.4894    3.5207 H   0  0  0  0  0  0  0  0  0  0  0  0
  1  2  1  0  0  0  0
  2  3  1  0  0  0  0
  2  4  1  0  0  0  0
  2  5  1  0  0  0  0
  5  6  2  0  0  0  0
  5  7  1  0  0  0  0
  7  8  1  0  0  0  0
  7  9  1  0  0  0  0
  9 10  1  0  0  0  0
  9 11  1  0  0  0  0
  9 19  1  0  0  0  0
 11 12  1  0  0  0  0
 11 13  1  0  0  0  0
 11 14  1  0  0  0  0
 14 15  2  0  0  0  0
 14 16  1  0  0  0  0
 16 17  1  0  0  0  0
 16 18  1  0  0  0  0
 19 20  2  0  0  0  0
 19 21  1  0  0  0  0
 21 22  1  0  0  0  0
 21 23  1  0  0  0  0
 23 24  1  0  0  0  0
 23 25  1  0  0  0  0
 23 26  1  0  0  0  0
M  END
$$$$

  -OEChem-03222214023D

 26 25  0     1  0  0  0  0  0999 V2000
   -2.5834   -3.7449   -0.3152 H   0  0  0  0  0  0  0  0  0  0  0  0
   -2.6305   -2.6822   -0.5698 C   0  0  0  0  0  0  0  0  0  0  0  0
   -3.2563   -2.1728    0.1666 H   0  0  0  0  0  0  0  0  0  0  0  0
   -3.0819   -2.5776   -1.5593 H   0  0  0  0  0  0  0  0  0  0  0  0
   -1.2358   -2.0846   -0.5694 C   0  0  0  0  0  0  0  0  0  0  0  0
   -0.2715   -2.7984   -0.3605 O   0  0  0  0  0  0  0  0  0  0  0  0
   -1.0672   -0.7374   -0.8295 N   0  0  0  0  0  0  0  0  0  0  0  0
   -1.9159   -0.1872   -0.9148 H   0  0  0  0  0  0  0  0  0  0  0  0
    0.2134   -0.0278   -0.6469 C   0  0  1  0  0  0  0  0  0  0  0  0
    0.9497   -0.6236   -1.2009 H   0  0  0  0  0  0  0  0  0  0  0  0
    0.1467    1.3226   -1.4111 C   0  0  0  0  0  0  0  0  0  0  0  0
    1.0971    1.4389   -1.9395 H   0  0  0  0  0  0  0  0  0  0  0  0
   -0.6341    1.2677   -2.1738 H   0  0  0  0  0  0  0  0  0  0  0  0
   -0.0410    2.6141   -0.6144 C   0  0  0  0  0  0  0  0  0  0  0  0
    0.3431    2.8103    0.5187 O   0  0  0  0  0  0  0  0  0  0  0  0
   -0.6788    3.6822   -1.1771 N   0  0  0  0  0  0  0  0  0  0  0  0
   -0.5857    4.5560   -0.6658 H   0  0  0  0  0  0  0  0  0  0  0  0
   -0.7944    3.7010   -2.1847 H   0  0  0  0  0  0  0  0  0  0  0  0
    0.7851   -0.0386    0.7932 C   0  0  0  0  0  0  0  0  0  0  0  0
    1.9844   -0.2241    0.9544 O   0  0  0  0  0  0  0  0  0  0  0  0
   -0.0233    0.2112    1.8890 N   0  0  0  0  0  0  0  0  0  0  0  0
   -0.9283    0.6202    1.6874 H   0  0  0  0  0  0  0  0  0  0  0  0
    0.5248    0.3940    3.2269 C   0  0  0  0  0  0  0  0  0  0  0  0
    1.1745    1.2753    3.2558 H   0  0  0  0  0  0  0  0  0  0  0  0
   -0.2836    0.5327    3.9509 H   0  0  0  0  0  0  0  0  0  0  0  0
    1.1074   -0.4837    3.5260 H   0  0  0  0  0  0  0  0  0  0  0  0
  1  2  1  0  0  0  0
  2  3  1  0  0  0  0
  2  4  1  0  0  0  0
  2  5  1  0  0  0  0
  5  6  2  0  0  0  0
  5  7  1  0  0  0  0
  7  8  1  0  0  0  0
  7  9  1  0  0  0  0
  9 10  1  0  0  0  0
  9 11  1  0  0  0  0
  9 19  1  0  0  0  0
 11 12  1  0  0  0  0
 11 13  1  0  0  0  0
 11 14  1  0  0  0  0
 14 15  2  0  0  0  0
 14 16  1  0  0  0  0
 16 17  1  0  0  0  0
 16 18  1  0  0  0  0
 19 20  2  0  0  0  0
 19 21  1  0  0  0  0
 21 22  1  0  0  0  0
 21 23  1  0  0  0  0
 23 24  1  0  0  0  0
 23 25  1  0  0  0  0
 23 26  1  0  0  0  0
M  END
$$$$

  -OEChem-03222214023D

 26 25  0     1  0  0  0  0  0999 V2000
   -2.6046   -3.7336   -0.3064 H   0  0  0  0  0  0  0  0  0  0  0  0
   -2.6375   -2.6712   -0.5648 C   0  0  0  0  0  0  0  0  0  0  0  0
   -3.2660   -2.1528    0.1632 H   0  0  0  0  0  0  0  0  0  0  0  0
   -3.0769   -2.5650   -1.5596 H   0  0  0  0  0  0  0  0  0  0  0  0
   -1.2367   -2.0882   -0.5508 C   0  0  0  0  0  0  0  0  0  0  0  0
   -0.2846   -2.8070   -0.3081 O   0  0  0  0  0  0  0  0  0  0  0  0
   -1.0483   -0.7489   -0.8370 N   0  0  0  0  0  0  0  0  0  0  0  0
   -1.8874   -0.1926   -0.9654 H   0  0  0  0  0  0  0  0  0  0  0  0
    0.2415   -0.0520   -0.6678 C   0  0  1  0  0  0  0  0  0  0  0  0
    0.9758   -0.6497   -1.2224 H   0  0  0  0  0  0  0  0  0  0  0  0
    0.1624    1.3040   -1.4196 C   0  0  0  0  0  0  0  0  0  0  0  0
    1.1035    1.4282   -1.9630 H   0  0  0  0  0  0  0  0  0  0  0  0
   -0.6305    1.2625   -2.1705 H   0  0  0  0  0  0  0  0  0  0  0  0
   -0.0055    2.5752   -0.5879 C   0  0  0  0  0  0  0  0  0  0  0  0
    0.6143    2.8366    0.4208 O   0  0  0  0  0  0  0  0  0  0  0  0
   -0.9280    3.5190   -0.9382 N   0  0  0  0  0  0  0  0  0  0  0  0
   -0.8452    4.4018   -0.4405 H   0  0  0  0  0  0  0  0  0  0  0  0
   -1.2924    3.5110   -1.8847 H   0  0  0  0  0  0  0  0  0  0  0  0
    0.8035   -0.0471    0.7758 C   0  0  0  0  0  0  0  0  0  0  0  0
    1.9977   -0.2484    0.9529 O   0  0  0  0  0  0  0  0  0  0  0  0
   -0.0130    0.2332    1.8585 N   0  0  0  0  0  0  0  0  0  0  0  0
   -0.9342    0.5973    1.6470 H   0  0  0  0  0  0  0  0  0  0  0  0
    0.5200    0.4420    3.1987 C   0  0  0  0  0  0  0  0  0  0  0  0
    1.1741    1.3203    3.2158 H   0  0  0  0  0  0  0  0  0  0  0  0
   -0.2957    0.6009    3.9101 H   0  0  0  0  0  0  0  0  0  0  0  0
    1.0943   -0.4319    3.5241 H   0  0  0  0  0  0  0  0  0  0  0  0
  1  2  1  0  0  0  0
  2  3  1  0  0  0  0
  2  4  1  0  0  0  0
  2  5  1  0  0  0  0
  5  6  2  0  0  0  0
  5  7  1  0  0  0  0
  7  8  1  0  0  0  0
  7  9  1  0  0  0  0
  9 10  1  0  0  0  0
  9 11  1  0  0  0  0
  9 19  1  0  0  0  0
 11 12  1  0  0  0  0
 11 13  1  0  0  0  0
 11 14  1  0  0  0  0
 14 15  2  0  0  0  0
 14 16  1  0  0  0  0
 16 17  1  0  0  0  0
 16 18  1  0  0  0  0
 19 20  2  0  0  0  0
 19 21  1  0  0  0  0
 21 22  1  0  0  0  0
 21 23  1  0  0  0  0
 23 24  1  0  0  0  0
 23 25  1  0  0  0  0
 23 26  1  0  0  0  0
M  END
$$$$

  -OEChem-03222214023D

 26 25  0     1  0  0  0  0  0999 V2000
   -2.6189   -3.7234   -0.2817 H   0  0  0  0  0  0  0  0  0  0  0  0
   -2.6399   -2.6678   -0.5676 C   0  0  0  0  0  0  0  0  0  0  0  0
   -3.2859   -2.1290    0.1295 H   0  0  0  0  0  0  0  0  0  0  0  0
   -3.0514   -2.5853   -1.5764 H   0  0  0  0  0  0  0  0  0  0  0  0
   -1.2372   -2.0906   -0.5298 C   0  0  0  0  0  0  0  0  0  0  0  0
   -0.2957   -2.8057   -0.2405 O   0  0  0  0  0  0  0  0  0  0  0  0
   -1.0354   -0.7597   -0.8440 N   0  0  0  0  0  0  0  0  0  0  0  0
   -1.8656   -0.2058   -1.0273 H   0  0  0  0  0  0  0  0  0  0  0  0
    0.2592   -0.0686   -0.6886 C   0  0  1  0  0  0  0  0  0  0  0  0
    0.9931   -0.6692   -1.2405 H   0  0  0  0  0  0  0  0  0  0  0  0
    0.1711    1.2887   -1.4337 C   0  0  0  0  0  0  0  0  0  0  0  0
    1.1050    1.4203   -1.9881 H   0  0  0  0  0  0  0  0  0  0  0  0
   -0.6320    1.2616   -2.1743 H   0  0  0  0  0  0  0  0  0  0  0  0
    0.0186    2.5350   -0.5658 C   0  0  0  0  0  0  0  0  0  0  0  0
    0.8215    2.8848    0.2730 O   0  0  0  0  0  0  0  0  0  0  0  0
   -1.0954    3.3201   -0.6531 N   0  0  0  0  0  0  0  0  0  0  0  0
   -1.0275    4.2076   -0.1613 H   0  0  0  0  0  0  0  0  0  0  0  0
   -1.6644    3.2566   -1.4900 H   0  0  0  0  0  0  0  0  0  0  0  0
    0.8163   -0.0385    0.7563 C   0  0  0  0  0  0  0  0  0  0  0  0
    2.0086   -0.2380    0.9442 O   0  0  0  0  0  0  0  0  0  0  0  0
   -0.0033    0.2706    1.8286 N   0  0  0  0  0  0  0  0  0  0  0  0
   -0.9460    0.5744    1.6168 H   0  0  0  0  0  0  0  0  0  0  0  0
    0.5162    0.4873    3.1726 C   0  0  0  0  0  0  0  0  0  0  0  0
    1.1998    1.3430    3.1830 H   0  0  0  0  0  0  0  0  0  0  0  0
   -0.3036    0.6888    3.8682 H   0  0  0  0  0  0  0  0  0  0  0  0
    1.0552   -0.3995    3.5227 H   0  0  0  0  0  0  0  0  0  0  0  0
  1  2  1  0  0  0  0
  2  3  1  0  0  0  0
  2  4  1  0  0  0  0
  2  5  1  0  0  0  0
  5  6  2  0  0  0  0
  5  7  1  0  0  0  0
  7  8  1  0  0  0  0
  7  9  1  0  0  0  0
  9 10  1  0  0  0  0
  9 11  1  0  0  0  0
  9 19  1  0  0  0  0
 11 12  1  0  0  0  0
 11 13  1  0  0  0  0
 11 14  1  0  0  0  0
 14 15  2  0  0  0  0
 14 16  1  0  0  0  0
 16 17  1  0  0  0  0
 16 18  1  0  0  0  0
 19 20  2  0  0  0  0
 19 21  1  0  0  0  0
 21 22  1  0  0  0  0
 21 23  1  0  0  0  0
 23 24  1  0  0  0  0
 23 25  1  0  0  0  0
 23 26  1  0  0  0  0
M  END
$$$$

  -OEChem-03222214023D

 26 25  0     1  0  0  0  0  0999 V2000
   -2.6211   -3.7359   -0.2843 H   0  0  0  0  0  0  0  0  0  0  0  0
   -2.6410   -2.6838   -0.5830 C   0  0  0  0  0  0  0  0  0  0  0  0
   -3.3186   -2.1433    0.0821 H   0  0  0  0  0  0  0  0  0  0  0  0
   -3.0136   -2.6174   -1.6080 H   0  0  0  0  0  0  0  0  0  0  0  0
   -1.2461   -2.0928   -0.4974 C   0  0  0  0  0  0  0  0  0  0  0  0
   -0.3145   -2.7919   -0.1443 O   0  0  0  0  0  0  0  0  0  0  0  0
   -1.0379   -0.7689   -0.8375 N   0  0  0  0  0  0  0  0  0  0  0  0
   -1.8543   -0.2323   -1.1109 H   0  0  0  0  0  0  0  0  0  0  0  0
    0.2601   -0.0795   -0.7016 C   0  0  1  0  0  0  0  0  0  0  0  0
    0.9901   -0.6838   -1.2542 H   0  0  0  0  0  0  0  0  0  0  0  0
    0.1686    1.2794   -1.4405 C   0  0  0  0  0  0  0  0  0  0  0  0
    1.0954    1.4131   -2.0066 H   0  0  0  0  0  0  0  0  0  0  0  0
   -0.6464    1.2693   -2.1680 H   0  0  0  0  0  0  0  0  0  0  0  0
    0.0363    2.5035   -0.5411 C   0  0  0  0  0  0  0  0  0  0  0  0
    0.9597    2.9673    0.0939 O   0  0  0  0  0  0  0  0  0  0  0  0
   -1.1647    3.1299   -0.3646 N   0  0  0  0  0  0  0  0  0  0  0  0
   -1.1073    4.0233    0.1182 H   0  0  0  0  0  0  0  0  0  0  0  0
   -1.8904    2.9844   -1.0573 H   0  0  0  0  0  0  0  0  0  0  0  0
    0.8236   -0.0243    0.7403 C   0  0  0  0  0  0  0  0  0  0  0  0
    2.0179   -0.2090    0.9271 O   0  0  0  0  0  0  0  0  0  0  0  0
    0.0081    0.3082    1.8083 N   0  0  0  0  0  0  0  0  0  0  0  0
   -0.9537    0.5518    1.6038 H   0  0  0  0  0  0  0  0  0  0  0  0
    0.5204    0.5210    3.1556 C   0  0  0  0  0  0  0  0  0  0  0  0
    1.2257    1.3590    3.1668 H   0  0  0  0  0  0  0  0  0  0  0  0
   -0.3005    0.7483    3.8421 H   0  0  0  0  0  0  0  0  0  0  0  0
    1.0334   -0.3769    3.5164 H   0  0  0  0  0  0  0  0  0  0  0  0
  1  2  1  0  0  0  0
  2  3  1  0  0  0  0
  2  4  1  0  0  0  0
  2  5  1  0  0  0  0
  5  6  2  0  0  0  0
  5  7  1  0  0  0  0
  7  8  1  0  0  0  0
  7  9  1  0  0  0  0
  9 10  1  0  0  0  0
  9 11  1  0  0  0  0
  9 19  1  0  0  0  0
 11 12  1  0  0  0  0
 11 13  1  0  0  0  0
 11 14  1  0  0  0  0
 14 15  2  0  0  0  0
 14 16  1  0  0  0  0
 16 17  1  0  0  0  0
 16 18  1  0  0  0  0
 19 20  2  0  0  0  0
 19 21  1  0  0  0  0
 21 22  1  0  0  0  0
 21 23  1  0  0  0  0
 23 24  1  0  0  0  0
 23 25  1  0  0  0  0
 23 26  1  0  0  0  0
M  END
$$$$

  -OEChem-03222214023D

 26 25  0     1  0  0  0  0  0999 V2000
   -2.6366   -3.7546   -0.3309 H   0  0  0  0  0  0  0  0  0  0  0  0
   -2.6496   -2.7045   -0.6373 C   0  0  0  0  0  0  0  0  0  0  0  0
   -3.3849   -2.1713   -0.0301 H   0  0  0  0  0  0  0  0  0  0  0  0
   -2.9430   -2.6494   -1.6884 H   0  0  0  0  0  0  0  0  0  0  0  0
   -1.2750   -2.0906   -0.4483 C   0  0  0  0  0  0  0  0  0  0  0  0
   -0.3695   -2.7646    0.0062 O   0  0  0  0  0  0  0  0  0  0  0  0
   -1.0559   -0.7735   -0.8068 N   0  0  0  0  0  0  0  0  0  0  0  0
   -1.8321   -0.2816   -1.2365 H   0  0  0  0  0  0  0  0  0  0  0  0
    0.2489   -0.0924   -0.6939 C   0  0  1  0  0  0  0  0  0  0  0  0
    0.9686   -0.7035   -1.2522 H   0  0  0  0  0  0  0  0  0  0  0  0
    0.1544    1.2675   -1.4293 C   0  0  0  0  0  0  0  0  0  0  0  0
    1.0707    1.3962   -2.0138 H   0  0  0  0  0  0  0  0  0  0  0  0
   -0.6767    1.2725   -2.1383 H   0  0  0  0  0  0  0  0  0  0  0  0
    0.0484    2.4789   -0.5102 C   0  0  0  0  0  0  0  0  0  0  0  0
    1.0194    3.0796   -0.1007 O   0  0  0  0  0  0  0  0  0  0  0  0
   -1.1617    2.9605   -0.0967 N   0  0  0  0  0  0  0  0  0  0  0  0
   -1.1215    3.8643    0.3680 H   0  0  0  0  0  0  0  0  0  0  0  0
   -1.9901    2.7041   -0.6209 H   0  0  0  0  0  0  0  0  0  0  0  0
    0.8334   -0.0201    0.7395 C   0  0  0  0  0  0  0  0  0  0  0  0
    2.0348   -0.1726    0.9069 O   0  0  0  0  0  0  0  0  0  0  0  0
    0.0355    0.3333    1.8135 N   0  0  0  0  0  0  0  0  0  0  0  0
   -0.9459    0.5079    1.6311 H   0  0  0  0  0  0  0  0  0  0  0  0
    0.5597    0.5513    3.1553 C   0  0  0  0  0  0  0  0  0  0  0  0
    1.2743    1.3812    3.1551 H   0  0  0  0  0  0  0  0  0  0  0  0
   -0.2536    0.7938    3.8456 H   0  0  0  0  0  0  0  0  0  0  0  0
    1.0651   -0.3494    3.5197 H   0  0  0  0  0  0  0  0  0  0  0  0
  1  2  1  0  0  0  0
  2  3  1  0  0  0  0
  2  4  1  0  0  0  0
  2  5  1  0  0  0  0
  5  6  2  0  0  0  0
  5  7  1  0  0  0  0
  7  8  1  0  0  0  0
  7  9  1  0  0  0  0
  9 10  1  0  0  0  0
  9 11  1  0  0  0  0
  9 19  1  0  0  0  0
 11 12  1  0  0  0  0
 11 13  1  0  0  0  0
 11 14  1  0  0  0  0
 14 15  2  0  0  0  0
 14 16  1  0  0  0  0
 16 17  1  0  0  0  0
 16 18  1  0  0  0  0
 19 20  2  0  0  0  0
 19 21  1  0  0  0  0
 21 22  1  0  0  0  0
 21 23  1  0  0  0  0
 23 24  1  0  0  0  0
 23 25  1  0  0  0  0
 23 26  1  0  0  0  0
M  END
$$$$

  -OEChem-03222214023D

 26 25  0     1  0  0  0  0  0999 V2000
   -2.6349   -3.7610   -0.3642 H   0  0  0  0  0  0  0  0  0  0  0  0
   -2.6451   -2.7222   -0.7072 C   0  0  0  0  0  0  0  0  0  0  0  0
   -3.4681   -2.1981   -0.2156 H   0  0  0  0  0  0  0  0  0  0  0  0
   -2.8073   -2.7124   -1.7878 H   0  0  0  0  0  0  0  0  0  0  0  0
   -1.3264   -2.0503   -0.3726 C   0  0  0  0  0  0  0  0  0  0  0  0
   -0.4765   -2.6621    0.2470 O   0  0  0  0  0  0  0  0  0  0  0  0
   -1.1013   -0.7439   -0.7665 N   0  0  0  0  0  0  0  0  0  0  0  0
   -1.7960   -0.3473   -1.3922 H   0  0  0  0  0  0  0  0  0  0  0  0
    0.2152   -0.0790   -0.6817 C   0  0  1  0  0  0  0  0  0  0  0  0
    0.9187   -0.7161   -1.2317 H   0  0  0  0  0  0  0  0  0  0  0  0
    0.1444    1.2642   -1.4481 C   0  0  0  0  0  0  0  0  0  0  0  0
    1.0573    1.3564   -2.0451 H   0  0  0  0  0  0  0  0  0  0  0  0
   -0.6947    1.2718   -2.1477 H   0  0  0  0  0  0  0  0  0  0  0  0
    0.0694    2.5060   -0.5669 C   0  0  0  0  0  0  0  0  0  0  0  0
    1.0201    3.2428   -0.4041 O   0  0  0  0  0  0  0  0  0  0  0  0
   -1.0981    2.9046    0.0206 N   0  0  0  0  0  0  0  0  0  0  0  0
   -1.0098    3.6575    0.6981 H   0  0  0  0  0  0  0  0  0  0  0  0
   -1.8711    2.2536    0.0792 H   0  0  0  0  0  0  0  0  0  0  0  0
    0.8241    0.0220    0.7392 C   0  0  0  0  0  0  0  0  0  0  0  0
    2.0359   -0.0598    0.8742 O   0  0  0  0  0  0  0  0  0  0  0  0
    0.0462    0.4118    1.8154 N   0  0  0  0  0  0  0  0  0  0  0  0
   -0.9560    0.3082    1.7065 H   0  0  0  0  0  0  0  0  0  0  0  0
    0.5897    0.5644    3.1594 C   0  0  0  0  0  0  0  0  0  0  0  0
    1.3931    1.3089    3.1649 H   0  0  0  0  0  0  0  0  0  0  0  0
   -0.1917    0.8976    3.8488 H   0  0  0  0  0  0  0  0  0  0  0  0
    0.9904   -0.3885    3.5207 H   0  0  0  0  0  0  0  0  0  0  0  0
  1  2  1  0  0  0  0
  2  3  1  0  0  0  0
  2  4  1  0  0  0  0
  2  5  1  0  0  0  0
  5  6  2  0  0  0  0
  5  7  1  0  0  0  0
  7  8  1  0  0  0  0
  7  9  1  0  0  0  0
  9 10  1  0  0  0  0
  9 11  1  0  0  0  0
  9 19  1  0  0  0  0
 11 12  1  0  0  0  0
 11 13  1  0  0  0  0
 11 14  1  0  0  0  0
 14 15  2  0  0  0  0
 14 16  1  0  0  0  0
 16 17  1  0  0  0  0
 16 18  1  0  0  0  0
 19 20  2  0  0  0  0
 19 21  1  0  0  0  0
 21 22  1  0  0  0  0
 21 23  1  0  0  0  0
 23 24  1  0  0  0  0
 23 25  1  0  0  0  0
 23 26  1  0  0  0  0
M  END
$$$$

  -OEChem-03222214023D

 26 25  0     1  0  0  0  0  0999 V2000
   -2.6321   -3.7755   -0.4094 H   0  0  0  0  0  0  0  0  0  0  0  0
   -2.6493   -2.7291   -0.7280 C   0  0  0  0  0  0  0  0  0  0  0  0
   -3.4781   -2.2227   -0.2276 H   0  0  0  0  0  0  0  0  0  0  0  0
   -2.8075   -2.6953   -1.8087 H   0  0  0  0  0  0  0  0  0  0  0  0
   -1.3372   -2.0551   -0.3727 C   0  0  0  0  0  0  0  0  0  0  0  0
   -0.4931   -2.6652    0.2567 O   0  0  0  0  0  0  0  0  0  0  0  0
   -1.1127   -0.7443   -0.7511 N   0  0  0  0  0  0  0  0  0  0  0  0
   -1.8056   -0.3426   -1.3764 H   0  0  0  0  0  0  0  0  0  0  0  0
    0.2051   -0.0826   -0.6650 C   0  0  1  0  0  0  0  0  0  0  0  0
    0.9013   -0.7231   -1.2201 H   0  0  0  0  0  0  0  0  0  0  0  0
    0.1531    1.2620   -1.4297 C   0  0  0  0  0  0  0  0  0  0  0  0
    1.0685    1.3416   -2.0244 H   0  0  0  0  0  0  0  0  0  0  0  0
   -0.6847    1.2766   -2.1305 H   0  0  0  0  0  0  0  0  0  0  0  0
    0.0857    2.5104   -0.5569 C   0  0  0  0  0  0  0  0  0  0  0  0
    0.9408    3.3711   -0.6022 O   0  0  0  0  0  0  0  0  0  0  0  0
   -1.0230    2.8213    0.1782 N   0  0  0  0  0  0  0  0  0  0  0  0
   -0.9069    3.6112    0.8073 H   0  0  0  0  0  0  0  0  0  0  0  0
   -1.6609    2.0749    0.4238 H   0  0  0  0  0  0  0  0  0  0  0  0
    0.8236    0.0003    0.7523 C   0  0  0  0  0  0  0  0  0  0  0  0
    2.0399   -0.0237    0.8666 O   0  0  0  0  0  0  0  0  0  0  0  0
    0.0517    0.3768    1.8378 N   0  0  0  0  0  0  0  0  0  0  0  0
   -0.9398    0.1799    1.7598 H   0  0  0  0  0  0  0  0  0  0  0  0
    0.6167    0.5385    3.1723 C   0  0  0  0  0  0  0  0  0  0  0  0
    1.4042    1.2999    3.1656 H   0  0  0  0  0  0  0  0  0  0  0  0
   -0.1587    0.8541    3.8766 H   0  0  0  0  0  0  0  0  0  0  0  0
    1.0437   -0.4066    3.5242 H   0  0  0  0  0  0  0  0  0  0  0  0
  1  2  1  0  0  0  0
  2  3  1  0  0  0  0
  2  4  1  0  0  0  0
  2  5  1  0  0  0  0
  5  6  2  0  0  0  0
  5  7  1  0  0  0  0
  7  8  1  0  0  0  0
  7  9  1  0  0  0  0
  9 10  1  0  0  0  0
  9 11  1  0  0  0  0
  9 19  1  0  0  0  0
 11 12  1  0  0  0  0
 11 13  1  0  0  0  0
 11 14  1  0  0  0  0
 14 15  2  0  0  0  0
 14 16  1  0  0  0  0
 16 17  1  0  0  0  0
 16 18  1  0  0  0  0
 19 20  2  0  0  0  0
 19 21  1  0  0  0  0
 21 22  1  0  0  0  0
 21 23  1  0  0  0  0
 23 24  1  0  0  0  0
 23 25  1  0  0  0  0
 23 26  1  0  0  0  0
M  END
$$$$

  -OEChem-03222214023D

 26 25  0     1  0  0  0  0  0999 V2000
   -2.6465   -3.7717   -0.4167 H   0  0  0  0  0  0  0  0  0  0  0  0
   -2.6570   -2.7235   -0.7293 C   0  0  0  0  0  0  0  0  0  0  0  0
   -3.4724   -2.2109   -0.2135 H   0  0  0  0  0  0  0  0  0  0  0  0
   -2.8324   -2.6816   -1.8071 H   0  0  0  0  0  0  0  0  0  0  0  0
   -1.3324   -2.0654   -0.3914 C   0  0  0  0  0  0  0  0  0  0  0  0
   -0.4813   -2.6878    0.2167 O   0  0  0  0  0  0  0  0  0  0  0  0
   -1.1075   -0.7487   -0.7464 N   0  0  0  0  0  0  0  0  0  0  0  0
   -1.8180   -0.3192   -1.3329 H   0  0  0  0  0  0  0  0  0  0  0  0
    0.2078   -0.0840   -0.6565 C   0  0  1  0  0  0  0  0  0  0  0  0
    0.9015   -0.7241   -1.2156 H   0  0  0  0  0  0  0  0  0  0  0  0
    0.1717    1.2624   -1.4199 C   0  0  0  0  0  0  0  0  0  0  0  0
    1.0924    1.3302   -2.0081 H   0  0  0  0  0  0  0  0  0  0  0  0
   -0.6613    1.2764   -2.1264 H   0  0  0  0  0  0  0  0  0  0  0  0
    0.1056    2.5290   -0.5717 C   0  0  0  0  0  0  0  0  0  0  0  0
    0.8092    3.4878   -0.8184 O   0  0  0  0  0  0  0  0  0  0  0  0
   -0.8889    2.7629    0.3340 N   0  0  0  0  0  0  0  0  0  0  0  0
   -0.7514    3.6079    0.8820 H   0  0  0  0  0  0  0  0  0  0  0  0
   -1.3006    1.9536    0.7822 H   0  0  0  0  0  0  0  0  0  0  0  0
    0.8256   -0.0282    0.7611 C   0  0  0  0  0  0  0  0  0  0  0  0
    2.0419    0.0156    0.8675 O   0  0  0  0  0  0  0  0  0  0  0  0
    0.0448    0.3235    1.8494 N   0  0  0  0  0  0  0  0  0  0  0  0
   -0.9235    0.0251    1.7909 H   0  0  0  0  0  0  0  0  0  0  0  0
    0.6173    0.4987    3.1799 C   0  0  0  0  0  0  0  0  0  0  0  0
    1.3749    1.2898    3.1704 H   0  0  0  0  0  0  0  0  0  0  0  0
   -0.1623    0.7802    3.8941 H   0  0  0  0  0  0  0  0  0  0  0  0
    1.0846   -0.4309    3.5221 H   0  0  0  0  0  0  0  0  0  0  0  0
  1  2  1  0  0  0  0
  2  3  1  0  0  0  0
  2  4  1  0  0  0  0
  2  5  1  0  0  0  0
  5  6  2  0  0  0  0
  5  7  1  0  0  0  0
  7  8  1  0  0  0  0
  7  9  1  0  0  0  0
  9 10  1  0  0  0  0
  9 11  1  0  0  0  0
  9 19  1  0  0  0  0
 11 12  1  0  0  0  0
 11 13  1  0  0  0  0
 11 14  1  0  0  0  0
 14 15  2  0  0  0  0
 14 16  1  0  0  0  0
 16 17  1  0  0  0  0
 16 18  1  0  0  0  0
 19 20  2  0  0  0  0
 19 21  1  0  0  0  0
 21 22  1  0  0  0  0
 21 23  1  0  0  0  0
 23 24  1  0  0  0  0
 23 25  1  0  0  0  0
 23 26  1  0  0  0  0
M  END
$$$$

  -OEChem-03222214023D

 26 25  0     1  0  0  0  0  0999 V2000
   -2.6464   -3.7733   -0.4269 H   0  0  0  0  0  0  0  0  0  0  0  0
   -2.6600   -2.7204   -0.7232 C   0  0  0  0  0  0  0  0  0  0  0  0
   -3.4623   -2.2133   -0.1819 H   0  0  0  0  0  0  0  0  0  0  0  0
   -2.8589   -2.6618   -1.7960 H   0  0  0  0  0  0  0  0  0  0  0  0
   -1.3257   -2.0716   -0.4053 C   0  0  0  0  0  0  0  0  0  0  0  0
   -0.4604   -2.7073    0.1686 O   0  0  0  0  0  0  0  0  0  0  0  0
   -1.1044   -0.7490   -0.7395 N   0  0  0  0  0  0  0  0  0  0  0  0
   -1.8360   -0.2928   -1.2782 H   0  0  0  0  0  0  0  0  0  0  0  0
    0.2083   -0.0803   -0.6476 C   0  0  1  0  0  0  0  0  0  0  0  0
    0.8992   -0.7225   -1.2077 H   0  0  0  0  0  0  0  0  0  0  0  0
    0.1871    1.2630   -1.4199 C   0  0  0  0  0  0  0  0  0  0  0  0
    1.1135    1.3147   -2.0004 H   0  0  0  0  0  0  0  0  0  0  0  0
   -0.6386    1.2669   -2.1354 H   0  0  0  0  0  0  0  0  0  0  0  0
    0.1200    2.5598   -0.6156 C   0  0  0  0  0  0  0  0  0  0  0  0
    0.6242    3.5765   -1.0494 O   0  0  0  0  0  0  0  0  0  0  0  0
   -0.6817    2.7505    0.4718 N   0  0  0  0  0  0  0  0  0  0  0  0
   -0.5431    3.6538    0.9163 H   0  0  0  0  0  0  0  0  0  0  0  0
   -0.8262    1.9424    1.0678 H   0  0  0  0  0  0  0  0  0  0  0  0
    0.8267   -0.0494    0.7697 C   0  0  0  0  0  0  0  0  0  0  0  0
    2.0409    0.0336    0.8749 O   0  0  0  0  0  0  0  0  0  0  0  0
    0.0407    0.2786    1.8623 N   0  0  0  0  0  0  0  0  0  0  0  0
   -0.9204   -0.0454    1.7983 H   0  0  0  0  0  0  0  0  0  0  0  0
    0.6096    0.4306    3.1974 C   0  0  0  0  0  0  0  0  0  0  0  0
    1.3577    1.2306    3.2082 H   0  0  0  0  0  0  0  0  0  0  0  0
   -0.1745    0.6856    3.9167 H   0  0  0  0  0  0  0  0  0  0  0  0
    1.0872   -0.5014    3.5182 H   0  0  0  0  0  0  0  0  0  0  0  0
  1  2  1  0  0  0  0
  2  3  1  0  0  0  0
  2  4  1  0  0  0  0
  2  5  1  0  0  0  0
  5  6  2  0  0  0  0
  5  7  1  0  0  0  0
  7  8  1  0  0  0  0
  7  9  1  0  0  0  0
  9 10  1  0  0  0  0
  9 11  1  0  0  0  0
  9 19  1  0  0  0  0
 11 12  1  0  0  0  0
 11 13  1  0  0  0  0
 11 14  1  0  0  0  0
 14 15  2  0  0  0  0
 14 16  1  0  0  0  0
 16 17  1  0  0  0  0
 16 18  1  0  0  0  0
 19 20  2  0  0  0  0
 19 21  1  0  0  0  0
 21 22  1  0  0  0  0
 21 23  1  0  0  0  0
 23 24  1  0  0  0  0
 23 25  1  0  0  0  0
 23 26  1  0  0  0  0
M  END
$$$$

  -OEChem-03222214023D

 26 25  0     1  0  0  0  0  0999 V2000
   -2.6534   -3.7639   -0.4335 H   0  0  0  0  0  0  0  0  0  0  0  0
   -2.6654   -2.7078   -0.7182 C   0  0  0  0  0  0  0  0  0  0  0  0
   -3.4520   -2.2010   -0.1543 H   0  0  0  0  0  0  0  0  0  0  0  0
   -2.8863   -2.6353   -1.7859 H   0  0  0  0  0  0  0  0  0  0  0  0
   -1.3199   -2.0727   -0.4215 C   0  0  0  0  0  0  0  0  0  0  0  0
   -0.4436   -2.7244    0.1169 O   0  0  0  0  0  0  0  0  0  0  0  0
   -1.0978   -0.7456   -0.7367 N   0  0  0  0  0  0  0  0  0  0  0  0
   -1.8431   -0.2670   -1.2358 H   0  0  0  0  0  0  0  0  0  0  0  0
    0.2130   -0.0758   -0.6325 C   0  0  1  0  0  0  0  0  0  0  0  0
    0.9030   -0.7241   -1.1871 H   0  0  0  0  0  0  0  0  0  0  0  0
    0.2087    1.2580   -1.4236 C   0  0  0  0  0  0  0  0  0  0  0  0
    1.1466    1.2938   -1.9865 H   0  0  0  0  0  0  0  0  0  0  0  0
   -0.6014    1.2431   -2.1567 H   0  0  0  0  0  0  0  0  0  0  0  0
    0.1305    2.5892   -0.6754 C   0  0  0  0  0  0  0  0  0  0  0  0
    0.4000    3.6194   -1.2605 O   0  0  0  0  0  0  0  0  0  0  0  0
   -0.4184    2.7852    0.5579 N   0  0  0  0  0  0  0  0  0  0  0  0
   -0.2896    3.7291    0.9115 H   0  0  0  0  0  0  0  0  0  0  0  0
   -0.3516    2.0139    1.2148 H   0  0  0  0  0  0  0  0  0  0  0  0
    0.8288   -0.0618    0.7857 C   0  0  0  0  0  0  0  0  0  0  0  0
    2.0423    0.0249    0.8959 O   0  0  0  0  0  0  0  0  0  0  0  0
    0.0447    0.2498    1.8843 N   0  0  0  0  0  0  0  0  0  0  0  0
   -0.9339   -0.0117    1.7960 H   0  0  0  0  0  0  0  0  0  0  0  0
    0.6019    0.3431    3.2300 C   0  0  0  0  0  0  0  0  0  0  0  0
    1.3661    1.1263    3.2779 H   0  0  0  0  0  0  0  0  0  0  0  0
   -0.1852    0.5885    3.9495 H   0  0  0  0  0  0  0  0  0  0  0  0
    1.0562   -0.6096    3.5228 H   0  0  0  0  0  0  0  0  0  0  0  0
  1  2  1  0  0  0  0
  2  3  1  0  0  0  0
  2  4  1  0  0  0  0
  2  5  1  0  0  0  0
  5  6  2  0  0  0  0
  5  7  1  0  0  0  0
  7  8  1  0  0  0  0
  7  9  1  0  0  0  0
  9 10  1  0  0  0  0
  9 11  1  0  0  0  0
  9 19  1  0  0  0  0
 11 12  1  0  0  0  0
 11 13  1  0  0  0  0
 11 14  1  0  0  0  0
 14 15  2  0  0  0  0
 14 16  1  0  0  0  0
 16 17  1  0  0  0  0
 16 18  1  0  0  0  0
 19 20  2  0  0  0  0
 19 21  1  0  0  0  0
 21 22  1  0  0  0  0
 21 23  1  0  0  0  0
 23 24  1  0  0  0  0
 23 25  1  0  0  0  0
 23 26  1  0  0  0  0
M  END
$$$$

  -OEChem-03222214023D

 26 25  0     1  0  0  0  0  0999 V2000
   -2.6741   -3.7570   -0.3849 H   0  0  0  0  0  0  0  0  0  0  0  0
   -2.6796   -2.7030   -0.6778 C   0  0  0  0  0  0  0  0  0  0  0  0
   -3.4353   -2.1786   -0.0883 H   0  0  0  0  0  0  0  0  0  0  0  0
   -2.9404   -2.6353   -1.7368 H   0  0  0  0  0  0  0  0  0  0  0  0
   -1.3133   -2.0878   -0.4386 C   0  0  0  0  0  0  0  0  0  0  0  0
   -0.4197   -2.7593    0.0446 O   0  0  0  0  0  0  0  0  0  0  0  0
   -1.0857   -0.7644   -0.7672 N   0  0  0  0  0  0  0  0  0  0  0  0
   -1.8468   -0.2715   -1.2263 H   0  0  0  0  0  0  0  0  0  0  0  0
    0.2254   -0.0925   -0.6602 C   0  0  1  0  0  0  0  0  0  0  0  0
    0.9432   -0.7043   -1.2202 H   0  0  0  0  0  0  0  0  0  0  0  0
    0.1499    1.2807   -1.3937 C   0  0  0  0  0  0  0  0  0  0  0  0
    0.8905    1.2463   -2.1979 H   0  0  0  0  0  0  0  0  0  0  0  0
   -0.8278    1.3789   -1.8722 H   0  0  0  0  0  0  0  0  0  0  0  0
    0.4048    2.6035   -0.6577 C   0  0  0  0  0  0  0  0  0  0  0  0
    0.3261    3.6393   -1.2891 O   0  0  0  0  0  0  0  0  0  0  0  0
    1.0088    2.7729    0.5542 N   0  0  0  0  0  0  0  0  0  0  0  0
    1.4030    3.6967    0.7027 H   0  0  0  0  0  0  0  0  0  0  0  0
    1.4851    1.9654    0.9598 H   0  0  0  0  0  0  0  0  0  0  0  0
    0.7731   -0.0941    0.7844 C   0  0  0  0  0  0  0  0  0  0  0  0
    1.9805   -0.0003    0.9598 O   0  0  0  0  0  0  0  0  0  0  0  0
   -0.0630    0.2193    1.8410 N   0  0  0  0  0  0  0  0  0  0  0  0
   -1.0593    0.1264    1.6704 H   0  0  0  0  0  0  0  0  0  0  0  0
    0.4004    0.3476    3.2176 C   0  0  0  0  0  0  0  0  0  0  0  0
    1.1408    1.1500    3.3021 H   0  0  0  0  0  0  0  0  0  0  0  0
   -0.4394    0.5847    3.8776 H   0  0  0  0  0  0  0  0  0  0  0  0
    0.8552   -0.5889    3.5571 H   0  0  0  0  0  0  0  0  0  0  0  0
  1  2  1  0  0  0  0
  2  3  1  0  0  0  0
  2  4  1  0  0  0  0
  2  5  1  0  0  0  0
  5  6  2  0  0  0  0
  5  7  1  0  0  0  0
  7  8  1  0  0  0  0
  7  9  1  0  0  0  0
  9 10  1  0  0  0  0
  9 11  1  0  0  0  0
  9 19  1  0  0  0  0
 11 12  1  0  0  0  0
 11 13  1  0  0  0  0
 11 14  1  0  0  0  0
 14 15  2  0  0  0  0
 14 16  1  0  0  0  0
 16 17  1  0  0  0  0
 16 18  1  0  0  0  0
 19 20  2  0  0  0  0
 19 21  1  0  0  0  0
 21 22  1  0  0  0  0
 21 23  1  0  0  0  0
 23 24  1  0  0  0  0
 23 25  1  0  0  0  0
 23 26  1  0  0  0  0
M  END
$$$$

  -OEChem-03222214023D

 26 25  0     1  0  0  0  0  0999 V2000
   -2.7008   -3.7377   -0.3768 H   0  0  0  0  0  0  0  0  0  0  0  0
   -2.6942   -2.6848   -0.6733 C   0  0  0  0  0  0  0  0  0  0  0  0
   -3.4417   -2.1490   -0.0835 H   0  0  0  0  0  0  0  0  0  0  0  0
   -2.9573   -2.6169   -1.7317 H   0  0  0  0  0  0  0  0  0  0  0  0
   -1.3198   -2.0857   -0.4403 C   0  0  0  0  0  0  0  0  0  0  0  0
   -0.4323   -2.7658    0.0425 O   0  0  0  0  0  0  0  0  0  0  0  0
   -1.0774   -0.7671   -0.7767 N   0  0  0  0  0  0  0  0  0  0  0  0
   -1.8363   -0.2629   -1.2273 H   0  0  0  0  0  0  0  0  0  0  0  0
    0.2376   -0.1057   -0.6605 C   0  0  1  0  0  0  0  0  0  0  0  0
    0.9557   -0.7209   -1.2162 H   0  0  0  0  0  0  0  0  0  0  0  0
    0.1649    1.2675   -1.3913 C   0  0  0  0  0  0  0  0  0  0  0  0
    0.9094    1.2423   -2.1919 H   0  0  0  0  0  0  0  0  0  0  0  0
   -0.8109    1.3733   -1.8728 H   0  0  0  0  0  0  0  0  0  0  0  0
    0.4237    2.5685   -0.6225 C   0  0  0  0  0  0  0  0  0  0  0  0
    0.0921    3.6214   -1.1320 O   0  0  0  0  0  0  0  0  0  0  0  0
    1.2988    2.7243    0.4138 N   0  0  0  0  0  0  0  0  0  0  0  0
    1.6407    3.6669    0.5713 H   0  0  0  0  0  0  0  0  0  0  0  0
    1.8613    1.9225    0.7066 H   0  0  0  0  0  0  0  0  0  0  0  0
    0.7806   -0.0941    0.7865 C   0  0  0  0  0  0  0  0  0  0  0  0
    1.9920   -0.0536    0.9628 O   0  0  0  0  0  0  0  0  0  0  0  0
   -0.0530    0.2381    1.8390 N   0  0  0  0  0  0  0  0  0  0  0  0
   -1.0515    0.1894    1.6633 H   0  0  0  0  0  0  0  0  0  0  0  0
    0.4120    0.3853    3.2128 C   0  0  0  0  0  0  0  0  0  0  0  0
    1.1492    1.1919    3.2849 H   0  0  0  0  0  0  0  0  0  0  0  0
   -0.4274    0.6275    3.8715 H   0  0  0  0  0  0  0  0  0  0  0  0
    0.8712   -0.5453    3.5630 H   0  0  0  0  0  0  0  0  0  0  0  0
  1  2  1  0  0  0  0
  2  3  1  0  0  0  0
  2  4  1  0  0  0  0
  2  5  1  0  0  0  0
  5  6  2  0  0  0  0
  5  7  1  0  0  0  0
  7  8  1  0  0  0  0
  7  9  1  0  0  0  0
  9 10  1  0  0  0  0
  9 11  1  0  0  0  0
  9 19  1  0  0  0  0
 11 12  1  0  0  0  0
 11 13  1  0  0  0  0
 11 14  1  0  0  0  0
 14 15  2  0  0  0  0
 14 16  1  0  0  0  0
 16 17  1  0  0  0  0
 16 18  1  0  0  0  0
 19 20  2  0  0  0  0
 19 21  1  0  0  0  0
 21 22  1  0  0  0  0
 21 23  1  0  0  0  0
 23 24  1  0  0  0  0
 23 25  1  0  0  0  0
 23 26  1  0  0  0  0
M  END
$$$$

  -OEChem-03222214023D

 26 25  0     1  0  0  0  0  0999 V2000
   -2.7069   -3.7116   -0.3129 H   0  0  0  0  0  0  0  0  0  0  0  0
   -2.6939   -2.6653   -0.6323 C   0  0  0  0  0  0  0  0  0  0  0  0
   -3.4330   -2.1110   -0.0489 H   0  0  0  0  0  0  0  0  0  0  0  0
   -2.9635   -2.6183   -1.6903 H   0  0  0  0  0  0  0  0  0  0  0  0
   -1.3131   -2.0726   -0.4211 C   0  0  0  0  0  0  0  0  0  0  0  0
   -0.4304   -2.7478    0.0770 O   0  0  0  0  0  0  0  0  0  0  0  0
   -1.0596   -0.7656   -0.7928 N   0  0  0  0  0  0  0  0  0  0  0  0
   -1.8133   -0.2676   -1.2592 H   0  0  0  0  0  0  0  0  0  0  0  0
    0.2621   -0.1143   -0.6972 C   0  0  1  0  0  0  0  0  0  0  0  0
    0.9768   -0.7333   -1.2527 H   0  0  0  0  0  0  0  0  0  0  0  0
    0.1782    1.2605   -1.4202 C   0  0  0  0  0  0  0  0  0  0  0  0
    0.9060    1.2480   -2.2361 H   0  0  0  0  0  0  0  0  0  0  0  0
   -0.8072    1.3822   -1.8780 H   0  0  0  0  0  0  0  0  0  0  0  0
    0.4655    2.5257   -0.6082 C   0  0  0  0  0  0  0  0  0  0  0  0
   -0.0882    3.5656   -0.9092 O   0  0  0  0  0  0  0  0  0  0  0  0
    1.5906    2.6979    0.1476 N   0  0  0  0  0  0  0  0  0  0  0  0
    1.6871    3.5900    0.6216 H   0  0  0  0  0  0  0  0  0  0  0  0
    2.0730    1.8714    0.5083 H   0  0  0  0  0  0  0  0  0  0  0  0
    0.8040   -0.0730    0.7509 C   0  0  0  0  0  0  0  0  0  0  0  0
    2.0147   -0.0594    0.9339 O   0  0  0  0  0  0  0  0  0  0  0  0
   -0.0289    0.2945    1.7920 N   0  0  0  0  0  0  0  0  0  0  0  0
   -1.0272    0.2407    1.6150 H   0  0  0  0  0  0  0  0  0  0  0  0
    0.4306    0.4419    3.1676 C   0  0  0  0  0  0  0  0  0  0  0  0
    1.1951    1.2229    3.2363 H   0  0  0  0  0  0  0  0  0  0  0  0
   -0.4048    0.7209    3.8170 H   0  0  0  0  0  0  0  0  0  0  0  0
    0.8544   -0.4997    3.5325 H   0  0  0  0  0  0  0  0  0  0  0  0
  1  2  1  0  0  0  0
  2  3  1  0  0  0  0
  2  4  1  0  0  0  0
  2  5  1  0  0  0  0
  5  6  2  0  0  0  0
  5  7  1  0  0  0  0
  7  8  1  0  0  0  0
  7  9  1  0  0  0  0
  9 10  1  0  0  0  0
  9 11  1  0  0  0  0
  9 19  1  0  0  0  0
 11 12  1  0  0  0  0
 11 13  1  0  0  0  0
 11 14  1  0  0  0  0
 14 15  2  0  0  0  0
 14 16  1  0  0  0  0
 16 17  1  0  0  0  0
 16 18  1  0  0  0  0
 19 20  2  0  0  0  0
 19 21  1  0  0  0  0
 21 22  1  0  0  0  0
 21 23  1  0  0  0  0
 23 24  1  0  0  0  0
 23 25  1  0  0  0  0
 23 26  1  0  0  0  0
M  END
$$$$

  -OEChem-03222214023D

 26 25  0     1  0  0  0  0  0999 V2000
   -2.7078   -3.7020   -0.3001 H   0  0  0  0  0  0  0  0  0  0  0  0
   -2.6953   -2.6559   -0.6196 C   0  0  0  0  0  0  0  0  0  0  0  0
   -3.4236   -2.0984   -0.0259 H   0  0  0  0  0  0  0  0  0  0  0  0
   -2.9801   -2.6079   -1.6735 H   0  0  0  0  0  0  0  0  0  0  0  0
   -1.3094   -2.0687   -0.4287 C   0  0  0  0  0  0  0  0  0  0  0  0
   -0.4230   -2.7452    0.0611 O   0  0  0  0  0  0  0  0  0  0  0  0
   -1.0548   -0.7651   -0.8104 N   0  0  0  0  0  0  0  0  0  0  0  0
   -1.8184   -0.2565   -1.2483 H   0  0  0  0  0  0  0  0  0  0  0  0
    0.2663   -0.1145   -0.7172 C   0  0  1  0  0  0  0  0  0  0  0  0
    0.9772   -0.7435   -1.2662 H   0  0  0  0  0  0  0  0  0  0  0  0
    0.1971    1.2513   -1.4540 C   0  0  0  0  0  0  0  0  0  0  0  0
    0.9302    1.2338   -2.2650 H   0  0  0  0  0  0  0  0  0  0  0  0
   -0.7849    1.3804   -1.9176 H   0  0  0  0  0  0  0  0  0  0  0  0
    0.4908    2.5006   -0.6237 C   0  0  0  0  0  0  0  0  0  0  0  0
   -0.2263    3.4777   -0.7214 O   0  0  0  0  0  0  0  0  0  0  0  0
    1.6865    2.7148    0.0012 N   0  0  0  0  0  0  0  0  0  0  0  0
    1.7427    3.5610    0.5588 H   0  0  0  0  0  0  0  0  0  0  0  0
    2.2217    1.8923    0.2889 H   0  0  0  0  0  0  0  0  0  0  0  0
    0.8208   -0.0534    0.7254 C   0  0  0  0  0  0  0  0  0  0  0  0
    2.0341   -0.0351    0.8926 O   0  0  0  0  0  0  0  0  0  0  0  0
   -0.0010    0.3270    1.7703 N   0  0  0  0  0  0  0  0  0  0  0  0
   -1.0015    0.2965    1.5998 H   0  0  0  0  0  0  0  0  0  0  0  0
    0.4736    0.5030    3.1371 C   0  0  0  0  0  0  0  0  0  0  0  0
    1.2319    1.2916    3.1821 H   0  0  0  0  0  0  0  0  0  0  0  0
   -0.3563    0.7858    3.7915 H   0  0  0  0  0  0  0  0  0  0  0  0
    0.9101   -0.4283    3.5132 H   0  0  0  0  0  0  0  0  0  0  0  0
  1  2  1  0  0  0  0
  2  3  1  0  0  0  0
  2  4  1  0  0  0  0
  2  5  1  0  0  0  0
  5  6  2  0  0  0  0
  5  7  1  0  0  0  0
  7  8  1  0  0  0  0
  7  9  1  0  0  0  0
  9 10  1  0  0  0  0
  9 11  1  0  0  0  0
  9 19  1  0  0  0  0
 11 12  1  0  0  0  0
 11 13  1  0  0  0  0
 11 14  1  0  0  0  0
 14 15  2  0  0  0  0
 14 16  1  0  0  0  0
 16 17  1  0  0  0  0
 16 18  1  0  0  0  0
 19 20  2  0  0  0  0
 19 21  1  0  0  0  0
 21 22  1  0  0  0  0
 21 23  1  0  0  0  0
 23 24  1  0  0  0  0
 23 25  1  0  0  0  0
 23 26  1  0  0  0  0
M  END
$$$$

  -OEChem-03222214023D

 26 25  0     1  0  0  0  0  0999 V2000
   -2.7007   -3.6925   -0.2664 H   0  0  0  0  0  0  0  0  0  0  0  0
   -2.6905   -2.6502   -0.5979 C   0  0  0  0  0  0  0  0  0  0  0  0
   -3.3957   -2.0811    0.0123 H   0  0  0  0  0  0  0  0  0  0  0  0
   -3.0081   -2.6105   -1.6427 H   0  0  0  0  0  0  0  0  0  0  0  0
   -1.2950   -2.0717   -0.4575 C   0  0  0  0  0  0  0  0  0  0  0  0
   -0.3933   -2.7553   -0.0065 O   0  0  0  0  0  0  0  0  0  0  0  0
   -1.0474   -0.7676   -0.8412 N   0  0  0  0  0  0  0  0  0  0  0  0
   -1.8286   -0.2413   -1.2237 H   0  0  0  0  0  0  0  0  0  0  0  0
    0.2698   -0.1111   -0.7468 C   0  0  1  0  0  0  0  0  0  0  0  0
    0.9812   -0.7414   -1.2937 H   0  0  0  0  0  0  0  0  0  0  0  0
    0.2029    1.2489   -1.4900 C   0  0  0  0  0  0  0  0  0  0  0  0
    0.9404    1.2345   -2.2970 H   0  0  0  0  0  0  0  0  0  0  0  0
   -0.7766    1.3798   -1.9584 H   0  0  0  0  0  0  0  0  0  0  0  0
    0.4926    2.4845   -0.6412 C   0  0  0  0  0  0  0  0  0  0  0  0
   -0.3470    3.3551   -0.5150 O   0  0  0  0  0  0  0  0  0  0  0  0
    1.7263    2.7517   -0.1201 N   0  0  0  0  0  0  0  0  0  0  0  0
    1.7570    3.5393    0.5197 H   0  0  0  0  0  0  0  0  0  0  0  0
    2.3262    1.9464    0.0686 H   0  0  0  0  0  0  0  0  0  0  0  0
    0.8347   -0.0374    0.6912 C   0  0  0  0  0  0  0  0  0  0  0  0
    2.0498   -0.0136    0.8457 O   0  0  0  0  0  0  0  0  0  0  0  0
    0.0203    0.3446    1.7411 N   0  0  0  0  0  0  0  0  0  0  0  0
   -0.9800    0.3648    1.5680 H   0  0  0  0  0  0  0  0  0  0  0  0
    0.5084    0.5761    3.0945 C   0  0  0  0  0  0  0  0  0  0  0  0
    1.2511    1.3807    3.1027 H   0  0  0  0  0  0  0  0  0  0  0  0
   -0.3188    0.8642    3.7502 H   0  0  0  0  0  0  0  0  0  0  0  0
    0.9681   -0.3334    3.4954 H   0  0  0  0  0  0  0  0  0  0  0  0
  1  2  1  0  0  0  0
  2  3  1  0  0  0  0
  2  4  1  0  0  0  0
  2  5  1  0  0  0  0
  5  6  2  0  0  0  0
  5  7  1  0  0  0  0
  7  8  1  0  0  0  0
  7  9  1  0  0  0  0
  9 10  1  0  0  0  0
  9 11  1  0  0  0  0
  9 19  1  0  0  0  0
 11 12  1  0  0  0  0
 11 13  1  0  0  0  0
 11 14  1  0  0  0  0
 14 15  2  0  0  0  0
 14 16  1  0  0  0  0
 16 17  1  0  0  0  0
 16 18  1  0  0  0  0
 19 20  2  0  0  0  0
 19 21  1  0  0  0  0
 21 22  1  0  0  0  0
 21 23  1  0  0  0  0
 23 24  1  0  0  0  0
 23 25  1  0  0  0  0
 23 26  1  0  0  0  0
M  END
$$$$

  -OEChem-03222214023D

 26 25  0     1  0  0  0  0  0999 V2000
   -2.6868   -3.6991   -0.2567 H   0  0  0  0  0  0  0  0  0  0  0  0
   -2.6854   -2.6572   -0.5895 C   0  0  0  0  0  0  0  0  0  0  0  0
   -3.3703   -2.0858    0.0417 H   0  0  0  0  0  0  0  0  0  0  0  0
   -3.0347   -2.6186   -1.6241 H   0  0  0  0  0  0  0  0  0  0  0  0
   -1.2852   -2.0809   -0.4923 C   0  0  0  0  0  0  0  0  0  0  0  0
   -0.3683   -2.7705   -0.0825 O   0  0  0  0  0  0  0  0  0  0  0  0
   -1.0499   -0.7735   -0.8717 N   0  0  0  0  0  0  0  0  0  0  0  0
   -1.8494   -0.2321   -1.1898 H   0  0  0  0  0  0  0  0  0  0  0  0
    0.2616   -0.1079   -0.7722 C   0  0  1  0  0  0  0  0  0  0  0  0
    0.9751   -0.7362   -1.3191 H   0  0  0  0  0  0  0  0  0  0  0  0
    0.1942    1.2489   -1.5180 C   0  0  0  0  0  0  0  0  0  0  0  0
    0.9369    1.2406   -2.3203 H   0  0  0  0  0  0  0  0  0  0  0  0
   -0.7827    1.3800   -1.9918 H   0  0  0  0  0  0  0  0  0  0  0  0
    0.4741    2.4725   -0.6513 C   0  0  0  0  0  0  0  0  0  0  0  0
   -0.4353    3.1990   -0.2981 O   0  0  0  0  0  0  0  0  0  0  0  0
    1.7280    2.8076   -0.2283 N   0  0  0  0  0  0  0  0  0  0  0  0
    1.7490    3.5248    0.4901 H   0  0  0  0  0  0  0  0  0  0  0  0
    2.4003    2.0430   -0.1640 H   0  0  0  0  0  0  0  0  0  0  0  0
    0.8371   -0.0271    0.6614 C   0  0  0  0  0  0  0  0  0  0  0  0
    2.0539    0.0010    0.8024 O   0  0  0  0  0  0  0  0  0  0  0  0
    0.0307    0.3492    1.7195 N   0  0  0  0  0  0  0  0  0  0  0  0
   -0.9610    0.4615    1.5321 H   0  0  0  0  0  0  0  0  0  0  0  0
    0.5403    0.6679    3.0466 C   0  0  0  0  0  0  0  0  0  0  0  0
    1.2204    1.5247    3.0002 H   0  0  0  0  0  0  0  0  0  0  0  0
   -0.2860    0.9183    3.7187 H   0  0  0  0  0  0  0  0  0  0  0  0
    1.0787   -0.1889    3.4651 H   0  0  0  0  0  0  0  0  0  0  0  0
  1  2  1  0  0  0  0
  2  3  1  0  0  0  0
  2  4  1  0  0  0  0
  2  5  1  0  0  0  0
  5  6  2  0  0  0  0
  5  7  1  0  0  0  0
  7  8  1  0  0  0  0
  7  9  1  0  0  0  0
  9 10  1  0  0  0  0
  9 11  1  0  0  0  0
  9 19  1  0  0  0  0
 11 12  1  0  0  0  0
 11 13  1  0  0  0  0
 11 14  1  0  0  0  0
 14 15  2  0  0  0  0
 14 16  1  0  0  0  0
 16 17  1  0  0  0  0
 16 18  1  0  0  0  0
 19 20  2  0  0  0  0
 19 21  1  0  0  0  0
 21 22  1  0  0  0  0
 21 23  1  0  0  0  0
 23 24  1  0  0  0  0
 23 25  1  0  0  0  0
 23 26  1  0  0  0  0
M  END
$$$$

  -OEChem-03222214023D

 26 25  0     1  0  0  0  0  0999 V2000
   -2.6586   -3.7137   -0.2485 H   0  0  0  0  0  0  0  0  0  0  0  0
   -2.6726   -2.6685   -0.5704 C   0  0  0  0  0  0  0  0  0  0  0  0
   -3.3300   -2.1045    0.0956 H   0  0  0  0  0  0  0  0  0  0  0  0
   -3.0665   -2.6199   -1.5884 H   0  0  0  0  0  0  0  0  0  0  0  0
   -1.2699   -2.0915   -0.5286 C   0  0  0  0  0  0  0  0  0  0  0  0
   -0.3344   -2.7877   -0.1753 O   0  0  0  0  0  0  0  0  0  0  0  0
   -1.0528   -0.7793   -0.9023 N   0  0  0  0  0  0  0  0  0  0  0  0
   -1.8715   -0.2262   -1.1409 H   0  0  0  0  0  0  0  0  0  0  0  0
    0.2505   -0.1003   -0.7923 C   0  0  1  0  0  0  0  0  0  0  0  0
    0.9714   -0.7218   -1.3375 H   0  0  0  0  0  0  0  0  0  0  0  0
    0.1772    1.2550   -1.5381 C   0  0  0  0  0  0  0  0  0  0  0  0
    0.9246    1.2558   -2.3360 H   0  0  0  0  0  0  0  0  0  0  0  0
   -0.7981    1.3821   -2.0158 H   0  0  0  0  0  0  0  0  0  0  0  0
    0.4392    2.4687   -0.6554 C   0  0  0  0  0  0  0  0  0  0  0  0
   -0.4819    3.0217   -0.0839 O   0  0  0  0  0  0  0  0  0  0  0  0
    1.6984    2.9048   -0.3617 N   0  0  0  0  0  0  0  0  0  0  0  0
    1.7436    3.5497    0.4216 H   0  0  0  0  0  0  0  0  0  0  0  0
    2.4470    2.2224   -0.4640 H   0  0  0  0  0  0  0  0  0  0  0  0
    0.8245   -0.0154    0.6425 C   0  0  0  0  0  0  0  0  0  0  0  0
    2.0411    0.0038    0.7843 O   0  0  0  0  0  0  0  0  0  0  0  0
    0.0156    0.3500    1.7032 N   0  0  0  0  0  0  0  0  0  0  0  0
   -0.9502    0.5748    1.4829 H   0  0  0  0  0  0  0  0  0  0  0  0
    0.5387    0.7349    3.0074 C   0  0  0  0  0  0  0  0  0  0  0  0
    1.1392    1.6468    2.9251 H   0  0  0  0  0  0  0  0  0  0  0  0
   -0.2842    0.9223    3.7038 H   0  0  0  0  0  0  0  0  0  0  0  0
    1.1639   -0.0641    3.4202 H   0  0  0  0  0  0  0  0  0  0  0  0
  1  2  1  0  0  0  0
  2  3  1  0  0  0  0
  2  4  1  0  0  0  0
  2  5  1  0  0  0  0
  5  6  2  0  0  0  0
  5  7  1  0  0  0  0
  7  8  1  0  0  0  0
  7  9  1  0  0  0  0
  9 10  1  0  0  0  0
  9 11  1  0  0  0  0
  9 19  1  0  0  0  0
 11 12  1  0  0  0  0
 11 13  1  0  0  0  0
 11 14  1  0  0  0  0
 14 15  2  0  0  0  0
 14 16  1  0  0  0  0
 16 17  1  0  0  0  0
 16 18  1  0  0  0  0
 19 20  2  0  0  0  0
 19 21  1  0  0  0  0
 21 22  1  0  0  0  0
 21 23  1  0  0  0  0
 23 24  1  0  0  0  0
 23 25  1  0  0  0  0
 23 26  1  0  0  0  0
M  END
$$$$

  -OEChem-03222214023D

 26 25  0     1  0  0  0  0  0999 V2000
   -2.6294   -3.7288   -0.2444 H   0  0  0  0  0  0  0  0  0  0  0  0
   -2.6570   -2.6799   -0.5531 C   0  0  0  0  0  0  0  0  0  0  0  0
   -3.2909   -2.1254    0.1432 H   0  0  0  0  0  0  0  0  0  0  0  0
   -3.0876   -2.6199   -1.5555 H   0  0  0  0  0  0  0  0  0  0  0  0
   -1.2552   -2.0993   -0.5552 C   0  0  0  0  0  0  0  0  0  0  0  0
   -0.3049   -2.7975   -0.2479 O   0  0  0  0  0  0  0  0  0  0  0  0
   -1.0583   -0.7813   -0.9189 N   0  0  0  0  0  0  0  0  0  0  0  0
   -1.8920   -0.2251   -1.0872 H   0  0  0  0  0  0  0  0  0  0  0  0
    0.2338   -0.0853   -0.7903 C   0  0  1  0  0  0  0  0  0  0  0  0
    0.9659   -0.7038   -1.3238 H   0  0  0  0  0  0  0  0  0  0  0  0
    0.1635    1.2596   -1.5549 C   0  0  0  0  0  0  0  0  0  0  0  0
    0.9269    1.2566   -2.3376 H   0  0  0  0  0  0  0  0  0  0  0  0
   -0.8030    1.3710   -2.0536 H   0  0  0  0  0  0  0  0  0  0  0  0
    0.3918    2.4856   -0.6813 C   0  0  0  0  0  0  0  0  0  0  0  0
   -0.4831    2.8733    0.0718 O   0  0  0  0  0  0  0  0  0  0  0  0
    1.6147    3.0785   -0.5591 N   0  0  0  0  0  0  0  0  0  0  0  0
    1.7102    3.6811    0.2531 H   0  0  0  0  0  0  0  0  0  0  0  0
    2.4208    2.5357   -0.8557 H   0  0  0  0  0  0  0  0  0  0  0  0
    0.8009    0.0033    0.6478 C   0  0  0  0  0  0  0  0  0  0  0  0
    2.0164    0.0005    0.7975 O   0  0  0  0  0  0  0  0  0  0  0  0
   -0.0118    0.3525    1.7110 N   0  0  0  0  0  0  0  0  0  0  0  0
   -0.9473    0.6667    1.4684 H   0  0  0  0  0  0  0  0  0  0  0  0
    0.5192    0.7322    3.0137 C   0  0  0  0  0  0  0  0  0  0  0  0
    1.0976    1.6587    2.9352 H   0  0  0  0  0  0  0  0  0  0  0  0
   -0.2988    0.8910    3.7227 H   0  0  0  0  0  0  0  0  0  0  0  0
    1.1678   -0.0569    3.4084 H   0  0  0  0  0  0  0  0  0  0  0  0
  1  2  1  0  0  0  0
  2  3  1  0  0  0  0
  2  4  1  0  0  0  0
  2  5  1  0  0  0  0
  5  6  2  0  0  0  0
  5  7  1  0  0  0  0
  7  8  1  0  0  0  0
  7  9  1  0  0  0  0
  9 10  1  0  0  0  0
  9 11  1  0  0  0  0
  9 19  1  0  0  0  0
 11 12  1  0  0  0  0
 11 13  1  0  0  0  0
 11 14  1  0  0  0  0
 14 15  2  0  0  0  0
 14 16  1  0  0  0  0
 16 17  1  0  0  0  0
 16 18  1  0  0  0  0
 19 20  2  0  0  0  0
 19 21  1  0  0  0  0
 21 22  1  0  0  0  0
 21 23  1  0  0  0  0
 23 24  1  0  0  0  0
 23 25  1  0  0  0  0
 23 26  1  0  0  0  0
M  END
$$$$

  -OEChem-03222214023D

 26 25  0     1  0  0  0  0  0999 V2000
   -2.6014   -3.7478   -0.2515 H   0  0  0  0  0  0  0  0  0  0  0  0
   -2.6445   -2.6967   -0.5510 C   0  0  0  0  0  0  0  0  0  0  0  0
   -3.2675   -2.1532    0.1635 H   0  0  0  0  0  0  0  0  0  0  0  0
   -3.0969   -2.6322   -1.5435 H   0  0  0  0  0  0  0  0  0  0  0  0
   -1.2479   -2.1046   -0.5772 C   0  0  0  0  0  0  0  0  0  0  0  0
   -0.2858   -2.8024   -0.3082 O   0  0  0  0  0  0  0  0  0  0  0  0
   -1.0704   -0.7773   -0.9175 N   0  0  0  0  0  0  0  0  0  0  0  0
   -1.9143   -0.2242   -1.0358 H   0  0  0  0  0  0  0  0  0  0  0  0
    0.2111   -0.0667   -0.7645 C   0  0  1  0  0  0  0  0  0  0  0  0
    0.9513   -0.6851   -1.2872 H   0  0  0  0  0  0  0  0  0  0  0  0
    0.1589    1.2671   -1.5517 C   0  0  0  0  0  0  0  0  0  0  0  0
    0.9461    1.2475   -2.3102 H   0  0  0  0  0  0  0  0  0  0  0  0
   -0.7914    1.3605   -2.0838 H   0  0  0  0  0  0  0  0  0  0  0  0
    0.3507    2.5230   -0.7102 C   0  0  0  0  0  0  0  0  0  0  0  0
   -0.4158    2.7916    0.1972 O   0  0  0  0  0  0  0  0  0  0  0  0
    1.4677    3.3007   -0.8072 N   0  0  0  0  0  0  0  0  0  0  0  0
    1.6245    3.9167   -0.0144 H   0  0  0  0  0  0  0  0  0  0  0  0
    2.2709    2.9092   -1.2891 H   0  0  0  0  0  0  0  0  0  0  0  0
    0.7742    0.0107    0.6765 C   0  0  0  0  0  0  0  0  0  0  0  0
    1.9886   -0.0190    0.8315 O   0  0  0  0  0  0  0  0  0  0  0  0
   -0.0396    0.3328    1.7475 N   0  0  0  0  0  0  0  0  0  0  0  0
   -0.9525    0.7050    1.5003 H   0  0  0  0  0  0  0  0  0  0  0  0
    0.4983    0.6814    3.0563 C   0  0  0  0  0  0  0  0  0  0  0  0
    1.0943    1.5979    2.9929 H   0  0  0  0  0  0  0  0  0  0  0  0
   -0.3169    0.8447    3.7675 H   0  0  0  0  0  0  0  0  0  0  0  0
    1.1315   -0.1262    3.4390 H   0  0  0  0  0  0  0  0  0  0  0  0
  1  2  1  0  0  0  0
  2  3  1  0  0  0  0
  2  4  1  0  0  0  0
  2  5  1  0  0  0  0
  5  6  2  0  0  0  0
  5  7  1  0  0  0  0
  7  8  1  0  0  0  0
  7  9  1  0  0  0  0
  9 10  1  0  0  0  0
  9 11  1  0  0  0  0
  9 19  1  0  0  0  0
 11 12  1  0  0  0  0
 11 13  1  0  0  0  0
 11 14  1  0  0  0  0
 14 15  2  0  0  0  0
 14 16  1  0  0  0  0
 16 17  1  0  0  0  0
 16 18  1  0  0  0  0
 19 20  2  0  0  0  0
 19 21  1  0  0  0  0
 21 22  1  0  0  0  0
 21 23  1  0  0  0  0
 23 24  1  0  0  0  0
 23 25  1  0  0  0  0
 23 26  1  0  0  0  0
M  END
$$$$

  -OEChem-03222214023D

 26 25  0     1  0  0  0  0  0999 V2000
   -2.5908   -3.7573   -0.2902 H   0  0  0  0  0  0  0  0  0  0  0  0
   -2.6385   -2.7004   -0.5681 C   0  0  0  0  0  0  0  0  0  0  0  0
   -3.2650   -2.1752    0.1568 H   0  0  0  0  0  0  0  0  0  0  0  0
   -3.0902   -2.6176   -1.5595 H   0  0  0  0  0  0  0  0  0  0  0  0
   -1.2445   -2.1016   -0.5811 C   0  0  0  0  0  0  0  0  0  0  0  0
   -0.2801   -2.8034   -0.3320 O   0  0  0  0  0  0  0  0  0  0  0  0
   -1.0733   -0.7665   -0.8940 N   0  0  0  0  0  0  0  0  0  0  0  0
   -1.9208   -0.2158   -0.9947 H   0  0  0  0  0  0  0  0  0  0  0  0
    0.2029   -0.0509   -0.7173 C   0  0  1  0  0  0  0  0  0  0  0  0
    0.9472   -0.6714   -1.2317 H   0  0  0  0  0  0  0  0  0  0  0  0
    0.1711    1.2754   -1.5222 C   0  0  0  0  0  0  0  0  0  0  0  0
    0.9820    1.2371   -2.2544 H   0  0  0  0  0  0  0  0  0  0  0  0
   -0.7612    1.3521   -2.0873 H   0  0  0  0  0  0  0  0  0  0  0  0
    0.3363    2.5660   -0.7252 C   0  0  0  0  0  0  0  0  0  0  0  0
   -0.2612    2.7688    0.3153 O   0  0  0  0  0  0  0  0  0  0  0  0
    1.2306    3.5294   -1.0925 N   0  0  0  0  0  0  0  0  0  0  0  0
    1.4391    4.2173   -0.3741 H   0  0  0  0  0  0  0  0  0  0  0  0
    1.9477    3.2831   -1.7669 H   0  0  0  0  0  0  0  0  0  0  0  0
    0.7580    0.0038    0.7285 C   0  0  0  0  0  0  0  0  0  0  0  0
    1.9691   -0.0711    0.8937 O   0  0  0  0  0  0  0  0  0  0  0  0
   -0.0592    0.3003    1.8047 N   0  0  0  0  0  0  0  0  0  0  0  0
   -0.9514    0.7205    1.5608 H   0  0  0  0  0  0  0  0  0  0  0  0
    0.4784    0.5876    3.1286 C   0  0  0  0  0  0  0  0  0  0  0  0
    1.0827    1.5005    3.1054 H   0  0  0  0  0  0  0  0  0  0  0  0
   -0.3367    0.7270    3.8449 H   0  0  0  0  0  0  0  0  0  0  0  0
    1.1039   -0.2410    3.4774 H   0  0  0  0  0  0  0  0  0  0  0  0
  1  2  1  0  0  0  0
  2  3  1  0  0  0  0
  2  4  1  0  0  0  0
  2  5  1  0  0  0  0
  5  6  2  0  0  0  0
  5  7  1  0  0  0  0
  7  8  1  0  0  0  0
  7  9  1  0  0  0  0
  9 10  1  0  0  0  0
  9 11  1  0  0  0  0
  9 19  1  0  0  0  0
 11 12  1  0  0  0  0
 11 13  1  0  0  0  0
 11 14  1  0  0  0  0
 14 15  2  0  0  0  0
 14 16  1  0  0  0  0
 16 17  1  0  0  0  0
 16 18  1  0  0  0  0
 19 20  2  0  0  0  0
 19 21  1  0  0  0  0
 21 22  1  0  0  0  0
 21 23  1  0  0  0  0
 23 24  1  0  0  0  0
 23 25  1  0  0  0  0
 23 26  1  0  0  0  0
M  END
$$$$

  -OEChem-03222214023D

 26 25  0     1  0  0  0  0  0999 V2000
   -2.5874   -3.7456   -0.3106 H   0  0  0  0  0  0  0  0  0  0  0  0
   -2.6316   -2.6864   -0.5802 C   0  0  0  0  0  0  0  0  0  0  0  0
   -3.2581   -2.1653    0.1476 H   0  0  0  0  0  0  0  0  0  0  0  0
   -3.0811   -2.5946   -1.5717 H   0  0  0  0  0  0  0  0  0  0  0  0
   -1.2360   -2.0912   -0.5862 C   0  0  0  0  0  0  0  0  0  0  0  0
   -0.2729   -2.8009   -0.3562 O   0  0  0  0  0  0  0  0  0  0  0  0
   -1.0638   -0.7503   -0.8733 N   0  0  0  0  0  0  0  0  0  0  0  0
   -1.9116   -0.1984   -0.9606 H   0  0  0  0  0  0  0  0  0  0  0  0
    0.2115   -0.0367   -0.6780 C   0  0  1  0  0  0  0  0  0  0  0  0
    0.9586   -0.6539   -1.1924 H   0  0  0  0  0  0  0  0  0  0  0  0
    0.1863    1.2908   -1.4855 C   0  0  0  0  0  0  0  0  0  0  0  0
    1.0115    1.2460   -2.2016 H   0  0  0  0  0  0  0  0  0  0  0  0
   -0.7353    1.3534   -2.0696 H   0  0  0  0  0  0  0  0  0  0  0  0
    0.3361    2.6066   -0.7238 C   0  0  0  0  0  0  0  0  0  0  0  0
   -0.0400    2.7731    0.4198 O   0  0  0  0  0  0  0  0  0  0  0  0
    0.9212    3.6951   -1.3038 N   0  0  0  0  0  0  0  0  0  0  0  0
    1.1597    4.4493   -0.6657 H   0  0  0  0  0  0  0  0  0  0  0  0
    1.4701    3.5583   -2.1460 H   0  0  0  0  0  0  0  0  0  0  0  0
    0.7575   -0.0106    0.7724 C   0  0  0  0  0  0  0  0  0  0  0  0
    1.9628   -0.1354    0.9494 O   0  0  0  0  0  0  0  0  0  0  0  0
   -0.0666    0.2643    1.8496 N   0  0  0  0  0  0  0  0  0  0  0  0
   -0.9456    0.7130    1.6118 H   0  0  0  0  0  0  0  0  0  0  0  0
    0.4646    0.4954    3.1869 C   0  0  0  0  0  0  0  0  0  0  0  0
    1.0936    1.3917    3.1979 H   0  0  0  0  0  0  0  0  0  0  0  0
   -0.3537    0.6346    3.8996 H   0  0  0  0  0  0  0  0  0  0  0  0
    1.0641   -0.3603    3.5153 H   0  0  0  0  0  0  0  0  0  0  0  0
  1  2  1  0  0  0  0
  2  3  1  0  0  0  0
  2  4  1  0  0  0  0
  2  5  1  0  0  0  0
  5  6  2  0  0  0  0
  5  7  1  0  0  0  0
  7  8  1  0  0  0  0
  7  9  1  0  0  0  0
  9 10  1  0  0  0  0
  9 11  1  0  0  0  0
  9 19  1  0  0  0  0
 11 12  1  0  0  0  0
 11 13  1  0  0  0  0
 11 14  1  0  0  0  0
 14 15  2  0  0  0  0
 14 16  1  0  0  0  0
 16 17  1  0  0  0  0
 16 18  1  0  0  0  0
 19 20  2  0  0  0  0
 19 21  1  0  0  0  0
 21 22  1  0  0  0  0
 21 23  1  0  0  0  0
 23 24  1  0  0  0  0
 23 25  1  0  0  0  0
 23 26  1  0  0  0  0
M  END
$$$$

  -OEChem-03222214023D

 26 25  0     1  0  0  0  0  0999 V2000
   -2.5865   -3.7358   -0.3309 H   0  0  0  0  0  0  0  0  0  0  0  0
   -2.6286   -2.6728   -0.5857 C   0  0  0  0  0  0  0  0  0  0  0  0
   -3.2514   -2.1601    0.1513 H   0  0  0  0  0  0  0  0  0  0  0  0
   -3.0811   -2.5662   -1.5745 H   0  0  0  0  0  0  0  0  0  0  0  0
   -1.2311   -2.0813   -0.5869 C   0  0  0  0  0  0  0  0  0  0  0  0
   -0.2695   -2.7971   -0.3702 O   0  0  0  0  0  0  0  0  0  0  0  0
   -1.0567   -0.7370   -0.8569 N   0  0  0  0  0  0  0  0  0  0  0  0
   -1.9040   -0.1839   -0.9395 H   0  0  0  0  0  0  0  0  0  0  0  0
    0.2209   -0.0272   -0.6575 C   0  0  1  0  0  0  0  0  0  0  0  0
    0.9681   -0.6369   -1.1810 H   0  0  0  0  0  0  0  0  0  0  0  0
    0.1864    1.3102   -1.4523 C   0  0  0  0  0  0  0  0  0  0  0  0
    1.0088    1.2708   -2.1719 H   0  0  0  0  0  0  0  0  0  0  0  0
   -0.7379    1.3678   -2.0326 H   0  0  0  0  0  0  0  0  0  0  0  0
    0.3351    2.6373   -0.7065 C   0  0  0  0  0  0  0  0  0  0  0  0
    0.2227    2.7836    0.4932 O   0  0  0  0  0  0  0  0  0  0  0  0
    0.6010    3.7879   -1.3913 N   0  0  0  0  0  0  0  0  0  0  0  0
    0.8726    4.5809   -0.8161 H   0  0  0  0  0  0  0  0  0  0  0  0
    0.9412    3.7182   -2.3444 H   0  0  0  0  0  0  0  0  0  0  0  0
    0.7641   -0.0262    0.7937 C   0  0  0  0  0  0  0  0  0  0  0  0
    1.9643   -0.1878    0.9755 O   0  0  0  0  0  0  0  0  0  0  0  0
   -0.0644    0.2339    1.8716 N   0  0  0  0  0  0  0  0  0  0  0  0
   -0.9465    0.6783    1.6413 H   0  0  0  0  0  0  0  0  0  0  0  0
    0.4631    0.4378    3.2145 C   0  0  0  0  0  0  0  0  0  0  0  0
    1.1022    1.3267    3.2422 H   0  0  0  0  0  0  0  0  0  0  0  0
   -0.3570    0.5747    3.9256 H   0  0  0  0  0  0  0  0  0  0  0  0
    1.0516   -0.4296    3.5315 H   0  0  0  0  0  0  0  0  0  0  0  0
  1  2  1  0  0  0  0
  2  3  1  0  0  0  0
  2  4  1  0  0  0  0
  2  5  1  0  0  0  0
  5  6  2  0  0  0  0
  5  7  1  0  0  0  0
  7  8  1  0  0  0  0
  7  9  1  0  0  0  0
  9 10  1  0  0  0  0
  9 11  1  0  0  0  0
  9 19  1  0  0  0  0
 11 12  1  0  0  0  0
 11 13  1  0  0  0  0
 11 14  1  0  0  0  0
 14 15  2  0  0  0  0
 14 16  1  0  0  0  0
 16 17  1  0  0  0  0
 16 18  1  0  0  0  0
 19 20  2  0  0  0  0
 19 21  1  0  0  0  0
 21 22  1  0  0  0  0
 21 23  1  0  0  0  0
 23 24  1  0  0  0  0
 23 25  1  0  0  0  0
 23 26  1  0  0  0  0
M  END
$$$$

  -OEChem-03222214023D

 26 25  0     1  0  0  0  0  0999 V2000
   -2.5898   -3.7168   -0.3077 H   0  0  0  0  0  0  0  0  0  0  0  0
   -2.6261   -2.6575   -0.5777 C   0  0  0  0  0  0  0  0  0  0  0  0
   -3.2489   -2.1314    0.1497 H   0  0  0  0  0  0  0  0  0  0  0  0
   -3.0740   -2.5624   -1.5699 H   0  0  0  0  0  0  0  0  0  0  0  0
   -1.2260   -2.0732   -0.5821 C   0  0  0  0  0  0  0  0  0  0  0  0
   -0.2672   -2.7949   -0.3750 O   0  0  0  0  0  0  0  0  0  0  0  0
   -1.0471   -0.7286   -0.8475 N   0  0  0  0  0  0  0  0  0  0  0  0
   -1.8927   -0.1735   -0.9321 H   0  0  0  0  0  0  0  0  0  0  0  0
    0.2350   -0.0242   -0.6532 C   0  0  1  0  0  0  0  0  0  0  0  0
    0.9814   -0.6250   -1.1883 H   0  0  0  0  0  0  0  0  0  0  0  0
    0.1784    1.3241   -1.4311 C   0  0  0  0  0  0  0  0  0  0  0  0
    0.9875    1.2980   -2.1663 H   0  0  0  0  0  0  0  0  0  0  0  0
   -0.7565    1.3786   -1.9945 H   0  0  0  0  0  0  0  0  0  0  0  0
    0.3316    2.6519   -0.6856 C   0  0  0  0  0  0  0  0  0  0  0  0
    0.4993    2.7876    0.5079 O   0  0  0  0  0  0  0  0  0  0  0  0
    0.2804    3.8290   -1.3748 N   0  0  0  0  0  0  0  0  0  0  0  0
    0.5802    4.6480   -0.8525 H   0  0  0  0  0  0  0  0  0  0  0  0
    0.3895    3.8069   -2.3830 H   0  0  0  0  0  0  0  0  0  0  0  0
    0.7764   -0.0380    0.7990 C   0  0  0  0  0  0  0  0  0  0  0  0
    1.9695   -0.2395    0.9867 O   0  0  0  0  0  0  0  0  0  0  0  0
   -0.0542    0.2188    1.8768 N   0  0  0  0  0  0  0  0  0  0  0  0
   -0.9467    0.6439    1.6537 H   0  0  0  0  0  0  0  0  0  0  0  0
    0.4674    0.3983    3.2257 C   0  0  0  0  0  0  0  0  0  0  0  0
    1.1333    1.2670    3.2646 H   0  0  0  0  0  0  0  0  0  0  0  0
   -0.3537    0.5560    3.9311 H   0  0  0  0  0  0  0  0  0  0  0  0
    1.0263   -0.4888    3.5417 H   0  0  0  0  0  0  0  0  0  0  0  0
  1  2  1  0  0  0  0
  2  3  1  0  0  0  0
  2  4  1  0  0  0  0
  2  5  1  0  0  0  0
  5  6  2  0  0  0  0
  5  7  1  0  0  0  0
  7  8  1  0  0  0  0
  7  9  1  0  0  0  0
  9 10  1  0  0  0  0
  9 11  1  0  0  0  0
  9 19  1  0  0  0  0
 11 12  1  0  0  0  0
 11 13  1  0  0  0  0
 11 14  1  0  0  0  0
 14 15  2  0  0  0  0
 14 16  1  0  0  0  0
 16 17  1  0  0  0  0
 16 18  1  0  0  0  0
 19 20  2  0  0  0  0
 19 21  1  0  0  0  0
 21 22  1  0  0  0  0
 21 23  1  0  0  0  0
 23 24  1  0  0  0  0
 23 25  1  0  0  0  0
 23 26  1  0  0  0  0
M  END
$$$$

  -OEChem-03222214023D

 26 25  0     1  0  0  0  0  0999 V2000
   -2.5944   -3.7155   -0.3101 H   0  0  0  0  0  0  0  0  0  0  0  0
   -2.6272   -2.6526   -0.5667 C   0  0  0  0  0  0  0  0  0  0  0  0
   -3.2511   -2.1345    0.1653 H   0  0  0  0  0  0  0  0  0  0  0  0
   -3.0718   -2.5443   -1.5587 H   0  0  0  0  0  0  0  0  0  0  0  0
   -1.2256   -2.0712   -0.5602 C   0  0  0  0  0  0  0  0  0  0  0  0
   -0.2713   -2.7944   -0.3394 O   0  0  0  0  0  0  0  0  0  0  0  0
   -1.0395   -0.7294   -0.8363 N   0  0  0  0  0  0  0  0  0  0  0  0
   -1.8810   -0.1724   -0.9444 H   0  0  0  0  0  0  0  0  0  0  0  0
    0.2484   -0.0299   -0.6587 C   0  0  1  0  0  0  0  0  0  0  0  0
    0.9922   -0.6242   -1.2041 H   0  0  0  0  0  0  0  0  0  0  0  0
    0.1681    1.3272   -1.4209 C   0  0  0  0  0  0  0  0  0  0  0  0
    0.9583    1.3148   -2.1765 H   0  0  0  0  0  0  0  0  0  0  0  0
   -0.7806    1.3822   -1.9607 H   0  0  0  0  0  0  0  0  0  0  0  0
    0.3353    2.6472   -0.6637 C   0  0  0  0  0  0  0  0  0  0  0  0
    0.7778    2.7825    0.4566 O   0  0  0  0  0  0  0  0  0  0  0  0
   -0.0104    3.8240   -1.2629 N   0  0  0  0  0  0  0  0  0  0  0  0
    0.3151    4.6607   -0.7857 H   0  0  0  0  0  0  0  0  0  0  0  0
   -0.1417    3.8381   -2.2686 H   0  0  0  0  0  0  0  0  0  0  0  0
    0.7906   -0.0440    0.7931 C   0  0  0  0  0  0  0  0  0  0  0  0
    1.9770   -0.2755    0.9864 O   0  0  0  0  0  0  0  0  0  0  0  0
   -0.0407    0.2223    1.8682 N   0  0  0  0  0  0  0  0  0  0  0  0
   -0.9470    0.6177    1.6487 H   0  0  0  0  0  0  0  0  0  0  0  0
    0.4728    0.3858    3.2222 C   0  0  0  0  0  0  0  0  0  0  0  0
    1.1409    1.2520    3.2738 H   0  0  0  0  0  0  0  0  0  0  0  0
   -0.3521    0.5396    3.9242 H   0  0  0  0  0  0  0  0  0  0  0  0
    1.0270   -0.5061    3.5337 H   0  0  0  0  0  0  0  0  0  0  0  0
  1  2  1  0  0  0  0
  2  3  1  0  0  0  0
  2  4  1  0  0  0  0
  2  5  1  0  0  0  0
  5  6  2  0  0  0  0
  5  7  1  0  0  0  0
  7  8  1  0  0  0  0
  7  9  1  0  0  0  0
  9 10  1  0  0  0  0
  9 11  1  0  0  0  0
  9 19  1  0  0  0  0
 11 12  1  0  0  0  0
 11 13  1  0  0  0  0
 11 14  1  0  0  0  0
 14 15  2  0  0  0  0
 14 16  1  0  0  0  0
 16 17  1  0  0  0  0
 16 18  1  0  0  0  0
 19 20  2  0  0  0  0
 19 21  1  0  0  0  0
 21 22  1  0  0  0  0
 21 23  1  0  0  0  0
 23 24  1  0  0  0  0
 23 25  1  0  0  0  0
 23 26  1  0  0  0  0
M  END
$$$$

  -OEChem-03222214023D

 26 25  0     1  0  0  0  0  0999 V2000
   -2.6019   -3.7009   -0.2489 H   0  0  0  0  0  0  0  0  0  0  0  0
   -2.6257   -2.6501   -0.5521 C   0  0  0  0  0  0  0  0  0  0  0  0
   -3.2629   -2.0994    0.1436 H   0  0  0  0  0  0  0  0  0  0  0  0
   -3.0490   -2.5840   -1.5571 H   0  0  0  0  0  0  0  0  0  0  0  0
   -1.2222   -2.0733   -0.5407 C   0  0  0  0  0  0  0  0  0  0  0  0
   -0.2738   -2.7967   -0.2978 O   0  0  0  0  0  0  0  0  0  0  0  0
   -1.0273   -0.7369   -0.8370 N   0  0  0  0  0  0  0  0  0  0  0  0
   -1.8638   -0.1794   -0.9753 H   0  0  0  0  0  0  0  0  0  0  0  0
    0.2666   -0.0430   -0.6762 C   0  0  1  0  0  0  0  0  0  0  0  0
    1.0088   -0.6335   -1.2278 H   0  0  0  0  0  0  0  0  0  0  0  0
    0.1649    1.3216   -1.4217 C   0  0  0  0  0  0  0  0  0  0  0  0
    0.9386    1.3245   -2.1945 H   0  0  0  0  0  0  0  0  0  0  0  0
   -0.7951    1.3823   -1.9402 H   0  0  0  0  0  0  0  0  0  0  0  0
    0.3498    2.6243   -0.6396 C   0  0  0  0  0  0  0  0  0  0  0  0
    1.0393    2.7709    0.3464 O   0  0  0  0  0  0  0  0  0  0  0  0
   -0.2749    3.7668   -1.0505 N   0  0  0  0  0  0  0  0  0  0  0  0
    0.0547    4.6185   -0.6033 H   0  0  0  0  0  0  0  0  0  0  0  0
   -0.6436    3.8060   -1.9945 H   0  0  0  0  0  0  0  0  0  0  0  0
    0.8072   -0.0451    0.7758 C   0  0  0  0  0  0  0  0  0  0  0  0
    1.9863   -0.3020    0.9791 O   0  0  0  0  0  0  0  0  0  0  0  0
   -0.0266    0.2409    1.8437 N   0  0  0  0  0  0  0  0  0  0  0  0
   -0.9484    0.5975    1.6233 H   0  0  0  0  0  0  0  0  0  0  0  0
    0.4745    0.3944    3.2033 C   0  0  0  0  0  0  0  0  0  0  0  0
    1.1990    1.2143    3.2521 H   0  0  0  0  0  0  0  0  0  0  0  0
   -0.3493    0.6164    3.8879 H   0  0  0  0  0  0  0  0  0  0  0  0
    0.9621   -0.5272    3.5379 H   0  0  0  0  0  0  0  0  0  0  0  0
  1  2  1  0  0  0  0
  2  3  1  0  0  0  0
  2  4  1  0  0  0  0
  2  5  1  0  0  0  0
  5  6  2  0  0  0  0
  5  7  1  0  0  0  0
  7  8  1  0  0  0  0
  7  9  1  0  0  0  0
  9 10  1  0  0  0  0
  9 11  1  0  0  0  0
  9 19  1  0  0  0  0
 11 12  1  0  0  0  0
 11 13  1  0  0  0  0
 11 14  1  0  0  0  0
 14 15  2  0  0  0  0
 14 16  1  0  0  0  0
 16 17  1  0  0  0  0
 16 18  1  0  0  0  0
 19 20  2  0  0  0  0
 19 21  1  0  0  0  0
 21 22  1  0  0  0  0
 21 23  1  0  0  0  0
 23 24  1  0  0  0  0
 23 25  1  0  0  0  0
 23 26  1  0  0  0  0
M  END
$$$$

  -OEChem-03222214023D

 26 25  0     1  0  0  0  0  0999 V2000
   -2.6132   -3.6958   -0.2313 H   0  0  0  0  0  0  0  0  0  0  0  0
   -2.6272   -2.6480   -0.5454 C   0  0  0  0  0  0  0  0  0  0  0  0
   -3.2764   -2.0881    0.1317 H   0  0  0  0  0  0  0  0  0  0  0  0
   -3.0300   -2.5910   -1.5594 H   0  0  0  0  0  0  0  0  0  0  0  0
   -1.2223   -2.0758   -0.5118 C   0  0  0  0  0  0  0  0  0  0  0  0
   -0.2845   -2.7945   -0.2201 O   0  0  0  0  0  0  0  0  0  0  0  0
   -1.0142   -0.7488   -0.8396 N   0  0  0  0  0  0  0  0  0  0  0  0
   -1.8410   -0.1955   -1.0392 H   0  0  0  0  0  0  0  0  0  0  0  0
    0.2855   -0.0609   -0.6989 C   0  0  1  0  0  0  0  0  0  0  0  0
    1.0263   -0.6532   -1.2500 H   0  0  0  0  0  0  0  0  0  0  0  0
    0.1695    1.3055   -1.4370 C   0  0  0  0  0  0  0  0  0  0  0  0
    0.9292    1.3175   -2.2234 H   0  0  0  0  0  0  0  0  0  0  0  0
   -0.7991    1.3756   -1.9379 H   0  0  0  0  0  0  0  0  0  0  0  0
    0.3770    2.5864   -0.6273 C   0  0  0  0  0  0  0  0  0  0  0  0
    1.2695    2.7654    0.1729 O   0  0  0  0  0  0  0  0  0  0  0  0
   -0.4780    3.6429   -0.7599 N   0  0  0  0  0  0  0  0  0  0  0  0
   -0.1603    4.5054   -0.3246 H   0  0  0  0  0  0  0  0  0  0  0  0
   -1.0753    3.6847   -1.5782 H   0  0  0  0  0  0  0  0  0  0  0  0
    0.8235   -0.0365    0.7540 C   0  0  0  0  0  0  0  0  0  0  0  0
    1.9980   -0.3017    0.9700 O   0  0  0  0  0  0  0  0  0  0  0  0
   -0.0123    0.2800    1.8114 N   0  0  0  0  0  0  0  0  0  0  0  0
   -0.9542    0.5776    1.5888 H   0  0  0  0  0  0  0  0  0  0  0  0
    0.4721    0.4298    3.1772 C   0  0  0  0  0  0  0  0  0  0  0  0
    1.2207    1.2276    3.2303 H   0  0  0  0  0  0  0  0  0  0  0  0
   -0.3545    0.6833    3.8475 H   0  0  0  0  0  0  0  0  0  0  0  0
    0.9262   -0.5036    3.5263 H   0  0  0  0  0  0  0  0  0  0  0  0
  1  2  1  0  0  0  0
  2  3  1  0  0  0  0
  2  4  1  0  0  0  0
  2  5  1  0  0  0  0
  5  6  2  0  0  0  0
  5  7  1  0  0  0  0
  7  8  1  0  0  0  0
  7  9  1  0  0  0  0
  9 10  1  0  0  0  0
  9 11  1  0  0  0  0
  9 19  1  0  0  0  0
 11 12  1  0  0  0  0
 11 13  1  0  0  0  0
 11 14  1  0  0  0  0
 14 15  2  0  0  0  0
 14 16  1  0  0  0  0
 16 17  1  0  0  0  0
 16 18  1  0  0  0  0
 19 20  2  0  0  0  0
 19 21  1  0  0  0  0
 21 22  1  0  0  0  0
 21 23  1  0  0  0  0
 23 24  1  0  0  0  0
 23 25  1  0  0  0  0
 23 26  1  0  0  0  0
M  END
$$$$

  -OEChem-03222214023D

 26 25  0     1  0  0  0  0  0999 V2000
   -2.6213   -3.7014   -0.2382 H   0  0  0  0  0  0  0  0  0  0  0  0
   -2.6298   -2.6549   -0.5565 C   0  0  0  0  0  0  0  0  0  0  0  0
   -3.3069   -2.0959    0.0936 H   0  0  0  0  0  0  0  0  0  0  0  0
   -2.9955   -2.6044   -1.5848 H   0  0  0  0  0  0  0  0  0  0  0  0
   -1.2303   -2.0744   -0.4729 C   0  0  0  0  0  0  0  0  0  0  0  0
   -0.3062   -2.7765   -0.1073 O   0  0  0  0  0  0  0  0  0  0  0  0
   -1.0122   -0.7573   -0.8322 N   0  0  0  0  0  0  0  0  0  0  0  0
   -1.8221   -0.2259   -1.1343 H   0  0  0  0  0  0  0  0  0  0  0  0
    0.2911   -0.0715   -0.7153 C   0  0  1  0  0  0  0  0  0  0  0  0
    1.0283   -0.6697   -1.2649 H   0  0  0  0  0  0  0  0  0  0  0  0
    0.1664    1.2915   -1.4543 C   0  0  0  0  0  0  0  0  0  0  0  0
    0.9156    1.3066   -2.2512 H   0  0  0  0  0  0  0  0  0  0  0  0
   -0.8084    1.3729   -1.9406 H   0  0  0  0  0  0  0  0  0  0  0  0
    0.3973    2.5514   -0.6220 C   0  0  0  0  0  0  0  0  0  0  0  0
    1.4342    2.7956   -0.0434 O   0  0  0  0  0  0  0  0  0  0  0  0
   -0.5922    3.4762   -0.4445 N   0  0  0  0  0  0  0  0  0  0  0  0
   -0.2907    4.3451   -0.0108 H   0  0  0  0  0  0  0  0  0  0  0  0
   -1.3768    3.4810   -1.0862 H   0  0  0  0  0  0  0  0  0  0  0  0
    0.8364   -0.0146    0.7345 C   0  0  0  0  0  0  0  0  0  0  0  0
    2.0135   -0.2635    0.9528 O   0  0  0  0  0  0  0  0  0  0  0  0
    0.0048    0.3307    1.7860 N   0  0  0  0  0  0  0  0  0  0  0  0
   -0.9603    0.5494    1.5704 H   0  0  0  0  0  0  0  0  0  0  0  0
    0.4768    0.4668    3.1575 C   0  0  0  0  0  0  0  0  0  0  0  0
    1.2465    1.2436    3.2200 H   0  0  0  0  0  0  0  0  0  0  0  0
   -0.3503    0.7441    3.8176 H   0  0  0  0  0  0  0  0  0  0  0  0
    0.9004   -0.4789    3.5121 H   0  0  0  0  0  0  0  0  0  0  0  0
  1  2  1  0  0  0  0
  2  3  1  0  0  0  0
  2  4  1  0  0  0  0
  2  5  1  0  0  0  0
  5  6  2  0  0  0  0
  5  7  1  0  0  0  0
  7  8  1  0  0  0  0
  7  9  1  0  0  0  0
  9 10  1  0  0  0  0
  9 11  1  0  0  0  0
  9 19  1  0  0  0  0
 11 12  1  0  0  0  0
 11 13  1  0  0  0  0
 11 14  1  0  0  0  0
 14 15  2  0  0  0  0
 14 16  1  0  0  0  0
 16 17  1  0  0  0  0
 16 18  1  0  0  0  0
 19 20  2  0  0  0  0
 19 21  1  0  0  0  0
 21 22  1  0  0  0  0
 21 23  1  0  0  0  0
 23 24  1  0  0  0  0
 23 25  1  0  0  0  0
 23 26  1  0  0  0  0
M  END
$$$$

  -OEChem-03222214023D

 26 25  0     1  0  0  0  0  0999 V2000
   -2.6236   -3.7222   -0.2740 H   0  0  0  0  0  0  0  0  0  0  0  0
   -2.6330   -2.6762   -0.5941 C   0  0  0  0  0  0  0  0  0  0  0  0
   -3.3625   -2.1314    0.0096 H   0  0  0  0  0  0  0  0  0  0  0  0
   -2.9316   -2.6340   -1.6442 H   0  0  0  0  0  0  0  0  0  0  0  0
   -1.2545   -2.0660   -0.4202 C   0  0  0  0  0  0  0  0  0  0  0  0
   -0.3529   -2.7363    0.0470 O   0  0  0  0  0  0  0  0  0  0  0  0
   -1.0310   -0.7571   -0.8054 N   0  0  0  0  0  0  0  0  0  0  0  0
   -1.8040   -0.2765   -1.2540 H   0  0  0  0  0  0  0  0  0  0  0  0
    0.2767   -0.0753   -0.7136 C   0  0  1  0  0  0  0  0  0  0  0  0
    1.0060   -0.6819   -1.2643 H   0  0  0  0  0  0  0  0  0  0  0  0
    0.1506    1.2831   -1.4567 C   0  0  0  0  0  0  0  0  0  0  0  0
    0.8877    1.2936   -2.2649 H   0  0  0  0  0  0  0  0  0  0  0  0
   -0.8312    1.3788   -1.9258 H   0  0  0  0  0  0  0  0  0  0  0  0
    0.4075    2.5269   -0.6111 C   0  0  0  0  0  0  0  0  0  0  0  0
    1.5192    2.8720   -0.2709 O   0  0  0  0  0  0  0  0  0  0  0  0
   -0.6155    3.3158   -0.1663 N   0  0  0  0  0  0  0  0  0  0  0  0
   -0.3289    4.1934    0.2601 H   0  0  0  0  0  0  0  0  0  0  0  0
   -1.5240    3.2410   -0.6088 H   0  0  0  0  0  0  0  0  0  0  0  0
    0.8418    0.0087    0.7275 C   0  0  0  0  0  0  0  0  0  0  0  0
    2.0290   -0.2021    0.9292 O   0  0  0  0  0  0  0  0  0  0  0  0
    0.0256    0.3780    1.7825 N   0  0  0  0  0  0  0  0  0  0  0  0
   -0.9615    0.4999    1.5900 H   0  0  0  0  0  0  0  0  0  0  0  0
    0.5027    0.4871    3.1547 C   0  0  0  0  0  0  0  0  0  0  0  0
    1.2953    1.2398    3.2245 H   0  0  0  0  0  0  0  0  0  0  0  0
   -0.3151    0.7837    3.8180 H   0  0  0  0  0  0  0  0  0  0  0  0
    0.8978   -0.4743    3.4993 H   0  0  0  0  0  0  0  0  0  0  0  0
  1  2  1  0  0  0  0
  2  3  1  0  0  0  0
  2  4  1  0  0  0  0
  2  5  1  0  0  0  0
  5  6  2  0  0  0  0
  5  7  1  0  0  0  0
  7  8  1  0  0  0  0
  7  9  1  0  0  0  0
  9 10  1  0  0  0  0
  9 11  1  0  0  0  0
  9 19  1  0  0  0  0
 11 12  1  0  0  0  0
 11 13  1  0  0  0  0
 11 14  1  0  0  0  0
 14 15  2  0  0  0  0
 14 16  1  0  0  0  0
 16 17  1  0  0  0  0
 16 18  1  0  0  0  0
 19 20  2  0  0  0  0
 19 21  1  0  0  0  0
 21 22  1  0  0  0  0
 21 23  1  0  0  0  0
 23 24  1  0  0  0  0
 23 25  1  0  0  0  0
 23 26  1  0  0  0  0
M  END
$$$$

  -OEChem-03222214023D

 26 25  0     1  0  0  0  0  0999 V2000
   -2.6292   -3.7337   -0.3140 H   0  0  0  0  0  0  0  0  0  0  0  0
   -2.6358   -2.6966   -0.6625 C   0  0  0  0  0  0  0  0  0  0  0  0
   -3.4420   -2.1611   -0.1556 H   0  0  0  0  0  0  0  0  0  0  0  0
   -2.8227   -2.6904   -1.7391 H   0  0  0  0  0  0  0  0  0  0  0  0
   -1.3025   -2.0370   -0.3621 C   0  0  0  0  0  0  0  0  0  0  0  0
   -0.4474   -2.6530    0.2458 O   0  0  0  0  0  0  0  0  0  0  0  0
   -1.0706   -0.7391   -0.7794 N   0  0  0  0  0  0  0  0  0  0  0  0
   -1.7785   -0.3373   -1.3864 H   0  0  0  0  0  0  0  0  0  0  0  0
    0.2466   -0.0716   -0.7116 C   0  0  1  0  0  0  0  0  0  0  0  0
    0.9632   -0.6995   -1.2550 H   0  0  0  0  0  0  0  0  0  0  0  0
    0.1416    1.2757   -1.4759 C   0  0  0  0  0  0  0  0  0  0  0  0
    0.8691    1.2579   -2.2930 H   0  0  0  0  0  0  0  0  0  0  0  0
   -0.8438    1.3874   -1.9339 H   0  0  0  0  0  0  0  0  0  0  0  0
    0.4279    2.5282   -0.6534 C   0  0  0  0  0  0  0  0  0  0  0  0
    1.5435    2.9952   -0.5560 O   0  0  0  0  0  0  0  0  0  0  0  0
   -0.5590    3.2044    0.0062 N   0  0  0  0  0  0  0  0  0  0  0  0
   -0.2320    3.9082    0.6630 H   0  0  0  0  0  0  0  0  0  0  0  0
   -1.4502    2.7481    0.1570 H   0  0  0  0  0  0  0  0  0  0  0  0
    0.8277    0.0390    0.7206 C   0  0  0  0  0  0  0  0  0  0  0  0
    2.0302   -0.0858    0.8976 O   0  0  0  0  0  0  0  0  0  0  0  0
    0.0212    0.4412    1.7713 N   0  0  0  0  0  0  0  0  0  0  0  0
   -0.9771    0.3376    1.6294 H   0  0  0  0  0  0  0  0  0  0  0  0
    0.5208    0.5546    3.1360 C   0  0  0  0  0  0  0  0  0  0  0  0
    1.3542    1.2639    3.1808 H   0  0  0  0  0  0  0  0  0  0  0  0
   -0.2710    0.9123    3.8008 H   0  0  0  0  0  0  0  0  0  0  0  0
    0.8675   -0.4190    3.4979 H   0  0  0  0  0  0  0  0  0  0  0  0
  1  2  1  0  0  0  0
  2  3  1  0  0  0  0
  2  4  1  0  0  0  0
  2  5  1  0  0  0  0
  5  6  2  0  0  0  0
  5  7  1  0  0  0  0
  7  8  1  0  0  0  0
  7  9  1  0  0  0  0
  9 10  1  0  0  0  0
  9 11  1  0  0  0  0
  9 19  1  0  0  0  0
 11 12  1  0  0  0  0
 11 13  1  0  0  0  0
 11 14  1  0  0  0  0
 14 15  2  0  0  0  0
 14 16  1  0  0  0  0
 16 17  1  0  0  0  0
 16 18  1  0  0  0  0
 19 20  2  0  0  0  0
 19 21  1  0  0  0  0
 21 22  1  0  0  0  0
 21 23  1  0  0  0  0
 23 24  1  0  0  0  0
 23 25  1  0  0  0  0
 23 26  1  0  0  0  0
M  END
$$$$

  -OEChem-03222214023D

 26 25  0     1  0  0  0  0  0999 V2000
   -2.6328   -3.7469   -0.3431 H   0  0  0  0  0  0  0  0  0  0  0  0
   -2.6419   -2.7065   -0.6812 C   0  0  0  0  0  0  0  0  0  0  0  0
   -3.4515   -2.1779   -0.1723 H   0  0  0  0  0  0  0  0  0  0  0  0
   -2.8243   -2.6910   -1.7584 H   0  0  0  0  0  0  0  0  0  0  0  0
   -1.3124   -2.0454   -0.3690 C   0  0  0  0  0  0  0  0  0  0  0  0
   -0.4596   -2.6601    0.2438 O   0  0  0  0  0  0  0  0  0  0  0  0
   -1.0827   -0.7428   -0.7713 N   0  0  0  0  0  0  0  0  0  0  0  0
   -1.7904   -0.3358   -1.3760 H   0  0  0  0  0  0  0  0  0  0  0  0
    0.2346   -0.0762   -0.7003 C   0  0  1  0  0  0  0  0  0  0  0  0
    0.9471   -0.7055   -1.2478 H   0  0  0  0  0  0  0  0  0  0  0  0
    0.1470    1.2745   -1.4591 C   0  0  0  0  0  0  0  0  0  0  0  0
    0.8762    1.2504   -2.2748 H   0  0  0  0  0  0  0  0  0  0  0  0
   -0.8366    1.3968   -1.9182 H   0  0  0  0  0  0  0  0  0  0  0  0
    0.4392    2.5246   -0.6341 C   0  0  0  0  0  0  0  0  0  0  0  0
    1.4855    3.1308   -0.7412 O   0  0  0  0  0  0  0  0  0  0  0  0
   -0.4919    3.0912    0.1891 N   0  0  0  0  0  0  0  0  0  0  0  0
   -0.1248    3.8183    0.7973 H   0  0  0  0  0  0  0  0  0  0  0  0
   -1.2560    2.5120    0.5141 H   0  0  0  0  0  0  0  0  0  0  0  0
    0.8204    0.0164    0.7309 C   0  0  0  0  0  0  0  0  0  0  0  0
    2.0305   -0.0381    0.8893 O   0  0  0  0  0  0  0  0  0  0  0  0
    0.0147    0.4044    1.7880 N   0  0  0  0  0  0  0  0  0  0  0  0
   -0.9754    0.2184    1.6711 H   0  0  0  0  0  0  0  0  0  0  0  0
    0.5321    0.5407    3.1447 C   0  0  0  0  0  0  0  0  0  0  0  0
    1.3423    1.2774    3.1739 H   0  0  0  0  0  0  0  0  0  0  0  0
   -0.2603    0.8759    3.8206 H   0  0  0  0  0  0  0  0  0  0  0  0
    0.9164   -0.4191    3.5061 H   0  0  0  0  0  0  0  0  0  0  0  0
  1  2  1  0  0  0  0
  2  3  1  0  0  0  0
  2  4  1  0  0  0  0
  2  5  1  0  0  0  0
  5  6  2  0  0  0  0
  5  7  1  0  0  0  0
  7  8  1  0  0  0  0
  7  9  1  0  0  0  0
  9 10  1  0  0  0  0
  9 11  1  0  0  0  0
  9 19  1  0  0  0  0
 11 12  1  0  0  0  0
 11 13  1  0  0  0  0
 11 14  1  0  0  0  0
 14 15  2  0  0  0  0
 14 16  1  0  0  0  0
 16 17  1  0  0  0  0
 16 18  1  0  0  0  0
 19 20  2  0  0  0  0
 19 21  1  0  0  0  0
 21 22  1  0  0  0  0
 21 23  1  0  0  0  0
 23 24  1  0  0  0  0
 23 25  1  0  0  0  0
 23 26  1  0  0  0  0
M  END
$$$$

  -OEChem-03222214023D

 26 25  0     1  0  0  0  0  0999 V2000
   -2.6395   -3.7524   -0.3599 H   0  0  0  0  0  0  0  0  0  0  0  0
   -2.6489   -2.7085   -0.6871 C   0  0  0  0  0  0  0  0  0  0  0  0
   -3.4552   -2.1849   -0.1680 H   0  0  0  0  0  0  0  0  0  0  0  0
   -2.8378   -2.6810   -1.7630 H   0  0  0  0  0  0  0  0  0  0  0  0
   -1.3166   -2.0522   -0.3753 C   0  0  0  0  0  0  0  0  0  0  0  0
   -0.4638   -2.6705    0.2343 O   0  0  0  0  0  0  0  0  0  0  0  0
   -1.0857   -0.7455   -0.7637 N   0  0  0  0  0  0  0  0  0  0  0  0
   -1.7970   -0.3278   -1.3573 H   0  0  0  0  0  0  0  0  0  0  0  0
    0.2319   -0.0800   -0.6922 C   0  0  1  0  0  0  0  0  0  0  0  0
    0.9406   -0.7108   -1.2430 H   0  0  0  0  0  0  0  0  0  0  0  0
    0.1605    1.2744   -1.4469 C   0  0  0  0  0  0  0  0  0  0  0  0
    0.8879    1.2392   -2.2639 H   0  0  0  0  0  0  0  0  0  0  0  0
   -0.8234    1.4038   -1.9033 H   0  0  0  0  0  0  0  0  0  0  0  0
    0.4584    2.5331   -0.6351 C   0  0  0  0  0  0  0  0  0  0  0  0
    1.3743    3.2724   -0.9343 O   0  0  0  0  0  0  0  0  0  0  0  0
   -0.3674    2.9966    0.3484 N   0  0  0  0  0  0  0  0  0  0  0  0
    0.0231    3.7761    0.8710 H   0  0  0  0  0  0  0  0  0  0  0  0
   -0.9148    2.3057    0.8483 H   0  0  0  0  0  0  0  0  0  0  0  0
    0.8168   -0.0081    0.7394 C   0  0  0  0  0  0  0  0  0  0  0  0
    2.0291   -0.0017    0.8882 O   0  0  0  0  0  0  0  0  0  0  0  0
    0.0057    0.3649    1.7987 N   0  0  0  0  0  0  0  0  0  0  0  0
   -0.9716    0.1109    1.6945 H   0  0  0  0  0  0  0  0  0  0  0  0
    0.5297    0.5026    3.1530 C   0  0  0  0  0  0  0  0  0  0  0  0
    1.3166    1.2639    3.1848 H   0  0  0  0  0  0  0  0  0  0  0  0
   -0.2672    0.8047    3.8392 H   0  0  0  0  0  0  0  0  0  0  0  0
    0.9470   -0.4485    3.5005 H   0  0  0  0  0  0  0  0  0  0  0  0
  1  2  1  0  0  0  0
  2  3  1  0  0  0  0
  2  4  1  0  0  0  0
  2  5  1  0  0  0  0
  5  6  2  0  0  0  0
  5  7  1  0  0  0  0
  7  8  1  0  0  0  0
  7  9  1  0  0  0  0
  9 10  1  0  0  0  0
  9 11  1  0  0  0  0
  9 19  1  0  0  0  0
 11 12  1  0  0  0  0
 11 13  1  0  0  0  0
 11 14  1  0  0  0  0
 14 15  2  0  0  0  0
 14 16  1  0  0  0  0
 16 17  1  0  0  0  0
 16 18  1  0  0  0  0
 19 20  2  0  0  0  0
 19 21  1  0  0  0  0
 21 22  1  0  0  0  0
 21 23  1  0  0  0  0
 23 24  1  0  0  0  0
 23 25  1  0  0  0  0
 23 26  1  0  0  0  0
M  END
$$$$

  -OEChem-03222214023D

 26 25  0     1  0  0  0  0  0999 V2000
   -2.6503   -3.7504   -0.3775 H   0  0  0  0  0  0  0  0  0  0  0  0
   -2.6575   -2.7023   -0.6911 C   0  0  0  0  0  0  0  0  0  0  0  0
   -3.4556   -2.1811   -0.1570 H   0  0  0  0  0  0  0  0  0  0  0  0
   -2.8574   -2.6598   -1.7646 H   0  0  0  0  0  0  0  0  0  0  0  0
   -1.3186   -2.0573   -0.3848 C   0  0  0  0  0  0  0  0  0  0  0  0
   -0.4610   -2.6883    0.2051 O   0  0  0  0  0  0  0  0  0  0  0  0
   -1.0854   -0.7458   -0.7547 N   0  0  0  0  0  0  0  0  0  0  0  0
   -1.8072   -0.3070   -1.3201 H   0  0  0  0  0  0  0  0  0  0  0  0
    0.2335   -0.0843   -0.6796 C   0  0  1  0  0  0  0  0  0  0  0  0
    0.9358   -0.7198   -1.2327 H   0  0  0  0  0  0  0  0  0  0  0  0
    0.1836    1.2696   -1.4384 C   0  0  0  0  0  0  0  0  0  0  0  0
    0.9152    1.2190   -2.2507 H   0  0  0  0  0  0  0  0  0  0  0  0
   -0.7968    1.4016   -1.9018 H   0  0  0  0  0  0  0  0  0  0  0  0
    0.4838    2.5446   -0.6504 C   0  0  0  0  0  0  0  0  0  0  0  0
    1.2187    3.3950   -1.1118 O   0  0  0  0  0  0  0  0  0  0  0  0
   -0.2034    2.9322    0.4632 N   0  0  0  0  0  0  0  0  0  0  0  0
    0.1799    3.7668    0.8981 H   0  0  0  0  0  0  0  0  0  0  0  0
   -0.5349    2.1877    1.0682 H   0  0  0  0  0  0  0  0  0  0  0  0
    0.8213   -0.0363    0.7510 C   0  0  0  0  0  0  0  0  0  0  0  0
    2.0338    0.0042    0.8929 O   0  0  0  0  0  0  0  0  0  0  0  0
    0.0113    0.3215    1.8169 N   0  0  0  0  0  0  0  0  0  0  0  0
   -0.9644    0.0574    1.7125 H   0  0  0  0  0  0  0  0  0  0  0  0
    0.5368    0.4419    3.1729 C   0  0  0  0  0  0  0  0  0  0  0  0
    1.3177    1.2087    3.2162 H   0  0  0  0  0  0  0  0  0  0  0  0
   -0.2617    0.7263    3.8649 H   0  0  0  0  0  0  0  0  0  0  0  0
    0.9621   -0.5113    3.5048 H   0  0  0  0  0  0  0  0  0  0  0  0
  1  2  1  0  0  0  0
  2  3  1  0  0  0  0
  2  4  1  0  0  0  0
  2  5  1  0  0  0  0
  5  6  2  0  0  0  0
  5  7  1  0  0  0  0
  7  8  1  0  0  0  0
  7  9  1  0  0  0  0
  9 10  1  0  0  0  0
  9 11  1  0  0  0  0
  9 19  1  0  0  0  0
 11 12  1  0  0  0  0
 11 13  1  0  0  0  0
 11 14  1  0  0  0  0
 14 15  2  0  0  0  0
 14 16  1  0  0  0  0
 16 17  1  0  0  0  0
 16 18  1  0  0  0  0
 19 20  2  0  0  0  0
 19 21  1  0  0  0  0
 21 22  1  0  0  0  0
 21 23  1  0  0  0  0
 23 24  1  0  0  0  0
 23 25  1  0  0  0  0
 23 26  1  0  0  0  0
M  END
$$$$

  -OEChem-03222214023D

 26 25  0     1  0  0  0  0  0999 V2000
   -2.6826   -3.7311   -0.3822 H   0  0  0  0  0  0  0  0  0  0  0  0
   -2.6761   -2.6823   -0.6931 C   0  0  0  0  0  0  0  0  0  0  0  0
   -3.4586   -2.1493   -0.1476 H   0  0  0  0  0  0  0  0  0  0  0  0
   -2.8891   -2.6336   -1.7638 H   0  0  0  0  0  0  0  0  0  0  0  0
   -1.3230   -2.0600   -0.4027 C   0  0  0  0  0  0  0  0  0  0  0  0
   -0.4606   -2.7124    0.1566 O   0  0  0  0  0  0  0  0  0  0  0  0
   -1.0797   -0.7447   -0.7518 N   0  0  0  0  0  0  0  0  0  0  0  0
   -1.8098   -0.2781   -1.2832 H   0  0  0  0  0  0  0  0  0  0  0  0
    0.2424   -0.0919   -0.6645 C   0  0  1  0  0  0  0  0  0  0  0  0
    0.9379   -0.7370   -1.2156 H   0  0  0  0  0  0  0  0  0  0  0  0
    0.2192    1.2574   -1.4351 C   0  0  0  0  0  0  0  0  0  0  0  0
    0.9634    1.1865   -2.2343 H   0  0  0  0  0  0  0  0  0  0  0  0
   -0.7525    1.3873   -1.9170 H   0  0  0  0  0  0  0  0  0  0  0  0
    0.5158    2.5555   -0.6811 C   0  0  0  0  0  0  0  0  0  0  0  0
    1.0312    3.4862   -1.2685 O   0  0  0  0  0  0  0  0  0  0  0  0
   -0.0038    2.8924    0.5351 N   0  0  0  0  0  0  0  0  0  0  0  0
    0.3523    3.7734    0.8949 H   0  0  0  0  0  0  0  0  0  0  0  0
   -0.1552    2.1324    1.1919 H   0  0  0  0  0  0  0  0  0  0  0  0
    0.8326   -0.0657    0.7650 C   0  0  0  0  0  0  0  0  0  0  0  0
    2.0451   -0.0138    0.9033 O   0  0  0  0  0  0  0  0  0  0  0  0
    0.0288    0.2811    1.8390 N   0  0  0  0  0  0  0  0  0  0  0  0
   -0.9548    0.0502    1.7270 H   0  0  0  0  0  0  0  0  0  0  0  0
    0.5533    0.3767    3.1973 C   0  0  0  0  0  0  0  0  0  0  0  0
    1.3423    1.1343    3.2537 H   0  0  0  0  0  0  0  0  0  0  0  0
   -0.2434    0.6597    3.8919 H   0  0  0  0  0  0  0  0  0  0  0  0
    0.9673   -0.5858    3.5161 H   0  0  0  0  0  0  0  0  0  0  0  0
  1  2  1  0  0  0  0
  2  3  1  0  0  0  0
  2  4  1  0  0  0  0
  2  5  1  0  0  0  0
  5  6  2  0  0  0  0
  5  7  1  0  0  0  0
  7  8  1  0  0  0  0
  7  9  1  0  0  0  0
  9 10  1  0  0  0  0
  9 11  1  0  0  0  0
  9 19  1  0  0  0  0
 11 12  1  0  0  0  0
 11 13  1  0  0  0  0
 11 14  1  0  0  0  0
 14 15  2  0  0  0  0
 14 16  1  0  0  0  0
 16 17  1  0  0  0  0
 16 18  1  0  0  0  0
 19 20  2  0  0  0  0
 19 21  1  0  0  0  0
 21 22  1  0  0  0  0
 21 23  1  0  0  0  0
 23 24  1  0  0  0  0
 23 25  1  0  0  0  0
 23 26  1  0  0  0  0
M  END
$$$$

  -OEChem-03222214023D

 26 25  0     1  0  0  0  0  0999 V2000
   -2.7113   -3.7123   -0.3861 H   0  0  0  0  0  0  0  0  0  0  0  0
   -2.6988   -2.6598   -0.6840 C   0  0  0  0  0  0  0  0  0  0  0  0
   -3.4615   -2.1243   -0.1135 H   0  0  0  0  0  0  0  0  0  0  0  0
   -2.9357   -2.5943   -1.7487 H   0  0  0  0  0  0  0  0  0  0  0  0
   -1.3315   -2.0586   -0.4176 C   0  0  0  0  0  0  0  0  0  0  0  0
   -0.4625   -2.7307    0.1074 O   0  0  0  0  0  0  0  0  0  0  0  0
   -1.0793   -0.7418   -0.7539 N   0  0  0  0  0  0  0  0  0  0  0  0
   -1.8196   -0.2496   -1.2468 H   0  0  0  0  0  0  0  0  0  0  0  0
    0.2455   -0.0969   -0.6576 C   0  0  1  0  0  0  0  0  0  0  0  0
    0.9372   -0.7494   -1.2052 H   0  0  0  0  0  0  0  0  0  0  0  0
    0.2362    1.2467   -1.4417 C   0  0  0  0  0  0  0  0  0  0  0  0
    0.9888    1.1593   -2.2312 H   0  0  0  0  0  0  0  0  0  0  0  0
   -0.7294    1.3663   -1.9388 H   0  0  0  0  0  0  0  0  0  0  0  0
    0.5257    2.5741   -0.7331 C   0  0  0  0  0  0  0  0  0  0  0  0
    0.7815    3.5536   -1.4057 O   0  0  0  0  0  0  0  0  0  0  0  0
    0.3242    2.8594    0.5860 N   0  0  0  0  0  0  0  0  0  0  0  0
    0.6749    3.7703    0.8675 H   0  0  0  0  0  0  0  0  0  0  0  0
    0.3961    2.0879    1.2446 H   0  0  0  0  0  0  0  0  0  0  0  0
    0.8306   -0.0873    0.7727 C   0  0  0  0  0  0  0  0  0  0  0  0
    2.0422   -0.0296    0.9163 O   0  0  0  0  0  0  0  0  0  0  0  0
    0.0286    0.2534    1.8495 N   0  0  0  0  0  0  0  0  0  0  0  0
   -0.9661    0.0895    1.7200 H   0  0  0  0  0  0  0  0  0  0  0  0
    0.5395    0.3205    3.2147 C   0  0  0  0  0  0  0  0  0  0  0  0
    1.3405    1.0634    3.2917 H   0  0  0  0  0  0  0  0  0  0  0  0
   -0.2605    0.6068    3.9043 H   0  0  0  0  0  0  0  0  0  0  0  0
    0.9332   -0.6538    3.5235 H   0  0  0  0  0  0  0  0  0  0  0  0
  1  2  1  0  0  0  0
  2  3  1  0  0  0  0
  2  4  1  0  0  0  0
  2  5  1  0  0  0  0
  5  6  2  0  0  0  0
  5  7  1  0  0  0  0
  7  8  1  0  0  0  0
  7  9  1  0  0  0  0
  9 10  1  0  0  0  0
  9 11  1  0  0  0  0
  9 19  1  0  0  0  0
 11 12  1  0  0  0  0
 11 13  1  0  0  0  0
 11 14  1  0  0  0  0
 14 15  2  0  0  0  0
 14 16  1  0  0  0  0
 16 17  1  0  0  0  0
 16 18  1  0  0  0  0
 19 20  2  0  0  0  0
 19 21  1  0  0  0  0
 21 22  1  0  0  0  0
 21 23  1  0  0  0  0
 23 24  1  0  0  0  0
 23 25  1  0  0  0  0
 23 26  1  0  0  0  0
M  END
$$$$

  -OEChem-03222214023D

 26 25  0     1  0  0  0  0  0999 V2000
   -2.7102   -3.7053   -0.3398 H   0  0  0  0  0  0  0  0  0  0  0  0
   -2.6891   -2.6582   -0.6556 C   0  0  0  0  0  0  0  0  0  0  0  0
   -3.4402   -2.1048   -0.0870 H   0  0  0  0  0  0  0  0  0  0  0  0
   -2.9358   -2.6080   -1.7190 H   0  0  0  0  0  0  0  0  0  0  0  0
   -1.3127   -2.0676   -0.4127 C   0  0  0  0  0  0  0  0  0  0  0  0
   -0.4412   -2.7475    0.0978 O   0  0  0  0  0  0  0  0  0  0  0  0
   -1.0500   -0.7611   -0.7811 N   0  0  0  0  0  0  0  0  0  0  0  0
   -1.7895   -0.2728   -1.2786 H   0  0  0  0  0  0  0  0  0  0  0  0
    0.2749   -0.1146   -0.6792 C   0  0  1  0  0  0  0  0  0  0  0  0
    1.0030   -0.7245   -1.2278 H   0  0  0  0  0  0  0  0  0  0  0  0
    0.1780    1.2649   -1.3983 C   0  0  0  0  0  0  0  0  0  0  0  0
    0.6476    1.1517   -2.3795 H   0  0  0  0  0  0  0  0  0  0  0  0
   -0.8756    1.4970   -1.5750 H   0  0  0  0  0  0  0  0  0  0  0  0
    0.7654    2.5397   -0.7750 C   0  0  0  0  0  0  0  0  0  0  0  0
    0.6525    3.5833   -1.3882 O   0  0  0  0  0  0  0  0  0  0  0  0
    1.6114    2.6324    0.2922 N   0  0  0  0  0  0  0  0  0  0  0  0
    2.1304    3.5018    0.3640 H   0  0  0  0  0  0  0  0  0  0  0  0
    2.0179    1.7732    0.6684 H   0  0  0  0  0  0  0  0  0  0  0  0
    0.7882   -0.0898    0.7787 C   0  0  0  0  0  0  0  0  0  0  0  0
    1.9944   -0.1259    0.9881 O   0  0  0  0  0  0  0  0  0  0  0  0
   -0.0578    0.2737    1.8103 N   0  0  0  0  0  0  0  0  0  0  0  0
   -1.0526    0.2628    1.6094 H   0  0  0  0  0  0  0  0  0  0  0  0
    0.3783    0.3944    3.1960 C   0  0  0  0  0  0  0  0  0  0  0  0
    1.1455    1.1700    3.2909 H   0  0  0  0  0  0  0  0  0  0  0  0
   -0.4668    0.6667    3.8355 H   0  0  0  0  0  0  0  0  0  0  0  0
    0.7908   -0.5559    3.5513 H   0  0  0  0  0  0  0  0  0  0  0  0
  1  2  1  0  0  0  0
  2  3  1  0  0  0  0
  2  4  1  0  0  0  0
  2  5  1  0  0  0  0
  5  6  2  0  0  0  0
  5  7  1  0  0  0  0
  7  8  1  0  0  0  0
  7  9  1  0  0  0  0
  9 10  1  0  0  0  0
  9 11  1  0  0  0  0
  9 19  1  0  0  0  0
 11 12  1  0  0  0  0
 11 13  1  0  0  0  0
 11 14  1  0  0  0  0
 14 15  2  0  0  0  0
 14 16  1  0  0  0  0
 16 17  1  0  0  0  0
 16 18  1  0  0  0  0
 19 20  2  0  0  0  0
 19 21  1  0  0  0  0
 21 22  1  0  0  0  0
 21 23  1  0  0  0  0
 23 24  1  0  0  0  0
 23 25  1  0  0  0  0
 23 26  1  0  0  0  0
M  END
$$$$

  -OEChem-03222214023D

 26 25  0     1  0  0  0  0  0999 V2000
   -2.7096   -3.6912   -0.2886 H   0  0  0  0  0  0  0  0  0  0  0  0
   -2.6867   -2.6505   -0.6249 C   0  0  0  0  0  0  0  0  0  0  0  0
   -3.4377   -2.0847   -0.0683 H   0  0  0  0  0  0  0  0  0  0  0  0
   -2.9317   -2.6216   -1.6894 H   0  0  0  0  0  0  0  0  0  0  0  0
   -1.3094   -2.0578   -0.3916 C   0  0  0  0  0  0  0  0  0  0  0  0
   -0.4429   -2.7287    0.1390 O   0  0  0  0  0  0  0  0  0  0  0  0
   -1.0406   -0.7610   -0.7892 N   0  0  0  0  0  0  0  0  0  0  0  0
   -1.7741   -0.2843   -1.3067 H   0  0  0  0  0  0  0  0  0  0  0  0
    0.2884   -0.1199   -0.7032 C   0  0  1  0  0  0  0  0  0  0  0  0
    1.0161   -0.7279   -1.2543 H   0  0  0  0  0  0  0  0  0  0  0  0
    0.1740    1.2640   -1.4074 C   0  0  0  0  0  0  0  0  0  0  0  0
    0.6315    1.1722   -2.3961 H   0  0  0  0  0  0  0  0  0  0  0  0
   -0.8814    1.5040   -1.5633 H   0  0  0  0  0  0  0  0  0  0  0  0
    0.7868    2.5029   -0.7450 C   0  0  0  0  0  0  0  0  0  0  0  0
    0.4577    3.6021   -1.1470 O   0  0  0  0  0  0  0  0  0  0  0  0
    1.9575    2.5144   -0.0416 N   0  0  0  0  0  0  0  0  0  0  0  0
    2.2651    3.4130    0.3157 H   0  0  0  0  0  0  0  0  0  0  0  0
    2.2915    1.6495    0.3897 H   0  0  0  0  0  0  0  0  0  0  0  0
    0.8008   -0.0682    0.7562 C   0  0  0  0  0  0  0  0  0  0  0  0
    2.0029   -0.1468    0.9762 O   0  0  0  0  0  0  0  0  0  0  0  0
   -0.0444    0.3226    1.7783 N   0  0  0  0  0  0  0  0  0  0  0  0
   -1.0385    0.3175    1.5732 H   0  0  0  0  0  0  0  0  0  0  0  0
    0.3843    0.4312    3.1672 C   0  0  0  0  0  0  0  0  0  0  0  0
    1.1845    1.1723    3.2648 H   0  0  0  0  0  0  0  0  0  0  0  0
   -0.4530    0.7449    3.7978 H   0  0  0  0  0  0  0  0  0  0  0  0
    0.7509   -0.5345    3.5316 H   0  0  0  0  0  0  0  0  0  0  0  0
  1  2  1  0  0  0  0
  2  3  1  0  0  0  0
  2  4  1  0  0  0  0
  2  5  1  0  0  0  0
  5  6  2  0  0  0  0
  5  7  1  0  0  0  0
  7  8  1  0  0  0  0
  7  9  1  0  0  0  0
  9 10  1  0  0  0  0
  9 11  1  0  0  0  0
  9 19  1  0  0  0  0
 11 12  1  0  0  0  0
 11 13  1  0  0  0  0
 11 14  1  0  0  0  0
 14 15  2  0  0  0  0
 14 16  1  0  0  0  0
 16 17  1  0  0  0  0
 16 18  1  0  0  0  0
 19 20  2  0  0  0  0
 19 21  1  0  0  0  0
 21 22  1  0  0  0  0
 21 23  1  0  0  0  0
 23 24  1  0  0  0  0
 23 25  1  0  0  0  0
 23 26  1  0  0  0  0
M  END
$$$$

  -OEChem-03222214023D

 26 25  0     1  0  0  0  0  0999 V2000
   -2.7090   -3.6864   -0.2722 H   0  0  0  0  0  0  0  0  0  0  0  0
   -2.6887   -2.6450   -0.6066 C   0  0  0  0  0  0  0  0  0  0  0  0
   -3.4246   -2.0772   -0.0321 H   0  0  0  0  0  0  0  0  0  0  0  0
   -2.9569   -2.6117   -1.6654 H   0  0  0  0  0  0  0  0  0  0  0  0
   -1.3041   -2.0589   -0.4023 C   0  0  0  0  0  0  0  0  0  0  0  0
   -0.4287   -2.7324    0.1102 O   0  0  0  0  0  0  0  0  0  0  0  0
   -1.0376   -0.7640   -0.8066 N   0  0  0  0  0  0  0  0  0  0  0  0
   -1.7833   -0.2753   -1.2946 H   0  0  0  0  0  0  0  0  0  0  0  0
    0.2895   -0.1215   -0.7219 C   0  0  1  0  0  0  0  0  0  0  0  0
    1.0140   -0.7372   -1.2681 H   0  0  0  0  0  0  0  0  0  0  0  0
    0.1887    1.2552   -1.4370 C   0  0  0  0  0  0  0  0  0  0  0  0
    0.6555    1.1625   -2.4211 H   0  0  0  0  0  0  0  0  0  0  0  0
   -0.8631    1.5052   -1.6024 H   0  0  0  0  0  0  0  0  0  0  0  0
    0.8147    2.4698   -0.7476 C   0  0  0  0  0  0  0  0  0  0  0  0
    0.3331    3.5721   -0.9249 O   0  0  0  0  0  0  0  0  0  0  0  0
    2.0803    2.4808   -0.2343 N   0  0  0  0  0  0  0  0  0  0  0  0
    2.3609    3.3482    0.2121 H   0  0  0  0  0  0  0  0  0  0  0  0
    2.4566    1.5977    0.1185 H   0  0  0  0  0  0  0  0  0  0  0  0
    0.8143   -0.0532    0.7326 C   0  0  0  0  0  0  0  0  0  0  0  0
    2.0199   -0.1240    0.9377 O   0  0  0  0  0  0  0  0  0  0  0  0
   -0.0224    0.3459    1.7582 N   0  0  0  0  0  0  0  0  0  0  0  0
   -1.0179    0.3533    1.5597 H   0  0  0  0  0  0  0  0  0  0  0  0
    0.4196    0.4813    3.1403 C   0  0  0  0  0  0  0  0  0  0  0  0
    1.2107    1.2344    3.2184 H   0  0  0  0  0  0  0  0  0  0  0  0
   -0.4152    0.7927    3.7753 H   0  0  0  0  0  0  0  0  0  0  0  0
    0.8029   -0.4740    3.5144 H   0  0  0  0  0  0  0  0  0  0  0  0
  1  2  1  0  0  0  0
  2  3  1  0  0  0  0
  2  4  1  0  0  0  0
  2  5  1  0  0  0  0
  5  6  2  0  0  0  0
  5  7  1  0  0  0  0
  7  8  1  0  0  0  0
  7  9  1  0  0  0  0
  9 10  1  0  0  0  0
  9 11  1  0  0  0  0
  9 19  1  0  0  0  0
 11 12  1  0  0  0  0
 11 13  1  0  0  0  0
 11 14  1  0  0  0  0
 14 15  2  0  0  0  0
 14 16  1  0  0  0  0
 16 17  1  0  0  0  0
 16 18  1  0  0  0  0
 19 20  2  0  0  0  0
 19 21  1  0  0  0  0
 21 22  1  0  0  0  0
 21 23  1  0  0  0  0
 23 24  1  0  0  0  0
 23 25  1  0  0  0  0
 23 26  1  0  0  0  0
M  END
$$$$

  -OEChem-03222214023D

 26 25  0     1  0  0  0  0  0999 V2000
   -2.7035   -3.6859   -0.2625 H   0  0  0  0  0  0  0  0  0  0  0  0
   -2.6892   -2.6437   -0.5943 C   0  0  0  0  0  0  0  0  0  0  0  0
   -3.4086   -2.0757    0.0003 H   0  0  0  0  0  0  0  0  0  0  0  0
   -2.9845   -2.6067   -1.6456 H   0  0  0  0  0  0  0  0  0  0  0  0
   -1.2986   -2.0613   -0.4235 C   0  0  0  0  0  0  0  0  0  0  0  0
   -0.4127   -2.7363    0.0691 O   0  0  0  0  0  0  0  0  0  0  0  0
   -1.0385   -0.7663   -0.8304 N   0  0  0  0  0  0  0  0  0  0  0  0
   -1.7975   -0.2662   -1.2849 H   0  0  0  0  0  0  0  0  0  0  0  0
    0.2850   -0.1186   -0.7460 C   0  0  1  0  0  0  0  0  0  0  0  0
    1.0064   -0.7417   -1.2881 H   0  0  0  0  0  0  0  0  0  0  0  0
    0.1942    1.2480   -1.4771 C   0  0  0  0  0  0  0  0  0  0  0  0
    0.6745    1.1495   -2.4541 H   0  0  0  0  0  0  0  0  0  0  0  0
   -0.8541    1.5012   -1.6584 H   0  0  0  0  0  0  0  0  0  0  0  0
    0.8230    2.4498   -0.7713 C   0  0  0  0  0  0  0  0  0  0  0  0
    0.2233    3.5060   -0.7145 O   0  0  0  0  0  0  0  0  0  0  0  0
    2.1315    2.4905   -0.3836 N   0  0  0  0  0  0  0  0  0  0  0  0
    2.3890    3.3177    0.1456 H   0  0  0  0  0  0  0  0  0  0  0  0
    2.5581    1.5986   -0.1243 H   0  0  0  0  0  0  0  0  0  0  0  0
    0.8272   -0.0352    0.7009 C   0  0  0  0  0  0  0  0  0  0  0  0
    2.0371   -0.0933    0.8840 O   0  0  0  0  0  0  0  0  0  0  0  0
    0.0047    0.3668    1.7365 N   0  0  0  0  0  0  0  0  0  0  0  0
   -0.9926    0.3946    1.5497 H   0  0  0  0  0  0  0  0  0  0  0  0
    0.4715    0.5387    3.1063 C   0  0  0  0  0  0  0  0  0  0  0  0
    1.2503    1.3073    3.1525 H   0  0  0  0  0  0  0  0  0  0  0  0
   -0.3559    0.8477    3.7522 H   0  0  0  0  0  0  0  0  0  0  0  0
    0.8795   -0.4018    3.4915 H   0  0  0  0  0  0  0  0  0  0  0  0
  1  2  1  0  0  0  0
  2  3  1  0  0  0  0
  2  4  1  0  0  0  0
  2  5  1  0  0  0  0
  5  6  2  0  0  0  0
  5  7  1  0  0  0  0
  7  8  1  0  0  0  0
  7  9  1  0  0  0  0
  9 10  1  0  0  0  0
  9 11  1  0  0  0  0
  9 19  1  0  0  0  0
 11 12  1  0  0  0  0
 11 13  1  0  0  0  0
 11 14  1  0  0  0  0
 14 15  2  0  0  0  0
 14 16  1  0  0  0  0
 16 17  1  0  0  0  0
 16 18  1  0  0  0  0
 19 20  2  0  0  0  0
 19 21  1  0  0  0  0
 21 22  1  0  0  0  0
 21 23  1  0  0  0  0
 23 24  1  0  0  0  0
 23 25  1  0  0  0  0
 23 26  1  0  0  0  0
M  END
$$$$

  -OEChem-03222214023D

 26 25  0     1  0  0  0  0  0999 V2000
   -2.6932   -3.6987   -0.2673 H   0  0  0  0  0  0  0  0  0  0  0  0
   -2.6867   -2.6563   -0.5989 C   0  0  0  0  0  0  0  0  0  0  0  0
   -3.3972   -2.0901    0.0081 H   0  0  0  0  0  0  0  0  0  0  0  0
   -2.9998   -2.6196   -1.6451 H   0  0  0  0  0  0  0  0  0  0  0  0
   -1.2943   -2.0712   -0.4525 C   0  0  0  0  0  0  0  0  0  0  0  0
   -0.3929   -2.7510    0.0044 O   0  0  0  0  0  0  0  0  0  0  0  0
   -1.0469   -0.7719   -0.8530 N   0  0  0  0  0  0  0  0  0  0  0  0
   -1.8242   -0.2579   -1.2585 H   0  0  0  0  0  0  0  0  0  0  0  0
    0.2714   -0.1154   -0.7693 C   0  0  1  0  0  0  0  0  0  0  0  0
    0.9908   -0.7371   -1.3157 H   0  0  0  0  0  0  0  0  0  0  0  0
    0.1798    1.2478   -1.5031 C   0  0  0  0  0  0  0  0  0  0  0  0
    0.6646    1.1541   -2.4782 H   0  0  0  0  0  0  0  0  0  0  0  0
   -0.8674    1.5022   -1.6886 H   0  0  0  0  0  0  0  0  0  0  0  0
    0.8079    2.4367   -0.7786 C   0  0  0  0  0  0  0  0  0  0  0  0
    0.1318    3.3995   -0.4706 O   0  0  0  0  0  0  0  0  0  0  0  0
    2.1446    2.5261   -0.5174 N   0  0  0  0  0  0  0  0  0  0  0  0
    2.3956    3.2989    0.0914 H   0  0  0  0  0  0  0  0  0  0  0  0
    2.6337    1.6399   -0.3870 H   0  0  0  0  0  0  0  0  0  0  0  0
    0.8346   -0.0271    0.6694 C   0  0  0  0  0  0  0  0  0  0  0  0
    2.0485   -0.0721    0.8292 O   0  0  0  0  0  0  0  0  0  0  0  0
    0.0269    0.3676    1.7194 N   0  0  0  0  0  0  0  0  0  0  0  0
   -0.9678    0.4537    1.5364 H   0  0  0  0  0  0  0  0  0  0  0  0
    0.5256    0.6229    3.0646 C   0  0  0  0  0  0  0  0  0  0  0  0
    1.2694    1.4264    3.0515 H   0  0  0  0  0  0  0  0  0  0  0  0
   -0.2957    0.9241    3.7218 H   0  0  0  0  0  0  0  0  0  0  0  0
    0.9875   -0.2797    3.4785 H   0  0  0  0  0  0  0  0  0  0  0  0
  1  2  1  0  0  0  0
  2  3  1  0  0  0  0
  2  4  1  0  0  0  0
  2  5  1  0  0  0  0
  5  6  2  0  0  0  0
  5  7  1  0  0  0  0
  7  8  1  0  0  0  0
  7  9  1  0  0  0  0
  9 10  1  0  0  0  0
  9 11  1  0  0  0  0
  9 19  1  0  0  0  0
 11 12  1  0  0  0  0
 11 13  1  0  0  0  0
 11 14  1  0  0  0  0
 14 15  2  0  0  0  0
 14 16  1  0  0  0  0
 16 17  1  0  0  0  0
 16 18  1  0  0  0  0
 19 20  2  0  0  0  0
 19 21  1  0  0  0  0
 21 22  1  0  0  0  0
 21 23  1  0  0  0  0
 23 24  1  0  0  0  0
 23 25  1  0  0  0  0
 23 26  1  0  0  0  0
M  END
$$$$

  -OEChem-03222214023D

 26 25  0     1  0  0  0  0  0999 V2000
   -2.6749   -3.7048   -0.2428 H   0  0  0  0  0  0  0  0  0  0  0  0
   -2.6775   -2.6640   -0.5795 C   0  0  0  0  0  0  0  0  0  0  0  0
   -3.3577   -2.0913    0.0554 H   0  0  0  0  0  0  0  0  0  0  0  0
   -3.0354   -2.6298   -1.6113 H   0  0  0  0  0  0  0  0  0  0  0  0
   -1.2774   -2.0854   -0.4966 C   0  0  0  0  0  0  0  0  0  0  0  0
   -0.3549   -2.7752   -0.1006 O   0  0  0  0  0  0  0  0  0  0  0  0
   -1.0478   -0.7799   -0.8867 N   0  0  0  0  0  0  0  0  0  0  0  0
   -1.8496   -0.2460   -1.2098 H   0  0  0  0  0  0  0  0  0  0  0  0
    0.2624   -0.1100   -0.7964 C   0  0  1  0  0  0  0  0  0  0  0  0
    0.9868   -0.7219   -1.3475 H   0  0  0  0  0  0  0  0  0  0  0  0
    0.1608    1.2555   -1.5223 C   0  0  0  0  0  0  0  0  0  0  0  0
    0.6497    1.1762   -2.4968 H   0  0  0  0  0  0  0  0  0  0  0  0
   -0.8872    1.5069   -1.7083 H   0  0  0  0  0  0  0  0  0  0  0  0
    0.7800    2.4303   -0.7718 C   0  0  0  0  0  0  0  0  0  0  0  0
    0.0733    3.2490   -0.2152 O   0  0  0  0  0  0  0  0  0  0  0  0
    2.1285    2.5972   -0.6492 N   0  0  0  0  0  0  0  0  0  0  0  0
    2.3950    3.2915    0.0424 H   0  0  0  0  0  0  0  0  0  0  0  0
    2.6897    1.7497   -0.7095 H   0  0  0  0  0  0  0  0  0  0  0  0
    0.8307   -0.0238    0.6407 C   0  0  0  0  0  0  0  0  0  0  0  0
    2.0455   -0.0642    0.7938 O   0  0  0  0  0  0  0  0  0  0  0  0
    0.0232    0.3554    1.6969 N   0  0  0  0  0  0  0  0  0  0  0  0
   -0.9510    0.5491    1.4880 H   0  0  0  0  0  0  0  0  0  0  0  0
    0.5406    0.6966    3.0155 C   0  0  0  0  0  0  0  0  0  0  0  0
    1.1683    1.5920    2.9596 H   0  0  0  0  0  0  0  0  0  0  0  0
   -0.2850    0.8935    3.7060 H   0  0  0  0  0  0  0  0  0  0  0  0
    1.1370   -0.1287    3.4190 H   0  0  0  0  0  0  0  0  0  0  0  0
  1  2  1  0  0  0  0
  2  3  1  0  0  0  0
  2  4  1  0  0  0  0
  2  5  1  0  0  0  0
  5  6  2  0  0  0  0
  5  7  1  0  0  0  0
  7  8  1  0  0  0  0
  7  9  1  0  0  0  0
  9 10  1  0  0  0  0
  9 11  1  0  0  0  0
  9 19  1  0  0  0  0
 11 12  1  0  0  0  0
 11 13  1  0  0  0  0
 11 14  1  0  0  0  0
 14 15  2  0  0  0  0
 14 16  1  0  0  0  0
 16 17  1  0  0  0  0
 16 18  1  0  0  0  0
 19 20  2  0  0  0  0
 19 21  1  0  0  0  0
 21 22  1  0  0  0  0
 21 23  1  0  0  0  0
 23 24  1  0  0  0  0
 23 25  1  0  0  0  0
 23 26  1  0  0  0  0
M  END
$$$$

  -OEChem-03222214023D

 26 25  0     1  0  0  0  0  0999 V2000
   -2.6377   -3.7235   -0.2346 H   0  0  0  0  0  0  0  0  0  0  0  0
   -2.6602   -2.6789   -0.5583 C   0  0  0  0  0  0  0  0  0  0  0  0
   -3.3120   -2.1171    0.1150 H   0  0  0  0  0  0  0  0  0  0  0  0
   -3.0666   -2.6342   -1.5715 H   0  0  0  0  0  0  0  0  0  0  0  0
   -1.2598   -2.0950   -0.5336 C   0  0  0  0  0  0  0  0  0  0  0  0
   -0.3170   -2.7873   -0.1935 O   0  0  0  0  0  0  0  0  0  0  0  0
   -1.0533   -0.7820   -0.9116 N   0  0  0  0  0  0  0  0  0  0  0  0
   -1.8758   -0.2387   -1.1574 H   0  0  0  0  0  0  0  0  0  0  0  0
    0.2470   -0.0942   -0.8097 C   0  0  1  0  0  0  0  0  0  0  0  0
    0.9801   -0.6980   -1.3584 H   0  0  0  0  0  0  0  0  0  0  0  0
    0.1400    1.2685   -1.5394 C   0  0  0  0  0  0  0  0  0  0  0  0
    0.6377    1.1944   -2.5098 H   0  0  0  0  0  0  0  0  0  0  0  0
   -0.9079    1.5124   -1.7343 H   0  0  0  0  0  0  0  0  0  0  0  0
    0.7393    2.4434   -0.7754 C   0  0  0  0  0  0  0  0  0  0  0  0
    0.0540    3.0929   -0.0077 O   0  0  0  0  0  0  0  0  0  0  0  0
    2.0722    2.7329   -0.8052 N   0  0  0  0  0  0  0  0  0  0  0  0
    2.3771    3.3472   -0.0555 H   0  0  0  0  0  0  0  0  0  0  0  0
    2.6931    1.9787   -1.0854 H   0  0  0  0  0  0  0  0  0  0  0  0
    0.8157   -0.0095    0.6281 C   0  0  0  0  0  0  0  0  0  0  0  0
    2.0305   -0.0477    0.7804 O   0  0  0  0  0  0  0  0  0  0  0  0
    0.0050    0.3500    1.6890 N   0  0  0  0  0  0  0  0  0  0  0  0
   -0.9482    0.6136    1.4608 H   0  0  0  0  0  0  0  0  0  0  0  0
    0.5344    0.7310    2.9919 C   0  0  0  0  0  0  0  0  0  0  0  0
    1.1314    1.6453    2.9091 H   0  0  0  0  0  0  0  0  0  0  0  0
   -0.2850    0.9128    3.6938 H   0  0  0  0  0  0  0  0  0  0  0  0
    1.1646   -0.0670    3.3987 H   0  0  0  0  0  0  0  0  0  0  0  0
  1  2  1  0  0  0  0
  2  3  1  0  0  0  0
  2  4  1  0  0  0  0
  2  5  1  0  0  0  0
  5  6  2  0  0  0  0
  5  7  1  0  0  0  0
  7  8  1  0  0  0  0
  7  9  1  0  0  0  0
  9 10  1  0  0  0  0
  9 11  1  0  0  0  0
  9 19  1  0  0  0  0
 11 12  1  0  0  0  0
 11 13  1  0  0  0  0
 11 14  1  0  0  0  0
 14 15  2  0  0  0  0
 14 16  1  0  0  0  0
 16 17  1  0  0  0  0
 16 18  1  0  0  0  0
 19 20  2  0  0  0  0
 19 21  1  0  0  0  0
 21 22  1  0  0  0  0
 21 23  1  0  0  0  0
 23 24  1  0  0  0  0
 23 25  1  0  0  0  0
 23 26  1  0  0  0  0
M  END
$$$$

  -OEChem-03222214023D

 26 25  0     1  0  0  0  0  0999 V2000
   -2.6073   -3.7416   -0.2450 H   0  0  0  0  0  0  0  0  0  0  0  0
   -2.6456   -2.6916   -0.5494 C   0  0  0  0  0  0  0  0  0  0  0  0
   -3.2822   -2.1462    0.1513 H   0  0  0  0  0  0  0  0  0  0  0  0
   -3.0801   -2.6320   -1.5501 H   0  0  0  0  0  0  0  0  0  0  0  0
   -1.2489   -2.0986   -0.5530 C   0  0  0  0  0  0  0  0  0  0  0  0
   -0.2932   -2.7907   -0.2502 O   0  0  0  0  0  0  0  0  0  0  0  0
   -1.0623   -0.7786   -0.9164 N   0  0  0  0  0  0  0  0  0  0  0  0
   -1.8987   -0.2336   -1.1037 H   0  0  0  0  0  0  0  0  0  0  0  0
    0.2272   -0.0739   -0.7977 C   0  0  1  0  0  0  0  0  0  0  0  0
    0.9690   -0.6773   -1.3353 H   0  0  0  0  0  0  0  0  0  0  0  0
    0.1283    1.2762   -1.5530 C   0  0  0  0  0  0  0  0  0  0  0  0
    0.6474    1.1858   -2.5107 H   0  0  0  0  0  0  0  0  0  0  0  0
   -0.9167    1.5068   -1.7766 H   0  0  0  0  0  0  0  0  0  0  0  0
    0.6960    2.4748   -0.8019 C   0  0  0  0  0  0  0  0  0  0  0  0
    0.0857    2.9710    0.1270 O   0  0  0  0  0  0  0  0  0  0  0  0
    1.9680    2.9248   -1.0039 N   0  0  0  0  0  0  0  0  0  0  0  0
    2.3287    3.5028   -0.2498 H   0  0  0  0  0  0  0  0  0  0  0  0
    2.6089    2.2987   -1.4813 H   0  0  0  0  0  0  0  0  0  0  0  0
    0.7933    0.0087    0.6417 C   0  0  0  0  0  0  0  0  0  0  0  0
    2.0072   -0.0407    0.7964 O   0  0  0  0  0  0  0  0  0  0  0  0
   -0.0192    0.3473    1.7086 N   0  0  0  0  0  0  0  0  0  0  0  0
   -0.9534    0.6647    1.4716 H   0  0  0  0  0  0  0  0  0  0  0  0
    0.5173    0.7168    3.0121 C   0  0  0  0  0  0  0  0  0  0  0  0
    1.0939    1.6448    2.9382 H   0  0  0  0  0  0  0  0  0  0  0  0
   -0.2977    0.8690    3.7261 H   0  0  0  0  0  0  0  0  0  0  0  0
    1.1686   -0.0746    3.3977 H   0  0  0  0  0  0  0  0  0  0  0  0
  1  2  1  0  0  0  0
  2  3  1  0  0  0  0
  2  4  1  0  0  0  0
  2  5  1  0  0  0  0
  5  6  2  0  0  0  0
  5  7  1  0  0  0  0
  7  8  1  0  0  0  0
  7  9  1  0  0  0  0
  9 10  1  0  0  0  0
  9 11  1  0  0  0  0
  9 19  1  0  0  0  0
 11 12  1  0  0  0  0
 11 13  1  0  0  0  0
 11 14  1  0  0  0  0
 14 15  2  0  0  0  0
 14 16  1  0  0  0  0
 16 17  1  0  0  0  0
 16 18  1  0  0  0  0
 19 20  2  0  0  0  0
 19 21  1  0  0  0  0
 21 22  1  0  0  0  0
 21 23  1  0  0  0  0
 23 24  1  0  0  0  0
 23 25  1  0  0  0  0
 23 26  1  0  0  0  0
M  END
$$$$

  -OEChem-03222214023D

 26 25  0     1  0  0  0  0  0999 V2000
   -2.5871   -3.7445   -0.2395 H   0  0  0  0  0  0  0  0  0  0  0  0
   -2.6324   -2.6945   -0.5432 C   0  0  0  0  0  0  0  0  0  0  0  0
   -3.2588   -2.1501    0.1674 H   0  0  0  0  0  0  0  0  0  0  0  0
   -3.0821   -2.6352   -1.5372 H   0  0  0  0  0  0  0  0  0  0  0  0
   -1.2373   -2.0989   -0.5681 C   0  0  0  0  0  0  0  0  0  0  0  0
   -0.2740   -2.7960   -0.3036 O   0  0  0  0  0  0  0  0  0  0  0  0
   -1.0625   -0.7714   -0.9101 N   0  0  0  0  0  0  0  0  0  0  0  0
   -1.9066   -0.2250   -1.0522 H   0  0  0  0  0  0  0  0  0  0  0  0
    0.2198   -0.0578   -0.7680 C   0  0  1  0  0  0  0  0  0  0  0  0
    0.9698   -0.6607   -1.2946 H   0  0  0  0  0  0  0  0  0  0  0  0
    0.1348    1.2833   -1.5437 C   0  0  0  0  0  0  0  0  0  0  0  0
    0.6767    1.1723   -2.4864 H   0  0  0  0  0  0  0  0  0  0  0  0
   -0.9057    1.4988   -1.7993 H   0  0  0  0  0  0  0  0  0  0  0  0
    0.6691    2.5162   -0.8207 C   0  0  0  0  0  0  0  0  0  0  0  0
    0.1978    2.8919    0.2361 O   0  0  0  0  0  0  0  0  0  0  0  0
    1.7913    3.1702   -1.2392 N   0  0  0  0  0  0  0  0  0  0  0  0
    2.2114    3.7751   -0.5386 H   0  0  0  0  0  0  0  0  0  0  0  0
    2.3949    2.6931   -1.9007 H   0  0  0  0  0  0  0  0  0  0  0  0
    0.7729    0.0077    0.6776 C   0  0  0  0  0  0  0  0  0  0  0  0
    1.9827   -0.0777    0.8471 O   0  0  0  0  0  0  0  0  0  0  0  0
   -0.0489    0.3226    1.7451 N   0  0  0  0  0  0  0  0  0  0  0  0
   -0.9648    0.6844    1.5019 H   0  0  0  0  0  0  0  0  0  0  0  0
    0.4833    0.6514    3.0612 C   0  0  0  0  0  0  0  0  0  0  0  0
    1.0936    1.5593    3.0098 H   0  0  0  0  0  0  0  0  0  0  0  0
   -0.3344    0.8208    3.7680 H   0  0  0  0  0  0  0  0  0  0  0  0
    1.1017   -0.1683    3.4415 H   0  0  0  0  0  0  0  0  0  0  0  0
  1  2  1  0  0  0  0
  2  3  1  0  0  0  0
  2  4  1  0  0  0  0
  2  5  1  0  0  0  0
  5  6  2  0  0  0  0
  5  7  1  0  0  0  0
  7  8  1  0  0  0  0
  7  9  1  0  0  0  0
  9 10  1  0  0  0  0
  9 11  1  0  0  0  0
  9 19  1  0  0  0  0
 11 12  1  0  0  0  0
 11 13  1  0  0  0  0
 11 14  1  0  0  0  0
 14 15  2  0  0  0  0
 14 16  1  0  0  0  0
 16 17  1  0  0  0  0
 16 18  1  0  0  0  0
 19 20  2  0  0  0  0
 19 21  1  0  0  0  0
 21 22  1  0  0  0  0
 21 23  1  0  0  0  0
 23 24  1  0  0  0  0
 23 25  1  0  0  0  0
 23 26  1  0  0  0  0
M  END
$$$$

  -OEChem-03222214023D

 26 25  0     1  0  0  0  0  0999 V2000
   -2.5866   -3.7382   -0.2633 H   0  0  0  0  0  0  0  0  0  0  0  0
   -2.6278   -2.6838   -0.5523 C   0  0  0  0  0  0  0  0  0  0  0  0
   -3.2533   -2.1480    0.1656 H   0  0  0  0  0  0  0  0  0  0  0  0
   -3.0763   -2.6092   -1.5457 H   0  0  0  0  0  0  0  0  0  0  0  0
   -1.2306   -2.0921   -0.5676 C   0  0  0  0  0  0  0  0  0  0  0  0
   -0.2700   -2.7979   -0.3171 O   0  0  0  0  0  0  0  0  0  0  0  0
   -1.0520   -0.7600   -0.8903 N   0  0  0  0  0  0  0  0  0  0  0  0
   -1.8957   -0.2097   -1.0170 H   0  0  0  0  0  0  0  0  0  0  0  0
    0.2302   -0.0493   -0.7278 C   0  0  1  0  0  0  0  0  0  0  0  0
    0.9846   -0.6535   -1.2470 H   0  0  0  0  0  0  0  0  0  0  0  0
    0.1592    1.2887   -1.5156 C   0  0  0  0  0  0  0  0  0  0  0  0
    0.7198    1.1585   -2.4449 H   0  0  0  0  0  0  0  0  0  0  0  0
   -0.8768    1.4936   -1.7970 H   0  0  0  0  0  0  0  0  0  0  0  0
    0.6718    2.5533   -0.8270 C   0  0  0  0  0  0  0  0  0  0  0  0
    0.3996    2.8432    0.3214 O   0  0  0  0  0  0  0  0  0  0  0  0
    1.5341    3.4067   -1.4526 N   0  0  0  0  0  0  0  0  0  0  0  0
    1.9967    4.0712   -0.8380 H   0  0  0  0  0  0  0  0  0  0  0  0
    2.0160    3.0785   -2.2827 H   0  0  0  0  0  0  0  0  0  0  0  0
    0.7669   -0.0063    0.7249 C   0  0  0  0  0  0  0  0  0  0  0  0
    1.9692   -0.1420    0.9139 O   0  0  0  0  0  0  0  0  0  0  0  0
   -0.0667    0.2938    1.7880 N   0  0  0  0  0  0  0  0  0  0  0  0
   -0.9702    0.6824    1.5415 H   0  0  0  0  0  0  0  0  0  0  0  0
    0.4513    0.5698    3.1218 C   0  0  0  0  0  0  0  0  0  0  0  0
    1.0784    1.4674    3.1084 H   0  0  0  0  0  0  0  0  0  0  0  0
   -0.3739    0.7310    3.8217 H   0  0  0  0  0  0  0  0  0  0  0  0
    1.0492   -0.2733    3.4839 H   0  0  0  0  0  0  0  0  0  0  0  0
  1  2  1  0  0  0  0
  2  3  1  0  0  0  0
  2  4  1  0  0  0  0
  2  5  1  0  0  0  0
  5  6  2  0  0  0  0
  5  7  1  0  0  0  0
  7  8  1  0  0  0  0
  7  9  1  0  0  0  0
  9 10  1  0  0  0  0
  9 11  1  0  0  0  0
  9 19  1  0  0  0  0
 11 12  1  0  0  0  0
 11 13  1  0  0  0  0
 11 14  1  0  0  0  0
 14 15  2  0  0  0  0
 14 16  1  0  0  0  0
 16 17  1  0  0  0  0
 16 18  1  0  0  0  0
 19 20  2  0  0  0  0
 19 21  1  0  0  0  0
 21 22  1  0  0  0  0
 21 23  1  0  0  0  0
 23 24  1  0  0  0  0
 23 25  1  0  0  0  0
 23 26  1  0  0  0  0
M  END
$$$$

  -OEChem-03222214023D

 26 25  0     1  0  0  0  0  0999 V2000
   -2.5924   -3.7170   -0.2811 H   0  0  0  0  0  0  0  0  0  0  0  0
   -2.6235   -2.6598   -0.5598 C   0  0  0  0  0  0  0  0  0  0  0  0
   -3.2479   -2.1258    0.1602 H   0  0  0  0  0  0  0  0  0  0  0  0
   -3.0662   -2.5716   -1.5547 H   0  0  0  0  0  0  0  0  0  0  0  0
   -1.2215   -2.0802   -0.5619 C   0  0  0  0  0  0  0  0  0  0  0  0
   -0.2688   -2.7970   -0.3137 O   0  0  0  0  0  0  0  0  0  0  0  0
   -1.0320   -0.7467   -0.8728 N   0  0  0  0  0  0  0  0  0  0  0  0
   -1.8717   -0.1908   -1.0004 H   0  0  0  0  0  0  0  0  0  0  0  0
    0.2544   -0.0451   -0.6991 C   0  0  1  0  0  0  0  0  0  0  0  0
    1.0104   -0.6476   -1.2179 H   0  0  0  0  0  0  0  0  0  0  0  0
    0.1833    1.2982   -1.4834 C   0  0  0  0  0  0  0  0  0  0  0  0
    0.7471    1.1630   -2.4101 H   0  0  0  0  0  0  0  0  0  0  0  0
   -0.8526    1.4956   -1.7698 H   0  0  0  0  0  0  0  0  0  0  0  0
    0.6862    2.5834   -0.8219 C   0  0  0  0  0  0  0  0  0  0  0  0
    0.6602    2.8042    0.3715 O   0  0  0  0  0  0  0  0  0  0  0  0
    1.2210    3.5906   -1.5725 N   0  0  0  0  0  0  0  0  0  0  0  0
    1.7118    4.3062   -1.0430 H   0  0  0  0  0  0  0  0  0  0  0  0
    1.5089    3.3854   -2.5231 H   0  0  0  0  0  0  0  0  0  0  0  0
    0.7743   -0.0237    0.7605 C   0  0  0  0  0  0  0  0  0  0  0  0
    1.9653   -0.2169    0.9692 O   0  0  0  0  0  0  0  0  0  0  0  0
   -0.0711    0.2709    1.8164 N   0  0  0  0  0  0  0  0  0  0  0  0
   -0.9678    0.6725    1.5679 H   0  0  0  0  0  0  0  0  0  0  0  0
    0.4280    0.4948    3.1670 C   0  0  0  0  0  0  0  0  0  0  0  0
    1.0775    1.3764    3.1917 H   0  0  0  0  0  0  0  0  0  0  0  0
   -0.4057    0.6564    3.8566 H   0  0  0  0  0  0  0  0  0  0  0  0
    0.9981   -0.3732    3.5146 H   0  0  0  0  0  0  0  0  0  0  0  0
  1  2  1  0  0  0  0
  2  3  1  0  0  0  0
  2  4  1  0  0  0  0
  2  5  1  0  0  0  0
  5  6  2  0  0  0  0
  5  7  1  0  0  0  0
  7  8  1  0  0  0  0
  7  9  1  0  0  0  0
  9 10  1  0  0  0  0
  9 11  1  0  0  0  0
  9 19  1  0  0  0  0
 11 12  1  0  0  0  0
 11 13  1  0  0  0  0
 11 14  1  0  0  0  0
 14 15  2  0  0  0  0
 14 16  1  0  0  0  0
 16 17  1  0  0  0  0
 16 18  1  0  0  0  0
 19 20  2  0  0  0  0
 19 21  1  0  0  0  0
 21 22  1  0  0  0  0
 21 23  1  0  0  0  0
 23 24  1  0  0  0  0
 23 25  1  0  0  0  0
 23 26  1  0  0  0  0
M  END
$$$$

  -OEChem-03222214023D

 26 25  0     1  0  0  0  0  0999 V2000
   -2.6017   -3.6900   -0.2701 H   0  0  0  0  0  0  0  0  0  0  0  0
   -2.6209   -2.6345   -0.5560 C   0  0  0  0  0  0  0  0  0  0  0  0
   -3.2411   -2.0892    0.1591 H   0  0  0  0  0  0  0  0  0  0  0  0
   -3.0609   -2.5482   -1.5523 H   0  0  0  0  0  0  0  0  0  0  0  0
   -1.2128   -2.0696   -0.5595 C   0  0  0  0  0  0  0  0  0  0  0  0
   -0.2675   -2.7979   -0.3179 O   0  0  0  0  0  0  0  0  0  0  0  0
   -1.0112   -0.7369   -0.8661 N   0  0  0  0  0  0  0  0  0  0  0  0
   -1.8464   -0.1748   -0.9945 H   0  0  0  0  0  0  0  0  0  0  0  0
    0.2809   -0.0457   -0.6881 C   0  0  1  0  0  0  0  0  0  0  0  0
    1.0382   -0.6425   -1.2116 H   0  0  0  0  0  0  0  0  0  0  0  0
    0.1966    1.3074   -1.4578 C   0  0  0  0  0  0  0  0  0  0  0  0
    0.7538    1.1806   -2.3897 H   0  0  0  0  0  0  0  0  0  0  0  0
   -0.8431    1.4987   -1.7344 H   0  0  0  0  0  0  0  0  0  0  0  0
    0.6965    2.6012   -0.8082 C   0  0  0  0  0  0  0  0  0  0  0  0
    0.9361    2.7601    0.3700 O   0  0  0  0  0  0  0  0  0  0  0  0
    0.8991    3.7158   -1.5703 N   0  0  0  0  0  0  0  0  0  0  0  0
    1.4060    4.4666   -1.1092 H   0  0  0  0  0  0  0  0  0  0  0  0
    0.9588    3.6131   -2.5774 H   0  0  0  0  0  0  0  0  0  0  0  0
    0.7875   -0.0390    0.7767 C   0  0  0  0  0  0  0  0  0  0  0  0
    1.9647   -0.2882    1.0026 O   0  0  0  0  0  0  0  0  0  0  0  0
   -0.0666    0.2576    1.8255 N   0  0  0  0  0  0  0  0  0  0  0  0
   -0.9599    0.6644    1.5754 H   0  0  0  0  0  0  0  0  0  0  0  0
    0.4173    0.4417    3.1877 C   0  0  0  0  0  0  0  0  0  0  0  0
    1.1078    1.2906    3.2352 H   0  0  0  0  0  0  0  0  0  0  0  0
   -0.4201    0.6354    3.8644 H   0  0  0  0  0  0  0  0  0  0  0  0
    0.9388   -0.4568    3.5342 H   0  0  0  0  0  0  0  0  0  0  0  0
  1  2  1  0  0  0  0
  2  3  1  0  0  0  0
  2  4  1  0  0  0  0
  2  5  1  0  0  0  0
  5  6  2  0  0  0  0
  5  7  1  0  0  0  0
  7  8  1  0  0  0  0
  7  9  1  0  0  0  0
  9 10  1  0  0  0  0
  9 11  1  0  0  0  0
  9 19  1  0  0  0  0
 11 12  1  0  0  0  0
 11 13  1  0  0  0  0
 11 14  1  0  0  0  0
 14 15  2  0  0  0  0
 14 16  1  0  0  0  0
 16 17  1  0  0  0  0
 16 18  1  0  0  0  0
 19 20  2  0  0  0  0
 19 21  1  0  0  0  0
 21 22  1  0  0  0  0
 21 23  1  0  0  0  0
 23 24  1  0  0  0  0
 23 25  1  0  0  0  0
 23 26  1  0  0  0  0
M  END
$$$$

  -OEChem-03222214023D

 26 25  0     1  0  0  0  0  0999 V2000
   -2.6071   -3.6766   -0.2633 H   0  0  0  0  0  0  0  0  0  0  0  0
   -2.6204   -2.6197   -0.5449 C   0  0  0  0  0  0  0  0  0  0  0  0
   -3.2397   -2.0741    0.1708 H   0  0  0  0  0  0  0  0  0  0  0  0
   -3.0570   -2.5273   -1.5422 H   0  0  0  0  0  0  0  0  0  0  0  0
   -1.2092   -2.0620   -0.5417 C   0  0  0  0  0  0  0  0  0  0  0  0
   -0.2701   -2.7950   -0.2913 O   0  0  0  0  0  0  0  0  0  0  0  0
   -0.9976   -0.7325   -0.8562 N   0  0  0  0  0  0  0  0  0  0  0  0
   -1.8276   -0.1687   -1.0074 H   0  0  0  0  0  0  0  0  0  0  0  0
    0.3012   -0.0482   -0.6906 C   0  0  1  0  0  0  0  0  0  0  0  0
    1.0573   -0.6381   -1.2235 H   0  0  0  0  0  0  0  0  0  0  0  0
    0.1956    1.3155   -1.4410 C   0  0  0  0  0  0  0  0  0  0  0  0
    0.7306    1.2038   -2.3877 H   0  0  0  0  0  0  0  0  0  0  0  0
   -0.8515    1.5055   -1.6891 H   0  0  0  0  0  0  0  0  0  0  0  0
    0.7047    2.6066   -0.7921 C   0  0  0  0  0  0  0  0  0  0  0  0
    1.2117    2.7122    0.3035 O   0  0  0  0  0  0  0  0  0  0  0  0
    0.6082    3.7892   -1.4674 N   0  0  0  0  0  0  0  0  0  0  0  0
    1.1333    4.5597   -1.0622 H   0  0  0  0  0  0  0  0  0  0  0  0
    0.4338    3.7683   -2.4663 H   0  0  0  0  0  0  0  0  0  0  0  0
    0.8040   -0.0449    0.7754 C   0  0  0  0  0  0  0  0  0  0  0  0
    1.9696   -0.3334    1.0129 O   0  0  0  0  0  0  0  0  0  0  0  0
   -0.0537    0.2604    1.8187 N   0  0  0  0  0  0  0  0  0  0  0  0
   -0.9564    0.6455    1.5695 H   0  0  0  0  0  0  0  0  0  0  0  0
    0.4133    0.4105    3.1907 C   0  0  0  0  0  0  0  0  0  0  0  0
    1.1297    1.2361    3.2607 H   0  0  0  0  0  0  0  0  0  0  0  0
   -0.4284    0.6220    3.8567 H   0  0  0  0  0  0  0  0  0  0  0  0
    0.9002   -0.5090    3.5327 H   0  0  0  0  0  0  0  0  0  0  0  0
  1  2  1  0  0  0  0
  2  3  1  0  0  0  0
  2  4  1  0  0  0  0
  2  5  1  0  0  0  0
  5  6  2  0  0  0  0
  5  7  1  0  0  0  0
  7  8  1  0  0  0  0
  7  9  1  0  0  0  0
  9 10  1  0  0  0  0
  9 11  1  0  0  0  0
  9 19  1  0  0  0  0
 11 12  1  0  0  0  0
 11 13  1  0  0  0  0
 11 14  1  0  0  0  0
 14 15  2  0  0  0  0
 14 16  1  0  0  0  0
 16 17  1  0  0  0  0
 16 18  1  0  0  0  0
 19 20  2  0  0  0  0
 19 21  1  0  0  0  0
 21 22  1  0  0  0  0
 21 23  1  0  0  0  0
 23 24  1  0  0  0  0
 23 25  1  0  0  0  0
 23 26  1  0  0  0  0
M  END
$$$$

  -OEChem-03222214023D

 26 25  0     1  0  0  0  0  0999 V2000
   -2.6114   -3.6639   -0.2186 H   0  0  0  0  0  0  0  0  0  0  0  0
   -2.6179   -2.6166   -0.5347 C   0  0  0  0  0  0  0  0  0  0  0  0
   -3.2558   -2.0492    0.1471 H   0  0  0  0  0  0  0  0  0  0  0  0
   -3.0287   -2.5574   -1.5455 H   0  0  0  0  0  0  0  0  0  0  0  0
   -1.2074   -2.0575   -0.5143 C   0  0  0  0  0  0  0  0  0  0  0  0
   -0.2733   -2.7870   -0.2377 O   0  0  0  0  0  0  0  0  0  0  0  0
   -0.9904   -0.7326   -0.8454 N   0  0  0  0  0  0  0  0  0  0  0  0
   -1.8152   -0.1732   -1.0359 H   0  0  0  0  0  0  0  0  0  0  0  0
    0.3132   -0.0509   -0.7007 C   0  0  1  0  0  0  0  0  0  0  0  0
    1.0672   -0.6344   -1.2432 H   0  0  0  0  0  0  0  0  0  0  0  0
    0.1834    1.3197   -1.4346 C   0  0  0  0  0  0  0  0  0  0  0  0
    0.6936    1.2248   -2.3968 H   0  0  0  0  0  0  0  0  0  0  0  0
   -0.8708    1.5089   -1.6510 H   0  0  0  0  0  0  0  0  0  0  0  0
    0.7082    2.5994   -0.7764 C   0  0  0  0  0  0  0  0  0  0  0  0
    1.4579    2.6637    0.1730 O   0  0  0  0  0  0  0  0  0  0  0  0
    0.3563    3.8184   -1.2802 N   0  0  0  0  0  0  0  0  0  0  0  0
    0.8946    4.6022   -0.9201 H   0  0  0  0  0  0  0  0  0  0  0  0
   -0.0385    3.8651   -2.2130 H   0  0  0  0  0  0  0  0  0  0  0  0
    0.8203   -0.0389    0.7642 C   0  0  0  0  0  0  0  0  0  0  0  0
    1.9769   -0.3554    1.0087 O   0  0  0  0  0  0  0  0  0  0  0  0
   -0.0352    0.2798    1.8053 N   0  0  0  0  0  0  0  0  0  0  0  0
   -0.9563    0.6219    1.5615 H   0  0  0  0  0  0  0  0  0  0  0  0
    0.4171    0.3930    3.1854 C   0  0  0  0  0  0  0  0  0  0  0  0
    1.1790    1.1749    3.2733 H   0  0  0  0  0  0  0  0  0  0  0  0
   -0.4215    0.6488    3.8395 H   0  0  0  0  0  0  0  0  0  0  0  0
    0.8444   -0.5556    3.5270 H   0  0  0  0  0  0  0  0  0  0  0  0
  1  2  1  0  0  0  0
  2  3  1  0  0  0  0
  2  4  1  0  0  0  0
  2  5  1  0  0  0  0
  5  6  2  0  0  0  0
  5  7  1  0  0  0  0
  7  8  1  0  0  0  0
  7  9  1  0  0  0  0
  9 10  1  0  0  0  0
  9 11  1  0  0  0  0
  9 19  1  0  0  0  0
 11 12  1  0  0  0  0
 11 13  1  0  0  0  0
 11 14  1  0  0  0  0
 14 15  2  0  0  0  0
 14 16  1  0  0  0  0
 16 17  1  0  0  0  0
 16 18  1  0  0  0  0
 19 20  2  0  0  0  0
 19 21  1  0  0  0  0
 21 22  1  0  0  0  0
 21 23  1  0  0  0  0
 23 24  1  0  0  0  0
 23 25  1  0  0  0  0
 23 26  1  0  0  0  0
M  END
$$$$

  -OEChem-03222214023D

 26 25  0     1  0  0  0  0  0999 V2000
   -2.6183   -3.6626   -0.2052 H   0  0  0  0  0  0  0  0  0  0  0  0
   -2.6184   -2.6175   -0.5287 C   0  0  0  0  0  0  0  0  0  0  0  0
   -3.2749   -2.0463    0.1317 H   0  0  0  0  0  0  0  0  0  0  0  0
   -3.0029   -2.5666   -1.5502 H   0  0  0  0  0  0  0  0  0  0  0  0
   -1.2096   -2.0560   -0.4752 C   0  0  0  0  0  0  0  0  0  0  0  0
   -0.2858   -2.7764   -0.1466 O   0  0  0  0  0  0  0  0  0  0  0  0
   -0.9830   -0.7399   -0.8340 N   0  0  0  0  0  0  0  0  0  0  0  0
   -1.7965   -0.1946   -1.0990 H   0  0  0  0  0  0  0  0  0  0  0  0
    0.3250   -0.0610   -0.7158 C   0  0  1  0  0  0  0  0  0  0  0  0
    1.0756   -0.6438   -1.2635 H   0  0  0  0  0  0  0  0  0  0  0  0
    0.1743    1.3120   -1.4395 C   0  0  0  0  0  0  0  0  0  0  0  0
    0.6612    1.2292   -2.4148 H   0  0  0  0  0  0  0  0  0  0  0  0
   -0.8848    1.5044   -1.6278 H   0  0  0  0  0  0  0  0  0  0  0  0
    0.7227    2.5741   -0.7690 C   0  0  0  0  0  0  0  0  0  0  0  0
    1.6750    2.6163   -0.0214 O   0  0  0  0  0  0  0  0  0  0  0  0
    0.1538    3.7912   -1.0137 N   0  0  0  0  0  0  0  0  0  0  0  0
    0.6919    4.5892   -0.6856 H   0  0  0  0  0  0  0  0  0  0  0  0
   -0.4599    3.8922   -1.8144 H   0  0  0  0  0  0  0  0  0  0  0  0
    0.8391   -0.0250    0.7466 C   0  0  0  0  0  0  0  0  0  0  0  0
    1.9920   -0.3475    0.9981 O   0  0  0  0  0  0  0  0  0  0  0  0
   -0.0135    0.3178    1.7824 N   0  0  0  0  0  0  0  0  0  0  0  0
   -0.9591    0.5887    1.5424 H   0  0  0  0  0  0  0  0  0  0  0  0
    0.4206    0.3998    3.1707 C   0  0  0  0  0  0  0  0  0  0  0  0
    1.2114    1.1499    3.2790 H   0  0  0  0  0  0  0  0  0  0  0  0
   -0.4176    0.6839    3.8137 H   0  0  0  0  0  0  0  0  0  0  0  0
    0.8042   -0.5685    3.5094 H   0  0  0  0  0  0  0  0  0  0  0  0
  1  2  1  0  0  0  0
  2  3  1  0  0  0  0
  2  4  1  0  0  0  0
  2  5  1  0  0  0  0
  5  6  2  0  0  0  0
  5  7  1  0  0  0  0
  7  8  1  0  0  0  0
  7  9  1  0  0  0  0
  9 10  1  0  0  0  0
  9 11  1  0  0  0  0
  9 19  1  0  0  0  0
 11 12  1  0  0  0  0
 11 13  1  0  0  0  0
 11 14  1  0  0  0  0
 14 15  2  0  0  0  0
 14 16  1  0  0  0  0
 16 17  1  0  0  0  0
 16 18  1  0  0  0  0
 19 20  2  0  0  0  0
 19 21  1  0  0  0  0
 21 22  1  0  0  0  0
 21 23  1  0  0  0  0
 23 24  1  0  0  0  0
 23 25  1  0  0  0  0
 23 26  1  0  0  0  0
M  END
$$$$

  -OEChem-03222214023D

 26 25  0     1  0  0  0  0  0999 V2000
   -2.6211   -3.6727   -0.2086 H   0  0  0  0  0  0  0  0  0  0  0  0
   -2.6186   -2.6303   -0.5404 C   0  0  0  0  0  0  0  0  0  0  0  0
   -3.3169   -2.0634    0.0799 H   0  0  0  0  0  0  0  0  0  0  0  0
   -2.9503   -2.5930   -1.5809 H   0  0  0  0  0  0  0  0  0  0  0  0
   -1.2226   -2.0482   -0.4171 C   0  0  0  0  0  0  0  0  0  0  0  0
   -0.3176   -2.7400    0.0099 O   0  0  0  0  0  0  0  0  0  0  0  0
   -0.9880   -0.7441   -0.8128 N   0  0  0  0  0  0  0  0  0  0  0  0
   -1.7732   -0.2426   -1.2146 H   0  0  0  0  0  0  0  0  0  0  0  0
    0.3240   -0.0667   -0.7279 C   0  0  1  0  0  0  0  0  0  0  0  0
    1.0690   -0.6551   -1.2770 H   0  0  0  0  0  0  0  0  0  0  0  0
    0.1587    1.3020   -1.4532 C   0  0  0  0  0  0  0  0  0  0  0  0
    0.6260    1.2223   -2.4384 H   0  0  0  0  0  0  0  0  0  0  0  0
   -0.9025    1.5019   -1.6188 H   0  0  0  0  0  0  0  0  0  0  0  0
    0.7369    2.5443   -0.7740 C   0  0  0  0  0  0  0  0  0  0  0  0
    1.8375    2.5934   -0.2694 O   0  0  0  0  0  0  0  0  0  0  0  0
    0.0248    3.7076   -0.7008 N   0  0  0  0  0  0  0  0  0  0  0  0
    0.5534    4.5170   -0.3857 H   0  0  0  0  0  0  0  0  0  0  0  0
   -0.7792    3.8327   -1.3053 H   0  0  0  0  0  0  0  0  0  0  0  0
    0.8534    0.0067    0.7283 C   0  0  0  0  0  0  0  0  0  0  0  0
    2.0110   -0.2980    0.9783 O   0  0  0  0  0  0  0  0  0  0  0  0
    0.0102    0.3805    1.7609 N   0  0  0  0  0  0  0  0  0  0  0  0
   -0.9639    0.5398    1.5343 H   0  0  0  0  0  0  0  0  0  0  0  0
    0.4331    0.4179    3.1547 C   0  0  0  0  0  0  0  0  0  0  0  0
    1.2606    1.1238    3.2829 H   0  0  0  0  0  0  0  0  0  0  0  0
   -0.3954    0.7364    3.7942 H   0  0  0  0  0  0  0  0  0  0  0  0
    0.7622   -0.5745    3.4812 H   0  0  0  0  0  0  0  0  0  0  0  0
  1  2  1  0  0  0  0
  2  3  1  0  0  0  0
  2  4  1  0  0  0  0
  2  5  1  0  0  0  0
  5  6  2  0  0  0  0
  5  7  1  0  0  0  0
  7  8  1  0  0  0  0
  7  9  1  0  0  0  0
  9 10  1  0  0  0  0
  9 11  1  0  0  0  0
  9 19  1  0  0  0  0
 11 12  1  0  0  0  0
 11 13  1  0  0  0  0
 11 14  1  0  0  0  0
 14 15  2  0  0  0  0
 14 16  1  0  0  0  0
 16 17  1  0  0  0  0
 16 18  1  0  0  0  0
 19 20  2  0  0  0  0
 19 21  1  0  0  0  0
 21 22  1  0  0  0  0
 21 23  1  0  0  0  0
 23 24  1  0  0  0  0
 23 25  1  0  0  0  0
 23 26  1  0  0  0  0
M  END
$$$$

  -OEChem-03222214023D

 26 25  0     1  0  0  0  0  0999 V2000
   -2.6198   -3.6907   -0.2261 H   0  0  0  0  0  0  0  0  0  0  0  0
   -2.6185   -2.6525   -0.5710 C   0  0  0  0  0  0  0  0  0  0  0  0
   -3.3621   -2.0917    0.0002 H   0  0  0  0  0  0  0  0  0  0  0  0
   -2.8901   -2.6348   -1.6292 H   0  0  0  0  0  0  0  0  0  0  0  0
   -1.2435   -2.0413   -0.3765 C   0  0  0  0  0  0  0  0  0  0  0  0
   -0.3587   -2.7010    0.1352 O   0  0  0  0  0  0  0  0  0  0  0  0
   -1.0070   -0.7457   -0.7982 N   0  0  0  0  0  0  0  0  0  0  0  0
   -1.7594   -0.2936   -1.3073 H   0  0  0  0  0  0  0  0  0  0  0  0
    0.3083   -0.0730   -0.7346 C   0  0  1  0  0  0  0  0  0  0  0  0
    1.0465   -0.6691   -1.2845 H   0  0  0  0  0  0  0  0  0  0  0  0
    0.1418    1.2912   -1.4628 C   0  0  0  0  0  0  0  0  0  0  0  0
    0.6028    1.2119   -2.4511 H   0  0  0  0  0  0  0  0  0  0  0  0
   -0.9180    1.5042   -1.6208 H   0  0  0  0  0  0  0  0  0  0  0  0
    0.7468    2.5102   -0.7701 C   0  0  0  0  0  0  0  0  0  0  0  0
    1.9291    2.6042   -0.5192 O   0  0  0  0  0  0  0  0  0  0  0  0
   -0.0225    3.5660   -0.3700 N   0  0  0  0  0  0  0  0  0  0  0  0
    0.4906    4.3824   -0.0474 H   0  0  0  0  0  0  0  0  0  0  0  0
   -0.9618    3.6661   -0.7366 H   0  0  0  0  0  0  0  0  0  0  0  0
    0.8545    0.0281    0.7138 C   0  0  0  0  0  0  0  0  0  0  0  0
    2.0236   -0.2381    0.9521 O   0  0  0  0  0  0  0  0  0  0  0  0
    0.0221    0.4258    1.7458 N   0  0  0  0  0  0  0  0  0  0  0  0
   -0.9659    0.5030    1.5349 H   0  0  0  0  0  0  0  0  0  0  0  0
    0.4529    0.4595    3.1374 C   0  0  0  0  0  0  0  0  0  0  0  0
    1.3041    1.1383    3.2575 H   0  0  0  0  0  0  0  0  0  0  0  0
   -0.3614    0.8108    3.7779 H   0  0  0  0  0  0  0  0  0  0  0  0
    0.7505   -0.5408    3.4694 H   0  0  0  0  0  0  0  0  0  0  0  0
  1  2  1  0  0  0  0
  2  3  1  0  0  0  0
  2  4  1  0  0  0  0
  2  5  1  0  0  0  0
  5  6  2  0  0  0  0
  5  7  1  0  0  0  0
  7  8  1  0  0  0  0
  7  9  1  0  0  0  0
  9 10  1  0  0  0  0
  9 11  1  0  0  0  0
  9 19  1  0  0  0  0
 11 12  1  0  0  0  0
 11 13  1  0  0  0  0
 11 14  1  0  0  0  0
 14 15  2  0  0  0  0
 14 16  1  0  0  0  0
 16 17  1  0  0  0  0
 16 18  1  0  0  0  0
 19 20  2  0  0  0  0
 19 21  1  0  0  0  0
 21 22  1  0  0  0  0
 21 23  1  0  0  0  0
 23 24  1  0  0  0  0
 23 25  1  0  0  0  0
 23 26  1  0  0  0  0
M  END
$$$$

  -OEChem-03222214023D

 26 25  0     1  0  0  0  0  0999 V2000
   -2.6240   -3.7001   -0.2378 H   0  0  0  0  0  0  0  0  0  0  0  0
   -2.6196   -2.6740   -0.6173 C   0  0  0  0  0  0  0  0  0  0  0  0
   -3.4160   -2.1132   -0.1223 H   0  0  0  0  0  0  0  0  0  0  0  0
   -2.8120   -2.6977   -1.6928 H   0  0  0  0  0  0  0  0  0  0  0  0
   -1.2771   -2.0220   -0.3427 C   0  0  0  0  0  0  0  0  0  0  0  0
   -0.4259   -2.6325    0.2759 O   0  0  0  0  0  0  0  0  0  0  0  0
   -1.0365   -0.7385   -0.7983 N   0  0  0  0  0  0  0  0  0  0  0  0
   -1.7429   -0.3517   -1.4169 H   0  0  0  0  0  0  0  0  0  0  0  0
    0.2836   -0.0734   -0.7543 C   0  0  1  0  0  0  0  0  0  0  0  0
    1.0166   -0.6848   -1.2944 H   0  0  0  0  0  0  0  0  0  0  0  0
    0.1300    1.2815   -1.4992 C   0  0  0  0  0  0  0  0  0  0  0  0
    0.5846    1.1856   -2.4893 H   0  0  0  0  0  0  0  0  0  0  0  0
   -0.9267    1.5123   -1.6540 H   0  0  0  0  0  0  0  0  0  0  0  0
    0.7581    2.4933   -0.8163 C   0  0  0  0  0  0  0  0  0  0  0  0
    1.9567    2.6791   -0.8151 O   0  0  0  0  0  0  0  0  0  0  0  0
    0.0164    3.4027   -0.1174 N   0  0  0  0  0  0  0  0  0  0  0  0
    0.5592    4.0290    0.4717 H   0  0  0  0  0  0  0  0  0  0  0  0
   -0.9289    3.1565    0.1503 H   0  0  0  0  0  0  0  0  0  0  0  0
    0.8356    0.0607    0.6889 C   0  0  0  0  0  0  0  0  0  0  0  0
    2.0246   -0.1105    0.9117 O   0  0  0  0  0  0  0  0  0  0  0  0
    0.0050    0.4890    1.7108 N   0  0  0  0  0  0  0  0  0  0  0  0
   -0.9899    0.4081    1.5335 H   0  0  0  0  0  0  0  0  0  0  0  0
    0.4585    0.5734    3.0939 C   0  0  0  0  0  0  0  0  0  0  0  0
    1.3196    1.2457    3.1743 H   0  0  0  0  0  0  0  0  0  0  0  0
   -0.3407    0.9613    3.7324 H   0  0  0  0  0  0  0  0  0  0  0  0
    0.7500   -0.4161    3.4617 H   0  0  0  0  0  0  0  0  0  0  0  0
  1  2  1  0  0  0  0
  2  3  1  0  0  0  0
  2  4  1  0  0  0  0
  2  5  1  0  0  0  0
  5  6  2  0  0  0  0
  5  7  1  0  0  0  0
  7  8  1  0  0  0  0
  7  9  1  0  0  0  0
  9 10  1  0  0  0  0
  9 11  1  0  0  0  0
  9 19  1  0  0  0  0
 11 12  1  0  0  0  0
 11 13  1  0  0  0  0
 11 14  1  0  0  0  0
 14 15  2  0  0  0  0
 14 16  1  0  0  0  0
 16 17  1  0  0  0  0
 16 18  1  0  0  0  0
 19 20  2  0  0  0  0
 19 21  1  0  0  0  0
 21 22  1  0  0  0  0
 21 23  1  0  0  0  0
 23 24  1  0  0  0  0
 23 25  1  0  0  0  0
 23 26  1  0  0  0  0
M  END
$$$$

  -OEChem-03222214023D

 26 25  0     1  0  0  0  0  0999 V2000
   -2.6139   -3.7243   -0.2741 H   0  0  0  0  0  0  0  0  0  0  0  0
   -2.6221   -2.6913   -0.6341 C   0  0  0  0  0  0  0  0  0  0  0  0
   -3.4268   -2.1501   -0.1307 H   0  0  0  0  0  0  0  0  0  0  0  0
   -2.8119   -2.6979   -1.7102 H   0  0  0  0  0  0  0  0  0  0  0  0
   -1.2883   -2.0280   -0.3449 C   0  0  0  0  0  0  0  0  0  0  0  0
   -0.4379   -2.6307    0.2828 O   0  0  0  0  0  0  0  0  0  0  0  0
   -1.0535   -0.7405   -0.7920 N   0  0  0  0  0  0  0  0  0  0  0  0
   -1.7584   -0.3560   -1.4143 H   0  0  0  0  0  0  0  0  0  0  0  0
    0.2656   -0.0733   -0.7480 C   0  0  1  0  0  0  0  0  0  0  0  0
    0.9961   -0.6841   -1.2920 H   0  0  0  0  0  0  0  0  0  0  0  0
    0.1248    1.2863   -1.4846 C   0  0  0  0  0  0  0  0  0  0  0  0
    0.5767    1.1922   -2.4761 H   0  0  0  0  0  0  0  0  0  0  0  0
   -0.9299    1.5281   -1.6355 H   0  0  0  0  0  0  0  0  0  0  0  0
    0.7610    2.4882   -0.7918 C   0  0  0  0  0  0  0  0  0  0  0  0
    1.9116    2.8080   -1.0083 O   0  0  0  0  0  0  0  0  0  0  0  0
    0.0850    3.2637    0.1063 N   0  0  0  0  0  0  0  0  0  0  0  0
    0.6805    3.8908    0.6409 H   0  0  0  0  0  0  0  0  0  0  0  0
   -0.7344    2.8665    0.5504 H   0  0  0  0  0  0  0  0  0  0  0  0
    0.8204    0.0492    0.6944 C   0  0  0  0  0  0  0  0  0  0  0  0
    2.0211   -0.0434    0.8983 O   0  0  0  0  0  0  0  0  0  0  0  0
   -0.0126    0.4663    1.7193 N   0  0  0  0  0  0  0  0  0  0  0  0
   -1.0030    0.3140    1.5616 H   0  0  0  0  0  0  0  0  0  0  0  0
    0.4549    0.5767    3.0961 C   0  0  0  0  0  0  0  0  0  0  0  0
    1.2879    1.2847    3.1629 H   0  0  0  0  0  0  0  0  0  0  0  0
   -0.3517    0.9343    3.7429 H   0  0  0  0  0  0  0  0  0  0  0  0
    0.7917   -0.3981    3.4651 H   0  0  0  0  0  0  0  0  0  0  0  0
  1  2  1  0  0  0  0
  2  3  1  0  0  0  0
  2  4  1  0  0  0  0
  2  5  1  0  0  0  0
  5  6  2  0  0  0  0
  5  7  1  0  0  0  0
  7  8  1  0  0  0  0
  7  9  1  0  0  0  0
  9 10  1  0  0  0  0
  9 11  1  0  0  0  0
  9 19  1  0  0  0  0
 11 12  1  0  0  0  0
 11 13  1  0  0  0  0
 11 14  1  0  0  0  0
 14 15  2  0  0  0  0
 14 16  1  0  0  0  0
 16 17  1  0  0  0  0
 16 18  1  0  0  0  0
 19 20  2  0  0  0  0
 19 21  1  0  0  0  0
 21 22  1  0  0  0  0
 21 23  1  0  0  0  0
 23 24  1  0  0  0  0
 23 25  1  0  0  0  0
 23 26  1  0  0  0  0
M  END
$$$$

  -OEChem-03222214023D

 26 25  0     1  0  0  0  0  0999 V2000
   -2.6376   -3.7183   -0.2574 H   0  0  0  0  0  0  0  0  0  0  0  0
   -2.6298   -2.6965   -0.6481 C   0  0  0  0  0  0  0  0  0  0  0  0
   -3.4394   -2.1344   -0.1767 H   0  0  0  0  0  0  0  0  0  0  0  0
   -2.7995   -2.7328   -1.7270 H   0  0  0  0  0  0  0  0  0  0  0  0
   -1.2962   -2.0355   -0.3534 C   0  0  0  0  0  0  0  0  0  0  0  0
   -0.4463   -2.6406    0.2729 O   0  0  0  0  0  0  0  0  0  0  0  0
   -1.0615   -0.7431   -0.7856 N   0  0  0  0  0  0  0  0  0  0  0  0
   -1.7676   -0.3504   -1.4018 H   0  0  0  0  0  0  0  0  0  0  0  0
    0.2577   -0.0765   -0.7388 C   0  0  1  0  0  0  0  0  0  0  0  0
    0.9851   -0.6869   -1.2875 H   0  0  0  0  0  0  0  0  0  0  0  0
    0.1283    1.2890   -1.4665 C   0  0  0  0  0  0  0  0  0  0  0  0
    0.5755    1.1943   -2.4605 H   0  0  0  0  0  0  0  0  0  0  0  0
   -0.9257    1.5382   -1.6122 H   0  0  0  0  0  0  0  0  0  0  0  0
    0.7677    2.4913   -0.7739 C   0  0  0  0  0  0  0  0  0  0  0  0
    1.8089    2.9674   -1.1787 O   0  0  0  0  0  0  0  0  0  0  0  0
    0.1950    3.1353    0.2851 N   0  0  0  0  0  0  0  0  0  0  0  0
    0.8199    3.7967    0.7385 H   0  0  0  0  0  0  0  0  0  0  0  0
   -0.4289    2.5869    0.8672 H   0  0  0  0  0  0  0  0  0  0  0  0
    0.8133    0.0260    0.7038 C   0  0  0  0  0  0  0  0  0  0  0  0
    2.0196   -0.0023    0.8933 O   0  0  0  0  0  0  0  0  0  0  0  0
   -0.0228    0.4288    1.7327 N   0  0  0  0  0  0  0  0  0  0  0  0
   -1.0061    0.2197    1.5897 H   0  0  0  0  0  0  0  0  0  0  0  0
    0.4543    0.5529    3.1054 C   0  0  0  0  0  0  0  0  0  0  0  0
    1.2678    1.2839    3.1651 H   0  0  0  0  0  0  0  0  0  0  0  0
   -0.3563    0.8875    3.7597 H   0  0  0  0  0  0  0  0  0  0  0  0
    0.8216   -0.4116    3.4716 H   0  0  0  0  0  0  0  0  0  0  0  0
  1  2  1  0  0  0  0
  2  3  1  0  0  0  0
  2  4  1  0  0  0  0
  2  5  1  0  0  0  0
  5  6  2  0  0  0  0
  5  7  1  0  0  0  0
  7  8  1  0  0  0  0
  7  9  1  0  0  0  0
  9 10  1  0  0  0  0
  9 11  1  0  0  0  0
  9 19  1  0  0  0  0
 11 12  1  0  0  0  0
 11 13  1  0  0  0  0
 11 14  1  0  0  0  0
 14 15  2  0  0  0  0
 14 16  1  0  0  0  0
 16 17  1  0  0  0  0
 16 18  1  0  0  0  0
 19 20  2  0  0  0  0
 19 21  1  0  0  0  0
 21 22  1  0  0  0  0
 21 23  1  0  0  0  0
 23 24  1  0  0  0  0
 23 25  1  0  0  0  0
 23 26  1  0  0  0  0
M  END
$$$$

  -OEChem-03222214023D

 26 25  0     1  0  0  0  0  0999 V2000
   -2.6431   -3.7275   -0.3120 H   0  0  0  0  0  0  0  0  0  0  0  0
   -2.6449   -2.6877   -0.6515 C   0  0  0  0  0  0  0  0  0  0  0  0
   -3.4392   -2.1485   -0.1298 H   0  0  0  0  0  0  0  0  0  0  0  0
   -2.8459   -2.6710   -1.7255 H   0  0  0  0  0  0  0  0  0  0  0  0
   -1.3018   -2.0431   -0.3635 C   0  0  0  0  0  0  0  0  0  0  0  0
   -0.4493   -2.6640    0.2439 O   0  0  0  0  0  0  0  0  0  0  0  0
   -1.0595   -0.7465   -0.7784 N   0  0  0  0  0  0  0  0  0  0  0  0
   -1.7711   -0.3313   -1.3734 H   0  0  0  0  0  0  0  0  0  0  0  0
    0.2630   -0.0882   -0.7228 C   0  0  1  0  0  0  0  0  0  0  0  0
    0.9845   -0.7046   -1.2732 H   0  0  0  0  0  0  0  0  0  0  0  0
    0.1578    1.2786   -1.4518 C   0  0  0  0  0  0  0  0  0  0  0  0
    0.6095    1.1732   -2.4427 H   0  0  0  0  0  0  0  0  0  0  0  0
   -0.8927    1.5370   -1.6041 H   0  0  0  0  0  0  0  0  0  0  0  0
    0.7989    2.4856   -0.7665 C   0  0  0  0  0  0  0  0  0  0  0  0
    1.6840    3.1100   -1.3165 O   0  0  0  0  0  0  0  0  0  0  0  0
    0.3231    3.0417    0.3863 N   0  0  0  0  0  0  0  0  0  0  0  0
    0.9340    3.7588    0.7675 H   0  0  0  0  0  0  0  0  0  0  0  0
   -0.1370    2.4103    1.0352 H   0  0  0  0  0  0  0  0  0  0  0  0
    0.8191   -0.0078    0.7201 C   0  0  0  0  0  0  0  0  0  0  0  0
    2.0268   -0.0075    0.9021 O   0  0  0  0  0  0  0  0  0  0  0  0
   -0.0153    0.3857    1.7542 N   0  0  0  0  0  0  0  0  0  0  0  0
   -0.9990    0.1760    1.6107 H   0  0  0  0  0  0  0  0  0  0  0  0
    0.4633    0.4983    3.1277 C   0  0  0  0  0  0  0  0  0  0  0  0
    1.2752    1.2305    3.1931 H   0  0  0  0  0  0  0  0  0  0  0  0
   -0.3471    0.8255    3.7859 H   0  0  0  0  0  0  0  0  0  0  0  0
    0.8331   -0.4689    3.4847 H   0  0  0  0  0  0  0  0  0  0  0  0
  1  2  1  0  0  0  0
  2  3  1  0  0  0  0
  2  4  1  0  0  0  0
  2  5  1  0  0  0  0
  5  6  2  0  0  0  0
  5  7  1  0  0  0  0
  7  8  1  0  0  0  0
  7  9  1  0  0  0  0
  9 10  1  0  0  0  0
  9 11  1  0  0  0  0
  9 19  1  0  0  0  0
 11 12  1  0  0  0  0
 11 13  1  0  0  0  0
 11 14  1  0  0  0  0
 14 15  2  0  0  0  0
 14 16  1  0  0  0  0
 16 17  1  0  0  0  0
 16 18  1  0  0  0  0
 19 20  2  0  0  0  0
 19 21  1  0  0  0  0
 21 22  1  0  0  0  0
 21 23  1  0  0  0  0
 23 24  1  0  0  0  0
 23 25  1  0  0  0  0
 23 26  1  0  0  0  0
M  END
$$$$

  -OEChem-03222214023D

 26 25  0     1  0  0  0  0  0999 V2000
   -2.6690   -3.7177   -0.3392 H   0  0  0  0  0  0  0  0  0  0  0  0
   -2.6630   -2.6729   -0.6636 C   0  0  0  0  0  0  0  0  0  0  0  0
   -3.4540   -2.1358   -0.1348 H   0  0  0  0  0  0  0  0  0  0  0  0
   -2.8624   -2.6388   -1.7374 H   0  0  0  0  0  0  0  0  0  0  0  0
   -1.3158   -2.0419   -0.3652 C   0  0  0  0  0  0  0  0  0  0  0  0
   -0.4676   -2.6771    0.2338 O   0  0  0  0  0  0  0  0  0  0  0  0
   -1.0609   -0.7434   -0.7660 N   0  0  0  0  0  0  0  0  0  0  0  0
   -1.7715   -0.3102   -1.3494 H   0  0  0  0  0  0  0  0  0  0  0  0
    0.2677   -0.0996   -0.7025 C   0  0  1  0  0  0  0  0  0  0  0  0
    0.9792   -0.7302   -1.2497 H   0  0  0  0  0  0  0  0  0  0  0  0
    0.1930    1.2618   -1.4474 C   0  0  0  0  0  0  0  0  0  0  0  0
    0.6547    1.1335   -2.4310 H   0  0  0  0  0  0  0  0  0  0  0  0
   -0.8530    1.5287   -1.6165 H   0  0  0  0  0  0  0  0  0  0  0  0
    0.8356    2.4826   -0.7850 C   0  0  0  0  0  0  0  0  0  0  0  0
    1.5254    3.2354   -1.4439 O   0  0  0  0  0  0  0  0  0  0  0  0
    0.4840    2.9676    0.4422 N   0  0  0  0  0  0  0  0  0  0  0  0
    1.0675    3.7391    0.7533 H   0  0  0  0  0  0  0  0  0  0  0  0
    0.1840    2.2844    1.1324 H   0  0  0  0  0  0  0  0  0  0  0  0
    0.8292   -0.0374    0.7381 C   0  0  0  0  0  0  0  0  0  0  0  0
    2.0383   -0.0304    0.9109 O   0  0  0  0  0  0  0  0  0  0  0  0
    0.0056    0.3539    1.7813 N   0  0  0  0  0  0  0  0  0  0  0  0
   -0.9841    0.1757    1.6351 H   0  0  0  0  0  0  0  0  0  0  0  0
    0.4871    0.4295    3.1566 C   0  0  0  0  0  0  0  0  0  0  0  0
    1.3045    1.1537    3.2403 H   0  0  0  0  0  0  0  0  0  0  0  0
   -0.3204    0.7453    3.8241 H   0  0  0  0  0  0  0  0  0  0  0  0
    0.8502   -0.5491    3.4884 H   0  0  0  0  0  0  0  0  0  0  0  0
  1  2  1  0  0  0  0
  2  3  1  0  0  0  0
  2  4  1  0  0  0  0
  2  5  1  0  0  0  0
  5  6  2  0  0  0  0
  5  7  1  0  0  0  0
  7  8  1  0  0  0  0
  7  9  1  0  0  0  0
  9 10  1  0  0  0  0
  9 11  1  0  0  0  0
  9 19  1  0  0  0  0
 11 12  1  0  0  0  0
 11 13  1  0  0  0  0
 11 14  1  0  0  0  0
 14 15  2  0  0  0  0
 14 16  1  0  0  0  0
 16 17  1  0  0  0  0
 16 18  1  0  0  0  0
 19 20  2  0  0  0  0
 19 21  1  0  0  0  0
 21 22  1  0  0  0  0
 21 23  1  0  0  0  0
 23 24  1  0  0  0  0
 23 25  1  0  0  0  0
 23 26  1  0  0  0  0
M  END
$$$$

  -OEChem-03222214023D

 26 25  0     1  0  0  0  0  0999 V2000
   -2.7115   -3.6917   -0.3319 H   0  0  0  0  0  0  0  0  0  0  0  0
   -2.6883   -2.6477   -0.6574 C   0  0  0  0  0  0  0  0  0  0  0  0
   -3.4544   -2.0922   -0.1113 H   0  0  0  0  0  0  0  0  0  0  0  0
   -2.9113   -2.6093   -1.7264 H   0  0  0  0  0  0  0  0  0  0  0  0
   -1.3203   -2.0484   -0.3897 C   0  0  0  0  0  0  0  0  0  0  0  0
   -0.4664   -2.7097    0.1722 O   0  0  0  0  0  0  0  0  0  0  0  0
   -1.0516   -0.7476   -0.7731 N   0  0  0  0  0  0  0  0  0  0  0  0
   -1.7725   -0.2812   -1.3170 H   0  0  0  0  0  0  0  0  0  0  0  0
    0.2819   -0.1158   -0.6970 C   0  0  1  0  0  0  0  0  0  0  0  0
    0.9877   -0.7549   -1.2417 H   0  0  0  0  0  0  0  0  0  0  0  0
    0.2316    1.2447   -1.4491 C   0  0  0  0  0  0  0  0  0  0  0  0
    0.7010    1.1010   -2.4270 H   0  0  0  0  0  0  0  0  0  0  0  0
   -0.8113    1.5147   -1.6311 H   0  0  0  0  0  0  0  0  0  0  0  0
    0.8688    2.4849   -0.8131 C   0  0  0  0  0  0  0  0  0  0  0  0
    1.3245    3.3504   -1.5346 O   0  0  0  0  0  0  0  0  0  0  0  0
    0.7085    2.8831    0.4832 N   0  0  0  0  0  0  0  0  0  0  0  0
    1.2619    3.6981    0.7313 H   0  0  0  0  0  0  0  0  0  0  0  0
    0.5922    2.1501    1.1787 H   0  0  0  0  0  0  0  0  0  0  0  0
    0.8380   -0.0758    0.7450 C   0  0  0  0  0  0  0  0  0  0  0  0
    2.0468   -0.0583    0.9200 O   0  0  0  0  0  0  0  0  0  0  0  0
    0.0166    0.3093    1.7915 N   0  0  0  0  0  0  0  0  0  0  0  0
   -0.9784    0.1723    1.6366 H   0  0  0  0  0  0  0  0  0  0  0  0
    0.4914    0.3853    3.1691 C   0  0  0  0  0  0  0  0  0  0  0  0
    1.3140    1.1033    3.2553 H   0  0  0  0  0  0  0  0  0  0  0  0
   -0.3175    0.7097    3.8307 H   0  0  0  0  0  0  0  0  0  0  0  0
    0.8444   -0.5951    3.5062 H   0  0  0  0  0  0  0  0  0  0  0  0
  1  2  1  0  0  0  0
  2  3  1  0  0  0  0
  2  4  1  0  0  0  0
  2  5  1  0  0  0  0
  5  6  2  0  0  0  0
  5  7  1  0  0  0  0
  7  8  1  0  0  0  0
  7  9  1  0  0  0  0
  9 10  1  0  0  0  0
  9 11  1  0  0  0  0
  9 19  1  0  0  0  0
 11 12  1  0  0  0  0
 11 13  1  0  0  0  0
 11 14  1  0  0  0  0
 14 15  2  0  0  0  0
 14 16  1  0  0  0  0
 16 17  1  0  0  0  0
 16 18  1  0  0  0  0
 19 20  2  0  0  0  0
 19 21  1  0  0  0  0
 21 22  1  0  0  0  0
 21 23  1  0  0  0  0
 23 24  1  0  0  0  0
 23 25  1  0  0  0  0
 23 26  1  0  0  0  0
M  END
$$$$

  -OEChem-03222214023D

 26 25  0     1  0  0  0  0  0999 V2000
   -2.7004   -3.7105   -0.3352 H   0  0  0  0  0  0  0  0  0  0  0  0
   -2.6834   -2.6643   -0.6543 C   0  0  0  0  0  0  0  0  0  0  0  0
   -3.4382   -2.1119   -0.0895 H   0  0  0  0  0  0  0  0  0  0  0  0
   -2.9277   -2.6192   -1.7184 H   0  0  0  0  0  0  0  0  0  0  0  0
   -1.3101   -2.0668   -0.4103 C   0  0  0  0  0  0  0  0  0  0  0  0
   -0.4380   -2.7402    0.1079 O   0  0  0  0  0  0  0  0  0  0  0  0
   -1.0529   -0.7593   -0.7791 N   0  0  0  0  0  0  0  0  0  0  0  0
   -1.7907   -0.2791   -1.2872 H   0  0  0  0  0  0  0  0  0  0  0  0
    0.2732   -0.1126   -0.6911 C   0  0  1  0  0  0  0  0  0  0  0  0
    0.9948   -0.7282   -1.2419 H   0  0  0  0  0  0  0  0  0  0  0  0
    0.1875    1.2644   -1.4168 C   0  0  0  0  0  0  0  0  0  0  0  0
    0.6474    1.1386   -2.4015 H   0  0  0  0  0  0  0  0  0  0  0  0
   -0.8652    1.5040   -1.5860 H   0  0  0  0  0  0  0  0  0  0  0  0
    0.7862    2.5430   -0.8098 C   0  0  0  0  0  0  0  0  0  0  0  0
    0.9309    3.5105   -1.5315 O   0  0  0  0  0  0  0  0  0  0  0  0
    1.2394    2.7454    0.4617 N   0  0  0  0  0  0  0  0  0  0  0  0
    1.7889    3.5917    0.5748 H   0  0  0  0  0  0  0  0  0  0  0  0
    1.5121    1.9184    0.9938 H   0  0  0  0  0  0  0  0  0  0  0  0
    0.7985   -0.0934    0.7620 C   0  0  0  0  0  0  0  0  0  0  0  0
    2.0045   -0.0556    0.9625 O   0  0  0  0  0  0  0  0  0  0  0  0
   -0.0445    0.2660    1.7983 N   0  0  0  0  0  0  0  0  0  0  0  0
   -1.0400    0.1975    1.6112 H   0  0  0  0  0  0  0  0  0  0  0  0
    0.3976    0.3824    3.1831 C   0  0  0  0  0  0  0  0  0  0  0  0
    1.1694    1.1533    3.2781 H   0  0  0  0  0  0  0  0  0  0  0  0
   -0.4436    0.6583    3.8261 H   0  0  0  0  0  0  0  0  0  0  0  0
    0.8056   -0.5709    3.5353 H   0  0  0  0  0  0  0  0  0  0  0  0
  1  2  1  0  0  0  0
  2  3  1  0  0  0  0
  2  4  1  0  0  0  0
  2  5  1  0  0  0  0
  5  6  2  0  0  0  0
  5  7  1  0  0  0  0
  7  8  1  0  0  0  0
  7  9  1  0  0  0  0
  9 10  1  0  0  0  0
  9 11  1  0  0  0  0
  9 19  1  0  0  0  0
 11 12  1  0  0  0  0
 11 13  1  0  0  0  0
 11 14  1  0  0  0  0
 14 15  2  0  0  0  0
 14 16  1  0  0  0  0
 16 17  1  0  0  0  0
 16 18  1  0  0  0  0
 19 20  2  0  0  0  0
 19 21  1  0  0  0  0
 21 22  1  0  0  0  0
 21 23  1  0  0  0  0
 23 24  1  0  0  0  0
 23 25  1  0  0  0  0
 23 26  1  0  0  0  0
M  END
$$$$

  -OEChem-03222214023D

 26 25  0     1  0  0  0  0  0999 V2000
   -2.7216   -3.6648   -0.2824 H   0  0  0  0  0  0  0  0  0  0  0  0
   -2.6861   -2.6235   -0.6156 C   0  0  0  0  0  0  0  0  0  0  0  0
   -3.4268   -2.0493   -0.0540 H   0  0  0  0  0  0  0  0  0  0  0  0
   -2.9360   -2.5874   -1.6787 H   0  0  0  0  0  0  0  0  0  0  0  0
   -1.3002   -2.0495   -0.3868 C   0  0  0  0  0  0  0  0  0  0  0  0
   -0.4426   -2.7270    0.1496 O   0  0  0  0  0  0  0  0  0  0  0  0
   -1.0156   -0.7603   -0.7969 N   0  0  0  0  0  0  0  0  0  0  0  0
   -1.7431   -0.2799   -1.3192 H   0  0  0  0  0  0  0  0  0  0  0  0
    0.3157   -0.1264   -0.7040 C   0  0  1  0  0  0  0  0  0  0  0  0
    1.0516   -0.7353   -1.2426 H   0  0  0  0  0  0  0  0  0  0  0  0
    0.1909    1.2476   -1.4191 C   0  0  0  0  0  0  0  0  0  0  0  0
    0.3709    1.0868   -2.4857 H   0  0  0  0  0  0  0  0  0  0  0  0
   -0.8381    1.6018   -1.3115 H   0  0  0  0  0  0  0  0  0  0  0  0
    1.0593    2.4341   -0.9827 C   0  0  0  0  0  0  0  0  0  0  0  0
    0.9281    3.4916   -1.5681 O   0  0  0  0  0  0  0  0  0  0  0  0
    2.1191    2.4060   -0.1231 N   0  0  0  0  0  0  0  0  0  0  0  0
    2.7258    3.2195   -0.1072 H   0  0  0  0  0  0  0  0  0  0  0  0
    2.4233    1.5215    0.2901 H   0  0  0  0  0  0  0  0  0  0  0  0
    0.8080   -0.0602    0.7615 C   0  0  0  0  0  0  0  0  0  0  0  0
    2.0021   -0.1912    1.0019 O   0  0  0  0  0  0  0  0  0  0  0  0
   -0.0453    0.3479    1.7699 N   0  0  0  0  0  0  0  0  0  0  0  0
   -1.0350    0.3711    1.5472 H   0  0  0  0  0  0  0  0  0  0  0  0
    0.3611    0.4358    3.1667 C   0  0  0  0  0  0  0  0  0  0  0  0
    1.1707    1.1634    3.2857 H   0  0  0  0  0  0  0  0  0  0  0  0
   -0.4821    0.7553    3.7863 H   0  0  0  0  0  0  0  0  0  0  0  0
    0.7064   -0.5393    3.5263 H   0  0  0  0  0  0  0  0  0  0  0  0
  1  2  1  0  0  0  0
  2  3  1  0  0  0  0
  2  4  1  0  0  0  0
  2  5  1  0  0  0  0
  5  6  2  0  0  0  0
  5  7  1  0  0  0  0
  7  8  1  0  0  0  0
  7  9  1  0  0  0  0
  9 10  1  0  0  0  0
  9 11  1  0  0  0  0
  9 19  1  0  0  0  0
 11 12  1  0  0  0  0
 11 13  1  0  0  0  0
 11 14  1  0  0  0  0
 14 15  2  0  0  0  0
 14 16  1  0  0  0  0
 16 17  1  0  0  0  0
 16 18  1  0  0  0  0
 19 20  2  0  0  0  0
 19 21  1  0  0  0  0
 21 22  1  0  0  0  0
 21 23  1  0  0  0  0
 23 24  1  0  0  0  0
 23 25  1  0  0  0  0
 23 26  1  0  0  0  0
M  END
$$$$

  -OEChem-03222214023D

 26 25  0     1  0  0  0  0  0999 V2000
   -2.7100   -3.6696   -0.2559 H   0  0  0  0  0  0  0  0  0  0  0  0
   -2.6817   -2.6323   -0.6024 C   0  0  0  0  0  0  0  0  0  0  0  0
   -3.4284   -2.0568   -0.0501 H   0  0  0  0  0  0  0  0  0  0  0  0
   -2.9287   -2.6116   -1.6667 H   0  0  0  0  0  0  0  0  0  0  0  0
   -1.3008   -2.0453   -0.3768 C   0  0  0  0  0  0  0  0  0  0  0  0
   -0.4414   -2.7108    0.1718 O   0  0  0  0  0  0  0  0  0  0  0  0
   -1.0209   -0.7604   -0.8044 N   0  0  0  0  0  0  0  0  0  0  0  0
   -1.7482   -0.2912   -1.3373 H   0  0  0  0  0  0  0  0  0  0  0  0
    0.3107   -0.1259   -0.7255 C   0  0  1  0  0  0  0  0  0  0  0  0
    1.0435   -0.7330   -1.2699 H   0  0  0  0  0  0  0  0  0  0  0  0
    0.1815    1.2528   -1.4249 C   0  0  0  0  0  0  0  0  0  0  0  0
    0.3582    1.1131   -2.4947 H   0  0  0  0  0  0  0  0  0  0  0  0
   -0.8430    1.6165   -1.3049 H   0  0  0  0  0  0  0  0  0  0  0  0
    1.0812    2.3971   -0.9507 C   0  0  0  0  0  0  0  0  0  0  0  0
    0.8103    3.5352   -1.2817 O   0  0  0  0  0  0  0  0  0  0  0  0
    2.3556    2.2390   -0.4866 N   0  0  0  0  0  0  0  0  0  0  0  0
    2.8214    3.0917   -0.1931 H   0  0  0  0  0  0  0  0  0  0  0  0
    2.5923    1.3593   -0.0218 H   0  0  0  0  0  0  0  0  0  0  0  0
    0.8160   -0.0400    0.7360 C   0  0  0  0  0  0  0  0  0  0  0  0
    2.0116   -0.1671    0.9692 O   0  0  0  0  0  0  0  0  0  0  0  0
   -0.0293    0.3816    1.7454 N   0  0  0  0  0  0  0  0  0  0  0  0
   -1.0210    0.4005    1.5299 H   0  0  0  0  0  0  0  0  0  0  0  0
    0.3873    0.4834    3.1384 C   0  0  0  0  0  0  0  0  0  0  0  0
    1.2072    1.2018    3.2428 H   0  0  0  0  0  0  0  0  0  0  0  0
   -0.4478    0.8218    3.7590 H   0  0  0  0  0  0  0  0  0  0  0  0
    0.7224   -0.4911    3.5088 H   0  0  0  0  0  0  0  0  0  0  0  0
  1  2  1  0  0  0  0
  2  3  1  0  0  0  0
  2  4  1  0  0  0  0
  2  5  1  0  0  0  0
  5  6  2  0  0  0  0
  5  7  1  0  0  0  0
  7  8  1  0  0  0  0
  7  9  1  0  0  0  0
  9 10  1  0  0  0  0
  9 11  1  0  0  0  0
  9 19  1  0  0  0  0
 11 12  1  0  0  0  0
 11 13  1  0  0  0  0
 11 14  1  0  0  0  0
 14 15  2  0  0  0  0
 14 16  1  0  0  0  0
 16 17  1  0  0  0  0
 16 18  1  0  0  0  0
 19 20  2  0  0  0  0
 19 21  1  0  0  0  0
 21 22  1  0  0  0  0
 21 23  1  0  0  0  0
 23 24  1  0  0  0  0
 23 25  1  0  0  0  0
 23 26  1  0  0  0  0
M  END
$$$$

  -OEChem-03222214023D

 26 25  0     1  0  0  0  0  0999 V2000
   -2.7054   -3.6722   -0.2413 H   0  0  0  0  0  0  0  0  0  0  0  0
   -2.6845   -2.6338   -0.5846 C   0  0  0  0  0  0  0  0  0  0  0  0
   -3.4115   -2.0580   -0.0068 H   0  0  0  0  0  0  0  0  0  0  0  0
   -2.9641   -2.6083   -1.6405 H   0  0  0  0  0  0  0  0  0  0  0  0
   -1.2955   -2.0517   -0.4000 C   0  0  0  0  0  0  0  0  0  0  0  0
   -0.4211   -2.7202    0.1204 O   0  0  0  0  0  0  0  0  0  0  0  0
   -1.0245   -0.7658   -0.8290 N   0  0  0  0  0  0  0  0  0  0  0  0
   -1.7677   -0.2833   -1.3268 H   0  0  0  0  0  0  0  0  0  0  0  0
    0.3034   -0.1258   -0.7512 C   0  0  1  0  0  0  0  0  0  0  0  0
    1.0329   -0.7393   -1.2935 H   0  0  0  0  0  0  0  0  0  0  0  0
    0.1849    1.2455   -1.4623 C   0  0  0  0  0  0  0  0  0  0  0  0
    0.3756    1.1030   -2.5290 H   0  0  0  0  0  0  0  0  0  0  0  0
   -0.8389    1.6163   -1.3568 H   0  0  0  0  0  0  0  0  0  0  0  0
    1.0963    2.3690   -0.9659 C   0  0  0  0  0  0  0  0  0  0  0  0
    0.7266    3.5243   -1.0467 O   0  0  0  0  0  0  0  0  0  0  0  0
    2.4168    2.1993   -0.6635 N   0  0  0  0  0  0  0  0  0  0  0  0
    2.8708    3.0250   -0.2855 H   0  0  0  0  0  0  0  0  0  0  0  0
    2.6887    1.2868   -0.2911 H   0  0  0  0  0  0  0  0  0  0  0  0
    0.8261   -0.0281    0.7024 C   0  0  0  0  0  0  0  0  0  0  0  0
    2.0271   -0.1428    0.9138 O   0  0  0  0  0  0  0  0  0  0  0  0
   -0.0064    0.3944    1.7215 N   0  0  0  0  0  0  0  0  0  0  0  0
   -1.0001    0.4291    1.5181 H   0  0  0  0  0  0  0  0  0  0  0  0
    0.4350    0.5289    3.1037 C   0  0  0  0  0  0  0  0  0  0  0  0
    1.2438    1.2633    3.1783 H   0  0  0  0  0  0  0  0  0  0  0  0
   -0.3935    0.8638    3.7350 H   0  0  0  0  0  0  0  0  0  0  0  0
    0.7951   -0.4327    3.4845 H   0  0  0  0  0  0  0  0  0  0  0  0
  1  2  1  0  0  0  0
  2  3  1  0  0  0  0
  2  4  1  0  0  0  0
  2  5  1  0  0  0  0
  5  6  2  0  0  0  0
  5  7  1  0  0  0  0
  7  8  1  0  0  0  0
  7  9  1  0  0  0  0
  9 10  1  0  0  0  0
  9 11  1  0  0  0  0
  9 19  1  0  0  0  0
 11 12  1  0  0  0  0
 11 13  1  0  0  0  0
 11 14  1  0  0  0  0
 14 15  2  0  0  0  0
 14 16  1  0  0  0  0
 16 17  1  0  0  0  0
 16 18  1  0  0  0  0
 19 20  2  0  0  0  0
 19 21  1  0  0  0  0
 21 22  1  0  0  0  0
 21 23  1  0  0  0  0
 23 24  1  0  0  0  0
 23 25  1  0  0  0  0
 23 26  1  0  0  0  0
M  END
$$$$

  -OEChem-03222214023D

 26 25  0     1  0  0  0  0  0999 V2000
   -2.6980   -3.6813   -0.2374 H   0  0  0  0  0  0  0  0  0  0  0  0
   -2.6840   -2.6437   -0.5833 C   0  0  0  0  0  0  0  0  0  0  0  0
   -3.4007   -2.0670    0.0062 H   0  0  0  0  0  0  0  0  0  0  0  0
   -2.9826   -2.6205   -1.6341 H   0  0  0  0  0  0  0  0  0  0  0  0
   -1.2923   -2.0604   -0.4253 C   0  0  0  0  0  0  0  0  0  0  0  0
   -0.4041   -2.7304    0.0695 O   0  0  0  0  0  0  0  0  0  0  0  0
   -1.0337   -0.7712   -0.8508 N   0  0  0  0  0  0  0  0  0  0  0  0
   -1.7946   -0.2766   -1.3082 H   0  0  0  0  0  0  0  0  0  0  0  0
    0.2894   -0.1224   -0.7767 C   0  0  1  0  0  0  0  0  0  0  0  0
    1.0151   -0.7369   -1.3228 H   0  0  0  0  0  0  0  0  0  0  0  0
    0.1710    1.2437   -1.4953 C   0  0  0  0  0  0  0  0  0  0  0  0
    0.3686    1.1016   -2.5609 H   0  0  0  0  0  0  0  0  0  0  0  0
   -0.8530    1.6161   -1.3974 H   0  0  0  0  0  0  0  0  0  0  0  0
    1.0873    2.3545   -0.9831 C   0  0  0  0  0  0  0  0  0  0  0  0
    0.6497    3.4740   -0.8003 O   0  0  0  0  0  0  0  0  0  0  0  0
    2.4346    2.2052   -0.8239 N   0  0  0  0  0  0  0  0  0  0  0  0
    2.8822    2.9915   -0.3630 H   0  0  0  0  0  0  0  0  0  0  0  0
    2.7533    1.2678   -0.5754 H   0  0  0  0  0  0  0  0  0  0  0  0
    0.8360   -0.0169    0.6669 C   0  0  0  0  0  0  0  0  0  0  0  0
    2.0428   -0.1178    0.8514 O   0  0  0  0  0  0  0  0  0  0  0  0
    0.0198    0.4008    1.7009 N   0  0  0  0  0  0  0  0  0  0  0  0
   -0.9752    0.4627    1.5107 H   0  0  0  0  0  0  0  0  0  0  0  0
    0.4928    0.5871    3.0665 C   0  0  0  0  0  0  0  0  0  0  0  0
    1.2856    1.3418    3.0981 H   0  0  0  0  0  0  0  0  0  0  0  0
   -0.3274    0.9223    3.7086 H   0  0  0  0  0  0  0  0  0  0  0  0
    0.8850   -0.3538    3.4669 H   0  0  0  0  0  0  0  0  0  0  0  0
  1  2  1  0  0  0  0
  2  3  1  0  0  0  0
  2  4  1  0  0  0  0
  2  5  1  0  0  0  0
  5  6  2  0  0  0  0
  5  7  1  0  0  0  0
  7  8  1  0  0  0  0
  7  9  1  0  0  0  0
  9 10  1  0  0  0  0
  9 11  1  0  0  0  0
  9 19  1  0  0  0  0
 11 12  1  0  0  0  0
 11 13  1  0  0  0  0
 11 14  1  0  0  0  0
 14 15  2  0  0  0  0
 14 16  1  0  0  0  0
 16 17  1  0  0  0  0
 16 18  1  0  0  0  0
 19 20  2  0  0  0  0
 19 21  1  0  0  0  0
 21 22  1  0  0  0  0
 21 23  1  0  0  0  0
 23 24  1  0  0  0  0
 23 25  1  0  0  0  0
 23 26  1  0  0  0  0
M  END
$$$$

  -OEChem-03222214023D

 26 25  0     1  0  0  0  0  0999 V2000
   -2.6827   -3.6952   -0.2330 H   0  0  0  0  0  0  0  0  0  0  0  0
   -2.6778   -2.6592   -0.5840 C   0  0  0  0  0  0  0  0  0  0  0  0
   -3.3814   -2.0805    0.0193 H   0  0  0  0  0  0  0  0  0  0  0  0
   -3.0009   -2.6415   -1.6276 H   0  0  0  0  0  0  0  0  0  0  0  0
   -1.2835   -2.0735   -0.4620 C   0  0  0  0  0  0  0  0  0  0  0  0
   -0.3751   -2.7507   -0.0157 O   0  0  0  0  0  0  0  0  0  0  0  0
   -1.0430   -0.7770   -0.8751 N   0  0  0  0  0  0  0  0  0  0  0  0
   -1.8259   -0.2673   -1.2748 H   0  0  0  0  0  0  0  0  0  0  0  0
    0.2724   -0.1147   -0.8000 C   0  0  1  0  0  0  0  0  0  0  0  0
    0.9989   -0.7211   -1.3540 H   0  0  0  0  0  0  0  0  0  0  0  0
    0.1441    1.2515   -1.5134 C   0  0  0  0  0  0  0  0  0  0  0  0
    0.3452    1.1203   -2.5797 H   0  0  0  0  0  0  0  0  0  0  0  0
   -0.8813    1.6199   -1.4156 H   0  0  0  0  0  0  0  0  0  0  0  0
    1.0590    2.3503   -0.9787 C   0  0  0  0  0  0  0  0  0  0  0  0
    0.5921    3.3776   -0.5258 O   0  0  0  0  0  0  0  0  0  0  0  0
    2.4198    2.2506   -0.9832 N   0  0  0  0  0  0  0  0  0  0  0  0
    2.8805    2.9700   -0.4337 H   0  0  0  0  0  0  0  0  0  0  0  0
    2.7947    1.3053   -0.9265 H   0  0  0  0  0  0  0  0  0  0  0  0
    0.8377   -0.0109    0.6369 C   0  0  0  0  0  0  0  0  0  0  0  0
    2.0482   -0.1013    0.8010 O   0  0  0  0  0  0  0  0  0  0  0  0
    0.0329    0.3907    1.6862 N   0  0  0  0  0  0  0  0  0  0  0  0
   -0.9554    0.5183    1.4953 H   0  0  0  0  0  0  0  0  0  0  0  0
    0.5367    0.6561    3.0274 C   0  0  0  0  0  0  0  0  0  0  0  0
    1.2794    1.4607    3.0055 H   0  0  0  0  0  0  0  0  0  0  0  0
   -0.2827    0.9606    3.6856 H   0  0  0  0  0  0  0  0  0  0  0  0
    1.0013   -0.2428    3.4463 H   0  0  0  0  0  0  0  0  0  0  0  0
  1  2  1  0  0  0  0
  2  3  1  0  0  0  0
  2  4  1  0  0  0  0
  2  5  1  0  0  0  0
  5  6  2  0  0  0  0
  5  7  1  0  0  0  0
  7  8  1  0  0  0  0
  7  9  1  0  0  0  0
  9 10  1  0  0  0  0
  9 11  1  0  0  0  0
  9 19  1  0  0  0  0
 11 12  1  0  0  0  0
 11 13  1  0  0  0  0
 11 14  1  0  0  0  0
 14 15  2  0  0  0  0
 14 16  1  0  0  0  0
 16 17  1  0  0  0  0
 16 18  1  0  0  0  0
 19 20  2  0  0  0  0
 19 21  1  0  0  0  0
 21 22  1  0  0  0  0
 21 23  1  0  0  0  0
 23 24  1  0  0  0  0
 23 25  1  0  0  0  0
 23 26  1  0  0  0  0
M  END
$$$$

  -OEChem-03222214023D

 26 25  0     1  0  0  0  0  0999 V2000
   -2.6568   -3.7126   -0.2288 H   0  0  0  0  0  0  0  0  0  0  0  0
   -2.6674   -2.6740   -0.5723 C   0  0  0  0  0  0  0  0  0  0  0  0
   -3.3468   -2.1009    0.0632 H   0  0  0  0  0  0  0  0  0  0  0  0
   -3.0320   -2.6483   -1.6021 H   0  0  0  0  0  0  0  0  0  0  0  0
   -1.2697   -2.0875   -0.5013 C   0  0  0  0  0  0  0  0  0  0  0  0
   -0.3415   -2.7719   -0.1096 O   0  0  0  0  0  0  0  0  0  0  0  0
   -1.0489   -0.7829   -0.9002 N   0  0  0  0  0  0  0  0  0  0  0  0
   -1.8542   -0.2571   -1.2275 H   0  0  0  0  0  0  0  0  0  0  0  0
    0.2579   -0.1052   -0.8165 C   0  0  1  0  0  0  0  0  0  0  0  0
    0.9903   -0.7004   -1.3752 H   0  0  0  0  0  0  0  0  0  0  0  0
    0.1201    1.2646   -1.5203 C   0  0  0  0  0  0  0  0  0  0  0  0
    0.3277    1.1465   -2.5868 H   0  0  0  0  0  0  0  0  0  0  0  0
   -0.9075    1.6270   -1.4249 H   0  0  0  0  0  0  0  0  0  0  0  0
    1.0282    2.3544   -0.9596 C   0  0  0  0  0  0  0  0  0  0  0  0
    0.5733    3.2373   -0.2577 O   0  0  0  0  0  0  0  0  0  0  0  0
    2.3793    2.3564   -1.1492 N   0  0  0  0  0  0  0  0  0  0  0  0
    2.8777    2.9831   -0.5237 H   0  0  0  0  0  0  0  0  0  0  0  0
    2.8070    1.4591   -1.3597 H   0  0  0  0  0  0  0  0  0  0  0  0
    0.8271   -0.0075    0.6193 C   0  0  0  0  0  0  0  0  0  0  0  0
    2.0385   -0.0912    0.7779 O   0  0  0  0  0  0  0  0  0  0  0  0
    0.0215    0.3738    1.6757 N   0  0  0  0  0  0  0  0  0  0  0  0
   -0.9487    0.5832    1.4664 H   0  0  0  0  0  0  0  0  0  0  0  0
    0.5455    0.7087    2.9932 C   0  0  0  0  0  0  0  0  0  0  0  0
    1.2052    1.5807    2.9314 H   0  0  0  0  0  0  0  0  0  0  0  0
   -0.2749    0.9418    3.6784 H   0  0  0  0  0  0  0  0  0  0  0  0
    1.1105   -0.1338    3.4060 H   0  0  0  0  0  0  0  0  0  0  0  0
  1  2  1  0  0  0  0
  2  3  1  0  0  0  0
  2  4  1  0  0  0  0
  2  5  1  0  0  0  0
  5  6  2  0  0  0  0
  5  7  1  0  0  0  0
  7  8  1  0  0  0  0
  7  9  1  0  0  0  0
  9 10  1  0  0  0  0
  9 11  1  0  0  0  0
  9 19  1  0  0  0  0
 11 12  1  0  0  0  0
 11 13  1  0  0  0  0
 11 14  1  0  0  0  0
 14 15  2  0  0  0  0
 14 16  1  0  0  0  0
 16 17  1  0  0  0  0
 16 18  1  0  0  0  0
 19 20  2  0  0  0  0
 19 21  1  0  0  0  0
 21 22  1  0  0  0  0
 21 23  1  0  0  0  0
 23 24  1  0  0  0  0
 23 25  1  0  0  0  0
 23 26  1  0  0  0  0
M  END
$$$$

  -OEChem-03222214023D

 26 25  0     1  0  0  0  0  0999 V2000
   -2.6255   -3.7236   -0.2168 H   0  0  0  0  0  0  0  0  0  0  0  0
   -2.6510   -2.6829   -0.5526 C   0  0  0  0  0  0  0  0  0  0  0  0
   -3.3033   -2.1150    0.1151 H   0  0  0  0  0  0  0  0  0  0  0  0
   -3.0590   -2.6508   -1.5656 H   0  0  0  0  0  0  0  0  0  0  0  0
   -1.2519   -2.0958   -0.5360 C   0  0  0  0  0  0  0  0  0  0  0  0
   -0.3061   -2.7862   -0.2009 O   0  0  0  0  0  0  0  0  0  0  0  0
   -1.0507   -0.7834   -0.9189 N   0  0  0  0  0  0  0  0  0  0  0  0
   -1.8740   -0.2476   -1.1768 H   0  0  0  0  0  0  0  0  0  0  0  0
    0.2468   -0.0898   -0.8219 C   0  0  1  0  0  0  0  0  0  0  0  0
    0.9884   -0.6753   -1.3788 H   0  0  0  0  0  0  0  0  0  0  0  0
    0.1021    1.2781   -1.5289 C   0  0  0  0  0  0  0  0  0  0  0  0
    0.3177    1.1614   -2.5940 H   0  0  0  0  0  0  0  0  0  0  0  0
   -0.9288    1.6321   -1.4414 H   0  0  0  0  0  0  0  0  0  0  0  0
    0.9919    2.3753   -0.9566 C   0  0  0  0  0  0  0  0  0  0  0  0
    0.5940    3.0892   -0.0555 O   0  0  0  0  0  0  0  0  0  0  0  0
    2.2969    2.5234   -1.3258 N   0  0  0  0  0  0  0  0  0  0  0  0
    2.8477    3.0796   -0.6775 H   0  0  0  0  0  0  0  0  0  0  0  0
    2.7411    1.7296   -1.7759 H   0  0  0  0  0  0  0  0  0  0  0  0
    0.8127   -0.0003    0.6166 C   0  0  0  0  0  0  0  0  0  0  0  0
    2.0236   -0.0858    0.7780 O   0  0  0  0  0  0  0  0  0  0  0  0
    0.0011    0.3585    1.6772 N   0  0  0  0  0  0  0  0  0  0  0  0
   -0.9519    0.6223    1.4524 H   0  0  0  0  0  0  0  0  0  0  0  0
    0.5319    0.7209    2.9849 C   0  0  0  0  0  0  0  0  0  0  0  0
    1.1723    1.6058    2.9047 H   0  0  0  0  0  0  0  0  0  0  0  0
   -0.2860    0.9455    3.6759 H   0  0  0  0  0  0  0  0  0  0  0  0
    1.1189   -0.1041    3.4023 H   0  0  0  0  0  0  0  0  0  0  0  0
  1  2  1  0  0  0  0
  2  3  1  0  0  0  0
  2  4  1  0  0  0  0
  2  5  1  0  0  0  0
  5  6  2  0  0  0  0
  5  7  1  0  0  0  0
  7  8  1  0  0  0  0
  7  9  1  0  0  0  0
  9 10  1  0  0  0  0
  9 11  1  0  0  0  0
  9 19  1  0  0  0  0
 11 12  1  0  0  0  0
 11 13  1  0  0  0  0
 11 14  1  0  0  0  0
 14 15  2  0  0  0  0
 14 16  1  0  0  0  0
 16 17  1  0  0  0  0
 16 18  1  0  0  0  0
 19 20  2  0  0  0  0
 19 21  1  0  0  0  0
 21 22  1  0  0  0  0
 21 23  1  0  0  0  0
 23 24  1  0  0  0  0
 23 25  1  0  0  0  0
 23 26  1  0  0  0  0
M  END
$$$$

  -OEChem-03222214023D

 26 25  0     1  0  0  0  0  0999 V2000
   -2.6051   -3.7359   -0.2368 H   0  0  0  0  0  0  0  0  0  0  0  0
   -2.6402   -2.6883   -0.5496 C   0  0  0  0  0  0  0  0  0  0  0  0
   -3.2817   -2.1374    0.1422 H   0  0  0  0  0  0  0  0  0  0  0  0
   -3.0667   -2.6357   -1.5542 H   0  0  0  0  0  0  0  0  0  0  0  0
   -1.2432   -2.0965   -0.5463 C   0  0  0  0  0  0  0  0  0  0  0  0
   -0.2900   -2.7894   -0.2388 O   0  0  0  0  0  0  0  0  0  0  0  0
   -1.0539   -0.7783   -0.9153 N   0  0  0  0  0  0  0  0  0  0  0  0
   -1.8869   -0.2392   -1.1315 H   0  0  0  0  0  0  0  0  0  0  0  0
    0.2371   -0.0748   -0.8035 C   0  0  1  0  0  0  0  0  0  0  0  0
    0.9859   -0.6595   -1.3514 H   0  0  0  0  0  0  0  0  0  0  0  0
    0.0971    1.2839   -1.5318 C   0  0  0  0  0  0  0  0  0  0  0  0
    0.3272    1.1485   -2.5918 H   0  0  0  0  0  0  0  0  0  0  0  0
   -0.9377    1.6301   -1.4658 H   0  0  0  0  0  0  0  0  0  0  0  0
    0.9612    2.4089   -0.9719 C   0  0  0  0  0  0  0  0  0  0  0  0
    0.6716    2.9672    0.0693 O   0  0  0  0  0  0  0  0  0  0  0  0
    2.1671    2.7382   -1.5185 N   0  0  0  0  0  0  0  0  0  0  0  0
    2.7722    3.2719   -0.9000 H   0  0  0  0  0  0  0  0  0  0  0  0
    2.5884    2.0730   -2.1580 H   0  0  0  0  0  0  0  0  0  0  0  0
    0.7964    0.0062    0.6380 C   0  0  0  0  0  0  0  0  0  0  0  0
    2.0043   -0.1027    0.8072 O   0  0  0  0  0  0  0  0  0  0  0  0
   -0.0211    0.3477    1.7001 N   0  0  0  0  0  0  0  0  0  0  0  0
   -0.9592    0.6522    1.4659 H   0  0  0  0  0  0  0  0  0  0  0  0
    0.5118    0.7011    3.0093 C   0  0  0  0  0  0  0  0  0  0  0  0
    1.1183    1.6106    2.9405 H   0  0  0  0  0  0  0  0  0  0  0  0
   -0.3051    0.8793    3.7148 H   0  0  0  0  0  0  0  0  0  0  0  0
    1.1346   -0.1094    3.4023 H   0  0  0  0  0  0  0  0  0  0  0  0
  1  2  1  0  0  0  0
  2  3  1  0  0  0  0
  2  4  1  0  0  0  0
  2  5  1  0  0  0  0
  5  6  2  0  0  0  0
  5  7  1  0  0  0  0
  7  8  1  0  0  0  0
  7  9  1  0  0  0  0
  9 10  1  0  0  0  0
  9 11  1  0  0  0  0
  9 19  1  0  0  0  0
 11 12  1  0  0  0  0
 11 13  1  0  0  0  0
 11 14  1  0  0  0  0
 14 15  2  0  0  0  0
 14 16  1  0  0  0  0
 16 17  1  0  0  0  0
 16 18  1  0  0  0  0
 19 20  2  0  0  0  0
 19 21  1  0  0  0  0
 21 22  1  0  0  0  0
 21 23  1  0  0  0  0
 23 24  1  0  0  0  0
 23 25  1  0  0  0  0
 23 26  1  0  0  0  0
M  END
$$$$

  -OEChem-03222214023D

 26 25  0     1  0  0  0  0  0999 V2000
   -2.5959   -3.7264   -0.2312 H   0  0  0  0  0  0  0  0  0  0  0  0
   -2.6288   -2.6776   -0.5402 C   0  0  0  0  0  0  0  0  0  0  0  0
   -3.2608   -2.1258    0.1598 H   0  0  0  0  0  0  0  0  0  0  0  0
   -3.0649   -2.6193   -1.5404 H   0  0  0  0  0  0  0  0  0  0  0  0
   -1.2287   -2.0927   -0.5494 C   0  0  0  0  0  0  0  0  0  0  0  0
   -0.2753   -2.7954   -0.2662 O   0  0  0  0  0  0  0  0  0  0  0  0
   -1.0394   -0.7709   -0.9061 N   0  0  0  0  0  0  0  0  0  0  0  0
   -1.8758   -0.2250   -1.0877 H   0  0  0  0  0  0  0  0  0  0  0  0
    0.2498   -0.0663   -0.7753 C   0  0  1  0  0  0  0  0  0  0  0  0
    1.0070   -0.6510   -1.3118 H   0  0  0  0  0  0  0  0  0  0  0  0
    0.1167    1.2861   -1.5222 C   0  0  0  0  0  0  0  0  0  0  0  0
    0.3591    1.1286   -2.5763 H   0  0  0  0  0  0  0  0  0  0  0  0
   -0.9223    1.6226   -1.4772 H   0  0  0  0  0  0  0  0  0  0  0  0
    0.9523    2.4477   -0.9885 C   0  0  0  0  0  0  0  0  0  0  0  0
    0.8280    2.8733    0.1432 O   0  0  0  0  0  0  0  0  0  0  0  0
    1.9662    2.9983   -1.7175 N   0  0  0  0  0  0  0  0  0  0  0  0
    2.6154    3.5639   -1.1769 H   0  0  0  0  0  0  0  0  0  0  0  0
    2.3099    2.4829   -2.5206 H   0  0  0  0  0  0  0  0  0  0  0  0
    0.7875   -0.0003    0.6755 C   0  0  0  0  0  0  0  0  0  0  0  0
    1.9859   -0.1591    0.8703 O   0  0  0  0  0  0  0  0  0  0  0  0
   -0.0461    0.3297    1.7295 N   0  0  0  0  0  0  0  0  0  0  0  0
   -0.9691    0.6677    1.4832 H   0  0  0  0  0  0  0  0  0  0  0  0
    0.4681    0.6361    3.0579 C   0  0  0  0  0  0  0  0  0  0  0  0
    1.1079    1.5245    3.0227 H   0  0  0  0  0  0  0  0  0  0  0  0
   -0.3581    0.8289    3.7484 H   0  0  0  0  0  0  0  0  0  0  0  0
    1.0526   -0.2044    3.4466 H   0  0  0  0  0  0  0  0  0  0  0  0
  1  2  1  0  0  0  0
  2  3  1  0  0  0  0
  2  4  1  0  0  0  0
  2  5  1  0  0  0  0
  5  6  2  0  0  0  0
  5  7  1  0  0  0  0
  7  8  1  0  0  0  0
  7  9  1  0  0  0  0
  9 10  1  0  0  0  0
  9 11  1  0  0  0  0
  9 19  1  0  0  0  0
 11 12  1  0  0  0  0
 11 13  1  0  0  0  0
 11 14  1  0  0  0  0
 14 15  2  0  0  0  0
 14 16  1  0  0  0  0
 16 17  1  0  0  0  0
 16 18  1  0  0  0  0
 19 20  2  0  0  0  0
 19 21  1  0  0  0  0
 21 22  1  0  0  0  0
 21 23  1  0  0  0  0
 23 24  1  0  0  0  0
 23 25  1  0  0  0  0
 23 26  1  0  0  0  0
M  END
$$$$

  -OEChem-03222214023D

 26 25  0     1  0  0  0  0  0999 V2000
   -2.5983   -3.7042   -0.2325 H   0  0  0  0  0  0  0  0  0  0  0  0
   -2.6211   -2.6542   -0.5386 C   0  0  0  0  0  0  0  0  0  0  0  0
   -3.2489   -2.0984    0.1618 H   0  0  0  0  0  0  0  0  0  0  0  0
   -3.0546   -2.5894   -1.5395 H   0  0  0  0  0  0  0  0  0  0  0  0
   -1.2158   -2.0822   -0.5427 C   0  0  0  0  0  0  0  0  0  0  0  0
   -0.2696   -2.7968   -0.2660 O   0  0  0  0  0  0  0  0  0  0  0  0
   -1.0149   -0.7602   -0.8920 N   0  0  0  0  0  0  0  0  0  0  0  0
   -1.8478   -0.2072   -1.0682 H   0  0  0  0  0  0  0  0  0  0  0  0
    0.2775   -0.0633   -0.7453 C   0  0  1  0  0  0  0  0  0  0  0  0
    1.0401   -0.6495   -1.2726 H   0  0  0  0  0  0  0  0  0  0  0  0
    0.1498    1.2870   -1.5024 C   0  0  0  0  0  0  0  0  0  0  0  0
    0.4020    1.1113   -2.5514 H   0  0  0  0  0  0  0  0  0  0  0  0
   -0.8920    1.6159   -1.4728 H   0  0  0  0  0  0  0  0  0  0  0  0
    0.9647    2.4787   -0.9975 C   0  0  0  0  0  0  0  0  0  0  0  0
    1.0532    2.7920    0.1722 O   0  0  0  0  0  0  0  0  0  0  0  0
    1.7002    3.2457   -1.8544 N   0  0  0  0  0  0  0  0  0  0  0  0
    2.3765    3.8578   -1.4054 H   0  0  0  0  0  0  0  0  0  0  0  0
    1.8932    2.8832   -2.7817 H   0  0  0  0  0  0  0  0  0  0  0  0
    0.7904   -0.0127    0.7156 C   0  0  0  0  0  0  0  0  0  0  0  0
    1.9736   -0.2331    0.9398 O   0  0  0  0  0  0  0  0  0  0  0  0
   -0.0599    0.3156    1.7574 N   0  0  0  0  0  0  0  0  0  0  0  0
   -0.9716    0.6751    1.5011 H   0  0  0  0  0  0  0  0  0  0  0  0
    0.4271    0.5620    3.1082 C   0  0  0  0  0  0  0  0  0  0  0  0
    1.1052    1.4220    3.1172 H   0  0  0  0  0  0  0  0  0  0  0  0
   -0.4102    0.7714    3.7803 H   0  0  0  0  0  0  0  0  0  0  0  0
    0.9631   -0.3140    3.4884 H   0  0  0  0  0  0  0  0  0  0  0  0
  1  2  1  0  0  0  0
  2  3  1  0  0  0  0
  2  4  1  0  0  0  0
  2  5  1  0  0  0  0
  5  6  2  0  0  0  0
  5  7  1  0  0  0  0
  7  8  1  0  0  0  0
  7  9  1  0  0  0  0
  9 10  1  0  0  0  0
  9 11  1  0  0  0  0
  9 19  1  0  0  0  0
 11 12  1  0  0  0  0
 11 13  1  0  0  0  0
 11 14  1  0  0  0  0
 14 15  2  0  0  0  0
 14 16  1  0  0  0  0
 16 17  1  0  0  0  0
 16 18  1  0  0  0  0
 19 20  2  0  0  0  0
 19 21  1  0  0  0  0
 21 22  1  0  0  0  0
 21 23  1  0  0  0  0
 23 24  1  0  0  0  0
 23 25  1  0  0  0  0
 23 26  1  0  0  0  0
M  END
$$$$

  -OEChem-03222214023D

 26 25  0     1  0  0  0  0  0999 V2000
   -2.6092   -3.6762   -0.2373 H   0  0  0  0  0  0  0  0  0  0  0  0
   -2.6174   -2.6245   -0.5379 C   0  0  0  0  0  0  0  0  0  0  0  0
   -3.2449   -2.0653    0.1602 H   0  0  0  0  0  0  0  0  0  0  0  0
   -3.0416   -2.5496   -1.5419 H   0  0  0  0  0  0  0  0  0  0  0  0
   -1.2057   -2.0685   -0.5275 C   0  0  0  0  0  0  0  0  0  0  0  0
   -0.2716   -2.7944   -0.2406 O   0  0  0  0  0  0  0  0  0  0  0  0
   -0.9868   -0.7494   -0.8783 N   0  0  0  0  0  0  0  0  0  0  0  0
   -1.8118   -0.1897   -1.0689 H   0  0  0  0  0  0  0  0  0  0  0  0
    0.3125   -0.0650   -0.7260 C   0  0  1  0  0  0  0  0  0  0  0  0
    1.0769   -0.6522   -1.2495 H   0  0  0  0  0  0  0  0  0  0  0  0
    0.1819    1.2886   -1.4813 C   0  0  0  0  0  0  0  0  0  0  0  0
    0.4331    1.1069   -2.5295 H   0  0  0  0  0  0  0  0  0  0  0  0
   -0.8614    1.6121   -1.4508 H   0  0  0  0  0  0  0  0  0  0  0  0
    0.9876    2.4985   -1.0009 C   0  0  0  0  0  0  0  0  0  0  0  0
    1.3168    2.7086    0.1472 O   0  0  0  0  0  0  0  0  0  0  0  0
    1.4034    3.4506   -1.8868 N   0  0  0  0  0  0  0  0  0  0  0  0
    2.0914    4.1045   -1.5226 H   0  0  0  0  0  0  0  0  0  0  0  0
    1.3916    3.2329   -2.8773 H   0  0  0  0  0  0  0  0  0  0  0  0
    0.8045   -0.0237    0.7428 C   0  0  0  0  0  0  0  0  0  0  0  0
    1.9683   -0.3078    0.9947 O   0  0  0  0  0  0  0  0  0  0  0  0
   -0.0587    0.3129    1.7715 N   0  0  0  0  0  0  0  0  0  0  0  0
   -0.9627    0.6845    1.5067 H   0  0  0  0  0  0  0  0  0  0  0  0
    0.3972    0.4961    3.1433 C   0  0  0  0  0  0  0  0  0  0  0  0
    1.1117    1.3243    3.1994 H   0  0  0  0  0  0  0  0  0  0  0  0
   -0.4503    0.7216    3.7973 H   0  0  0  0  0  0  0  0  0  0  0  0
    0.8828   -0.4142    3.5108 H   0  0  0  0  0  0  0  0  0  0  0  0
  1  2  1  0  0  0  0
  2  3  1  0  0  0  0
  2  4  1  0  0  0  0
  2  5  1  0  0  0  0
  5  6  2  0  0  0  0
  5  7  1  0  0  0  0
  7  8  1  0  0  0  0
  7  9  1  0  0  0  0
  9 10  1  0  0  0  0
  9 11  1  0  0  0  0
  9 19  1  0  0  0  0
 11 12  1  0  0  0  0
 11 13  1  0  0  0  0
 11 14  1  0  0  0  0
 14 15  2  0  0  0  0
 14 16  1  0  0  0  0
 16 17  1  0  0  0  0
 16 18  1  0  0  0  0
 19 20  2  0  0  0  0
 19 21  1  0  0  0  0
 21 22  1  0  0  0  0
 21 23  1  0  0  0  0
 23 24  1  0  0  0  0
 23 25  1  0  0  0  0
 23 26  1  0  0  0  0
M  END
$$$$

  -OEChem-03222214023D

 26 25  0     1  0  0  0  0  0999 V2000
   -2.6159   -3.6461   -0.1984 H   0  0  0  0  0  0  0  0  0  0  0  0
   -2.6131   -2.6030   -0.5283 C   0  0  0  0  0  0  0  0  0  0  0  0
   -3.2478   -2.0211    0.1441 H   0  0  0  0  0  0  0  0  0  0  0  0
   -3.0214   -2.5537   -1.5405 H   0  0  0  0  0  0  0  0  0  0  0  0
   -1.1978   -2.0559   -0.5115 C   0  0  0  0  0  0  0  0  0  0  0  0
   -0.2713   -2.7880   -0.2164 O   0  0  0  0  0  0  0  0  0  0  0  0
   -0.9677   -0.7401   -0.8689 N   0  0  0  0  0  0  0  0  0  0  0  0
   -1.7864   -0.1792   -1.0800 H   0  0  0  0  0  0  0  0  0  0  0  0
    0.3380   -0.0639   -0.7228 C   0  0  1  0  0  0  0  0  0  0  0  0
    1.1021   -0.6479   -1.2502 H   0  0  0  0  0  0  0  0  0  0  0  0
    0.1958    1.2974   -1.4651 C   0  0  0  0  0  0  0  0  0  0  0  0
    0.4334    1.1234   -2.5177 H   0  0  0  0  0  0  0  0  0  0  0  0
   -0.8482    1.6168   -1.4163 H   0  0  0  0  0  0  0  0  0  0  0  0
    1.0022    2.5128   -0.9970 C   0  0  0  0  0  0  0  0  0  0  0  0
    1.5746    2.6231    0.0652 O   0  0  0  0  0  0  0  0  0  0  0  0
    1.1254    3.6054   -1.8062 N   0  0  0  0  0  0  0  0  0  0  0  0
    1.8219    4.2839   -1.5087 H   0  0  0  0  0  0  0  0  0  0  0  0
    0.9019    3.5116   -2.7908 H   0  0  0  0  0  0  0  0  0  0  0  0
    0.8211   -0.0258    0.7497 C   0  0  0  0  0  0  0  0  0  0  0  0
    1.9680   -0.3567    1.0194 O   0  0  0  0  0  0  0  0  0  0  0  0
   -0.0481    0.3200    1.7705 N   0  0  0  0  0  0  0  0  0  0  0  0
   -0.9567    0.6782    1.5042 H   0  0  0  0  0  0  0  0  0  0  0  0
    0.3806    0.4450    3.1574 C   0  0  0  0  0  0  0  0  0  0  0  0
    1.1538    1.2153    3.2496 H   0  0  0  0  0  0  0  0  0  0  0  0
   -0.4657    0.7235    3.7924 H   0  0  0  0  0  0  0  0  0  0  0  0
    0.7853   -0.5060    3.5197 H   0  0  0  0  0  0  0  0  0  0  0  0
  1  2  1  0  0  0  0
  2  3  1  0  0  0  0
  2  4  1  0  0  0  0
  2  5  1  0  0  0  0
  5  6  2  0  0  0  0
  5  7  1  0  0  0  0
  7  8  1  0  0  0  0
  7  9  1  0  0  0  0
  9 10  1  0  0  0  0
  9 11  1  0  0  0  0
  9 19  1  0  0  0  0
 11 12  1  0  0  0  0
 11 13  1  0  0  0  0
 11 14  1  0  0  0  0
 14 15  2  0  0  0  0
 14 16  1  0  0  0  0
 16 17  1  0  0  0  0
 16 18  1  0  0  0  0
 19 20  2  0  0  0  0
 19 21  1  0  0  0  0
 21 22  1  0  0  0  0
 21 23  1  0  0  0  0
 23 24  1  0  0  0  0
 23 25  1  0  0  0  0
 23 26  1  0  0  0  0
M  END
$$$$

  -OEChem-03222214023D

 26 25  0     1  0  0  0  0  0999 V2000
   -2.6263   -3.6296   -0.1862 H   0  0  0  0  0  0  0  0  0  0  0  0
   -2.6142   -2.5887   -0.5225 C   0  0  0  0  0  0  0  0  0  0  0  0
   -3.2574   -2.0004    0.1361 H   0  0  0  0  0  0  0  0  0  0  0  0
   -3.0060   -2.5446   -1.5415 H   0  0  0  0  0  0  0  0  0  0  0  0
   -1.1975   -2.0466   -0.4861 C   0  0  0  0  0  0  0  0  0  0  0  0
   -0.2806   -2.7780   -0.1615 O   0  0  0  0  0  0  0  0  0  0  0  0
   -0.9559   -0.7365   -0.8569 N   0  0  0  0  0  0  0  0  0  0  0  0
   -1.7649   -0.1814   -1.1150 H   0  0  0  0  0  0  0  0  0  0  0  0
    0.3558   -0.0675   -0.7269 C   0  0  1  0  0  0  0  0  0  0  0  0
    1.1173   -0.6472   -1.2622 H   0  0  0  0  0  0  0  0  0  0  0  0
    0.1958    1.3011   -1.4517 C   0  0  0  0  0  0  0  0  0  0  0  0
    0.4100    1.1417   -2.5117 H   0  0  0  0  0  0  0  0  0  0  0  0
   -0.8472    1.6181   -1.3733 H   0  0  0  0  0  0  0  0  0  0  0  0
    1.0125    2.5105   -0.9878 C   0  0  0  0  0  0  0  0  0  0  0  0
    1.8092    2.5294   -0.0759 O   0  0  0  0  0  0  0  0  0  0  0  0
    0.8854    3.7072   -1.6322 N   0  0  0  0  0  0  0  0  0  0  0  0
    1.5871    4.4021   -1.3898 H   0  0  0  0  0  0  0  0  0  0  0  0
    0.4506    3.7267   -2.5479 H   0  0  0  0  0  0  0  0  0  0  0  0
    0.8396   -0.0239    0.7458 C   0  0  0  0  0  0  0  0  0  0  0  0
    1.9758   -0.3807    1.0264 O   0  0  0  0  0  0  0  0  0  0  0  0
   -0.0297    0.3358    1.7619 N   0  0  0  0  0  0  0  0  0  0  0  0
   -0.9549    0.6507    1.4976 H   0  0  0  0  0  0  0  0  0  0  0  0
    0.3789    0.4203    3.1579 C   0  0  0  0  0  0  0  0  0  0  0  0
    1.1799    1.1580    3.2763 H   0  0  0  0  0  0  0  0  0  0  0  0
   -0.4665    0.7221    3.7832 H   0  0  0  0  0  0  0  0  0  0  0  0
    0.7402   -0.5517    3.5100 H   0  0  0  0  0  0  0  0  0  0  0  0
  1  2  1  0  0  0  0
  2  3  1  0  0  0  0
  2  4  1  0  0  0  0
  2  5  1  0  0  0  0
  5  6  2  0  0  0  0
  5  7  1  0  0  0  0
  7  8  1  0  0  0  0
  7  9  1  0  0  0  0
  9 10  1  0  0  0  0
  9 11  1  0  0  0  0
  9 19  1  0  0  0  0
 11 12  1  0  0  0  0
 11 13  1  0  0  0  0
 11 14  1  0  0  0  0
 14 15  2  0  0  0  0
 14 16  1  0  0  0  0
 16 17  1  0  0  0  0
 16 18  1  0  0  0  0
 19 20  2  0  0  0  0
 19 21  1  0  0  0  0
 21 22  1  0  0  0  0
 21 23  1  0  0  0  0
 23 24  1  0  0  0  0
 23 25  1  0  0  0  0
 23 26  1  0  0  0  0
M  END
$$$$

  -OEChem-03222214023D

 26 25  0     1  0  0  0  0  0999 V2000
   -2.6346   -3.6248   -0.1913 H   0  0  0  0  0  0  0  0  0  0  0  0
   -2.6148   -2.5836   -0.5262 C   0  0  0  0  0  0  0  0  0  0  0  0
   -3.2906   -2.0000    0.1034 H   0  0  0  0  0  0  0  0  0  0  0  0
   -2.9615   -2.5419   -1.5616 H   0  0  0  0  0  0  0  0  0  0  0  0
   -1.2051   -2.0310   -0.4272 C   0  0  0  0  0  0  0  0  0  0  0  0
   -0.3064   -2.7430   -0.0207 O   0  0  0  0  0  0  0  0  0  0  0  0
   -0.9521   -0.7317   -0.8269 N   0  0  0  0  0  0  0  0  0  0  0  0
   -1.7378   -0.2093   -1.1999 H   0  0  0  0  0  0  0  0  0  0  0  0
    0.3650   -0.0661   -0.7294 C   0  0  1  0  0  0  0  0  0  0  0  0
    1.1204   -0.6474   -1.2717 H   0  0  0  0  0  0  0  0  0  0  0  0
    0.1825    1.3029   -1.4467 C   0  0  0  0  0  0  0  0  0  0  0  0
    0.3667    1.1531   -2.5137 H   0  0  0  0  0  0  0  0  0  0  0  0
   -0.8573    1.6201   -1.3345 H   0  0  0  0  0  0  0  0  0  0  0  0
    1.0193    2.5009   -0.9922 C   0  0  0  0  0  0  0  0  0  0  0  0
    2.0049    2.4483   -0.2907 O   0  0  0  0  0  0  0  0  0  0  0  0
    0.6951    3.7622   -1.4028 N   0  0  0  0  0  0  0  0  0  0  0  0
    1.3978    4.4719   -1.2121 H   0  0  0  0  0  0  0  0  0  0  0  0
    0.0567    3.8781   -2.1818 H   0  0  0  0  0  0  0  0  0  0  0  0
    0.8630    0.0032    0.7384 C   0  0  0  0  0  0  0  0  0  0  0  0
    1.9969   -0.3577    1.0218 O   0  0  0  0  0  0  0  0  0  0  0  0
    0.0017    0.3876    1.7524 N   0  0  0  0  0  0  0  0  0  0  0  0
   -0.9568    0.5949    1.4996 H   0  0  0  0  0  0  0  0  0  0  0  0
    0.3867    0.3952    3.1577 C   0  0  0  0  0  0  0  0  0  0  0  0
    1.2310    1.0741    3.3176 H   0  0  0  0  0  0  0  0  0  0  0  0
   -0.4490    0.7306    3.7789 H   0  0  0  0  0  0  0  0  0  0  0  0
    0.6775   -0.6105    3.4794 H   0  0  0  0  0  0  0  0  0  0  0  0
  1  2  1  0  0  0  0
  2  3  1  0  0  0  0
  2  4  1  0  0  0  0
  2  5  1  0  0  0  0
  5  6  2  0  0  0  0
  5  7  1  0  0  0  0
  7  8  1  0  0  0  0
  7  9  1  0  0  0  0
  9 10  1  0  0  0  0
  9 11  1  0  0  0  0
  9 19  1  0  0  0  0
 11 12  1  0  0  0  0
 11 13  1  0  0  0  0
 11 14  1  0  0  0  0
 14 15  2  0  0  0  0
 14 16  1  0  0  0  0
 16 17  1  0  0  0  0
 16 18  1  0  0  0  0
 19 20  2  0  0  0  0
 19 21  1  0  0  0  0
 21 22  1  0  0  0  0
 21 23  1  0  0  0  0
 23 24  1  0  0  0  0
 23 25  1  0  0  0  0
 23 26  1  0  0  0  0
M  END
$$$$

  -OEChem-03222214023D

 26 25  0     1  0  0  0  0  0999 V2000
   -2.6302   -3.6408   -0.1898 H   0  0  0  0  0  0  0  0  0  0  0  0
   -2.6131   -2.6041   -0.5387 C   0  0  0  0  0  0  0  0  0  0  0  0
   -3.3297   -2.0247    0.0481 H   0  0  0  0  0  0  0  0  0  0  0  0
   -2.9087   -2.5837   -1.5903 H   0  0  0  0  0  0  0  0  0  0  0  0
   -1.2202   -2.0238   -0.3785 C   0  0  0  0  0  0  0  0  0  0  0  0
   -0.3367   -2.7071    0.1033 O   0  0  0  0  0  0  0  0  0  0  0  0
   -0.9661   -0.7330   -0.8051 N   0  0  0  0  0  0  0  0  0  0  0  0
   -1.7253   -0.2567   -1.2811 H   0  0  0  0  0  0  0  0  0  0  0  0
    0.3546   -0.0699   -0.7379 C   0  0  1  0  0  0  0  0  0  0  0  0
    1.1035   -0.6514   -1.2888 H   0  0  0  0  0  0  0  0  0  0  0  0
    0.1580    1.3013   -1.4446 C   0  0  0  0  0  0  0  0  0  0  0  0
    0.3180    1.1646   -2.5172 H   0  0  0  0  0  0  0  0  0  0  0  0
   -0.8769    1.6238   -1.3044 H   0  0  0  0  0  0  0  0  0  0  0  0
    1.0240    2.4746   -0.9845 C   0  0  0  0  0  0  0  0  0  0  0  0
    2.1431    2.3658   -0.5341 O   0  0  0  0  0  0  0  0  0  0  0  0
    0.5804    3.7613   -1.0977 N   0  0  0  0  0  0  0  0  0  0  0  0
    1.2819    4.4791   -0.9357 H   0  0  0  0  0  0  0  0  0  0  0  0
   -0.2260    3.9595   -1.6789 H   0  0  0  0  0  0  0  0  0  0  0  0
    0.8713    0.0236    0.7226 C   0  0  0  0  0  0  0  0  0  0  0  0
    2.0115   -0.3196    1.0006 O   0  0  0  0  0  0  0  0  0  0  0  0
    0.0197    0.4291    1.7364 N   0  0  0  0  0  0  0  0  0  0  0  0
   -0.9554    0.5582    1.4942 H   0  0  0  0  0  0  0  0  0  0  0  0
    0.4029    0.4087    3.1422 C   0  0  0  0  0  0  0  0  0  0  0  0
    1.2748    1.0501    3.3093 H   0  0  0  0  0  0  0  0  0  0  0  0
   -0.4187    0.7746    3.7651 H   0  0  0  0  0  0  0  0  0  0  0  0
    0.6505   -0.6111    3.4557 H   0  0  0  0  0  0  0  0  0  0  0  0
  1  2  1  0  0  0  0
  2  3  1  0  0  0  0
  2  4  1  0  0  0  0
  2  5  1  0  0  0  0
  5  6  2  0  0  0  0
  5  7  1  0  0  0  0
  7  8  1  0  0  0  0
  7  9  1  0  0  0  0
  9 10  1  0  0  0  0
  9 11  1  0  0  0  0
  9 19  1  0  0  0  0
 11 12  1  0  0  0  0
 11 13  1  0  0  0  0
 11 14  1  0  0  0  0
 14 15  2  0  0  0  0
 14 16  1  0  0  0  0
 16 17  1  0  0  0  0
 16 18  1  0  0  0  0
 19 20  2  0  0  0  0
 19 21  1  0  0  0  0
 21 22  1  0  0  0  0
 21 23  1  0  0  0  0
 23 24  1  0  0  0  0
 23 25  1  0  0  0  0
 23 26  1  0  0  0  0
M  END
$$$$

  -OEChem-03222214023D

 26 25  0     1  0  0  0  0  0999 V2000
   -2.6260   -3.6657   -0.1963 H   0  0  0  0  0  0  0  0  0  0  0  0
   -2.6137   -2.6329   -0.5566 C   0  0  0  0  0  0  0  0  0  0  0  0
   -3.3571   -2.0578    0.0004 H   0  0  0  0  0  0  0  0  0  0  0  0
   -2.8774   -2.6289   -1.6169 H   0  0  0  0  0  0  0  0  0  0  0  0
   -1.2352   -2.0297   -0.3606 C   0  0  0  0  0  0  0  0  0  0  0  0
   -0.3617   -2.6881    0.1714 O   0  0  0  0  0  0  0  0  0  0  0  0
   -0.9844   -0.7441   -0.8048 N   0  0  0  0  0  0  0  0  0  0  0  0
   -1.7252   -0.3018   -1.3392 H   0  0  0  0  0  0  0  0  0  0  0  0
    0.3370   -0.0813   -0.7530 C   0  0  1  0  0  0  0  0  0  0  0  0
    1.0819   -0.6645   -1.3077 H   0  0  0  0  0  0  0  0  0  0  0  0
    0.1388    1.2920   -1.4509 C   0  0  0  0  0  0  0  0  0  0  0  0
    0.2934    1.1666   -2.5256 H   0  0  0  0  0  0  0  0  0  0  0  0
   -0.8923    1.6225   -1.3023 H   0  0  0  0  0  0  0  0  0  0  0  0
    1.0310    2.4361   -0.9719 C   0  0  0  0  0  0  0  0  0  0  0  0
    2.2220    2.3129   -0.7845 O   0  0  0  0  0  0  0  0  0  0  0  0
    0.5324    3.6859   -0.7365 N   0  0  0  0  0  0  0  0  0  0  0  0
    1.2243    4.4104   -0.5629 H   0  0  0  0  0  0  0  0  0  0  0  0
   -0.3914    3.9300   -1.0741 H   0  0  0  0  0  0  0  0  0  0  0  0
    0.8660    0.0315    0.7017 C   0  0  0  0  0  0  0  0  0  0  0  0
    2.0214   -0.2632    0.9705 O   0  0  0  0  0  0  0  0  0  0  0  0
    0.0202    0.4507    1.7146 N   0  0  0  0  0  0  0  0  0  0  0  0
   -0.9648    0.5155    1.4863 H   0  0  0  0  0  0  0  0  0  0  0  0
    0.4199    0.4636    3.1160 C   0  0  0  0  0  0  0  0  0  0  0  0
    1.2979    1.1030    3.2571 H   0  0  0  0  0  0  0  0  0  0  0  0
   -0.3918    0.8513    3.7386 H   0  0  0  0  0  0  0  0  0  0  0  0
    0.6648   -0.5493    3.4529 H   0  0  0  0  0  0  0  0  0  0  0  0
  1  2  1  0  0  0  0
  2  3  1  0  0  0  0
  2  4  1  0  0  0  0
  2  5  1  0  0  0  0
  5  6  2  0  0  0  0
  5  7  1  0  0  0  0
  7  8  1  0  0  0  0
  7  9  1  0  0  0  0
  9 10  1  0  0  0  0
  9 11  1  0  0  0  0
  9 19  1  0  0  0  0
 11 12  1  0  0  0  0
 11 13  1  0  0  0  0
 11 14  1  0  0  0  0
 14 15  2  0  0  0  0
 14 16  1  0  0  0  0
 16 17  1  0  0  0  0
 16 18  1  0  0  0  0
 19 20  2  0  0  0  0
 19 21  1  0  0  0  0
 21 22  1  0  0  0  0
 21 23  1  0  0  0  0
 23 24  1  0  0  0  0
 23 25  1  0  0  0  0
 23 26  1  0  0  0  0
M  END
$$$$

  -OEChem-03222214023D

 26 25  0     1  0  0  0  0  0999 V2000
   -2.6164   -3.6814   -0.1874 H   0  0  0  0  0  0  0  0  0  0  0  0
   -2.6094   -2.6596   -0.5781 C   0  0  0  0  0  0  0  0  0  0  0  0
   -3.3934   -2.0863   -0.0777 H   0  0  0  0  0  0  0  0  0  0  0  0
   -2.8184   -2.6937   -1.6500 H   0  0  0  0  0  0  0  0  0  0  0  0
   -1.2571   -2.0165   -0.3319 C   0  0  0  0  0  0  0  0  0  0  0  0
   -0.4056   -2.6252    0.2880 O   0  0  0  0  0  0  0  0  0  0  0  0
   -1.0086   -0.7451   -0.8168 N   0  0  0  0  0  0  0  0  0  0  0  0
   -1.7184   -0.3625   -1.4340 H   0  0  0  0  0  0  0  0  0  0  0  0
    0.3140   -0.0831   -0.7911 C   0  0  1  0  0  0  0  0  0  0  0  0
    1.0561   -0.6784   -1.3367 H   0  0  0  0  0  0  0  0  0  0  0  0
    0.1177    1.2781   -1.5075 C   0  0  0  0  0  0  0  0  0  0  0  0
    0.2701    1.1399   -2.5813 H   0  0  0  0  0  0  0  0  0  0  0  0
   -0.9094    1.6234   -1.3643 H   0  0  0  0  0  0  0  0  0  0  0  0
    1.0330    2.4053   -1.0370 C   0  0  0  0  0  0  0  0  0  0  0  0
    2.2406    2.3258   -1.1155 O   0  0  0  0  0  0  0  0  0  0  0  0
    0.5542    3.5215   -0.4126 N   0  0  0  0  0  0  0  0  0  0  0  0
    1.2620    4.0755    0.0626 H   0  0  0  0  0  0  0  0  0  0  0  0
   -0.3936    3.5085   -0.0548 H   0  0  0  0  0  0  0  0  0  0  0  0
    0.8512    0.0733    0.6564 C   0  0  0  0  0  0  0  0  0  0  0  0
    2.0293   -0.1245    0.9118 O   0  0  0  0  0  0  0  0  0  0  0  0
    0.0061    0.5239    1.6567 N   0  0  0  0  0  0  0  0  0  0  0  0
   -0.9857    0.4645    1.4540 H   0  0  0  0  0  0  0  0  0  0  0  0
    0.4250    0.5982    3.0512 C   0  0  0  0  0  0  0  0  0  0  0  0
    1.3006    1.2480    3.1543 H   0  0  0  0  0  0  0  0  0  0  0  0
   -0.3808    1.0072    3.6679 H   0  0  0  0  0  0  0  0  0  0  0  0
    0.6808   -0.3984    3.4266 H   0  0  0  0  0  0  0  0  0  0  0  0
  1  2  1  0  0  0  0
  2  3  1  0  0  0  0
  2  4  1  0  0  0  0
  2  5  1  0  0  0  0
  5  6  2  0  0  0  0
  5  7  1  0  0  0  0
  7  8  1  0  0  0  0
  7  9  1  0  0  0  0
  9 10  1  0  0  0  0
  9 11  1  0  0  0  0
  9 19  1  0  0  0  0
 11 12  1  0  0  0  0
 11 13  1  0  0  0  0
 11 14  1  0  0  0  0
 14 15  2  0  0  0  0
 14 16  1  0  0  0  0
 16 17  1  0  0  0  0
 16 18  1  0  0  0  0
 19 20  2  0  0  0  0
 19 21  1  0  0  0  0
 21 22  1  0  0  0  0
 21 23  1  0  0  0  0
 23 24  1  0  0  0  0
 23 25  1  0  0  0  0
 23 26  1  0  0  0  0
M  END
$$$$

  -OEChem-03222214023D

 26 25  0     1  0  0  0  0  0999 V2000
   -2.5999   -3.7053   -0.2119 H   0  0  0  0  0  0  0  0  0  0  0  0
   -2.6054   -2.6812   -0.5967 C   0  0  0  0  0  0  0  0  0  0  0  0
   -3.4024   -2.1231   -0.0994 H   0  0  0  0  0  0  0  0  0  0  0  0
   -2.8051   -2.7125   -1.6706 H   0  0  0  0  0  0  0  0  0  0  0  0
   -1.2656   -2.0186   -0.3349 C   0  0  0  0  0  0  0  0  0  0  0  0
   -0.4144   -2.6110    0.3012 O   0  0  0  0  0  0  0  0  0  0  0  0
   -1.0286   -0.7440   -0.8166 N   0  0  0  0  0  0  0  0  0  0  0  0
   -1.7359   -0.3726   -1.4440 H   0  0  0  0  0  0  0  0  0  0  0  0
    0.2896   -0.0741   -0.7925 C   0  0  1  0  0  0  0  0  0  0  0  0
    1.0320   -0.6656   -1.3417 H   0  0  0  0  0  0  0  0  0  0  0  0
    0.0967    1.2904   -1.4998 C   0  0  0  0  0  0  0  0  0  0  0  0
    0.2501    1.1600   -2.5746 H   0  0  0  0  0  0  0  0  0  0  0  0
   -0.9279    1.6423   -1.3554 H   0  0  0  0  0  0  0  0  0  0  0  0
    1.0199    2.4029   -1.0125 C   0  0  0  0  0  0  0  0  0  0  0  0
    2.1913    2.4328   -1.3279 O   0  0  0  0  0  0  0  0  0  0  0  0
    0.6174    3.3521   -0.1172 N   0  0  0  0  0  0  0  0  0  0  0  0
    1.3847    3.8570    0.3188 H   0  0  0  0  0  0  0  0  0  0  0  0
   -0.2161    3.1626    0.4272 H   0  0  0  0  0  0  0  0  0  0  0  0
    0.8311    0.0810    0.6527 C   0  0  0  0  0  0  0  0  0  0  0  0
    2.0251   -0.0291    0.8853 O   0  0  0  0  0  0  0  0  0  0  0  0
   -0.0159    0.5224    1.6556 N   0  0  0  0  0  0  0  0  0  0  0  0
   -1.0060    0.3964    1.4737 H   0  0  0  0  0  0  0  0  0  0  0  0
    0.4205    0.6344    3.0422 C   0  0  0  0  0  0  0  0  0  0  0  0
    1.2687    1.3225    3.1232 H   0  0  0  0  0  0  0  0  0  0  0  0
   -0.3929    1.0168    3.6660 H   0  0  0  0  0  0  0  0  0  0  0  0
    0.7245   -0.3450    3.4271 H   0  0  0  0  0  0  0  0  0  0  0  0
  1  2  1  0  0  0  0
  2  3  1  0  0  0  0
  2  4  1  0  0  0  0
  2  5  1  0  0  0  0
  5  6  2  0  0  0  0
  5  7  1  0  0  0  0
  7  8  1  0  0  0  0
  7  9  1  0  0  0  0
  9 10  1  0  0  0  0
  9 11  1  0  0  0  0
  9 19  1  0  0  0  0
 11 12  1  0  0  0  0
 11 13  1  0  0  0  0
 11 14  1  0  0  0  0
 14 15  2  0  0  0  0
 14 16  1  0  0  0  0
 16 17  1  0  0  0  0
 16 18  1  0  0  0  0
 19 20  2  0  0  0  0
 19 21  1  0  0  0  0
 21 22  1  0  0  0  0
 21 23  1  0  0  0  0
 23 24  1  0  0  0  0
 23 25  1  0  0  0  0
 23 26  1  0  0  0  0
M  END
$$$$

  -OEChem-03222214023D

 26 25  0     1  0  0  0  0  0999 V2000
   -2.6014   -3.7190   -0.2425 H   0  0  0  0  0  0  0  0  0  0  0  0
   -2.6108   -2.6915   -0.6178 C   0  0  0  0  0  0  0  0  0  0  0  0
   -3.4158   -2.1437   -0.1223 H   0  0  0  0  0  0  0  0  0  0  0  0
   -2.8018   -2.7142   -1.6935 H   0  0  0  0  0  0  0  0  0  0  0  0
   -1.2774   -2.0226   -0.3393 C   0  0  0  0  0  0  0  0  0  0  0  0
   -0.4274   -2.6131    0.3007 O   0  0  0  0  0  0  0  0  0  0  0  0
   -1.0425   -0.7428   -0.8081 N   0  0  0  0  0  0  0  0  0  0  0  0
   -1.7475   -0.3680   -1.4365 H   0  0  0  0  0  0  0  0  0  0  0  0
    0.2756   -0.0735   -0.7776 C   0  0  1  0  0  0  0  0  0  0  0  0
    1.0154   -0.6652   -1.3304 H   0  0  0  0  0  0  0  0  0  0  0  0
    0.0951    1.2959   -1.4784 C   0  0  0  0  0  0  0  0  0  0  0  0
    0.2508    1.1686   -2.5535 H   0  0  0  0  0  0  0  0  0  0  0  0
   -0.9274    1.6544   -1.3358 H   0  0  0  0  0  0  0  0  0  0  0  0
    1.0205    2.4038   -0.9827 C   0  0  0  0  0  0  0  0  0  0  0  0
    2.1059    2.5869   -1.4950 O   0  0  0  0  0  0  0  0  0  0  0  0
    0.7120    3.2074    0.0777 N   0  0  0  0  0  0  0  0  0  0  0  0
    1.5101    3.7240    0.4378 H   0  0  0  0  0  0  0  0  0  0  0  0
    0.0298    2.8523    0.7391 H   0  0  0  0  0  0  0  0  0  0  0  0
    0.8198    0.0673    0.6670 C   0  0  0  0  0  0  0  0  0  0  0  0
    2.0210    0.0148    0.8818 O   0  0  0  0  0  0  0  0  0  0  0  0
   -0.0265    0.4982    1.6753 N   0  0  0  0  0  0  0  0  0  0  0  0
   -1.0142    0.3349    1.5072 H   0  0  0  0  0  0  0  0  0  0  0  0
    0.4219    0.6242    3.0574 C   0  0  0  0  0  0  0  0  0  0  0  0
    1.2532    1.3338    3.1293 H   0  0  0  0  0  0  0  0  0  0  0  0
   -0.3946    0.9872    3.6888 H   0  0  0  0  0  0  0  0  0  0  0  0
    0.7548   -0.3462    3.4413 H   0  0  0  0  0  0  0  0  0  0  0  0
  1  2  1  0  0  0  0
  2  3  1  0  0  0  0
  2  4  1  0  0  0  0
  2  5  1  0  0  0  0
  5  6  2  0  0  0  0
  5  7  1  0  0  0  0
  7  8  1  0  0  0  0
  7  9  1  0  0  0  0
  9 10  1  0  0  0  0
  9 11  1  0  0  0  0
  9 19  1  0  0  0  0
 11 12  1  0  0  0  0
 11 13  1  0  0  0  0
 11 14  1  0  0  0  0
 14 15  2  0  0  0  0
 14 16  1  0  0  0  0
 16 17  1  0  0  0  0
 16 18  1  0  0  0  0
 19 20  2  0  0  0  0
 19 21  1  0  0  0  0
 21 22  1  0  0  0  0
 21 23  1  0  0  0  0
 23 24  1  0  0  0  0
 23 25  1  0  0  0  0
 23 26  1  0  0  0  0
M  END
$$$$

  -OEChem-03222214023D

 26 25  0     1  0  0  0  0  0999 V2000
   -2.6324   -3.7099   -0.2511 H   0  0  0  0  0  0  0  0  0  0  0  0
   -2.6275   -2.6843   -0.6315 C   0  0  0  0  0  0  0  0  0  0  0  0
   -3.4283   -2.1242   -0.1427 H   0  0  0  0  0  0  0  0  0  0  0  0
   -2.8132   -2.7095   -1.7080 H   0  0  0  0  0  0  0  0  0  0  0  0
   -1.2878   -2.0299   -0.3497 C   0  0  0  0  0  0  0  0  0  0  0  0
   -0.4405   -2.6336    0.2818 O   0  0  0  0  0  0  0  0  0  0  0  0
   -1.0436   -0.7459   -0.8013 N   0  0  0  0  0  0  0  0  0  0  0  0
   -1.7475   -0.3547   -1.4209 H   0  0  0  0  0  0  0  0  0  0  0  0
    0.2779   -0.0851   -0.7583 C   0  0  1  0  0  0  0  0  0  0  0  0
    1.0135   -0.6811   -1.3120 H   0  0  0  0  0  0  0  0  0  0  0  0
    0.1163    1.2878   -1.4577 C   0  0  0  0  0  0  0  0  0  0  0  0
    0.2753    1.1589   -2.5323 H   0  0  0  0  0  0  0  0  0  0  0  0
   -0.9044    1.6538   -1.3205 H   0  0  0  0  0  0  0  0  0  0  0  0
    1.0412    2.3962   -0.9583 C   0  0  0  0  0  0  0  0  0  0  0  0
    1.9968    2.7518   -1.6185 O   0  0  0  0  0  0  0  0  0  0  0  0
    0.8180    3.0905    0.1967 N   0  0  0  0  0  0  0  0  0  0  0  0
    1.6093    3.6606    0.4828 H   0  0  0  0  0  0  0  0  0  0  0  0
    0.2877    2.6110    0.9182 H   0  0  0  0  0  0  0  0  0  0  0  0
    0.8219    0.0359    0.6869 C   0  0  0  0  0  0  0  0  0  0  0  0
    2.0260    0.0109    0.8909 O   0  0  0  0  0  0  0  0  0  0  0  0
   -0.0210    0.4597    1.7013 N   0  0  0  0  0  0  0  0  0  0  0  0
   -1.0093    0.2915    1.5381 H   0  0  0  0  0  0  0  0  0  0  0  0
    0.4335    0.5791    3.0822 C   0  0  0  0  0  0  0  0  0  0  0  0
    1.2621    1.2916    3.1546 H   0  0  0  0  0  0  0  0  0  0  0  0
   -0.3814    0.9346    3.7200 H   0  0  0  0  0  0  0  0  0  0  0  0
    0.7724   -0.3923    3.4582 H   0  0  0  0  0  0  0  0  0  0  0  0
  1  2  1  0  0  0  0
  2  3  1  0  0  0  0
  2  4  1  0  0  0  0
  2  5  1  0  0  0  0
  5  6  2  0  0  0  0
  5  7  1  0  0  0  0
  7  8  1  0  0  0  0
  7  9  1  0  0  0  0
  9 10  1  0  0  0  0
  9 11  1  0  0  0  0
  9 19  1  0  0  0  0
 11 12  1  0  0  0  0
 11 13  1  0  0  0  0
 11 14  1  0  0  0  0
 14 15  2  0  0  0  0
 14 16  1  0  0  0  0
 16 17  1  0  0  0  0
 16 18  1  0  0  0  0
 19 20  2  0  0  0  0
 19 21  1  0  0  0  0
 21 22  1  0  0  0  0
 21 23  1  0  0  0  0
 23 24  1  0  0  0  0
 23 25  1  0  0  0  0
 23 26  1  0  0  0  0
M  END
$$$$

  -OEChem-03222214023D

 26 25  0     1  0  0  0  0  0999 V2000
   -2.6617   -3.7034   -0.2796 H   0  0  0  0  0  0  0  0  0  0  0  0
   -2.6494   -2.6703   -0.6394 C   0  0  0  0  0  0  0  0  0  0  0  0
   -3.4381   -2.1113   -0.1304 H   0  0  0  0  0  0  0  0  0  0  0  0
   -2.8476   -2.6722   -1.7141 H   0  0  0  0  0  0  0  0  0  0  0  0
   -1.2992   -2.0364   -0.3599 C   0  0  0  0  0  0  0  0  0  0  0  0
   -0.4535   -2.6587    0.2560 O   0  0  0  0  0  0  0  0  0  0  0  0
   -1.0410   -0.7496   -0.7954 N   0  0  0  0  0  0  0  0  0  0  0  0
   -1.7462   -0.3344   -1.3982 H   0  0  0  0  0  0  0  0  0  0  0  0
    0.2869   -0.1034   -0.7411 C   0  0  1  0  0  0  0  0  0  0  0  0
    1.0148   -0.7095   -1.2937 H   0  0  0  0  0  0  0  0  0  0  0  0
    0.1523    1.2703   -1.4468 C   0  0  0  0  0  0  0  0  0  0  0  0
    0.3166    1.1309   -2.5193 H   0  0  0  0  0  0  0  0  0  0  0  0
   -0.8657    1.6470   -1.3185 H   0  0  0  0  0  0  0  0  0  0  0  0
    1.0783    2.3828   -0.9535 C   0  0  0  0  0  0  0  0  0  0  0  0
    1.8664    2.9071   -1.7155 O   0  0  0  0  0  0  0  0  0  0  0  0
    0.9510    2.9867    0.2653 N   0  0  0  0  0  0  0  0  0  0  0  0
    1.7194    3.6134    0.4874 H   0  0  0  0  0  0  0  0  0  0  0  0
    0.5646    2.4184    1.0145 H   0  0  0  0  0  0  0  0  0  0  0  0
    0.8313   -0.0036    0.7046 C   0  0  0  0  0  0  0  0  0  0  0  0
    2.0367   -0.0193    0.9028 O   0  0  0  0  0  0  0  0  0  0  0  0
   -0.0059    0.4174    1.7244 N   0  0  0  0  0  0  0  0  0  0  0  0
   -0.9972    0.2694    1.5586 H   0  0  0  0  0  0  0  0  0  0  0  0
    0.4482    0.5251    3.1067 C   0  0  0  0  0  0  0  0  0  0  0  0
    1.2799    1.2333    3.1861 H   0  0  0  0  0  0  0  0  0  0  0  0
   -0.3661    0.8799    3.7459 H   0  0  0  0  0  0  0  0  0  0  0  0
    0.7813   -0.4506    3.4765 H   0  0  0  0  0  0  0  0  0  0  0  0
  1  2  1  0  0  0  0
  2  3  1  0  0  0  0
  2  4  1  0  0  0  0
  2  5  1  0  0  0  0
  5  6  2  0  0  0  0
  5  7  1  0  0  0  0
  7  8  1  0  0  0  0
  7  9  1  0  0  0  0
  9 10  1  0  0  0  0
  9 11  1  0  0  0  0
  9 19  1  0  0  0  0
 11 12  1  0  0  0  0
 11 13  1  0  0  0  0
 11 14  1  0  0  0  0
 14 15  2  0  0  0  0
 14 16  1  0  0  0  0
 16 17  1  0  0  0  0
 16 18  1  0  0  0  0
 19 20  2  0  0  0  0
 19 21  1  0  0  0  0
 21 22  1  0  0  0  0
 21 23  1  0  0  0  0
 23 24  1  0  0  0  0
 23 25  1  0  0  0  0
 23 26  1  0  0  0  0
M  END
$$$$

  -OEChem-03222214023D

 26 25  0     1  0  0  0  0  0999 V2000
   -2.6982   -3.6870   -0.2952 H   0  0  0  0  0  0  0  0  0  0  0  0
   -2.6727   -2.6503   -0.6434 C   0  0  0  0  0  0  0  0  0  0  0  0
   -3.4490   -2.0851   -0.1222 H   0  0  0  0  0  0  0  0  0  0  0  0
   -2.8787   -2.6367   -1.7165 H   0  0  0  0  0  0  0  0  0  0  0  0
   -1.3111   -2.0403   -0.3672 C   0  0  0  0  0  0  0  0  0  0  0  0
   -0.4676   -2.6834    0.2302 O   0  0  0  0  0  0  0  0  0  0  0  0
   -1.0364   -0.7532   -0.7912 N   0  0  0  0  0  0  0  0  0  0  0  0
   -1.7428   -0.3153   -1.3764 H   0  0  0  0  0  0  0  0  0  0  0  0
    0.2987   -0.1235   -0.7284 C   0  0  1  0  0  0  0  0  0  0  0  0
    1.0184   -0.7426   -1.2773 H   0  0  0  0  0  0  0  0  0  0  0  0
    0.1913    1.2478   -1.4455 C   0  0  0  0  0  0  0  0  0  0  0  0
    0.3582    1.0915   -2.5154 H   0  0  0  0  0  0  0  0  0  0  0  0
   -0.8241    1.6342   -1.3266 H   0  0  0  0  0  0  0  0  0  0  0  0
    1.1157    2.3734   -0.9725 C   0  0  0  0  0  0  0  0  0  0  0  0
    1.6997    3.0537   -1.7931 O   0  0  0  0  0  0  0  0  0  0  0  0
    1.1267    2.8833    0.2950 N   0  0  0  0  0  0  0  0  0  0  0  0
    1.8560    3.5735    0.4489 H   0  0  0  0  0  0  0  0  0  0  0  0
    0.9156    2.2335    1.0489 H   0  0  0  0  0  0  0  0  0  0  0  0
    0.8394   -0.0429    0.7185 C   0  0  0  0  0  0  0  0  0  0  0  0
    2.0450   -0.0564    0.9160 O   0  0  0  0  0  0  0  0  0  0  0  0
    0.0079    0.3785    1.7420 N   0  0  0  0  0  0  0  0  0  0  0  0
   -0.9870    0.2678    1.5693 H   0  0  0  0  0  0  0  0  0  0  0  0
    0.4583    0.4717    3.1265 C   0  0  0  0  0  0  0  0  0  0  0  0
    1.2890    1.1798    3.2161 H   0  0  0  0  0  0  0  0  0  0  0  0
   -0.3582    0.8184    3.7673 H   0  0  0  0  0  0  0  0  0  0  0  0
    0.7913   -0.5078    3.4866 H   0  0  0  0  0  0  0  0  0  0  0  0
  1  2  1  0  0  0  0
  2  3  1  0  0  0  0
  2  4  1  0  0  0  0
  2  5  1  0  0  0  0
  5  6  2  0  0  0  0
  5  7  1  0  0  0  0
  7  8  1  0  0  0  0
  7  9  1  0  0  0  0
  9 10  1  0  0  0  0
  9 11  1  0  0  0  0
  9 19  1  0  0  0  0
 11 12  1  0  0  0  0
 11 13  1  0  0  0  0
 11 14  1  0  0  0  0
 14 15  2  0  0  0  0
 14 16  1  0  0  0  0
 16 17  1  0  0  0  0
 16 18  1  0  0  0  0
 19 20  2  0  0  0  0
 19 21  1  0  0  0  0
 21 22  1  0  0  0  0
 21 23  1  0  0  0  0
 23 24  1  0  0  0  0
 23 25  1  0  0  0  0
 23 26  1  0  0  0  0
M  END
$$$$

  -OEChem-03222214023D

 26 25  0     1  0  0  0  0  0999 V2000
   -2.7196   -3.6811   -0.3011 H   0  0  0  0  0  0  0  0  0  0  0  0
   -2.6871   -2.6430   -0.6445 C   0  0  0  0  0  0  0  0  0  0  0  0
   -3.4526   -2.0729   -0.1127 H   0  0  0  0  0  0  0  0  0  0  0  0
   -2.9037   -2.6219   -1.7154 H   0  0  0  0  0  0  0  0  0  0  0  0
   -1.3163   -2.0486   -0.3794 C   0  0  0  0  0  0  0  0  0  0  0  0
   -0.4673   -2.7110    0.1887 O   0  0  0  0  0  0  0  0  0  0  0  0
   -1.0350   -0.7584   -0.7897 N   0  0  0  0  0  0  0  0  0  0  0  0
   -1.7498   -0.2983   -1.3468 H   0  0  0  0  0  0  0  0  0  0  0  0
    0.3026   -0.1339   -0.7200 C   0  0  1  0  0  0  0  0  0  0  0  0
    1.0222   -0.7530   -1.2692 H   0  0  0  0  0  0  0  0  0  0  0  0
    0.2017    1.2422   -1.4346 C   0  0  0  0  0  0  0  0  0  0  0  0
    0.3610    1.0787   -2.5044 H   0  0  0  0  0  0  0  0  0  0  0  0
   -0.8160    1.6215   -1.3114 H   0  0  0  0  0  0  0  0  0  0  0  0
    1.1066    2.4024   -0.9970 C   0  0  0  0  0  0  0  0  0  0  0  0
    1.4367    3.2297   -1.8244 O   0  0  0  0  0  0  0  0  0  0  0  0
    1.4482    2.7370    0.2820 N   0  0  0  0  0  0  0  0  0  0  0  0
    2.1372    3.4810    0.3376 H   0  0  0  0  0  0  0  0  0  0  0  0
    1.5220    1.9687    0.9482 H   0  0  0  0  0  0  0  0  0  0  0  0
    0.8259   -0.0781    0.7334 C   0  0  0  0  0  0  0  0  0  0  0  0
    2.0307   -0.0786    0.9420 O   0  0  0  0  0  0  0  0  0  0  0  0
   -0.0128    0.3308    1.7545 N   0  0  0  0  0  0  0  0  0  0  0  0
   -1.0082    0.2623    1.5665 H   0  0  0  0  0  0  0  0  0  0  0  0
    0.4244    0.4504    3.1407 C   0  0  0  0  0  0  0  0  0  0  0  0
    1.2228    1.1943    3.2307 H   0  0  0  0  0  0  0  0  0  0  0  0
   -0.4104    0.7652    3.7742 H   0  0  0  0  0  0  0  0  0  0  0  0
    0.7964   -0.5119    3.5085 H   0  0  0  0  0  0  0  0  0  0  0  0
  1  2  1  0  0  0  0
  2  3  1  0  0  0  0
  2  4  1  0  0  0  0
  2  5  1  0  0  0  0
  5  6  2  0  0  0  0
  5  7  1  0  0  0  0
  7  8  1  0  0  0  0
  7  9  1  0  0  0  0
  9 10  1  0  0  0  0
  9 11  1  0  0  0  0
  9 19  1  0  0  0  0
 11 12  1  0  0  0  0
 11 13  1  0  0  0  0
 11 14  1  0  0  0  0
 14 15  2  0  0  0  0
 14 16  1  0  0  0  0
 16 17  1  0  0  0  0
 16 18  1  0  0  0  0
 19 20  2  0  0  0  0
 19 21  1  0  0  0  0
 21 22  1  0  0  0  0
 21 23  1  0  0  0  0
 23 24  1  0  0  0  0
 23 25  1  0  0  0  0
 23 26  1  0  0  0  0
M  END
$$$$

  -OEChem-03222214023D

 26 25  0     1  0  0  0  0  0999 V2000
   -2.7233   -3.6742   -0.3009 H   0  0  0  0  0  0  0  0  0  0  0  0
   -2.6868   -2.6346   -0.6396 C   0  0  0  0  0  0  0  0  0  0  0  0
   -3.4398   -2.0608   -0.0942 H   0  0  0  0  0  0  0  0  0  0  0  0
   -2.9174   -2.6057   -1.7073 H   0  0  0  0  0  0  0  0  0  0  0  0
   -1.3082   -2.0525   -0.3899 C   0  0  0  0  0  0  0  0  0  0  0  0
   -0.4541   -2.7274    0.1553 O   0  0  0  0  0  0  0  0  0  0  0  0
   -1.0255   -0.7601   -0.7923 N   0  0  0  0  0  0  0  0  0  0  0  0
   -1.7466   -0.2865   -1.3296 H   0  0  0  0  0  0  0  0  0  0  0  0
    0.3083   -0.1302   -0.7046 C   0  0  1  0  0  0  0  0  0  0  0  0
    1.0387   -0.7406   -1.2492 H   0  0  0  0  0  0  0  0  0  0  0  0
    0.1917    1.2474   -1.4167 C   0  0  0  0  0  0  0  0  0  0  0  0
    0.3595    1.0832   -2.4848 H   0  0  0  0  0  0  0  0  0  0  0  0
   -0.8343    1.6063   -1.3000 H   0  0  0  0  0  0  0  0  0  0  0  0
    1.0633    2.4394   -0.9938 C   0  0  0  0  0  0  0  0  0  0  0  0
    1.1363    3.3940   -1.7431 O   0  0  0  0  0  0  0  0  0  0  0  0
    1.8275    2.5676    0.1300 N   0  0  0  0  0  0  0  0  0  0  0  0
    2.4864    3.3398    0.1120 H   0  0  0  0  0  0  0  0  0  0  0  0
    2.0802    1.7175    0.6375 H   0  0  0  0  0  0  0  0  0  0  0  0
    0.8078   -0.0797    0.7581 C   0  0  0  0  0  0  0  0  0  0  0  0
    2.0083   -0.1531    0.9872 O   0  0  0  0  0  0  0  0  0  0  0  0
   -0.0416    0.3207    1.7730 N   0  0  0  0  0  0  0  0  0  0  0  0
   -1.0342    0.3186    1.5613 H   0  0  0  0  0  0  0  0  0  0  0  0
    0.3786    0.4359    3.1643 C   0  0  0  0  0  0  0  0  0  0  0  0
    1.1721    1.1838    3.2652 H   0  0  0  0  0  0  0  0  0  0  0  0
   -0.4650    0.7430    3.7900 H   0  0  0  0  0  0  0  0  0  0  0  0
    0.7514   -0.5259    3.5325 H   0  0  0  0  0  0  0  0  0  0  0  0
  1  2  1  0  0  0  0
  2  3  1  0  0  0  0
  2  4  1  0  0  0  0
  2  5  1  0  0  0  0
  5  6  2  0  0  0  0
  5  7  1  0  0  0  0
  7  8  1  0  0  0  0
  7  9  1  0  0  0  0
  9 10  1  0  0  0  0
  9 11  1  0  0  0  0
  9 19  1  0  0  0  0
 11 12  1  0  0  0  0
 11 13  1  0  0  0  0
 11 14  1  0  0  0  0
 14 15  2  0  0  0  0
 14 16  1  0  0  0  0
 16 17  1  0  0  0  0
 16 18  1  0  0  0  0
 19 20  2  0  0  0  0
 19 21  1  0  0  0  0
 21 22  1  0  0  0  0
 21 23  1  0  0  0  0
 23 24  1  0  0  0  0
 23 25  1  0  0  0  0
 23 26  1  0  0  0  0
M  END
$$$$

  -OEChem-03222214023D

 26 25  0     1  0  0  0  0  0999 V2000
   -2.7120   -3.6583   -0.2419 H   0  0  0  0  0  0  0  0  0  0  0  0
   -2.6758   -2.6269   -0.6050 C   0  0  0  0  0  0  0  0  0  0  0  0
   -3.4318   -2.0416   -0.0762 H   0  0  0  0  0  0  0  0  0  0  0  0
   -2.9030   -2.6236   -1.6740 H   0  0  0  0  0  0  0  0  0  0  0  0
   -1.2984   -2.0373   -0.3646 C   0  0  0  0  0  0  0  0  0  0  0  0
   -0.4483   -2.6953    0.2068 O   0  0  0  0  0  0  0  0  0  0  0  0
   -1.0114   -0.7593   -0.8075 N   0  0  0  0  0  0  0  0  0  0  0  0
   -1.7284   -0.3022   -1.3644 H   0  0  0  0  0  0  0  0  0  0  0  0
    0.3219   -0.1294   -0.7323 C   0  0  1  0  0  0  0  0  0  0  0  0
    1.0548   -0.7326   -1.2813 H   0  0  0  0  0  0  0  0  0  0  0  0
    0.1724    1.2487   -1.4187 C   0  0  0  0  0  0  0  0  0  0  0  0
    0.0726    1.0879   -2.4957 H   0  0  0  0  0  0  0  0  0  0  0  0
   -0.7497    1.7174   -1.0636 H   0  0  0  0  0  0  0  0  0  0  0  0
    1.2782    2.2863   -1.2081 C   0  0  0  0  0  0  0  0  0  0  0  0
    1.1678    3.3731   -1.7415 O   0  0  0  0  0  0  0  0  0  0  0  0
    2.5269    2.0261   -0.7212 N   0  0  0  0  0  0  0  0  0  0  0  0
    3.1339    2.8316   -0.6072 H   0  0  0  0  0  0  0  0  0  0  0  0
    2.6605    1.2088   -0.1213 H   0  0  0  0  0  0  0  0  0  0  0  0
    0.8234   -0.0265    0.7300 C   0  0  0  0  0  0  0  0  0  0  0  0
    2.0139   -0.1729    0.9760 O   0  0  0  0  0  0  0  0  0  0  0  0
   -0.0241    0.4120    1.7306 N   0  0  0  0  0  0  0  0  0  0  0  0
   -1.0144    0.4306    1.5097 H   0  0  0  0  0  0  0  0  0  0  0  0
    0.3834    0.5119    3.1268 C   0  0  0  0  0  0  0  0  0  0  0  0
    1.2220    1.2080    3.2333 H   0  0  0  0  0  0  0  0  0  0  0  0
   -0.4469    0.8784    3.7380 H   0  0  0  0  0  0  0  0  0  0  0  0
    0.6884   -0.4686    3.5076 H   0  0  0  0  0  0  0  0  0  0  0  0
  1  2  1  0  0  0  0
  2  3  1  0  0  0  0
  2  4  1  0  0  0  0
  2  5  1  0  0  0  0
  5  6  2  0  0  0  0
  5  7  1  0  0  0  0
  7  8  1  0  0  0  0
  7  9  1  0  0  0  0
  9 10  1  0  0  0  0
  9 11  1  0  0  0  0
  9 19  1  0  0  0  0
 11 12  1  0  0  0  0
 11 13  1  0  0  0  0
 11 14  1  0  0  0  0
 14 15  2  0  0  0  0
 14 16  1  0  0  0  0
 16 17  1  0  0  0  0
 16 18  1  0  0  0  0
 19 20  2  0  0  0  0
 19 21  1  0  0  0  0
 21 22  1  0  0  0  0
 21 23  1  0  0  0  0
 23 24  1  0  0  0  0
 23 25  1  0  0  0  0
 23 26  1  0  0  0  0
M  END
$$$$

  -OEChem-03222214023D

 26 25  0     1  0  0  0  0  0999 V2000
   -2.7070   -3.6647   -0.2266 H   0  0  0  0  0  0  0  0  0  0  0  0
   -2.6817   -2.6305   -0.5821 C   0  0  0  0  0  0  0  0  0  0  0  0
   -3.4147   -2.0475   -0.0193 H   0  0  0  0  0  0  0  0  0  0  0  0
   -2.9502   -2.6175   -1.6412 H   0  0  0  0  0  0  0  0  0  0  0  0
   -1.2944   -2.0469   -0.3892 C   0  0  0  0  0  0  0  0  0  0  0  0
   -0.4272   -2.7091    0.1511 O   0  0  0  0  0  0  0  0  0  0  0  0
   -1.0176   -0.7667   -0.8316 N   0  0  0  0  0  0  0  0  0  0  0  0
   -1.7530   -0.2934   -1.3494 H   0  0  0  0  0  0  0  0  0  0  0  0
    0.3116   -0.1299   -0.7568 C   0  0  1  0  0  0  0  0  0  0  0  0
    1.0416   -0.7375   -1.3050 H   0  0  0  0  0  0  0  0  0  0  0  0
    0.1742    1.2433   -1.4512 C   0  0  0  0  0  0  0  0  0  0  0  0
    0.0894    1.0839   -2.5294 H   0  0  0  0  0  0  0  0  0  0  0  0
   -0.7484    1.7211   -1.1094 H   0  0  0  0  0  0  0  0  0  0  0  0
    1.2972    2.2546   -1.2160 C   0  0  0  0  0  0  0  0  0  0  0  0
    1.1158    3.4223   -1.5008 O   0  0  0  0  0  0  0  0  0  0  0  0
    2.5898    1.9238   -0.9260 N   0  0  0  0  0  0  0  0  0  0  0  0
    3.1945    2.7150   -0.7288 H   0  0  0  0  0  0  0  0  0  0  0  0
    2.7435    1.0557   -0.4080 H   0  0  0  0  0  0  0  0  0  0  0  0
    0.8293   -0.0179    0.6980 C   0  0  0  0  0  0  0  0  0  0  0  0
    2.0254   -0.1533    0.9227 O   0  0  0  0  0  0  0  0  0  0  0  0
   -0.0072    0.4187    1.7082 N   0  0  0  0  0  0  0  0  0  0  0  0
   -0.9999    0.4463    1.4994 H   0  0  0  0  0  0  0  0  0  0  0  0
    0.4219    0.5434    3.0954 C   0  0  0  0  0  0  0  0  0  0  0  0
    1.2483    1.2572    3.1785 H   0  0  0  0  0  0  0  0  0  0  0  0
   -0.4049    0.9006    3.7168 H   0  0  0  0  0  0  0  0  0  0  0  0
    0.7527   -0.4265    3.4816 H   0  0  0  0  0  0  0  0  0  0  0  0
  1  2  1  0  0  0  0
  2  3  1  0  0  0  0
  2  4  1  0  0  0  0
  2  5  1  0  0  0  0
  5  6  2  0  0  0  0
  5  7  1  0  0  0  0
  7  8  1  0  0  0  0
  7  9  1  0  0  0  0
  9 10  1  0  0  0  0
  9 11  1  0  0  0  0
  9 19  1  0  0  0  0
 11 12  1  0  0  0  0
 11 13  1  0  0  0  0
 11 14  1  0  0  0  0
 14 15  2  0  0  0  0
 14 16  1  0  0  0  0
 16 17  1  0  0  0  0
 16 18  1  0  0  0  0
 19 20  2  0  0  0  0
 19 21  1  0  0  0  0
 21 22  1  0  0  0  0
 21 23  1  0  0  0  0
 23 24  1  0  0  0  0
 23 25  1  0  0  0  0
 23 26  1  0  0  0  0
M  END
$$$$

  -OEChem-03222214023D

 26 25  0     1  0  0  0  0  0999 V2000
   -2.7044   -3.6758   -0.2251 H   0  0  0  0  0  0  0  0  0  0  0  0
   -2.6861   -2.6432   -0.5859 C   0  0  0  0  0  0  0  0  0  0  0  0
   -3.4152   -2.0597   -0.0187 H   0  0  0  0  0  0  0  0  0  0  0  0
   -2.9656   -2.6361   -1.6422 H   0  0  0  0  0  0  0  0  0  0  0  0
   -1.2987   -2.0542   -0.4100 C   0  0  0  0  0  0  0  0  0  0  0  0
   -0.4193   -2.7159    0.1109 O   0  0  0  0  0  0  0  0  0  0  0  0
   -1.0333   -0.7707   -0.8491 N   0  0  0  0  0  0  0  0  0  0  0  0
   -1.7816   -0.2894   -1.3404 H   0  0  0  0  0  0  0  0  0  0  0  0
    0.2922   -0.1275   -0.7785 C   0  0  1  0  0  0  0  0  0  0  0  0
    1.0169   -0.7382   -1.3302 H   0  0  0  0  0  0  0  0  0  0  0  0
    0.1579    1.2396   -1.4818 C   0  0  0  0  0  0  0  0  0  0  0  0
    0.0807    1.0782   -2.5601 H   0  0  0  0  0  0  0  0  0  0  0  0
   -0.7650    1.7227   -1.1476 H   0  0  0  0  0  0  0  0  0  0  0  0
    1.2916    2.2335   -1.2320 C   0  0  0  0  0  0  0  0  0  0  0  0
    1.0666    3.4280   -1.2498 O   0  0  0  0  0  0  0  0  0  0  0  0
    2.6044    1.8788   -1.1129 N   0  0  0  0  0  0  0  0  0  0  0  0
    3.2123    2.6448   -0.8397 H   0  0  0  0  0  0  0  0  0  0  0  0
    2.7857    0.9616   -0.7014 H   0  0  0  0  0  0  0  0  0  0  0  0
    0.8368   -0.0080    0.6646 C   0  0  0  0  0  0  0  0  0  0  0  0
    2.0397   -0.1314    0.8580 O   0  0  0  0  0  0  0  0  0  0  0  0
    0.0201    0.4255    1.6917 N   0  0  0  0  0  0  0  0  0  0  0  0
   -0.9756    0.4698    1.5013 H   0  0  0  0  0  0  0  0  0  0  0  0
    0.4841    0.5871    3.0638 C   0  0  0  0  0  0  0  0  0  0  0  0
    1.3012    1.3149    3.1088 H   0  0  0  0  0  0  0  0  0  0  0  0
   -0.3313    0.9458    3.6992 H   0  0  0  0  0  0  0  0  0  0  0  0
    0.8403   -0.3689    3.4622 H   0  0  0  0  0  0  0  0  0  0  0  0
  1  2  1  0  0  0  0
  2  3  1  0  0  0  0
  2  4  1  0  0  0  0
  2  5  1  0  0  0  0
  5  6  2  0  0  0  0
  5  7  1  0  0  0  0
  7  8  1  0  0  0  0
  7  9  1  0  0  0  0
  9 10  1  0  0  0  0
  9 11  1  0  0  0  0
  9 19  1  0  0  0  0
 11 12  1  0  0  0  0
 11 13  1  0  0  0  0
 11 14  1  0  0  0  0
 14 15  2  0  0  0  0
 14 16  1  0  0  0  0
 16 17  1  0  0  0  0
 16 18  1  0  0  0  0
 19 20  2  0  0  0  0
 19 21  1  0  0  0  0
 21 22  1  0  0  0  0
 21 23  1  0  0  0  0
 23 24  1  0  0  0  0
 23 25  1  0  0  0  0
 23 26  1  0  0  0  0
M  END
$$$$

  -OEChem-03222214023D

 26 25  0     1  0  0  0  0  0999 V2000
   -2.6839   -3.6874   -0.2132 H   0  0  0  0  0  0  0  0  0  0  0  0
   -2.6800   -2.6533   -0.5697 C   0  0  0  0  0  0  0  0  0  0  0  0
   -3.3888   -2.0736    0.0265 H   0  0  0  0  0  0  0  0  0  0  0  0
   -2.9972   -2.6421   -1.6151 H   0  0  0  0  0  0  0  0  0  0  0  0
   -1.2880   -2.0634   -0.4417 C   0  0  0  0  0  0  0  0  0  0  0  0
   -0.3870   -2.7288    0.0361 O   0  0  0  0  0  0  0  0  0  0  0  0
   -1.0421   -0.7740   -0.8744 N   0  0  0  0  0  0  0  0  0  0  0  0
   -1.8139   -0.2788   -1.3124 H   0  0  0  0  0  0  0  0  0  0  0  0
    0.2754   -0.1157   -0.8066 C   0  0  1  0  0  0  0  0  0  0  0  0
    0.9997   -0.7230   -1.3625 H   0  0  0  0  0  0  0  0  0  0  0  0
    0.1354    1.2477   -1.5132 C   0  0  0  0  0  0  0  0  0  0  0  0
    0.0645    1.0881   -2.5921 H   0  0  0  0  0  0  0  0  0  0  0  0
   -0.7904    1.7288   -1.1840 H   0  0  0  0  0  0  0  0  0  0  0  0
    1.2726    2.2318   -1.2467 C   0  0  0  0  0  0  0  0  0  0  0  0
    1.0314    3.3952   -0.9895 O   0  0  0  0  0  0  0  0  0  0  0  0
    2.5929    1.8897   -1.2997 N   0  0  0  0  0  0  0  0  0  0  0  0
    3.2100    2.6101   -0.9364 H   0  0  0  0  0  0  0  0  0  0  0  0
    2.8098    0.9242   -1.0570 H   0  0  0  0  0  0  0  0  0  0  0  0
    0.8394    0.0087    0.6279 C   0  0  0  0  0  0  0  0  0  0  0  0
    2.0465   -0.1039    0.7996 O   0  0  0  0  0  0  0  0  0  0  0  0
    0.0336    0.4297    1.6687 N   0  0  0  0  0  0  0  0  0  0  0  0
   -0.9630    0.4918    1.4890 H   0  0  0  0  0  0  0  0  0  0  0  0
    0.5211    0.6233    3.0280 C   0  0  0  0  0  0  0  0  0  0  0  0
    1.3240    1.3678    3.0449 H   0  0  0  0  0  0  0  0  0  0  0  0
   -0.2887    0.9759    3.6737 H   0  0  0  0  0  0  0  0  0  0  0  0
    0.9039   -0.3188    3.4341 H   0  0  0  0  0  0  0  0  0  0  0  0
  1  2  1  0  0  0  0
  2  3  1  0  0  0  0
  2  4  1  0  0  0  0
  2  5  1  0  0  0  0
  5  6  2  0  0  0  0
  5  7  1  0  0  0  0
  7  8  1  0  0  0  0
  7  9  1  0  0  0  0
  9 10  1  0  0  0  0
  9 11  1  0  0  0  0
  9 19  1  0  0  0  0
 11 12  1  0  0  0  0
 11 13  1  0  0  0  0
 11 14  1  0  0  0  0
 14 15  2  0  0  0  0
 14 16  1  0  0  0  0
 16 17  1  0  0  0  0
 16 18  1  0  0  0  0
 19 20  2  0  0  0  0
 19 21  1  0  0  0  0
 21 22  1  0  0  0  0
 21 23  1  0  0  0  0
 23 24  1  0  0  0  0
 23 25  1  0  0  0  0
 23 26  1  0  0  0  0
M  END
$$$$

  -OEChem-03222214023D

 26 25  0     1  0  0  0  0  0999 V2000
   -2.6615   -3.7071   -0.2207 H   0  0  0  0  0  0  0  0  0  0  0  0
   -2.6700   -2.6723   -0.5755 C   0  0  0  0  0  0  0  0  0  0  0  0
   -3.3696   -2.0976    0.0360 H   0  0  0  0  0  0  0  0  0  0  0  0
   -3.0082   -2.6606   -1.6145 H   0  0  0  0  0  0  0  0  0  0  0  0
   -1.2785   -2.0754   -0.4750 C   0  0  0  0  0  0  0  0  0  0  0  0
   -0.3585   -2.7457   -0.0425 O   0  0  0  0  0  0  0  0  0  0  0  0
   -1.0521   -0.7777   -0.8926 N   0  0  0  0  0  0  0  0  0  0  0  0
   -1.8447   -0.2697   -1.2748 H   0  0  0  0  0  0  0  0  0  0  0  0
    0.2569   -0.1036   -0.8197 C   0  0  1  0  0  0  0  0  0  0  0  0
    0.9849   -0.7001   -1.3823 H   0  0  0  0  0  0  0  0  0  0  0  0
    0.1049    1.2628   -1.5163 C   0  0  0  0  0  0  0  0  0  0  0  0
    0.0400    1.1158   -2.5973 H   0  0  0  0  0  0  0  0  0  0  0  0
   -0.8241    1.7375   -1.1871 H   0  0  0  0  0  0  0  0  0  0  0  0
    1.2421    2.2369   -1.2242 C   0  0  0  0  0  0  0  0  0  0  0  0
    1.0186    3.3072   -0.6926 O   0  0  0  0  0  0  0  0  0  0  0  0
    2.5480    1.9579   -1.5055 N   0  0  0  0  0  0  0  0  0  0  0  0
    3.2026    2.5908   -1.0548 H   0  0  0  0  0  0  0  0  0  0  0  0
    2.7994    0.9745   -1.5508 H   0  0  0  0  0  0  0  0  0  0  0  0
    0.8331    0.0164    0.6109 C   0  0  0  0  0  0  0  0  0  0  0  0
    2.0425   -0.0876    0.7695 O   0  0  0  0  0  0  0  0  0  0  0  0
    0.0346    0.4176    1.6655 N   0  0  0  0  0  0  0  0  0  0  0  0
   -0.9565    0.5344    1.4845 H   0  0  0  0  0  0  0  0  0  0  0  0
    0.5477    0.6731    3.0052 C   0  0  0  0  0  0  0  0  0  0  0  0
    1.3152    1.4540    2.9792 H   0  0  0  0  0  0  0  0  0  0  0  0
   -0.2606    1.0065    3.6629 H   0  0  0  0  0  0  0  0  0  0  0  0
    0.9852   -0.2377    3.4273 H   0  0  0  0  0  0  0  0  0  0  0  0
  1  2  1  0  0  0  0
  2  3  1  0  0  0  0
  2  4  1  0  0  0  0
  2  5  1  0  0  0  0
  5  6  2  0  0  0  0
  5  7  1  0  0  0  0
  7  8  1  0  0  0  0
  7  9  1  0  0  0  0
  9 10  1  0  0  0  0
  9 11  1  0  0  0  0
  9 19  1  0  0  0  0
 11 12  1  0  0  0  0
 11 13  1  0  0  0  0
 11 14  1  0  0  0  0
 14 15  2  0  0  0  0
 14 16  1  0  0  0  0
 16 17  1  0  0  0  0
 16 18  1  0  0  0  0
 19 20  2  0  0  0  0
 19 21  1  0  0  0  0
 21 22  1  0  0  0  0
 21 23  1  0  0  0  0
 23 24  1  0  0  0  0
 23 25  1  0  0  0  0
 23 26  1  0  0  0  0
M  END
$$$$

  -OEChem-03222214023D

 26 25  0     1  0  0  0  0  0999 V2000
   -2.6502   -3.7201   -0.2354 H   0  0  0  0  0  0  0  0  0  0  0  0
   -2.6642   -2.6822   -0.5803 C   0  0  0  0  0  0  0  0  0  0  0  0
   -3.3461   -2.1106    0.0539 H   0  0  0  0  0  0  0  0  0  0  0  0
   -3.0280   -2.6593   -1.6104 H   0  0  0  0  0  0  0  0  0  0  0  0
   -1.2691   -2.0902   -0.5086 C   0  0  0  0  0  0  0  0  0  0  0  0
   -0.3376   -2.7709   -0.1188 O   0  0  0  0  0  0  0  0  0  0  0  0
   -1.0548   -0.7849   -0.9080 N   0  0  0  0  0  0  0  0  0  0  0  0
   -1.8619   -0.2647   -1.2395 H   0  0  0  0  0  0  0  0  0  0  0  0
    0.2475   -0.1002   -0.8232 C   0  0  1  0  0  0  0  0  0  0  0  0
    0.9823   -0.6828   -1.3911 H   0  0  0  0  0  0  0  0  0  0  0  0
    0.0807    1.2709   -1.5063 C   0  0  0  0  0  0  0  0  0  0  0  0
    0.0178    1.1367   -2.5891 H   0  0  0  0  0  0  0  0  0  0  0  0
   -0.8524    1.7348   -1.1729 H   0  0  0  0  0  0  0  0  0  0  0  0
    1.2106    2.2451   -1.1938 C   0  0  0  0  0  0  0  0  0  0  0  0
    1.0376    3.1674   -0.4205 O   0  0  0  0  0  0  0  0  0  0  0  0
    2.4703    2.0929   -1.6958 N   0  0  0  0  0  0  0  0  0  0  0  0
    3.1748    2.6393   -1.2077 H   0  0  0  0  0  0  0  0  0  0  0  0
    2.7254    1.1692   -2.0291 H   0  0  0  0  0  0  0  0  0  0  0  0
    0.8255    0.0086    0.6078 C   0  0  0  0  0  0  0  0  0  0  0  0
    2.0349   -0.0967    0.7643 O   0  0  0  0  0  0  0  0  0  0  0  0
    0.0255    0.3899    1.6687 N   0  0  0  0  0  0  0  0  0  0  0  0
   -0.9505    0.5811    1.4711 H   0  0  0  0  0  0  0  0  0  0  0  0
    0.5578    0.7154    2.9854 C   0  0  0  0  0  0  0  0  0  0  0  0
    1.2555    1.5569    2.9179 H   0  0  0  0  0  0  0  0  0  0  0  0
   -0.2539    0.9924    3.6647 H   0  0  0  0  0  0  0  0  0  0  0  0
    1.0844   -0.1464    3.4088 H   0  0  0  0  0  0  0  0  0  0  0  0
  1  2  1  0  0  0  0
  2  3  1  0  0  0  0
  2  4  1  0  0  0  0
  2  5  1  0  0  0  0
  5  6  2  0  0  0  0
  5  7  1  0  0  0  0
  7  8  1  0  0  0  0
  7  9  1  0  0  0  0
  9 10  1  0  0  0  0
  9 11  1  0  0  0  0
  9 19  1  0  0  0  0
 11 12  1  0  0  0  0
 11 13  1  0  0  0  0
 11 14  1  0  0  0  0
 14 15  2  0  0  0  0
 14 16  1  0  0  0  0
 16 17  1  0  0  0  0
 16 18  1  0  0  0  0
 19 20  2  0  0  0  0
 19 21  1  0  0  0  0
 21 22  1  0  0  0  0
 21 23  1  0  0  0  0
 23 24  1  0  0  0  0
 23 25  1  0  0  0  0
 23 26  1  0  0  0  0
M  END
$$$$

  -OEChem-03222214023D

 26 25  0     1  0  0  0  0  0999 V2000
   -2.6222   -3.7273   -0.2234 H   0  0  0  0  0  0  0  0  0  0  0  0
   -2.6492   -2.6873   -0.5614 C   0  0  0  0  0  0  0  0  0  0  0  0
   -3.3110   -2.1217    0.0988 H   0  0  0  0  0  0  0  0  0  0  0  0
   -3.0471   -2.6589   -1.5786 H   0  0  0  0  0  0  0  0  0  0  0  0
   -1.2532   -2.0929   -0.5325 C   0  0  0  0  0  0  0  0  0  0  0  0
   -0.3072   -2.7792   -0.1906 O   0  0  0  0  0  0  0  0  0  0  0  0
   -1.0546   -0.7813   -0.9197 N   0  0  0  0  0  0  0  0  0  0  0  0
   -1.8772   -0.2514   -1.1915 H   0  0  0  0  0  0  0  0  0  0  0  0
    0.2409   -0.0845   -0.8239 C   0  0  1  0  0  0  0  0  0  0  0  0
    0.9840   -0.6589   -1.3898 H   0  0  0  0  0  0  0  0  0  0  0  0
    0.0672    1.2832   -1.5143 C   0  0  0  0  0  0  0  0  0  0  0  0
    0.0104    1.1438   -2.5969 H   0  0  0  0  0  0  0  0  0  0  0  0
   -0.8711    1.7411   -1.1889 H   0  0  0  0  0  0  0  0  0  0  0  0
    1.1817    2.2725   -1.1966 C   0  0  0  0  0  0  0  0  0  0  0  0
    1.0938    3.0252   -0.2459 O   0  0  0  0  0  0  0  0  0  0  0  0
    2.3651    2.2817   -1.8760 N   0  0  0  0  0  0  0  0  0  0  0  0
    3.1153    2.7717   -1.3955 H   0  0  0  0  0  0  0  0  0  0  0  0
    2.5943    1.4631   -2.4292 H   0  0  0  0  0  0  0  0  0  0  0  0
    0.8130    0.0162    0.6105 C   0  0  0  0  0  0  0  0  0  0  0  0
    2.0189   -0.1138    0.7754 O   0  0  0  0  0  0  0  0  0  0  0  0
    0.0066    0.3799    1.6736 N   0  0  0  0  0  0  0  0  0  0  0  0
   -0.9542    0.6239    1.4623 H   0  0  0  0  0  0  0  0  0  0  0  0
    0.5412    0.7098    2.9885 C   0  0  0  0  0  0  0  0  0  0  0  0
    1.2204    1.5663    2.9197 H   0  0  0  0  0  0  0  0  0  0  0  0
   -0.2718    0.9656    3.6745 H   0  0  0  0  0  0  0  0  0  0  0  0
    1.0885   -0.1426    3.4047 H   0  0  0  0  0  0  0  0  0  0  0  0
  1  2  1  0  0  0  0
  2  3  1  0  0  0  0
  2  4  1  0  0  0  0
  2  5  1  0  0  0  0
  5  6  2  0  0  0  0
  5  7  1  0  0  0  0
  7  8  1  0  0  0  0
  7  9  1  0  0  0  0
  9 10  1  0  0  0  0
  9 11  1  0  0  0  0
  9 19  1  0  0  0  0
 11 12  1  0  0  0  0
 11 13  1  0  0  0  0
 11 14  1  0  0  0  0
 14 15  2  0  0  0  0
 14 16  1  0  0  0  0
 16 17  1  0  0  0  0
 16 18  1  0  0  0  0
 19 20  2  0  0  0  0
 19 21  1  0  0  0  0
 21 22  1  0  0  0  0
 21 23  1  0  0  0  0
 23 24  1  0  0  0  0
 23 25  1  0  0  0  0
 23 26  1  0  0  0  0
M  END
$$$$

  -OEChem-03222214023D

 26 25  0     1  0  0  0  0  0999 V2000
   -2.6043   -3.7230   -0.2183 H   0  0  0  0  0  0  0  0  0  0  0  0
   -2.6347   -2.6798   -0.5461 C   0  0  0  0  0  0  0  0  0  0  0  0
   -3.2839   -2.1187    0.1303 H   0  0  0  0  0  0  0  0  0  0  0  0
   -3.0488   -2.6409   -1.5565 H   0  0  0  0  0  0  0  0  0  0  0  0
   -1.2370   -2.0891   -0.5343 C   0  0  0  0  0  0  0  0  0  0  0  0
   -0.2879   -2.7818   -0.2153 O   0  0  0  0  0  0  0  0  0  0  0  0
   -1.0429   -0.7749   -0.9153 N   0  0  0  0  0  0  0  0  0  0  0  0
   -1.8722   -0.2402   -1.1548 H   0  0  0  0  0  0  0  0  0  0  0  0
    0.2489   -0.0719   -0.8075 C   0  0  1  0  0  0  0  0  0  0  0  0
    1.0012   -0.6451   -1.3628 H   0  0  0  0  0  0  0  0  0  0  0  0
    0.0719    1.2872   -1.5183 C   0  0  0  0  0  0  0  0  0  0  0  0
    0.0218    1.1271   -2.5984 H   0  0  0  0  0  0  0  0  0  0  0  0
   -0.8743    1.7381   -1.2074 H   0  0  0  0  0  0  0  0  0  0  0  0
    1.1621    2.3093   -1.2152 C   0  0  0  0  0  0  0  0  0  0  0  0
    1.2032    2.8981   -0.1527 O   0  0  0  0  0  0  0  0  0  0  0  0
    2.2121    2.5213   -2.0609 N   0  0  0  0  0  0  0  0  0  0  0  0
    3.0028    2.9990   -1.6362 H   0  0  0  0  0  0  0  0  0  0  0  0
    2.3833    1.8352   -2.7878 H   0  0  0  0  0  0  0  0  0  0  0  0
    0.8047    0.0228    0.6341 C   0  0  0  0  0  0  0  0  0  0  0  0
    2.0016   -0.1514    0.8216 O   0  0  0  0  0  0  0  0  0  0  0  0
   -0.0149    0.3771    1.6906 N   0  0  0  0  0  0  0  0  0  0  0  0
   -0.9599    0.6633    1.4632 H   0  0  0  0  0  0  0  0  0  0  0  0
    0.5051    0.6699    3.0199 C   0  0  0  0  0  0  0  0  0  0  0  0
    1.1858    1.5272    2.9824 H   0  0  0  0  0  0  0  0  0  0  0  0
   -0.3150    0.9065    3.7041 H   0  0  0  0  0  0  0  0  0  0  0  0
    1.0475   -0.1942    3.4178 H   0  0  0  0  0  0  0  0  0  0  0  0
  1  2  1  0  0  0  0
  2  3  1  0  0  0  0
  2  4  1  0  0  0  0
  2  5  1  0  0  0  0
  5  6  2  0  0  0  0
  5  7  1  0  0  0  0
  7  8  1  0  0  0  0
  7  9  1  0  0  0  0
  9 10  1  0  0  0  0
  9 11  1  0  0  0  0
  9 19  1  0  0  0  0
 11 12  1  0  0  0  0
 11 13  1  0  0  0  0
 11 14  1  0  0  0  0
 14 15  2  0  0  0  0
 14 16  1  0  0  0  0
 16 17  1  0  0  0  0
 16 18  1  0  0  0  0
 19 20  2  0  0  0  0
 19 21  1  0  0  0  0
 21 22  1  0  0  0  0
 21 23  1  0  0  0  0
 23 24  1  0  0  0  0
 23 25  1  0  0  0  0
 23 26  1  0  0  0  0
M  END
$$$$

  -OEChem-03222214023D

 26 25  0     1  0  0  0  0  0999 V2000
   -2.5973   -3.7053   -0.2080 H   0  0  0  0  0  0  0  0  0  0  0  0
   -2.6212   -2.6612   -0.5339 C   0  0  0  0  0  0  0  0  0  0  0  0
   -3.2624   -2.0964    0.1468 H   0  0  0  0  0  0  0  0  0  0  0  0
   -3.0406   -2.6176   -1.5420 H   0  0  0  0  0  0  0  0  0  0  0  0
   -1.2191   -2.0813   -0.5288 C   0  0  0  0  0  0  0  0  0  0  0  0
   -0.2738   -2.7841   -0.2212 O   0  0  0  0  0  0  0  0  0  0  0  0
   -1.0186   -0.7668   -0.9061 N   0  0  0  0  0  0  0  0  0  0  0  0
   -1.8482   -0.2241   -1.1246 H   0  0  0  0  0  0  0  0  0  0  0  0
    0.2742   -0.0669   -0.7842 C   0  0  1  0  0  0  0  0  0  0  0  0
    1.0342   -0.6399   -1.3291 H   0  0  0  0  0  0  0  0  0  0  0  0
    0.0954    1.2869   -1.5107 C   0  0  0  0  0  0  0  0  0  0  0  0
    0.0511    1.1052   -2.5876 H   0  0  0  0  0  0  0  0  0  0  0  0
   -0.8588    1.7293   -1.2128 H   0  0  0  0  0  0  0  0  0  0  0  0
    1.1597    2.3455   -1.2311 C   0  0  0  0  0  0  0  0  0  0  0  0
    1.3754    2.7811   -0.1183 O   0  0  0  0  0  0  0  0  0  0  0  0
    2.0045    2.7885   -2.2075 N   0  0  0  0  0  0  0  0  0  0  0  0
    2.8218    3.2876   -1.8659 H   0  0  0  0  0  0  0  0  0  0  0  0
    2.0711    2.2526   -3.0659 H   0  0  0  0  0  0  0  0  0  0  0  0
    0.8053    0.0182    0.6677 C   0  0  0  0  0  0  0  0  0  0  0  0
    1.9865   -0.2152    0.8871 O   0  0  0  0  0  0  0  0  0  0  0  0
   -0.0328    0.3705    1.7108 N   0  0  0  0  0  0  0  0  0  0  0  0
   -0.9647    0.6838    1.4670 H   0  0  0  0  0  0  0  0  0  0  0  0
    0.4581    0.6120    3.0612 C   0  0  0  0  0  0  0  0  0  0  0  0
    1.1706    1.4439    3.0647 H   0  0  0  0  0  0  0  0  0  0  0  0
   -0.3728    0.8627    3.7271 H   0  0  0  0  0  0  0  0  0  0  0  0
    0.9568   -0.2809    3.4529 H   0  0  0  0  0  0  0  0  0  0  0  0
  1  2  1  0  0  0  0
  2  3  1  0  0  0  0
  2  4  1  0  0  0  0
  2  5  1  0  0  0  0
  5  6  2  0  0  0  0
  5  7  1  0  0  0  0
  7  8  1  0  0  0  0
  7  9  1  0  0  0  0
  9 10  1  0  0  0  0
  9 11  1  0  0  0  0
  9 19  1  0  0  0  0
 11 12  1  0  0  0  0
 11 13  1  0  0  0  0
 11 14  1  0  0  0  0
 14 15  2  0  0  0  0
 14 16  1  0  0  0  0
 16 17  1  0  0  0  0
 16 18  1  0  0  0  0
 19 20  2  0  0  0  0
 19 21  1  0  0  0  0
 21 22  1  0  0  0  0
 21 23  1  0  0  0  0
 23 24  1  0  0  0  0
 23 25  1  0  0  0  0
 23 26  1  0  0  0  0
M  END
$$$$

  -OEChem-03222214023D

 26 25  0     1  0  0  0  0  0999 V2000
   -2.6023   -3.6743   -0.1957 H   0  0  0  0  0  0  0  0  0  0  0  0
   -2.6119   -2.6310   -0.5244 C   0  0  0  0  0  0  0  0  0  0  0  0
   -3.2517   -2.0567    0.1498 H   0  0  0  0  0  0  0  0  0  0  0  0
   -3.0228   -2.5854   -1.5358 H   0  0  0  0  0  0  0  0  0  0  0  0
   -1.2032   -2.0678   -0.5094 C   0  0  0  0  0  0  0  0  0  0  0  0
   -0.2695   -2.7823   -0.1943 O   0  0  0  0  0  0  0  0  0  0  0  0
   -0.9849   -0.7572   -0.8911 N   0  0  0  0  0  0  0  0  0  0  0  0
   -1.8067   -0.2083   -1.1220 H   0  0  0  0  0  0  0  0  0  0  0  0
    0.3139   -0.0682   -0.7618 C   0  0  1  0  0  0  0  0  0  0  0  0
    1.0788   -0.6445   -1.2961 H   0  0  0  0  0  0  0  0  0  0  0  0
    0.1356    1.2833   -1.4983 C   0  0  0  0  0  0  0  0  0  0  0  0
    0.0935    1.0839   -2.5722 H   0  0  0  0  0  0  0  0  0  0  0  0
   -0.8224    1.7224   -1.2078 H   0  0  0  0  0  0  0  0  0  0  0  0
    1.1832    2.3673   -1.2457 C   0  0  0  0  0  0  0  0  0  0  0  0
    1.6059    2.6604   -0.1473 O   0  0  0  0  0  0  0  0  0  0  0  0
    1.7515    3.0540   -2.2799 N   0  0  0  0  0  0  0  0  0  0  0  0
    2.5795    3.5902   -2.0338 H   0  0  0  0  0  0  0  0  0  0  0  0
    1.6523    2.6872   -3.2201 H   0  0  0  0  0  0  0  0  0  0  0  0
    0.8175    0.0103    0.7014 C   0  0  0  0  0  0  0  0  0  0  0  0
    1.9768   -0.2862    0.9574 O   0  0  0  0  0  0  0  0  0  0  0  0
   -0.0394    0.3717    1.7267 N   0  0  0  0  0  0  0  0  0  0  0  0
   -0.9639    0.6940    1.4677 H   0  0  0  0  0  0  0  0  0  0  0  0
    0.4086    0.5434    3.1025 C   0  0  0  0  0  0  0  0  0  0  0  0
    1.1666    1.3317    3.1613 H   0  0  0  0  0  0  0  0  0  0  0  0
   -0.4332    0.8222    3.7432 H   0  0  0  0  0  0  0  0  0  0  0  0
    0.8394   -0.3885    3.4837 H   0  0  0  0  0  0  0  0  0  0  0  0
  1  2  1  0  0  0  0
  2  3  1  0  0  0  0
  2  4  1  0  0  0  0
  2  5  1  0  0  0  0
  5  6  2  0  0  0  0
  5  7  1  0  0  0  0
  7  8  1  0  0  0  0
  7  9  1  0  0  0  0
  9 10  1  0  0  0  0
  9 11  1  0  0  0  0
  9 19  1  0  0  0  0
 11 12  1  0  0  0  0
 11 13  1  0  0  0  0
 11 14  1  0  0  0  0
 14 15  2  0  0  0  0
 14 16  1  0  0  0  0
 16 17  1  0  0  0  0
 16 18  1  0  0  0  0
 19 20  2  0  0  0  0
 19 21  1  0  0  0  0
 21 22  1  0  0  0  0
 21 23  1  0  0  0  0
 23 24  1  0  0  0  0
 23 25  1  0  0  0  0
 23 26  1  0  0  0  0
M  END
$$$$

  -OEChem-03222214023D

 26 25  0     1  0  0  0  0  0999 V2000
   -2.6118   -3.6390   -0.1591 H   0  0  0  0  0  0  0  0  0  0  0  0
   -2.6064   -2.6028   -0.5099 C   0  0  0  0  0  0  0  0  0  0  0  0
   -3.2474   -2.0080    0.1451 H   0  0  0  0  0  0  0  0  0  0  0  0
   -3.0058   -2.5742   -1.5265 H   0  0  0  0  0  0  0  0  0  0  0  0
   -1.1916   -2.0548   -0.4913 C   0  0  0  0  0  0  0  0  0  0  0  0
   -0.2692   -2.7775   -0.1628 O   0  0  0  0  0  0  0  0  0  0  0  0
   -0.9566   -0.7497   -0.8825 N   0  0  0  0  0  0  0  0  0  0  0  0
   -1.7694   -0.1978   -1.1362 H   0  0  0  0  0  0  0  0  0  0  0  0
    0.3498   -0.0728   -0.7537 C   0  0  1  0  0  0  0  0  0  0  0  0
    1.1157   -0.6509   -1.2844 H   0  0  0  0  0  0  0  0  0  0  0  0
    0.1696    1.2824   -1.4865 C   0  0  0  0  0  0  0  0  0  0  0  0
    0.1231    1.0801   -2.5596 H   0  0  0  0  0  0  0  0  0  0  0  0
   -0.7880    1.7184   -1.1907 H   0  0  0  0  0  0  0  0  0  0  0  0
    1.2121    2.3774   -1.2524 C   0  0  0  0  0  0  0  0  0  0  0  0
    1.8475    2.5267   -0.2315 O   0  0  0  0  0  0  0  0  0  0  0  0
    1.5008    3.2845   -2.2311 N   0  0  0  0  0  0  0  0  0  0  0  0
    2.3282    3.8509   -2.0629 H   0  0  0  0  0  0  0  0  0  0  0  0
    1.2072    3.0900   -3.1819 H   0  0  0  0  0  0  0  0  0  0  0  0
    0.8339    0.0038    0.7170 C   0  0  0  0  0  0  0  0  0  0  0  0
    1.9723   -0.3418    1.0024 O   0  0  0  0  0  0  0  0  0  0  0  0
   -0.0359    0.3792    1.7269 N   0  0  0  0  0  0  0  0  0  0  0  0
   -0.9602    0.6928    1.4574 H   0  0  0  0  0  0  0  0  0  0  0  0
    0.3728    0.4884    3.1211 C   0  0  0  0  0  0  0  0  0  0  0  0
    1.1801    1.2212    3.2252 H   0  0  0  0  0  0  0  0  0  0  0  0
   -0.4700    0.8102    3.7398 H   0  0  0  0  0  0  0  0  0  0  0  0
    0.7251   -0.4796    3.4927 H   0  0  0  0  0  0  0  0  0  0  0  0
  1  2  1  0  0  0  0
  2  3  1  0  0  0  0
  2  4  1  0  0  0  0
  2  5  1  0  0  0  0
  5  6  2  0  0  0  0
  5  7  1  0  0  0  0
  7  8  1  0  0  0  0
  7  9  1  0  0  0  0
  9 10  1  0  0  0  0
  9 11  1  0  0  0  0
  9 19  1  0  0  0  0
 11 12  1  0  0  0  0
 11 13  1  0  0  0  0
 11 14  1  0  0  0  0
 14 15  2  0  0  0  0
 14 16  1  0  0  0  0
 16 17  1  0  0  0  0
 16 18  1  0  0  0  0
 19 20  2  0  0  0  0
 19 21  1  0  0  0  0
 21 22  1  0  0  0  0
 21 23  1  0  0  0  0
 23 24  1  0  0  0  0
 23 25  1  0  0  0  0
 23 26  1  0  0  0  0
M  END
$$$$

  -OEChem-03222214023D

 26 25  0     1  0  0  0  0  0999 V2000
   -2.6300   -3.6178   -0.1756 H   0  0  0  0  0  0  0  0  0  0  0  0
   -2.6097   -2.5787   -0.5168 C   0  0  0  0  0  0  0  0  0  0  0  0
   -3.2682   -1.9869    0.1233 H   0  0  0  0  0  0  0  0  0  0  0  0
   -2.9771   -2.5400   -1.5451 H   0  0  0  0  0  0  0  0  0  0  0  0
   -1.1939   -2.0364   -0.4498 C   0  0  0  0  0  0  0  0  0  0  0  0
   -0.2907   -2.7558   -0.0667 O   0  0  0  0  0  0  0  0  0  0  0  0
   -0.9385   -0.7403   -0.8580 N   0  0  0  0  0  0  0  0  0  0  0  0
   -1.7331   -0.2007   -1.1853 H   0  0  0  0  0  0  0  0  0  0  0  0
    0.3758   -0.0747   -0.7451 C   0  0  1  0  0  0  0  0  0  0  0  0
    1.1378   -0.6567   -1.2772 H   0  0  0  0  0  0  0  0  0  0  0  0
    0.1864    1.2823   -1.4733 C   0  0  0  0  0  0  0  0  0  0  0  0
    0.1229    1.0816   -2.5458 H   0  0  0  0  0  0  0  0  0  0  0  0
   -0.7655    1.7183   -1.1593 H   0  0  0  0  0  0  0  0  0  0  0  0
    1.2319    2.3789   -1.2615 C   0  0  0  0  0  0  0  0  0  0  0  0
    2.0669    2.3971   -0.3849 O   0  0  0  0  0  0  0  0  0  0  0  0
    1.2765    3.4587   -2.0960 N   0  0  0  0  0  0  0  0  0  0  0  0
    2.0994    4.0475   -1.9974 H   0  0  0  0  0  0  0  0  0  0  0  0
    0.7862    3.4175   -2.9825 H   0  0  0  0  0  0  0  0  0  0  0  0
    0.8591    0.0129    0.7263 C   0  0  0  0  0  0  0  0  0  0  0  0
    1.9855   -0.3570    1.0269 O   0  0  0  0  0  0  0  0  0  0  0  0
   -0.0115    0.4092    1.7276 N   0  0  0  0  0  0  0  0  0  0  0  0
   -0.9562    0.6551    1.4586 H   0  0  0  0  0  0  0  0  0  0  0  0
    0.3633    0.4493    3.1352 C   0  0  0  0  0  0  0  0  0  0  0  0
    1.1995    1.1399    3.2874 H   0  0  0  0  0  0  0  0  0  0  0  0
   -0.4805    0.7880    3.7435 H   0  0  0  0  0  0  0  0  0  0  0  0
    0.6614   -0.5464    3.4800 H   0  0  0  0  0  0  0  0  0  0  0  0
  1  2  1  0  0  0  0
  2  3  1  0  0  0  0
  2  4  1  0  0  0  0
  2  5  1  0  0  0  0
  5  6  2  0  0  0  0
  5  7  1  0  0  0  0
  7  8  1  0  0  0  0
  7  9  1  0  0  0  0
  9 10  1  0  0  0  0
  9 11  1  0  0  0  0
  9 19  1  0  0  0  0
 11 12  1  0  0  0  0
 11 13  1  0  0  0  0
 11 14  1  0  0  0  0
 14 15  2  0  0  0  0
 14 16  1  0  0  0  0
 16 17  1  0  0  0  0
 16 18  1  0  0  0  0
 19 20  2  0  0  0  0
 19 21  1  0  0  0  0
 21 22  1  0  0  0  0
 21 23  1  0  0  0  0
 23 24  1  0  0  0  0
 23 25  1  0  0  0  0
 23 26  1  0  0  0  0
M  END
$$$$

  -OEChem-03222214023D

 26 25  0     1  0  0  0  0  0999 V2000
   -2.6362   -3.6110   -0.1764 H   0  0  0  0  0  0  0  0  0  0  0  0
   -2.6102   -2.5741   -0.5238 C   0  0  0  0  0  0  0  0  0  0  0  0
   -3.2990   -1.9831    0.0841 H   0  0  0  0  0  0  0  0  0  0  0  0
   -2.9356   -2.5457   -1.5665 H   0  0  0  0  0  0  0  0  0  0  0  0
   -1.2030   -2.0195   -0.4029 C   0  0  0  0  0  0  0  0  0  0  0  0
   -0.3172   -2.7209    0.0479 O   0  0  0  0  0  0  0  0  0  0  0  0
   -0.9380   -0.7320   -0.8321 N   0  0  0  0  0  0  0  0  0  0  0  0
   -1.7103   -0.2234   -1.2499 H   0  0  0  0  0  0  0  0  0  0  0  0
    0.3825   -0.0736   -0.7451 C   0  0  1  0  0  0  0  0  0  0  0  0
    1.1379   -0.6561   -1.2861 H   0  0  0  0  0  0  0  0  0  0  0  0
    0.1807    1.2887   -1.4593 C   0  0  0  0  0  0  0  0  0  0  0  0
    0.0913    1.1015   -2.5326 H   0  0  0  0  0  0  0  0  0  0  0  0
   -0.7605    1.7261   -1.1157 H   0  0  0  0  0  0  0  0  0  0  0  0
    1.2409    2.3726   -1.2606 C   0  0  0  0  0  0  0  0  0  0  0  0
    2.2403    2.2626   -0.5861 O   0  0  0  0  0  0  0  0  0  0  0  0
    1.1130    3.5836   -1.8783 N   0  0  0  0  0  0  0  0  0  0  0  0
    1.9338    4.1823   -1.8367 H   0  0  0  0  0  0  0  0  0  0  0  0
    0.4445    3.6875   -2.6332 H   0  0  0  0  0  0  0  0  0  0  0  0
    0.8768    0.0282    0.7225 C   0  0  0  0  0  0  0  0  0  0  0  0
    2.0009   -0.3450    1.0266 O   0  0  0  0  0  0  0  0  0  0  0  0
    0.0112    0.4437    1.7208 N   0  0  0  0  0  0  0  0  0  0  0  0
   -0.9523    0.6118    1.4578 H   0  0  0  0  0  0  0  0  0  0  0  0
    0.3681    0.4270    3.1337 C   0  0  0  0  0  0  0  0  0  0  0  0
    1.2390    1.0659    3.3150 H   0  0  0  0  0  0  0  0  0  0  0  0
   -0.4638    0.7973    3.7400 H   0  0  0  0  0  0  0  0  0  0  0  0
    0.6061   -0.5924    3.4558 H   0  0  0  0  0  0  0  0  0  0  0  0
  1  2  1  0  0  0  0
  2  3  1  0  0  0  0
  2  4  1  0  0  0  0
  2  5  1  0  0  0  0
  5  6  2  0  0  0  0
  5  7  1  0  0  0  0
  7  8  1  0  0  0  0
  7  9  1  0  0  0  0
  9 10  1  0  0  0  0
  9 11  1  0  0  0  0
  9 19  1  0  0  0  0
 11 12  1  0  0  0  0
 11 13  1  0  0  0  0
 11 14  1  0  0  0  0
 14 15  2  0  0  0  0
 14 16  1  0  0  0  0
 16 17  1  0  0  0  0
 16 18  1  0  0  0  0
 19 20  2  0  0  0  0
 19 21  1  0  0  0  0
 21 22  1  0  0  0  0
 21 23  1  0  0  0  0
 23 24  1  0  0  0  0
 23 25  1  0  0  0  0
 23 26  1  0  0  0  0
M  END
$$$$

  -OEChem-03222214023D

 26 25  0     1  0  0  0  0  0999 V2000
   -2.6400   -3.6224   -0.1778 H   0  0  0  0  0  0  0  0  0  0  0  0
   -2.6129   -2.5908   -0.5406 C   0  0  0  0  0  0  0  0  0  0  0  0
   -3.3348   -1.9998    0.0281 H   0  0  0  0  0  0  0  0  0  0  0  0
   -2.8943   -2.5834   -1.5963 H   0  0  0  0  0  0  0  0  0  0  0  0
   -1.2193   -2.0147   -0.3696 C   0  0  0  0  0  0  0  0  0  0  0  0
   -0.3472   -2.6942    0.1374 O   0  0  0  0  0  0  0  0  0  0  0  0
   -0.9520   -0.7327   -0.8147 N   0  0  0  0  0  0  0  0  0  0  0  0
   -1.7021   -0.2606   -1.3089 H   0  0  0  0  0  0  0  0  0  0  0  0
    0.3723   -0.0782   -0.7493 C   0  0  1  0  0  0  0  0  0  0  0  0
    1.1213   -0.6588   -1.3008 H   0  0  0  0  0  0  0  0  0  0  0  0
    0.1617    1.2911   -1.4452 C   0  0  0  0  0  0  0  0  0  0  0  0
    0.0521    1.1224   -2.5195 H   0  0  0  0  0  0  0  0  0  0  0  0
   -0.7693    1.7294   -1.0763 H   0  0  0  0  0  0  0  0  0  0  0  0
    1.2421    2.3535   -1.2451 C   0  0  0  0  0  0  0  0  0  0  0  0
    2.3523    2.1347   -0.8138 O   0  0  0  0  0  0  0  0  0  0  0  0
    1.0121    3.6552   -1.5877 N   0  0  0  0  0  0  0  0  0  0  0  0
    1.8286    4.2611   -1.5827 H   0  0  0  0  0  0  0  0  0  0  0  0
    0.2054    3.8880   -2.1555 H   0  0  0  0  0  0  0  0  0  0  0  0
    0.8834    0.0368    0.7117 C   0  0  0  0  0  0  0  0  0  0  0  0
    2.0157   -0.3149    1.0094 O   0  0  0  0  0  0  0  0  0  0  0  0
    0.0263    0.4659    1.7113 N   0  0  0  0  0  0  0  0  0  0  0  0
   -0.9483    0.5785    1.4586 H   0  0  0  0  0  0  0  0  0  0  0  0
    0.3885    0.4389    3.1228 C   0  0  0  0  0  0  0  0  0  0  0  0
    1.2804    1.0492    3.3007 H   0  0  0  0  0  0  0  0  0  0  0  0
   -0.4284    0.8372    3.7318 H   0  0  0  0  0  0  0  0  0  0  0  0
    0.5945   -0.5875    3.4446 H   0  0  0  0  0  0  0  0  0  0  0  0
  1  2  1  0  0  0  0
  2  3  1  0  0  0  0
  2  4  1  0  0  0  0
  2  5  1  0  0  0  0
  5  6  2  0  0  0  0
  5  7  1  0  0  0  0
  7  8  1  0  0  0  0
  7  9  1  0  0  0  0
  9 10  1  0  0  0  0
  9 11  1  0  0  0  0
  9 19  1  0  0  0  0
 11 12  1  0  0  0  0
 11 13  1  0  0  0  0
 11 14  1  0  0  0  0
 14 15  2  0  0  0  0
 14 16  1  0  0  0  0
 16 17  1  0  0  0  0
 16 18  1  0  0  0  0
 19 20  2  0  0  0  0
 19 21  1  0  0  0  0
 21 22  1  0  0  0  0
 21 23  1  0  0  0  0
 23 24  1  0  0  0  0
 23 25  1  0  0  0  0
 23 26  1  0  0  0  0
M  END
$$$$

  -OEChem-03222214023D

 26 25  0     1  0  0  0  0  0999 V2000
   -2.6530   -3.6398   -0.1562 H   0  0  0  0  0  0  0  0  0  0  0  0
   -2.6192   -2.6250   -0.5634 C   0  0  0  0  0  0  0  0  0  0  0  0
   -3.3852   -2.0227   -0.0693 H   0  0  0  0  0  0  0  0  0  0  0  0
   -2.8329   -2.6702   -1.6341 H   0  0  0  0  0  0  0  0  0  0  0  0
   -1.2491   -2.0154   -0.3318 C   0  0  0  0  0  0  0  0  0  0  0  0
   -0.4028   -2.6499    0.2688 O   0  0  0  0  0  0  0  0  0  0  0  0
   -0.9785   -0.7490   -0.8170 N   0  0  0  0  0  0  0  0  0  0  0  0
   -1.6929   -0.3392   -1.4105 H   0  0  0  0  0  0  0  0  0  0  0  0
    0.3513   -0.1034   -0.7830 C   0  0  1  0  0  0  0  0  0  0  0  0
    1.0909   -0.6968   -1.3342 H   0  0  0  0  0  0  0  0  0  0  0  0
    0.1425    1.2612   -1.4846 C   0  0  0  0  0  0  0  0  0  0  0  0
    0.0182    1.0942   -2.5576 H   0  0  0  0  0  0  0  0  0  0  0  0
   -0.7782    1.7135   -1.1071 H   0  0  0  0  0  0  0  0  0  0  0  0
    1.2536    2.2921   -1.2950 C   0  0  0  0  0  0  0  0  0  0  0  0
    2.4179    1.9988   -1.1315 O   0  0  0  0  0  0  0  0  0  0  0  0
    0.9887    3.6320   -1.2908 N   0  0  0  0  0  0  0  0  0  0  0  0
    1.7550    4.2266   -0.9858 H   0  0  0  0  0  0  0  0  0  0  0  0
    0.0305    3.9497   -1.2012 H   0  0  0  0  0  0  0  0  0  0  0  0
    0.8809    0.0511    0.6679 C   0  0  0  0  0  0  0  0  0  0  0  0
    2.0334   -0.2375    0.9537 O   0  0  0  0  0  0  0  0  0  0  0  0
    0.0356    0.5161    1.6616 N   0  0  0  0  0  0  0  0  0  0  0  0
   -0.9514    0.5383    1.4325 H   0  0  0  0  0  0  0  0  0  0  0  0
    0.4258    0.5460    3.0659 C   0  0  0  0  0  0  0  0  0  0  0  0
    1.3343    1.1433    3.1986 H   0  0  0  0  0  0  0  0  0  0  0  0
   -0.3692    0.9915    3.6711 H   0  0  0  0  0  0  0  0  0  0  0  0
    0.6160   -0.4689    3.4308 H   0  0  0  0  0  0  0  0  0  0  0  0
  1  2  1  0  0  0  0
  2  3  1  0  0  0  0
  2  4  1  0  0  0  0
  2  5  1  0  0  0  0
  5  6  2  0  0  0  0
  5  7  1  0  0  0  0
  7  8  1  0  0  0  0
  7  9  1  0  0  0  0
  9 10  1  0  0  0  0
  9 11  1  0  0  0  0
  9 19  1  0  0  0  0
 11 12  1  0  0  0  0
 11 13  1  0  0  0  0
 11 14  1  0  0  0  0
 14 15  2  0  0  0  0
 14 16  1  0  0  0  0
 16 17  1  0  0  0  0
 16 18  1  0  0  0  0
 19 20  2  0  0  0  0
 19 21  1  0  0  0  0
 21 22  1  0  0  0  0
 21 23  1  0  0  0  0
 23 24  1  0  0  0  0
 23 25  1  0  0  0  0
 23 26  1  0  0  0  0
M  END
$$$$

  -OEChem-03222214023D

 26 25  0     1  0  0  0  0  0999 V2000
   -2.6174   -3.6826   -0.1777 H   0  0  0  0  0  0  0  0  0  0  0  0
   -2.6108   -2.6610   -0.5689 C   0  0  0  0  0  0  0  0  0  0  0  0
   -3.3903   -2.0862   -0.0633 H   0  0  0  0  0  0  0  0  0  0  0  0
   -2.8273   -2.6954   -1.6393 H   0  0  0  0  0  0  0  0  0  0  0  0
   -1.2557   -2.0208   -0.3316 C   0  0  0  0  0  0  0  0  0  0  0  0
   -0.4057   -2.6276    0.2922 O   0  0  0  0  0  0  0  0  0  0  0  0
   -1.0041   -0.7538   -0.8261 N   0  0  0  0  0  0  0  0  0  0  0  0
   -1.7157   -0.3691   -1.4398 H   0  0  0  0  0  0  0  0  0  0  0  0
    0.3198   -0.0960   -0.8048 C   0  0  1  0  0  0  0  0  0  0  0  0
    1.0599   -0.6846   -1.3606 H   0  0  0  0  0  0  0  0  0  0  0  0
    0.1077    1.2716   -1.4949 C   0  0  0  0  0  0  0  0  0  0  0  0
   -0.0165    1.1176   -2.5698 H   0  0  0  0  0  0  0  0  0  0  0  0
   -0.8102    1.7269   -1.1141 H   0  0  0  0  0  0  0  0  0  0  0  0
    1.2380    2.2762   -1.2871 C   0  0  0  0  0  0  0  0  0  0  0  0
    2.4060    1.9680   -1.3953 O   0  0  0  0  0  0  0  0  0  0  0  0
    1.0031    3.5655   -0.9029 N   0  0  0  0  0  0  0  0  0  0  0  0
    1.8254    4.0705   -0.5825 H   0  0  0  0  0  0  0  0  0  0  0  0
    0.0904    3.8075   -0.5351 H   0  0  0  0  0  0  0  0  0  0  0  0
    0.8598    0.0710    0.6407 C   0  0  0  0  0  0  0  0  0  0  0  0
    2.0355   -0.1313    0.9035 O   0  0  0  0  0  0  0  0  0  0  0  0
    0.0166    0.5327    1.6375 N   0  0  0  0  0  0  0  0  0  0  0  0
   -0.9751    0.4906    1.4308 H   0  0  0  0  0  0  0  0  0  0  0  0
    0.4312    0.6109    3.0329 C   0  0  0  0  0  0  0  0  0  0  0  0
    1.3103    1.2558    3.1367 H   0  0  0  0  0  0  0  0  0  0  0  0
   -0.3744    1.0275    3.6446 H   0  0  0  0  0  0  0  0  0  0  0  0
    0.6790   -0.3856    3.4138 H   0  0  0  0  0  0  0  0  0  0  0  0
  1  2  1  0  0  0  0
  2  3  1  0  0  0  0
  2  4  1  0  0  0  0
  2  5  1  0  0  0  0
  5  6  2  0  0  0  0
  5  7  1  0  0  0  0
  7  8  1  0  0  0  0
  7  9  1  0  0  0  0
  9 10  1  0  0  0  0
  9 11  1  0  0  0  0
  9 19  1  0  0  0  0
 11 12  1  0  0  0  0
 11 13  1  0  0  0  0
 11 14  1  0  0  0  0
 14 15  2  0  0  0  0
 14 16  1  0  0  0  0
 16 17  1  0  0  0  0
 16 18  1  0  0  0  0
 19 20  2  0  0  0  0
 19 21  1  0  0  0  0
 21 22  1  0  0  0  0
 21 23  1  0  0  0  0
 23 24  1  0  0  0  0
 23 25  1  0  0  0  0
 23 26  1  0  0  0  0
M  END
$$$$

  -OEChem-03222214023D

 26 25  0     1  0  0  0  0  0999 V2000
   -2.5883   -3.7098   -0.1921 H   0  0  0  0  0  0  0  0  0  0  0  0
   -2.5996   -2.6880   -0.5830 C   0  0  0  0  0  0  0  0  0  0  0  0
   -3.3944   -2.1294   -0.0831 H   0  0  0  0  0  0  0  0  0  0  0  0
   -2.8073   -2.7263   -1.6551 H   0  0  0  0  0  0  0  0  0  0  0  0
   -1.2597   -2.0205   -0.3350 C   0  0  0  0  0  0  0  0  0  0  0  0
   -0.4051   -2.6052    0.3038 O   0  0  0  0  0  0  0  0  0  0  0  0
   -1.0265   -0.7509   -0.8315 N   0  0  0  0  0  0  0  0  0  0  0  0
   -1.7391   -0.3823   -1.4546 H   0  0  0  0  0  0  0  0  0  0  0  0
    0.2902   -0.0794   -0.8178 C   0  0  1  0  0  0  0  0  0  0  0  0
    1.0311   -0.6623   -1.3787 H   0  0  0  0  0  0  0  0  0  0  0  0
    0.0743    1.2890   -1.4998 C   0  0  0  0  0  0  0  0  0  0  0  0
   -0.0480    1.1437   -2.5764 H   0  0  0  0  0  0  0  0  0  0  0  0
   -0.8419    1.7473   -1.1187 H   0  0  0  0  0  0  0  0  0  0  0  0
    1.2160    2.2750   -1.2758 C   0  0  0  0  0  0  0  0  0  0  0  0
    2.3460    2.0260   -1.6420 O   0  0  0  0  0  0  0  0  0  0  0  0
    1.0651    3.4115   -0.5342 N   0  0  0  0  0  0  0  0  0  0  0  0
    1.9421    3.8234   -0.2255 H   0  0  0  0  0  0  0  0  0  0  0  0
    0.2502    3.4835    0.0641 H   0  0  0  0  0  0  0  0  0  0  0  0
    0.8395    0.0949    0.6227 C   0  0  0  0  0  0  0  0  0  0  0  0
    2.0333   -0.0130    0.8578 O   0  0  0  0  0  0  0  0  0  0  0  0
   -0.0035    0.5480    1.6236 N   0  0  0  0  0  0  0  0  0  0  0  0
   -0.9954    0.4394    1.4405 H   0  0  0  0  0  0  0  0  0  0  0  0
    0.4323    0.6708    3.0098 C   0  0  0  0  0  0  0  0  0  0  0  0
    1.2839    1.3551    3.0861 H   0  0  0  0  0  0  0  0  0  0  0  0
   -0.3799    1.0637    3.6287 H   0  0  0  0  0  0  0  0  0  0  0  0
    0.7301   -0.3064    3.4043 H   0  0  0  0  0  0  0  0  0  0  0  0
  1  2  1  0  0  0  0
  2  3  1  0  0  0  0
  2  4  1  0  0  0  0
  2  5  1  0  0  0  0
  5  6  2  0  0  0  0
  5  7  1  0  0  0  0
  7  8  1  0  0  0  0
  7  9  1  0  0  0  0
  9 10  1  0  0  0  0
  9 11  1  0  0  0  0
  9 19  1  0  0  0  0
 11 12  1  0  0  0  0
 11 13  1  0  0  0  0
 11 14  1  0  0  0  0
 14 15  2  0  0  0  0
 14 16  1  0  0  0  0
 16 17  1  0  0  0  0
 16 18  1  0  0  0  0
 19 20  2  0  0  0  0
 19 21  1  0  0  0  0
 21 22  1  0  0  0  0
 21 23  1  0  0  0  0
 23 24  1  0  0  0  0
 23 25  1  0  0  0  0
 23 26  1  0  0  0  0
M  END
$$$$

  -OEChem-03222214023D

 26 25  0     1  0  0  0  0  0999 V2000
   -2.5941   -3.7094   -0.1907 H   0  0  0  0  0  0  0  0  0  0  0  0
   -2.5979   -2.6976   -0.6065 C   0  0  0  0  0  0  0  0  0  0  0  0
   -3.4058   -2.1290   -0.1399 H   0  0  0  0  0  0  0  0  0  0  0  0
   -2.7791   -2.7619   -1.6822 H   0  0  0  0  0  0  0  0  0  0  0  0
   -1.2661   -2.0205   -0.3428 C   0  0  0  0  0  0  0  0  0  0  0  0
   -0.4120   -2.5984    0.3033 O   0  0  0  0  0  0  0  0  0  0  0  0
   -1.0403   -0.7454   -0.8274 N   0  0  0  0  0  0  0  0  0  0  0  0
   -1.7500   -0.3804   -1.4561 H   0  0  0  0  0  0  0  0  0  0  0  0
    0.2727   -0.0681   -0.8071 C   0  0  1  0  0  0  0  0  0  0  0  0
    1.0140   -0.6465   -1.3723 H   0  0  0  0  0  0  0  0  0  0  0  0
    0.0596    1.3030   -1.4824 C   0  0  0  0  0  0  0  0  0  0  0  0
   -0.0564    1.1635   -2.5606 H   0  0  0  0  0  0  0  0  0  0  0  0
   -0.8575    1.7631   -1.1055 H   0  0  0  0  0  0  0  0  0  0  0  0
    1.2027    2.2828   -1.2432 C   0  0  0  0  0  0  0  0  0  0  0  0
    2.2595    2.1628   -1.8293 O   0  0  0  0  0  0  0  0  0  0  0  0
    1.1506    3.2492   -0.2801 N   0  0  0  0  0  0  0  0  0  0  0  0
    2.0620    3.6273   -0.0349 H   0  0  0  0  0  0  0  0  0  0  0  0
    0.4609    3.1343    0.4544 H   0  0  0  0  0  0  0  0  0  0  0  0
    0.8267    0.0979    0.6316 C   0  0  0  0  0  0  0  0  0  0  0  0
    2.0289    0.0534    0.8442 O   0  0  0  0  0  0  0  0  0  0  0  0
   -0.0150    0.5385    1.6389 N   0  0  0  0  0  0  0  0  0  0  0  0
   -1.0047    0.3862    1.4736 H   0  0  0  0  0  0  0  0  0  0  0  0
    0.4366    0.6836    3.0179 C   0  0  0  0  0  0  0  0  0  0  0  0
    1.2659    1.3963    3.0780 H   0  0  0  0  0  0  0  0  0  0  0  0
   -0.3791    1.0526    3.6468 H   0  0  0  0  0  0  0  0  0  0  0  0
    0.7730   -0.2807    3.4135 H   0  0  0  0  0  0  0  0  0  0  0  0
  1  2  1  0  0  0  0
  2  3  1  0  0  0  0
  2  4  1  0  0  0  0
  2  5  1  0  0  0  0
  5  6  2  0  0  0  0
  5  7  1  0  0  0  0
  7  8  1  0  0  0  0
  7  9  1  0  0  0  0
  9 10  1  0  0  0  0
  9 11  1  0  0  0  0
  9 19  1  0  0  0  0
 11 12  1  0  0  0  0
 11 13  1  0  0  0  0
 11 14  1  0  0  0  0
 14 15  2  0  0  0  0
 14 16  1  0  0  0  0
 16 17  1  0  0  0  0
 16 18  1  0  0  0  0
 19 20  2  0  0  0  0
 19 21  1  0  0  0  0
 21 22  1  0  0  0  0
 21 23  1  0  0  0  0
 23 24  1  0  0  0  0
 23 25  1  0  0  0  0
 23 26  1  0  0  0  0
M  END
$$$$

  -OEChem-03222214023D

 26 25  0     1  0  0  0  0  0999 V2000
   -2.5960   -3.7200   -0.2376 H   0  0  0  0  0  0  0  0  0  0  0  0
   -2.6071   -2.6949   -0.6193 C   0  0  0  0  0  0  0  0  0  0  0  0
   -3.4123   -2.1449   -0.1265 H   0  0  0  0  0  0  0  0  0  0  0  0
   -2.7989   -2.7244   -1.6946 H   0  0  0  0  0  0  0  0  0  0  0  0
   -1.2745   -2.0220   -0.3462 C   0  0  0  0  0  0  0  0  0  0  0  0
   -0.4232   -2.6062    0.2980 O   0  0  0  0  0  0  0  0  0  0  0  0
   -1.0423   -0.7435   -0.8192 N   0  0  0  0  0  0  0  0  0  0  0  0
   -1.7487   -0.3689   -1.4460 H   0  0  0  0  0  0  0  0  0  0  0  0
    0.2727   -0.0714   -0.7867 C   0  0  1  0  0  0  0  0  0  0  0  0
    1.0122   -0.6527   -1.3512 H   0  0  0  0  0  0  0  0  0  0  0  0
    0.0730    1.3019   -1.4622 C   0  0  0  0  0  0  0  0  0  0  0  0
   -0.0371    1.1619   -2.5412 H   0  0  0  0  0  0  0  0  0  0  0  0
   -0.8443    1.7672   -1.0918 H   0  0  0  0  0  0  0  0  0  0  0  0
    1.2156    2.2814   -1.2142 C   0  0  0  0  0  0  0  0  0  0  0  0
    2.1657    2.3319   -1.9692 O   0  0  0  0  0  0  0  0  0  0  0  0
    1.2539    3.1106   -0.1297 N   0  0  0  0  0  0  0  0  0  0  0  0
    2.1719    3.5143    0.0368 H   0  0  0  0  0  0  0  0  0  0  0  0
    0.7002    2.8329    0.6744 H   0  0  0  0  0  0  0  0  0  0  0  0
    0.8242    0.0828    0.6528 C   0  0  0  0  0  0  0  0  0  0  0  0
    2.0284    0.0590    0.8583 O   0  0  0  0  0  0  0  0  0  0  0  0
   -0.0167    0.5195    1.6622 N   0  0  0  0  0  0  0  0  0  0  0  0
   -1.0067    0.3672    1.4960 H   0  0  0  0  0  0  0  0  0  0  0  0
    0.4340    0.6536    3.0428 C   0  0  0  0  0  0  0  0  0  0  0  0
    1.2610    1.3686    3.1105 H   0  0  0  0  0  0  0  0  0  0  0  0
   -0.3837    1.0134    3.6747 H   0  0  0  0  0  0  0  0  0  0  0  0
    0.7734   -0.3135    3.4292 H   0  0  0  0  0  0  0  0  0  0  0  0
  1  2  1  0  0  0  0
  2  3  1  0  0  0  0
  2  4  1  0  0  0  0
  2  5  1  0  0  0  0
  5  6  2  0  0  0  0
  5  7  1  0  0  0  0
  7  8  1  0  0  0  0
  7  9  1  0  0  0  0
  9 10  1  0  0  0  0
  9 11  1  0  0  0  0
  9 19  1  0  0  0  0
 11 12  1  0  0  0  0
 11 13  1  0  0  0  0
 11 14  1  0  0  0  0
 14 15  2  0  0  0  0
 14 16  1  0  0  0  0
 16 17  1  0  0  0  0
 16 18  1  0  0  0  0
 19 20  2  0  0  0  0
 19 21  1  0  0  0  0
 21 22  1  0  0  0  0
 21 23  1  0  0  0  0
 23 24  1  0  0  0  0
 23 25  1  0  0  0  0
 23 26  1  0  0  0  0
M  END
$$$$

  -OEChem-03222214023D

 26 25  0     1  0  0  0  0  0999 V2000
   -2.6363   -3.7047   -0.2441 H   0  0  0  0  0  0  0  0  0  0  0  0
   -2.6277   -2.6829   -0.6345 C   0  0  0  0  0  0  0  0  0  0  0  0
   -3.4306   -2.1168   -0.1562 H   0  0  0  0  0  0  0  0  0  0  0  0
   -2.8071   -2.7185   -1.7119 H   0  0  0  0  0  0  0  0  0  0  0  0
   -1.2885   -2.0278   -0.3520 C   0  0  0  0  0  0  0  0  0  0  0  0
   -0.4429   -2.6278    0.2856 O   0  0  0  0  0  0  0  0  0  0  0  0
   -1.0413   -0.7470   -0.8107 N   0  0  0  0  0  0  0  0  0  0  0  0
   -1.7453   -0.3532   -1.4289 H   0  0  0  0  0  0  0  0  0  0  0  0
    0.2805   -0.0896   -0.7662 C   0  0  1  0  0  0  0  0  0  0  0  0
    1.0139   -0.6789   -1.3301 H   0  0  0  0  0  0  0  0  0  0  0  0
    0.1019    1.2875   -1.4419 C   0  0  0  0  0  0  0  0  0  0  0  0
   -0.0086    1.1468   -2.5210 H   0  0  0  0  0  0  0  0  0  0  0  0
   -0.8129    1.7596   -1.0743 H   0  0  0  0  0  0  0  0  0  0  0  0
    1.2438    2.2705   -1.1944 C   0  0  0  0  0  0  0  0  0  0  0  0
    2.0518    2.5121   -2.0691 O   0  0  0  0  0  0  0  0  0  0  0  0
    1.3748    2.9862   -0.0386 N   0  0  0  0  0  0  0  0  0  0  0  0
    2.2733    3.4533    0.0466 H   0  0  0  0  0  0  0  0  0  0  0  0
    0.9727    2.5708    0.7970 H   0  0  0  0  0  0  0  0  0  0  0  0
    0.8287    0.0442    0.6753 C   0  0  0  0  0  0  0  0  0  0  0  0
    2.0338    0.0294    0.8766 O   0  0  0  0  0  0  0  0  0  0  0  0
   -0.0089    0.4792    1.6876 N   0  0  0  0  0  0  0  0  0  0  0  0
   -1.0006    0.3378    1.5205 H   0  0  0  0  0  0  0  0  0  0  0  0
    0.4421    0.6105    3.0686 C   0  0  0  0  0  0  0  0  0  0  0  0
    1.2696    1.3245    3.1388 H   0  0  0  0  0  0  0  0  0  0  0  0
   -0.3756    0.9700    3.7004 H   0  0  0  0  0  0  0  0  0  0  0  0
    0.7800   -0.3577    3.4536 H   0  0  0  0  0  0  0  0  0  0  0  0
  1  2  1  0  0  0  0
  2  3  1  0  0  0  0
  2  4  1  0  0  0  0
  2  5  1  0  0  0  0
  5  6  2  0  0  0  0
  5  7  1  0  0  0  0
  7  8  1  0  0  0  0
  7  9  1  0  0  0  0
  9 10  1  0  0  0  0
  9 11  1  0  0  0  0
  9 19  1  0  0  0  0
 11 12  1  0  0  0  0
 11 13  1  0  0  0  0
 11 14  1  0  0  0  0
 14 15  2  0  0  0  0
 14 16  1  0  0  0  0
 16 17  1  0  0  0  0
 16 18  1  0  0  0  0
 19 20  2  0  0  0  0
 19 21  1  0  0  0  0
 21 22  1  0  0  0  0
 21 23  1  0  0  0  0
 23 24  1  0  0  0  0
 23 25  1  0  0  0  0
 23 26  1  0  0  0  0
M  END
$$$$

  -OEChem-03222214023D

 26 25  0     1  0  0  0  0  0999 V2000
   -2.6711   -3.6939   -0.2697 H   0  0  0  0  0  0  0  0  0  0  0  0
   -2.6526   -2.6642   -0.6385 C   0  0  0  0  0  0  0  0  0  0  0  0
   -3.4395   -2.0968   -0.1360 H   0  0  0  0  0  0  0  0  0  0  0  0
   -2.8480   -2.6739   -1.7136 H   0  0  0  0  0  0  0  0  0  0  0  0
   -1.2999   -2.0351   -0.3615 C   0  0  0  0  0  0  0  0  0  0  0  0
   -0.4568   -2.6576    0.2580 O   0  0  0  0  0  0  0  0  0  0  0  0
   -1.0351   -0.7533   -0.8072 N   0  0  0  0  0  0  0  0  0  0  0  0
   -1.7402   -0.3350   -1.4081 H   0  0  0  0  0  0  0  0  0  0  0  0
    0.2937   -0.1115   -0.7514 C   0  0  1  0  0  0  0  0  0  0  0  0
    1.0218   -0.7113   -1.3108 H   0  0  0  0  0  0  0  0  0  0  0  0
    0.1400    1.2654   -1.4363 C   0  0  0  0  0  0  0  0  0  0  0  0
    0.0335    1.1141   -2.5146 H   0  0  0  0  0  0  0  0  0  0  0  0
   -0.7733    1.7470   -1.0773 H   0  0  0  0  0  0  0  0  0  0  0  0
    1.2794    2.2565   -1.1968 C   0  0  0  0  0  0  0  0  0  0  0  0
    1.9179    2.6894   -2.1361 O   0  0  0  0  0  0  0  0  0  0  0  0
    1.5233    2.8574    0.0054 N   0  0  0  0  0  0  0  0  0  0  0  0
    2.3871    3.3918    0.0209 H   0  0  0  0  0  0  0  0  0  0  0  0
    1.2856    2.3169    0.8338 H   0  0  0  0  0  0  0  0  0  0  0  0
    0.8335    0.0012    0.6943 C   0  0  0  0  0  0  0  0  0  0  0  0
    2.0385   -0.0108    0.8978 O   0  0  0  0  0  0  0  0  0  0  0  0
   -0.0021    0.4350    1.7081 N   0  0  0  0  0  0  0  0  0  0  0  0
   -0.9965    0.3224    1.5344 H   0  0  0  0  0  0  0  0  0  0  0  0
    0.4448    0.5654    3.0906 C   0  0  0  0  0  0  0  0  0  0  0  0
    1.2671    1.2849    3.1644 H   0  0  0  0  0  0  0  0  0  0  0  0
   -0.3766    0.9177    3.7220 H   0  0  0  0  0  0  0  0  0  0  0  0
    0.7884   -0.4014    3.4740 H   0  0  0  0  0  0  0  0  0  0  0  0
  1  2  1  0  0  0  0
  2  3  1  0  0  0  0
  2  4  1  0  0  0  0
  2  5  1  0  0  0  0
  5  6  2  0  0  0  0
  5  7  1  0  0  0  0
  7  8  1  0  0  0  0
  7  9  1  0  0  0  0
  9 10  1  0  0  0  0
  9 11  1  0  0  0  0
  9 19  1  0  0  0  0
 11 12  1  0  0  0  0
 11 13  1  0  0  0  0
 11 14  1  0  0  0  0
 14 15  2  0  0  0  0
 14 16  1  0  0  0  0
 16 17  1  0  0  0  0
 16 18  1  0  0  0  0
 19 20  2  0  0  0  0
 19 21  1  0  0  0  0
 21 22  1  0  0  0  0
 21 23  1  0  0  0  0
 23 24  1  0  0  0  0
 23 25  1  0  0  0  0
 23 26  1  0  0  0  0
M  END
$$$$

  -OEChem-03222214023D

 26 25  0     1  0  0  0  0  0999 V2000
   -2.7022   -3.6781   -0.2668 H   0  0  0  0  0  0  0  0  0  0  0  0
   -2.6714   -2.6461   -0.6283 C   0  0  0  0  0  0  0  0  0  0  0  0
   -3.4375   -2.0680   -0.1061 H   0  0  0  0  0  0  0  0  0  0  0  0
   -2.8887   -2.6438   -1.6992 H   0  0  0  0  0  0  0  0  0  0  0  0
   -1.3017   -2.0445   -0.3743 C   0  0  0  0  0  0  0  0  0  0  0  0
   -0.4536   -2.6915    0.2123 O   0  0  0  0  0  0  0  0  0  0  0  0
   -1.0240   -0.7613   -0.8082 N   0  0  0  0  0  0  0  0  0  0  0  0
   -1.7364   -0.3163   -1.3805 H   0  0  0  0  0  0  0  0  0  0  0  0
    0.3091   -0.1288   -0.7441 C   0  0  1  0  0  0  0  0  0  0  0  0
    1.0360   -0.7333   -1.2999 H   0  0  0  0  0  0  0  0  0  0  0  0
    0.1695    1.2503   -1.4324 C   0  0  0  0  0  0  0  0  0  0  0  0
    0.0591    1.0903   -2.5091 H   0  0  0  0  0  0  0  0  0  0  0  0
   -0.7441    1.7316   -1.0740 H   0  0  0  0  0  0  0  0  0  0  0  0
    1.2946    2.2671   -1.2142 C   0  0  0  0  0  0  0  0  0  0  0  0
    1.7260    2.8914   -2.1638 O   0  0  0  0  0  0  0  0  0  0  0  0
    1.7462    2.6985   -0.0001 N   0  0  0  0  0  0  0  0  0  0  0  0
    2.5576    3.3058   -0.0643 H   0  0  0  0  0  0  0  0  0  0  0  0
    1.7291    2.0119    0.7536 H   0  0  0  0  0  0  0  0  0  0  0  0
    0.8305   -0.0391    0.7095 C   0  0  0  0  0  0  0  0  0  0  0  0
    2.0343   -0.0513    0.9252 O   0  0  0  0  0  0  0  0  0  0  0  0
   -0.0126    0.3874    1.7195 N   0  0  0  0  0  0  0  0  0  0  0  0
   -1.0070    0.3095    1.5302 H   0  0  0  0  0  0  0  0  0  0  0  0
    0.4201    0.5300    3.1048 C   0  0  0  0  0  0  0  0  0  0  0  0
    1.2241    1.2693    3.1833 H   0  0  0  0  0  0  0  0  0  0  0  0
   -0.4144    0.8635    3.7292 H   0  0  0  0  0  0  0  0  0  0  0  0
    0.7830   -0.4277    3.4928 H   0  0  0  0  0  0  0  0  0  0  0  0
  1  2  1  0  0  0  0
  2  3  1  0  0  0  0
  2  4  1  0  0  0  0
  2  5  1  0  0  0  0
  5  6  2  0  0  0  0
  5  7  1  0  0  0  0
  7  8  1  0  0  0  0
  7  9  1  0  0  0  0
  9 10  1  0  0  0  0
  9 11  1  0  0  0  0
  9 19  1  0  0  0  0
 11 12  1  0  0  0  0
 11 13  1  0  0  0  0
 11 14  1  0  0  0  0
 14 15  2  0  0  0  0
 14 16  1  0  0  0  0
 16 17  1  0  0  0  0
 16 18  1  0  0  0  0
 19 20  2  0  0  0  0
 19 21  1  0  0  0  0
 21 22  1  0  0  0  0
 21 23  1  0  0  0  0
 23 24  1  0  0  0  0
 23 25  1  0  0  0  0
 23 26  1  0  0  0  0
M  END
$$$$

  -OEChem-03222214023D

 26 25  0     1  0  0  0  0  0999 V2000
   -2.7234   -3.6625   -0.2633 H   0  0  0  0  0  0  0  0  0  0  0  0
   -2.6832   -2.6300   -0.6224 C   0  0  0  0  0  0  0  0  0  0  0  0
   -3.4362   -2.0433   -0.0908 H   0  0  0  0  0  0  0  0  0  0  0  0
   -2.9109   -2.6219   -1.6912 H   0  0  0  0  0  0  0  0  0  0  0  0
   -1.3034   -2.0470   -0.3804 C   0  0  0  0  0  0  0  0  0  0  0  0
   -0.4541   -2.7119    0.1842 O   0  0  0  0  0  0  0  0  0  0  0  0
   -1.0150   -0.7642   -0.8085 N   0  0  0  0  0  0  0  0  0  0  0  0
   -1.7312   -0.3005   -1.3609 H   0  0  0  0  0  0  0  0  0  0  0  0
    0.3213   -0.1397   -0.7341 C   0  0  1  0  0  0  0  0  0  0  0  0
    1.0485   -0.7486   -1.2843 H   0  0  0  0  0  0  0  0  0  0  0  0
    0.1867    1.2374   -1.4310 C   0  0  0  0  0  0  0  0  0  0  0  0
    0.0773    1.0658   -2.5058 H   0  0  0  0  0  0  0  0  0  0  0  0
   -0.7313    1.7136   -1.0765 H   0  0  0  0  0  0  0  0  0  0  0  0
    1.2911    2.2839   -1.2353 C   0  0  0  0  0  0  0  0  0  0  0  0
    1.5062    3.0806   -2.1281 O   0  0  0  0  0  0  0  0  0  0  0  0
    2.0034    2.5208   -0.0951 N   0  0  0  0  0  0  0  0  0  0  0  0
    2.7748    3.1704   -0.2120 H   0  0  0  0  0  0  0  0  0  0  0  0
    2.1233    1.7398    0.5525 H   0  0  0  0  0  0  0  0  0  0  0  0
    0.8273   -0.0603    0.7254 C   0  0  0  0  0  0  0  0  0  0  0  0
    2.0272   -0.1323    0.9566 O   0  0  0  0  0  0  0  0  0  0  0  0
   -0.0196    0.3663    1.7315 N   0  0  0  0  0  0  0  0  0  0  0  0
   -1.0126    0.3498    1.5226 H   0  0  0  0  0  0  0  0  0  0  0  0
    0.4004    0.5034    3.1207 C   0  0  0  0  0  0  0  0  0  0  0  0
    1.2092    1.2366    3.2068 H   0  0  0  0  0  0  0  0  0  0  0  0
   -0.4375    0.8426    3.7373 H   0  0  0  0  0  0  0  0  0  0  0  0
    0.7521   -0.4576    3.5108 H   0  0  0  0  0  0  0  0  0  0  0  0
  1  2  1  0  0  0  0
  2  3  1  0  0  0  0
  2  4  1  0  0  0  0
  2  5  1  0  0  0  0
  5  6  2  0  0  0  0
  5  7  1  0  0  0  0
  7  8  1  0  0  0  0
  7  9  1  0  0  0  0
  9 10  1  0  0  0  0
  9 11  1  0  0  0  0
  9 19  1  0  0  0  0
 11 12  1  0  0  0  0
 11 13  1  0  0  0  0
 11 14  1  0  0  0  0
 14 15  2  0  0  0  0
 14 16  1  0  0  0  0
 16 17  1  0  0  0  0
 16 18  1  0  0  0  0
 19 20  2  0  0  0  0
 19 21  1  0  0  0  0
 21 22  1  0  0  0  0
 21 23  1  0  0  0  0
 23 24  1  0  0  0  0
 23 25  1  0  0  0  0
 23 26  1  0  0  0  0
M  END
$$$$

  -OEChem-03222214023D

 26 25  0     1  0  0  0  0  0999 V2000
   -2.7249   -3.6525   -0.2529 H   0  0  0  0  0  0  0  0  0  0  0  0
   -2.6823   -2.6201   -0.6122 C   0  0  0  0  0  0  0  0  0  0  0  0
   -3.4280   -2.0298   -0.0744 H   0  0  0  0  0  0  0  0  0  0  0  0
   -2.9186   -2.6103   -1.6791 H   0  0  0  0  0  0  0  0  0  0  0  0
   -1.2977   -2.0443   -0.3811 C   0  0  0  0  0  0  0  0  0  0  0  0
   -0.4463   -2.7147    0.1737 O   0  0  0  0  0  0  0  0  0  0  0  0
   -1.0068   -0.7625   -0.8101 N   0  0  0  0  0  0  0  0  0  0  0  0
   -1.7278   -0.2894   -1.3481 H   0  0  0  0  0  0  0  0  0  0  0  0
    0.3278   -0.1359   -0.7248 C   0  0  1  0  0  0  0  0  0  0  0  0
    1.0608   -0.7442   -1.2683 H   0  0  0  0  0  0  0  0  0  0  0  0
    0.1870    1.2362   -1.4298 C   0  0  0  0  0  0  0  0  0  0  0  0
    0.0895    1.0565   -2.5043 H   0  0  0  0  0  0  0  0  0  0  0  0
   -0.7396    1.7038   -1.0858 H   0  0  0  0  0  0  0  0  0  0  0  0
    1.2737    2.3016   -1.2405 C   0  0  0  0  0  0  0  0  0  0  0  0
    1.2951    3.2493   -2.0015 O   0  0  0  0  0  0  0  0  0  0  0  0
    2.2692    2.3118   -0.3069 N   0  0  0  0  0  0  0  0  0  0  0  0
    3.0065    2.9954   -0.4464 H   0  0  0  0  0  0  0  0  0  0  0  0
    2.4594    1.4635    0.2311 H   0  0  0  0  0  0  0  0  0  0  0  0
    0.8222   -0.0502    0.7392 C   0  0  0  0  0  0  0  0  0  0  0  0
    2.0134   -0.1930    0.9851 O   0  0  0  0  0  0  0  0  0  0  0  0
   -0.0279    0.3789    1.7413 N   0  0  0  0  0  0  0  0  0  0  0  0
   -1.0172    0.4078    1.5175 H   0  0  0  0  0  0  0  0  0  0  0  0
    0.3797    0.4888    3.1364 C   0  0  0  0  0  0  0  0  0  0  0  0
    1.2085    1.1972    3.2397 H   0  0  0  0  0  0  0  0  0  0  0  0
   -0.4552    0.8452    3.7474 H   0  0  0  0  0  0  0  0  0  0  0  0
    0.6992   -0.4862    3.5193 H   0  0  0  0  0  0  0  0  0  0  0  0
  1  2  1  0  0  0  0
  2  3  1  0  0  0  0
  2  4  1  0  0  0  0
  2  5  1  0  0  0  0
  5  6  2  0  0  0  0
  5  7  1  0  0  0  0
  7  8  1  0  0  0  0
  7  9  1  0  0  0  0
  9 10  1  0  0  0  0
  9 11  1  0  0  0  0
  9 19  1  0  0  0  0
 11 12  1  0  0  0  0
 11 13  1  0  0  0  0
 11 14  1  0  0  0  0
 14 15  2  0  0  0  0
 14 16  1  0  0  0  0
 16 17  1  0  0  0  0
 16 18  1  0  0  0  0
 19 20  2  0  0  0  0
 19 21  1  0  0  0  0
 21 22  1  0  0  0  0
 21 23  1  0  0  0  0
 23 24  1  0  0  0  0
 23 25  1  0  0  0  0
 23 26  1  0  0  0  0
M  END
$$$$
