@<TRIPOS>MOLECULE
default_name
   21    20     1     0     0
SMALL
No Charge or Current Charge


@<TRIPOS>ATOM
      1 H1          25.9110    25.3500    25.0110 H          1 ACE       0.112300
      2 CH3         25.9750    26.2630    24.4220 C.3        1 ACE      -0.366200
      3 H2          25.3660    27.0420    24.8750 H          1 ACE       0.112300
      4 H3          25.6410    26.0750    23.4040 H          1 ACE       0.112300
      5 C           27.4150    26.7250    24.3890 C.2        1 ACE       0.597200
      6 O           28.2730    26.0730    24.9730 O.2        1 ACE      -0.567900
      7 N           27.6520    27.8430    23.7040 N.am       2 CAS      -0.567900
      8 H           26.8710    28.3360    23.2890 H          2 CAS      -0.567900
      9 CA          28.9290    28.5520    23.5630 C.3        2 CAS      -0.567900
     10 HA          29.4830    28.4890    24.4990 H          2 CAS      -0.567900
     11 CB          29.7480    27.8820    22.4260 C.3        2 CAS      -0.567900
     12 HB2         29.7320    26.8030    22.5700 H          2 CAS      -0.567900
     13 HB3         29.2710    28.1120    21.4750 H          2 CAS      -0.567900
     14 CG          31.2170    28.2790    22.3110 C.2        2 CAS      -0.567900
     15 OD1         32.0280    27.5460    21.7660 O.2        2 CAS      -0.567900
     16 ND2         31.6340    29.4160    22.8110 N.am       2 CAS      -0.567900
     17 HD21        32.5970    29.6480    22.7040 H          2 CAS      -0.567900
     18 HD22        30.9450    30.0560    23.2190 H          2 CAS      -0.567900
     19 C           28.6380    30.0400    23.3060 C.2        2 CAS      -0.567900
     20 O           27.5770    30.3190    22.7060 O.co2      2 CAS      -0.567900
     21 OXT         29.4900    30.8570    23.7180 O.co2      2 CAS      -0.567900
@<TRIPOS>BOND
     1     5     6 2   
     2     5     7 am  
     3     2     3 1   
     4     2     4 1   
     5     2     5 1   
     6     1     2 1   
     7    19    20 1   
     8    19    21 1   
     9    16    17 1   
    10    16    18 1   
    11    14    15 2   
    12    14    16 am  
    13    11    12 1   
    14    11    13 1   
    15    11    14 1   
    16     9    10 1   
    17     9    11 1   
    18     9    19 1   
    19     7     8 1   
    20     7     9 1   
@<TRIPOS>SUBSTRUCTURE
     1 ACE         1 TEMP              0 ****  ****    0 ROOT
