@<TRIPOS>MOLECULE
default_name
   29    28     1     0     0
SMALL
No Charge or Current Charge


@<TRIPOS>ATOM
      1 H1          25.7560    25.1470    24.3810 H          1 ACE       0.112300
      2 CH3         25.8400    26.2070    24.1480 C.3        1 ACE      -0.366200
      3 H2          25.3000    26.7920    24.8900 H          1 ACE       0.112300
      4 H3          25.4340    26.4030    23.1580 H          1 ACE       0.112300
      5 C           27.2980    26.6040    24.1750 C.2        1 ACE       0.597200
      6 O           28.1530    25.7600    24.4310 O.2        1 ACE      -0.567900
      7 N           27.5660    27.8800    23.8960 N.am       2 CLY      -0.567900
      8 H           26.7990    28.5100    23.6970 H          2 CLY      -0.567900
      9 CA          28.8780    28.5390    23.9430 C.3        2 CLY      -0.567900
     10 HA          29.4110    28.2330    24.8410 H          2 CLY      -0.567900
     11 CB          29.6900    28.1580    22.6930 C.3        2 CLY      -0.567900
     12 HB2         29.7960    27.0740    22.6500 H          2 CLY      -0.567900
     13 HB3         29.1540    28.4980    21.8040 H          2 CLY      -0.567900
     14 CG          31.0820    28.8000    22.7290 C.3        2 CLY      -0.567900
     15 HG2         30.9820    29.8850    22.7450 H          2 CLY      -0.567900
     16 HG3         31.6050    28.4790    23.6320 H          2 CLY      -0.567900
     17 CD          31.9120    28.4350    21.5020 C.3        2 CLY      -0.567900
     18 HD2         32.1140    27.3620    21.4990 H          2 CLY      -0.567900
     19 HD3         31.3590    28.7130    20.6030 H          2 CLY      -0.567900
     20 CE          33.2150    29.2340    21.5890 C.3        2 CLY      -0.567900
     21 HE2         32.9580    30.2900    21.7260 H          2 CLY      -0.567900
     22 HE3         33.7620    28.9090    22.4800 H          2 CLY      -0.567900
     23 NZ          34.0400    29.0610    20.3720 N.4        2 CLY      -0.567900
     24 HZ1         33.5230    29.3790    19.5620 H          2 CLY      -0.567900
     25 HZ2         34.8910    29.6030    20.4500 H          2 CLY      -0.567900
     26 HZ3         34.2760    28.0860    20.2490 H          2 CLY      -0.567900
     27 C           28.6880    30.0550    24.0440 C.2        2 CLY      -0.567900
     28 O           27.6910    30.5290    23.4570 O.co2      2 CLY      -0.567900
     29 OXT         29.5640    30.6900    24.6640 O.co2      2 CLY      -0.567900
@<TRIPOS>BOND
     1     5     6 2   
     2     5     7 am  
     3     2     3 1   
     4     2     4 1   
     5     2     5 1   
     6     1     2 1   
     7    27    28 1   
     8    27    29 1   
     9    23    24 1   
    10    23    25 1   
    11    23    26 1   
    12    20    21 1   
    13    20    22 1   
    14    20    23 1   
    15    17    18 1   
    16    17    19 1   
    17    17    20 1   
    18    14    15 1   
    19    14    16 1   
    20    14    17 1   
    21    11    12 1   
    22    11    13 1   
    23    11    14 1   
    24     9    10 1   
    25     9    11 1   
    26     9    27 1   
    27     7     8 1   
    28     7     9 1   
@<TRIPOS>SUBSTRUCTURE
     1 ACE         1 TEMP              0 ****  ****    0 ROOT
