@<TRIPOS>MOLECULE
default_name
   15    14     1     0     0
SMALL
No Charge or Current Charge


@<TRIPOS>ATOM
      1 N           27.3240    25.5390    23.9600 N.4        1 NGL       0.000000
      2 H1          27.7160    24.8750    24.6150 H          1 NGL       0.000000
      3 H2          27.5270    25.2020    23.0270 H          1 NGL       0.000000
      4 H3          26.3250    25.6050    24.0930 H          1 NGL       0.000000
      5 CA          27.9700    26.8560    24.1530 C.3        1 NGL       0.000000
      6 HA2         27.5680    27.5750    23.4400 H          1 NGL       0.000000
      7 HA3         27.7990    27.2090    25.1700 H          1 NGL       0.000000
      8 C           29.4630    26.7250    23.9240 C.2        1 NGL       0.000000
      9 O           29.8930    25.6330    23.5750 O.2        1 NGL       0.000000
     10 N           30.2310    27.8020    24.1150 N.am       2 NME      -0.415700
     11 H           29.8070    28.6720    24.4020 H          2 NME       0.271900
     12 CH3         31.6830    27.8060    23.9240 C.3        2 NME      -0.149000
     13 HH31        32.1210    26.8820    24.3090 H          2 NME       0.097600
     14 HH32        31.9210    27.8850    22.8610 H          2 NME       0.097600
     15 HH33        32.1330    28.6510    24.4500 H          2 NME       0.097600
@<TRIPOS>BOND
     1     8     9 2   
     2     8    10 am  
     3     5     6 1   
     4     5     7 1   
     5     5     8 1   
     6     1     2 1   
     7     1     3 1   
     8     1     4 1   
     9     1     5 1   
    10    12    13 1   
    11    12    14 1   
    12    12    15 1   
    13    10    11 1   
    14    10    12 1   
@<TRIPOS>SUBSTRUCTURE
     1 NGL         1 TEMP              0 ****  ****    0 ROOT
