default_name
  -OEChem-11182114113D

 26 26  0     1  0  0  0  0  0999 V2000
   -1.8446   -3.5060   -0.3010 H   0  0  0  0  0  0  0  0  0  0  0  0
   -2.0746   -2.4490   -0.4240 C   0  0  0  0  0  0  0  0  0  0  0  0
   -2.6906   -2.1160    0.4090 H   0  0  0  0  0  0  0  0  0  0  0  0
   -2.5986   -2.2980   -1.3650 H   0  0  0  0  0  0  0  0  0  0  0  0
   -0.7756   -1.6630   -0.4350 C   0  0  0  0  0  0  0  0  0  0  0  0
    0.2844   -2.2800   -0.4550 O   0  0  0  0  0  0  0  0  0  0  0  0
   -0.8246   -0.3180   -0.4350 N   0  0  0  0  0  0  0  0  0  0  0  0
   -2.0106    0.5080   -0.5910 C   0  0  0  0  0  0  0  0  0  0  0  0
   -2.1735    1.4152   -0.0069 H   0  0  0  0  0  0  0  0  0  0  0  0
   -2.9337    0.2014   -1.0816 H   0  0  0  0  0  0  0  0  0  0  0  0
   -0.9212    0.7479   -1.6341 C   0  0  0  0  0  0  0  0  0  0  0  0
   -1.5459    1.5420   -2.0459 H   0  0  0  0  0  0  0  0  0  0  0  0
   -1.1799   -0.2161   -2.0734 H   0  0  0  0  0  0  0  0  0  0  0  0
    0.5675    1.0278   -1.8400 C   0  0  0  0  0  0  0  0  0  0  0  0
    0.9452    2.0522   -1.8362 H   0  0  0  0  0  0  0  0  0  0  0  0
    1.2377    0.3817   -2.4067 H   0  0  0  0  0  0  0  0  0  0  0  0
    0.3724    0.5200   -0.4020 C   0  0  1  0  0  0  0  0  0  0  0  0
    1.2226   -0.1060   -0.1299 H   0  0  0  0  0  0  0  0  0  0  0  0
    0.2441    1.6770    0.6029 C   0  0  0  0  0  0  0  0  0  0  0  0
   -0.7943    1.8362    1.2414 O   0  0  0  0  0  0  0  0  0  0  0  0
    1.2888    2.5067    0.7112 N   0  0  0  0  0  0  0  0  0  0  0  0
    2.1250    2.2755    0.1992 H   0  0  0  0  0  0  0  0  0  0  0  0
    1.3272    3.6575    1.6106 C   0  0  0  0  0  0  0  0  0  0  0  0
    1.2876    3.3121    2.6459 H   0  0  0  0  0  0  0  0  0  0  0  0
    2.2427    4.2292    1.4554 H   0  0  0  0  0  0  0  0  0  0  0  0
    0.4631    4.2995    1.4263 H   0  0  0  0  0  0  0  0  0  0  0  0
  5  6  2  0  0  0  0
  5  7  1  0  0  0  0
  2  3  1  0  0  0  0
  2  4  1  0  0  0  0
  2  5  1  0  0  0  0
  1  2  1  0  0  0  0
 19 20  2  0  0  0  0
 19 21  1  0  0  0  0
 17 18  1  0  0  0  0
 17 19  1  0  0  0  0
 14 15  1  0  0  0  0
 14 16  1  0  0  0  0
 14 17  1  0  0  0  0
 11 12  1  0  0  0  0
 11 13  1  0  0  0  0
 11 14  1  0  0  0  0
  8  9  1  0  0  0  0
  8 10  1  0  0  0  0
  8 11  1  0  0  0  0
  7  8  1  0  0  0  0
  7 17  1  0  0  0  0
 23 24  1  0  0  0  0
 23 25  1  0  0  0  0
 23 26  1  0  0  0  0
 21 22  1  0  0  0  0
 21 23  1  0  0  0  0
M  END
$$$$
default_name
  -OEChem-11182114113D

 26 26  0     1  0  0  0  0  0999 V2000
   -1.8446   -3.5060   -0.3010 H   0  0  0  0  0  0  0  0  0  0  0  0
   -2.0746   -2.4490   -0.4240 C   0  0  0  0  0  0  0  0  0  0  0  0
   -2.6906   -2.1160    0.4090 H   0  0  0  0  0  0  0  0  0  0  0  0
   -2.5986   -2.2980   -1.3650 H   0  0  0  0  0  0  0  0  0  0  0  0
   -0.7756   -1.6630   -0.4350 C   0  0  0  0  0  0  0  0  0  0  0  0
    0.2844   -2.2800   -0.4550 O   0  0  0  0  0  0  0  0  0  0  0  0
   -0.8246   -0.3180   -0.4350 N   0  0  0  0  0  0  0  0  0  0  0  0
   -2.0106    0.5080   -0.5910 C   0  0  0  0  0  0  0  0  0  0  0  0
   -2.1735    1.4152   -0.0069 H   0  0  0  0  0  0  0  0  0  0  0  0
   -2.9337    0.2014   -1.0816 H   0  0  0  0  0  0  0  0  0  0  0  0
   -0.9212    0.7479   -1.6341 C   0  0  0  0  0  0  0  0  0  0  0  0
   -1.5459    1.5420   -2.0459 H   0  0  0  0  0  0  0  0  0  0  0  0
   -1.1799   -0.2161   -2.0734 H   0  0  0  0  0  0  0  0  0  0  0  0
    0.5675    1.0278   -1.8400 C   0  0  0  0  0  0  0  0  0  0  0  0
    0.9452    2.0522   -1.8362 H   0  0  0  0  0  0  0  0  0  0  0  0
    1.2377    0.3817   -2.4067 H   0  0  0  0  0  0  0  0  0  0  0  0
    0.3724    0.5200   -0.4020 C   0  0  1  0  0  0  0  0  0  0  0  0
    1.2226   -0.1060   -0.1299 H   0  0  0  0  0  0  0  0  0  0  0  0
    0.2441    1.6770    0.6029 C   0  0  0  0  0  0  0  0  0  0  0  0
   -0.6633    1.6849    1.4323 O   0  0  0  0  0  0  0  0  0  0  0  0
    1.1323    2.6731    0.4997 N   0  0  0  0  0  0  0  0  0  0  0  0
    1.8810    2.5652   -0.1656 H   0  0  0  0  0  0  0  0  0  0  0  0
    1.1457    3.8477    1.3684 C   0  0  0  0  0  0  0  0  0  0  0  0
    1.3663    3.5405    2.3929 H   0  0  0  0  0  0  0  0  0  0  0  0
    1.9024    4.5579    1.0335 H   0  0  0  0  0  0  0  0  0  0  0  0
    0.1653    4.3289    1.3545 H   0  0  0  0  0  0  0  0  0  0  0  0
  5  6  2  0  0  0  0
  5  7  1  0  0  0  0
  2  3  1  0  0  0  0
  2  4  1  0  0  0  0
  2  5  1  0  0  0  0
  1  2  1  0  0  0  0
 19 20  2  0  0  0  0
 19 21  1  0  0  0  0
 17 18  1  0  0  0  0
 17 19  1  0  0  0  0
 14 15  1  0  0  0  0
 14 16  1  0  0  0  0
 14 17  1  0  0  0  0
 11 12  1  0  0  0  0
 11 13  1  0  0  0  0
 11 14  1  0  0  0  0
  8  9  1  0  0  0  0
  8 10  1  0  0  0  0
  8 11  1  0  0  0  0
  7  8  1  0  0  0  0
  7 17  1  0  0  0  0
 23 24  1  0  0  0  0
 23 25  1  0  0  0  0
 23 26  1  0  0  0  0
 21 22  1  0  0  0  0
 21 23  1  0  0  0  0
M  END
$$$$
default_name
  -OEChem-11182114113D

 26 26  0     1  0  0  0  0  0999 V2000
   -1.8446   -3.5060   -0.3010 H   0  0  0  0  0  0  0  0  0  0  0  0
   -2.0746   -2.4490   -0.4240 C   0  0  0  0  0  0  0  0  0  0  0  0
   -2.6906   -2.1160    0.4090 H   0  0  0  0  0  0  0  0  0  0  0  0
   -2.5986   -2.2980   -1.3650 H   0  0  0  0  0  0  0  0  0  0  0  0
   -0.7756   -1.6630   -0.4350 C   0  0  0  0  0  0  0  0  0  0  0  0
    0.2844   -2.2800   -0.4550 O   0  0  0  0  0  0  0  0  0  0  0  0
   -0.8246   -0.3180   -0.4350 N   0  0  0  0  0  0  0  0  0  0  0  0
   -2.0106    0.5080   -0.5910 C   0  0  0  0  0  0  0  0  0  0  0  0
   -2.1735    1.4152   -0.0069 H   0  0  0  0  0  0  0  0  0  0  0  0
   -2.9337    0.2014   -1.0816 H   0  0  0  0  0  0  0  0  0  0  0  0
   -0.9212    0.7479   -1.6341 C   0  0  0  0  0  0  0  0  0  0  0  0
   -1.5459    1.5420   -2.0459 H   0  0  0  0  0  0  0  0  0  0  0  0
   -1.1799   -0.2161   -2.0734 H   0  0  0  0  0  0  0  0  0  0  0  0
    0.5675    1.0278   -1.8400 C   0  0  0  0  0  0  0  0  0  0  0  0
    0.9452    2.0522   -1.8362 H   0  0  0  0  0  0  0  0  0  0  0  0
    1.2377    0.3817   -2.4067 H   0  0  0  0  0  0  0  0  0  0  0  0
    0.3724    0.5200   -0.4020 C   0  0  1  0  0  0  0  0  0  0  0  0
    1.2226   -0.1060   -0.1299 H   0  0  0  0  0  0  0  0  0  0  0  0
    0.2441    1.6770    0.6029 C   0  0  0  0  0  0  0  0  0  0  0  0
   -0.4739    1.5651    1.5945 O   0  0  0  0  0  0  0  0  0  0  0  0
    0.9118    2.8027    0.3223 N   0  0  0  0  0  0  0  0  0  0  0  0
    1.5253    2.7960   -0.4767 H   0  0  0  0  0  0  0  0  0  0  0  0
    0.8911    3.9955    1.1657 C   0  0  0  0  0  0  0  0  0  0  0  0
    1.3544    3.7690    2.1284 H   0  0  0  0  0  0  0  0  0  0  0  0
    1.4359    4.8087    0.6852 H   0  0  0  0  0  0  0  0  0  0  0  0
   -0.1412    4.3053    1.3425 H   0  0  0  0  0  0  0  0  0  0  0  0
  5  6  2  0  0  0  0
  5  7  1  0  0  0  0
  2  3  1  0  0  0  0
  2  4  1  0  0  0  0
  2  5  1  0  0  0  0
  1  2  1  0  0  0  0
 19 20  2  0  0  0  0
 19 21  1  0  0  0  0
 17 18  1  0  0  0  0
 17 19  1  0  0  0  0
 14 15  1  0  0  0  0
 14 16  1  0  0  0  0
 14 17  1  0  0  0  0
 11 12  1  0  0  0  0
 11 13  1  0  0  0  0
 11 14  1  0  0  0  0
  8  9  1  0  0  0  0
  8 10  1  0  0  0  0
  8 11  1  0  0  0  0
  7  8  1  0  0  0  0
  7 17  1  0  0  0  0
 23 24  1  0  0  0  0
 23 25  1  0  0  0  0
 23 26  1  0  0  0  0
 21 22  1  0  0  0  0
 21 23  1  0  0  0  0
M  END
$$$$
default_name
  -OEChem-11182114113D

 26 26  0     1  0  0  0  0  0999 V2000
   -1.8446   -3.5060   -0.3010 H   0  0  0  0  0  0  0  0  0  0  0  0
   -2.0746   -2.4490   -0.4240 C   0  0  0  0  0  0  0  0  0  0  0  0
   -2.6906   -2.1160    0.4090 H   0  0  0  0  0  0  0  0  0  0  0  0
   -2.5986   -2.2980   -1.3650 H   0  0  0  0  0  0  0  0  0  0  0  0
   -0.7756   -1.6630   -0.4350 C   0  0  0  0  0  0  0  0  0  0  0  0
    0.2844   -2.2800   -0.4550 O   0  0  0  0  0  0  0  0  0  0  0  0
   -0.8246   -0.3180   -0.4350 N   0  0  0  0  0  0  0  0  0  0  0  0
   -2.0106    0.5080   -0.5910 C   0  0  0  0  0  0  0  0  0  0  0  0
   -2.1735    1.4152   -0.0069 H   0  0  0  0  0  0  0  0  0  0  0  0
   -2.9337    0.2014   -1.0816 H   0  0  0  0  0  0  0  0  0  0  0  0
   -0.9212    0.7479   -1.6341 C   0  0  0  0  0  0  0  0  0  0  0  0
   -1.5459    1.5420   -2.0459 H   0  0  0  0  0  0  0  0  0  0  0  0
   -1.1799   -0.2161   -2.0734 H   0  0  0  0  0  0  0  0  0  0  0  0
    0.5675    1.0278   -1.8400 C   0  0  0  0  0  0  0  0  0  0  0  0
    0.9452    2.0522   -1.8362 H   0  0  0  0  0  0  0  0  0  0  0  0
    1.2377    0.3817   -2.4067 H   0  0  0  0  0  0  0  0  0  0  0  0
    0.3724    0.5200   -0.4020 C   0  0  1  0  0  0  0  0  0  0  0  0
    1.2226   -0.1060   -0.1299 H   0  0  0  0  0  0  0  0  0  0  0  0
    0.2441    1.6770    0.6029 C   0  0  0  0  0  0  0  0  0  0  0  0
   -0.2392    1.4849    1.7168 O   0  0  0  0  0  0  0  0  0  0  0  0
    0.6423    2.8868    0.1911 N   0  0  0  0  0  0  0  0  0  0  0  0
    1.0821    2.9520   -0.7129 H   0  0  0  0  0  0  0  0  0  0  0  0
    0.5807    4.0908    1.0163 C   0  0  0  0  0  0  0  0  0  0  0  0
    1.2528    3.9819    1.8702 H   0  0  0  0  0  0  0  0  0  0  0  0
    0.8751    4.9646    0.4341 H   0  0  0  0  0  0  0  0  0  0  0  0
   -0.4356    4.2305    1.3911 H   0  0  0  0  0  0  0  0  0  0  0  0
  5  6  2  0  0  0  0
  5  7  1  0  0  0  0
  2  3  1  0  0  0  0
  2  4  1  0  0  0  0
  2  5  1  0  0  0  0
  1  2  1  0  0  0  0
 19 20  2  0  0  0  0
 19 21  1  0  0  0  0
 17 18  1  0  0  0  0
 17 19  1  0  0  0  0
 14 15  1  0  0  0  0
 14 16  1  0  0  0  0
 14 17  1  0  0  0  0
 11 12  1  0  0  0  0
 11 13  1  0  0  0  0
 11 14  1  0  0  0  0
  8  9  1  0  0  0  0
  8 10  1  0  0  0  0
  8 11  1  0  0  0  0
  7  8  1  0  0  0  0
  7 17  1  0  0  0  0
 23 24  1  0  0  0  0
 23 25  1  0  0  0  0
 23 26  1  0  0  0  0
 21 22  1  0  0  0  0
 21 23  1  0  0  0  0
M  END
$$$$
default_name
  -OEChem-11182114113D

 26 26  0     1  0  0  0  0  0999 V2000
   -1.8446   -3.5060   -0.3010 H   0  0  0  0  0  0  0  0  0  0  0  0
   -2.0746   -2.4490   -0.4240 C   0  0  0  0  0  0  0  0  0  0  0  0
   -2.6906   -2.1160    0.4090 H   0  0  0  0  0  0  0  0  0  0  0  0
   -2.5986   -2.2980   -1.3650 H   0  0  0  0  0  0  0  0  0  0  0  0
   -0.7756   -1.6630   -0.4350 C   0  0  0  0  0  0  0  0  0  0  0  0
    0.2844   -2.2800   -0.4550 O   0  0  0  0  0  0  0  0  0  0  0  0
   -0.8246   -0.3180   -0.4350 N   0  0  0  0  0  0  0  0  0  0  0  0
   -2.0106    0.5080   -0.5910 C   0  0  0  0  0  0  0  0  0  0  0  0
   -2.1735    1.4152   -0.0069 H   0  0  0  0  0  0  0  0  0  0  0  0
   -2.9337    0.2014   -1.0816 H   0  0  0  0  0  0  0  0  0  0  0  0
   -0.9212    0.7479   -1.6341 C   0  0  0  0  0  0  0  0  0  0  0  0
   -1.5459    1.5420   -2.0459 H   0  0  0  0  0  0  0  0  0  0  0  0
   -1.1799   -0.2161   -2.0734 H   0  0  0  0  0  0  0  0  0  0  0  0
    0.5675    1.0278   -1.8400 C   0  0  0  0  0  0  0  0  0  0  0  0
    0.9452    2.0522   -1.8362 H   0  0  0  0  0  0  0  0  0  0  0  0
    1.2377    0.3817   -2.4067 H   0  0  0  0  0  0  0  0  0  0  0  0
    0.3724    0.5200   -0.4020 C   0  0  1  0  0  0  0  0  0  0  0  0
    1.2226   -0.1060   -0.1299 H   0  0  0  0  0  0  0  0  0  0  0  0
    0.2441    1.6770    0.6029 C   0  0  0  0  0  0  0  0  0  0  0  0
    0.0249    1.4497    1.7910 O   0  0  0  0  0  0  0  0  0  0  0  0
    0.3422    2.9196    0.1150 N   0  0  0  0  0  0  0  0  0  0  0  0
    0.5816    3.0226   -0.8581 H   0  0  0  0  0  0  0  0  0  0  0  0
    0.2357    4.1272    0.9304 C   0  0  0  0  0  0  0  0  0  0  0  0
    1.0684    4.1649    1.6360 H   0  0  0  0  0  0  0  0  0  0  0  0
    0.2582    5.0149    0.2974 H   0  0  0  0  0  0  0  0  0  0  0  0
   -0.6979    4.1095    1.4969 H   0  0  0  0  0  0  0  0  0  0  0  0
  5  6  2  0  0  0  0
  5  7  1  0  0  0  0
  2  3  1  0  0  0  0
  2  4  1  0  0  0  0
  2  5  1  0  0  0  0
  1  2  1  0  0  0  0
 19 20  2  0  0  0  0
 19 21  1  0  0  0  0
 17 18  1  0  0  0  0
 17 19  1  0  0  0  0
 14 15  1  0  0  0  0
 14 16  1  0  0  0  0
 14 17  1  0  0  0  0
 11 12  1  0  0  0  0
 11 13  1  0  0  0  0
 11 14  1  0  0  0  0
  8  9  1  0  0  0  0
  8 10  1  0  0  0  0
  8 11  1  0  0  0  0
  7  8  1  0  0  0  0
  7 17  1  0  0  0  0
 23 24  1  0  0  0  0
 23 25  1  0  0  0  0
 23 26  1  0  0  0  0
 21 22  1  0  0  0  0
 21 23  1  0  0  0  0
M  END
$$$$
default_name
  -OEChem-11182114113D

 26 26  0     1  0  0  0  0  0999 V2000
   -1.8446   -3.5060   -0.3010 H   0  0  0  0  0  0  0  0  0  0  0  0
   -2.0746   -2.4490   -0.4240 C   0  0  0  0  0  0  0  0  0  0  0  0
   -2.6906   -2.1160    0.4090 H   0  0  0  0  0  0  0  0  0  0  0  0
   -2.5986   -2.2980   -1.3650 H   0  0  0  0  0  0  0  0  0  0  0  0
   -0.7756   -1.6630   -0.4350 C   0  0  0  0  0  0  0  0  0  0  0  0
    0.2844   -2.2800   -0.4550 O   0  0  0  0  0  0  0  0  0  0  0  0
   -0.8246   -0.3180   -0.4350 N   0  0  0  0  0  0  0  0  0  0  0  0
   -2.0106    0.5080   -0.5910 C   0  0  0  0  0  0  0  0  0  0  0  0
   -2.1735    1.4152   -0.0069 H   0  0  0  0  0  0  0  0  0  0  0  0
   -2.9337    0.2014   -1.0816 H   0  0  0  0  0  0  0  0  0  0  0  0
   -0.9212    0.7479   -1.6341 C   0  0  0  0  0  0  0  0  0  0  0  0
   -1.5459    1.5420   -2.0459 H   0  0  0  0  0  0  0  0  0  0  0  0
   -1.1799   -0.2161   -2.0734 H   0  0  0  0  0  0  0  0  0  0  0  0
    0.5675    1.0278   -1.8400 C   0  0  0  0  0  0  0  0  0  0  0  0
    0.9452    2.0522   -1.8362 H   0  0  0  0  0  0  0  0  0  0  0  0
    1.2377    0.3817   -2.4067 H   0  0  0  0  0  0  0  0  0  0  0  0
    0.3724    0.5200   -0.4020 C   0  0  1  0  0  0  0  0  0  0  0  0
    1.2226   -0.1060   -0.1299 H   0  0  0  0  0  0  0  0  0  0  0  0
    0.2441    1.6770    0.6029 C   0  0  0  0  0  0  0  0  0  0  0  0
    0.3004    1.4620    1.8120 O   0  0  0  0  0  0  0  0  0  0  0  0
    0.0319    2.8989    0.0992 N   0  0  0  0  0  0  0  0  0  0  0  0
    0.0579    3.0030   -0.9025 H   0  0  0  0  0  0  0  0  0  0  0  0
   -0.1205    4.1021    0.9138 C   0  0  0  0  0  0  0  0  0  0  0  0
    0.8137    4.3053    1.4417 H   0  0  0  0  0  0  0  0  0  0  0  0
   -0.3728    4.9561    0.2844 H   0  0  0  0  0  0  0  0  0  0  0  0
   -0.9102    3.9505    1.6529 H   0  0  0  0  0  0  0  0  0  0  0  0
  5  6  2  0  0  0  0
  5  7  1  0  0  0  0
  2  3  1  0  0  0  0
  2  4  1  0  0  0  0
  2  5  1  0  0  0  0
  1  2  1  0  0  0  0
 19 20  2  0  0  0  0
 19 21  1  0  0  0  0
 17 18  1  0  0  0  0
 17 19  1  0  0  0  0
 14 15  1  0  0  0  0
 14 16  1  0  0  0  0
 14 17  1  0  0  0  0
 11 12  1  0  0  0  0
 11 13  1  0  0  0  0
 11 14  1  0  0  0  0
  8  9  1  0  0  0  0
  8 10  1  0  0  0  0
  8 11  1  0  0  0  0
  7  8  1  0  0  0  0
  7 17  1  0  0  0  0
 23 24  1  0  0  0  0
 23 25  1  0  0  0  0
 23 26  1  0  0  0  0
 21 22  1  0  0  0  0
 21 23  1  0  0  0  0
M  END
$$$$
default_name
  -OEChem-11182114113D

 26 26  0     1  0  0  0  0  0999 V2000
   -1.8446   -3.5060   -0.3010 H   0  0  0  0  0  0  0  0  0  0  0  0
   -2.0746   -2.4490   -0.4240 C   0  0  0  0  0  0  0  0  0  0  0  0
   -2.6906   -2.1160    0.4090 H   0  0  0  0  0  0  0  0  0  0  0  0
   -2.5986   -2.2980   -1.3650 H   0  0  0  0  0  0  0  0  0  0  0  0
   -0.7756   -1.6630   -0.4350 C   0  0  0  0  0  0  0  0  0  0  0  0
    0.2844   -2.2800   -0.4550 O   0  0  0  0  0  0  0  0  0  0  0  0
   -0.8246   -0.3180   -0.4350 N   0  0  0  0  0  0  0  0  0  0  0  0
   -2.0106    0.5080   -0.5910 C   0  0  0  0  0  0  0  0  0  0  0  0
   -2.1735    1.4152   -0.0069 H   0  0  0  0  0  0  0  0  0  0  0  0
   -2.9337    0.2014   -1.0816 H   0  0  0  0  0  0  0  0  0  0  0  0
   -0.9212    0.7479   -1.6341 C   0  0  0  0  0  0  0  0  0  0  0  0
   -1.5459    1.5420   -2.0459 H   0  0  0  0  0  0  0  0  0  0  0  0
   -1.1799   -0.2161   -2.0734 H   0  0  0  0  0  0  0  0  0  0  0  0
    0.5675    1.0278   -1.8400 C   0  0  0  0  0  0  0  0  0  0  0  0
    0.9452    2.0522   -1.8362 H   0  0  0  0  0  0  0  0  0  0  0  0
    1.2377    0.3817   -2.4067 H   0  0  0  0  0  0  0  0  0  0  0  0
    0.3724    0.5200   -0.4020 C   0  0  1  0  0  0  0  0  0  0  0  0
    1.2226   -0.1060   -0.1299 H   0  0  0  0  0  0  0  0  0  0  0  0
    0.2441    1.6770    0.6029 C   0  0  0  0  0  0  0  0  0  0  0  0
    0.5685    1.5210    1.7784 O   0  0  0  0  0  0  0  0  0  0  0  0
   -0.2673    2.8261    0.1448 N   0  0  0  0  0  0  0  0  0  0  0  0
   -0.4532    2.8946   -0.8429 H   0  0  0  0  0  0  0  0  0  0  0  0
   -0.4635    4.0173    0.9676 C   0  0  0  0  0  0  0  0  0  0  0  0
    0.5061    4.3937    1.3006 H   0  0  0  0  0  0  0  0  0  0  0  0
   -0.9750    4.7924    0.3961 H   0  0  0  0  0  0  0  0  0  0  0  0
   -1.0580    3.7644    1.8483 H   0  0  0  0  0  0  0  0  0  0  0  0
  5  6  2  0  0  0  0
  5  7  1  0  0  0  0
  2  3  1  0  0  0  0
  2  4  1  0  0  0  0
  2  5  1  0  0  0  0
  1  2  1  0  0  0  0
 19 20  2  0  0  0  0
 19 21  1  0  0  0  0
 17 18  1  0  0  0  0
 17 19  1  0  0  0  0
 14 15  1  0  0  0  0
 14 16  1  0  0  0  0
 14 17  1  0  0  0  0
 11 12  1  0  0  0  0
 11 13  1  0  0  0  0
 11 14  1  0  0  0  0
  8  9  1  0  0  0  0
  8 10  1  0  0  0  0
  8 11  1  0  0  0  0
  7  8  1  0  0  0  0
  7 17  1  0  0  0  0
 23 24  1  0  0  0  0
 23 25  1  0  0  0  0
 23 26  1  0  0  0  0
 21 22  1  0  0  0  0
 21 23  1  0  0  0  0
M  END
$$$$
default_name
  -OEChem-11182114113D

 26 26  0     1  0  0  0  0  0999 V2000
   -1.8446   -3.5060   -0.3010 H   0  0  0  0  0  0  0  0  0  0  0  0
   -2.0746   -2.4490   -0.4240 C   0  0  0  0  0  0  0  0  0  0  0  0
   -2.6906   -2.1160    0.4090 H   0  0  0  0  0  0  0  0  0  0  0  0
   -2.5986   -2.2980   -1.3650 H   0  0  0  0  0  0  0  0  0  0  0  0
   -0.7756   -1.6630   -0.4350 C   0  0  0  0  0  0  0  0  0  0  0  0
    0.2844   -2.2800   -0.4550 O   0  0  0  0  0  0  0  0  0  0  0  0
   -0.8246   -0.3180   -0.4350 N   0  0  0  0  0  0  0  0  0  0  0  0
   -2.0106    0.5080   -0.5910 C   0  0  0  0  0  0  0  0  0  0  0  0
   -2.1735    1.4152   -0.0069 H   0  0  0  0  0  0  0  0  0  0  0  0
   -2.9337    0.2014   -1.0816 H   0  0  0  0  0  0  0  0  0  0  0  0
   -0.9212    0.7479   -1.6341 C   0  0  0  0  0  0  0  0  0  0  0  0
   -1.5459    1.5420   -2.0459 H   0  0  0  0  0  0  0  0  0  0  0  0
   -1.1799   -0.2161   -2.0734 H   0  0  0  0  0  0  0  0  0  0  0  0
    0.5675    1.0278   -1.8400 C   0  0  0  0  0  0  0  0  0  0  0  0
    0.9452    2.0522   -1.8362 H   0  0  0  0  0  0  0  0  0  0  0  0
    1.2377    0.3817   -2.4067 H   0  0  0  0  0  0  0  0  0  0  0  0
    0.3724    0.5200   -0.4020 C   0  0  1  0  0  0  0  0  0  0  0  0
    1.2226   -0.1060   -0.1299 H   0  0  0  0  0  0  0  0  0  0  0  0
    0.2441    1.6770    0.6029 C   0  0  0  0  0  0  0  0  0  0  0  0
    0.8110    1.6225    1.6924 O   0  0  0  0  0  0  0  0  0  0  0  0
   -0.5351    2.7061    0.2487 N   0  0  0  0  0  0  0  0  0  0  0  0
   -0.9170    2.7047   -0.6835 H   0  0  0  0  0  0  0  0  0  0  0  0
   -0.7700    3.8785    1.0883 C   0  0  0  0  0  0  0  0  0  0  0  0
    0.1665    4.4241    1.2224 H   0  0  0  0  0  0  0  0  0  0  0  0
   -1.5071    4.5349    0.6247 H   0  0  0  0  0  0  0  0  0  0  0  0
   -1.1312    3.5639    2.0698 H   0  0  0  0  0  0  0  0  0  0  0  0
  5  6  2  0  0  0  0
  5  7  1  0  0  0  0
  2  3  1  0  0  0  0
  2  4  1  0  0  0  0
  2  5  1  0  0  0  0
  1  2  1  0  0  0  0
 19 20  2  0  0  0  0
 19 21  1  0  0  0  0
 17 18  1  0  0  0  0
 17 19  1  0  0  0  0
 14 15  1  0  0  0  0
 14 16  1  0  0  0  0
 14 17  1  0  0  0  0
 11 12  1  0  0  0  0
 11 13  1  0  0  0  0
 11 14  1  0  0  0  0
  8  9  1  0  0  0  0
  8 10  1  0  0  0  0
  8 11  1  0  0  0  0
  7  8  1  0  0  0  0
  7 17  1  0  0  0  0
 23 24  1  0  0  0  0
 23 25  1  0  0  0  0
 23 26  1  0  0  0  0
 21 22  1  0  0  0  0
 21 23  1  0  0  0  0
M  END
$$$$
default_name
  -OEChem-11182114113D

 26 26  0     1  0  0  0  0  0999 V2000
   -1.8446   -3.5060   -0.3010 H   0  0  0  0  0  0  0  0  0  0  0  0
   -2.0746   -2.4490   -0.4240 C   0  0  0  0  0  0  0  0  0  0  0  0
   -2.6906   -2.1160    0.4090 H   0  0  0  0  0  0  0  0  0  0  0  0
   -2.5986   -2.2980   -1.3650 H   0  0  0  0  0  0  0  0  0  0  0  0
   -0.7756   -1.6630   -0.4350 C   0  0  0  0  0  0  0  0  0  0  0  0
    0.2844   -2.2800   -0.4550 O   0  0  0  0  0  0  0  0  0  0  0  0
   -0.8246   -0.3180   -0.4350 N   0  0  0  0  0  0  0  0  0  0  0  0
   -2.0106    0.5080   -0.5910 C   0  0  0  0  0  0  0  0  0  0  0  0
   -2.1735    1.4152   -0.0069 H   0  0  0  0  0  0  0  0  0  0  0  0
   -2.9337    0.2014   -1.0816 H   0  0  0  0  0  0  0  0  0  0  0  0
   -0.9212    0.7479   -1.6341 C   0  0  0  0  0  0  0  0  0  0  0  0
   -1.5459    1.5420   -2.0459 H   0  0  0  0  0  0  0  0  0  0  0  0
   -1.1799   -0.2161   -2.0734 H   0  0  0  0  0  0  0  0  0  0  0  0
    0.5675    1.0278   -1.8400 C   0  0  0  0  0  0  0  0  0  0  0  0
    0.9452    2.0522   -1.8362 H   0  0  0  0  0  0  0  0  0  0  0  0
    1.2377    0.3817   -2.4067 H   0  0  0  0  0  0  0  0  0  0  0  0
    0.3724    0.5200   -0.4020 C   0  0  1  0  0  0  0  0  0  0  0  0
    1.2226   -0.1060   -0.1299 H   0  0  0  0  0  0  0  0  0  0  0  0
    0.2441    1.6770    0.6029 C   0  0  0  0  0  0  0  0  0  0  0  0
    1.0113    1.7598    1.5600 O   0  0  0  0  0  0  0  0  0  0  0  0
   -0.7533    2.5472    0.4039 N   0  0  0  0  0  0  0  0  0  0  0  0
   -1.3018    2.4463   -0.4351 H   0  0  0  0  0  0  0  0  0  0  0  0
   -1.0191    3.6952    1.2675 C   0  0  0  0  0  0  0  0  0  0  0  0
   -0.1819    4.3942    1.2122 H   0  0  0  0  0  0  0  0  0  0  0  0
   -1.9331    4.2010    0.9547 H   0  0  0  0  0  0  0  0  0  0  0  0
   -1.1249    3.3626    2.3024 H   0  0  0  0  0  0  0  0  0  0  0  0
  5  6  2  0  0  0  0
  5  7  1  0  0  0  0
  2  3  1  0  0  0  0
  2  4  1  0  0  0  0
  2  5  1  0  0  0  0
  1  2  1  0  0  0  0
 19 20  2  0  0  0  0
 19 21  1  0  0  0  0
 17 18  1  0  0  0  0
 17 19  1  0  0  0  0
 14 15  1  0  0  0  0
 14 16  1  0  0  0  0
 14 17  1  0  0  0  0
 11 12  1  0  0  0  0
 11 13  1  0  0  0  0
 11 14  1  0  0  0  0
  8  9  1  0  0  0  0
  8 10  1  0  0  0  0
  8 11  1  0  0  0  0
  7  8  1  0  0  0  0
  7 17  1  0  0  0  0
 23 24  1  0  0  0  0
 23 25  1  0  0  0  0
 23 26  1  0  0  0  0
 21 22  1  0  0  0  0
 21 23  1  0  0  0  0
M  END
$$$$
default_name
  -OEChem-11182114113D

 26 26  0     1  0  0  0  0  0999 V2000
   -1.8446   -3.5060   -0.3010 H   0  0  0  0  0  0  0  0  0  0  0  0
   -2.0746   -2.4490   -0.4240 C   0  0  0  0  0  0  0  0  0  0  0  0
   -2.6906   -2.1160    0.4090 H   0  0  0  0  0  0  0  0  0  0  0  0
   -2.5986   -2.2980   -1.3650 H   0  0  0  0  0  0  0  0  0  0  0  0
   -0.7756   -1.6630   -0.4350 C   0  0  0  0  0  0  0  0  0  0  0  0
    0.2844   -2.2800   -0.4550 O   0  0  0  0  0  0  0  0  0  0  0  0
   -0.8246   -0.3180   -0.4350 N   0  0  0  0  0  0  0  0  0  0  0  0
   -2.0106    0.5080   -0.5910 C   0  0  0  0  0  0  0  0  0  0  0  0
   -2.1735    1.4152   -0.0069 H   0  0  0  0  0  0  0  0  0  0  0  0
   -2.9337    0.2014   -1.0816 H   0  0  0  0  0  0  0  0  0  0  0  0
   -0.9212    0.7479   -1.6341 C   0  0  0  0  0  0  0  0  0  0  0  0
   -1.5459    1.5420   -2.0459 H   0  0  0  0  0  0  0  0  0  0  0  0
   -1.1799   -0.2161   -2.0734 H   0  0  0  0  0  0  0  0  0  0  0  0
    0.5675    1.0278   -1.8400 C   0  0  0  0  0  0  0  0  0  0  0  0
    0.9452    2.0522   -1.8362 H   0  0  0  0  0  0  0  0  0  0  0  0
    1.2377    0.3817   -2.4067 H   0  0  0  0  0  0  0  0  0  0  0  0
    0.3724    0.5200   -0.4020 C   0  0  1  0  0  0  0  0  0  0  0  0
    1.2226   -0.1060   -0.1299 H   0  0  0  0  0  0  0  0  0  0  0  0
    0.2441    1.6770    0.6029 C   0  0  0  0  0  0  0  0  0  0  0  0
    1.1557    1.9233    1.3901 O   0  0  0  0  0  0  0  0  0  0  0  0
   -0.9070    2.3602    0.5996 N   0  0  0  0  0  0  0  0  0  0  0  0
   -1.5814    2.1370   -0.1147 H   0  0  0  0  0  0  0  0  0  0  0  0
   -1.1938    3.4799    1.4931 C   0  0  0  0  0  0  0  0  0  0  0  0
   -0.5153    4.3063    1.2709 H   0  0  0  0  0  0  0  0  0  0  0  0
   -2.2239    3.8136    1.3636 H   0  0  0  0  0  0  0  0  0  0  0  0
   -1.0394    3.1742    2.5302 H   0  0  0  0  0  0  0  0  0  0  0  0
  5  6  2  0  0  0  0
  5  7  1  0  0  0  0
  2  3  1  0  0  0  0
  2  4  1  0  0  0  0
  2  5  1  0  0  0  0
  1  2  1  0  0  0  0
 19 20  2  0  0  0  0
 19 21  1  0  0  0  0
 17 18  1  0  0  0  0
 17 19  1  0  0  0  0
 14 15  1  0  0  0  0
 14 16  1  0  0  0  0
 14 17  1  0  0  0  0
 11 12  1  0  0  0  0
 11 13  1  0  0  0  0
 11 14  1  0  0  0  0
  8  9  1  0  0  0  0
  8 10  1  0  0  0  0
  8 11  1  0  0  0  0
  7  8  1  0  0  0  0
  7 17  1  0  0  0  0
 23 24  1  0  0  0  0
 23 25  1  0  0  0  0
 23 26  1  0  0  0  0
 21 22  1  0  0  0  0
 21 23  1  0  0  0  0
M  END
$$$$
default_name
  -OEChem-11182114113D

 26 26  0     1  0  0  0  0  0999 V2000
   -1.8446   -3.5060   -0.3010 H   0  0  0  0  0  0  0  0  0  0  0  0
   -2.0746   -2.4490   -0.4240 C   0  0  0  0  0  0  0  0  0  0  0  0
   -2.6906   -2.1160    0.4090 H   0  0  0  0  0  0  0  0  0  0  0  0
   -2.5986   -2.2980   -1.3650 H   0  0  0  0  0  0  0  0  0  0  0  0
   -0.7756   -1.6630   -0.4350 C   0  0  0  0  0  0  0  0  0  0  0  0
    0.2844   -2.2800   -0.4550 O   0  0  0  0  0  0  0  0  0  0  0  0
   -0.8246   -0.3180   -0.4350 N   0  0  0  0  0  0  0  0  0  0  0  0
   -2.0106    0.5080   -0.5910 C   0  0  0  0  0  0  0  0  0  0  0  0
   -2.1735    1.4152   -0.0069 H   0  0  0  0  0  0  0  0  0  0  0  0
   -2.9337    0.2014   -1.0816 H   0  0  0  0  0  0  0  0  0  0  0  0
   -0.9212    0.7479   -1.6341 C   0  0  0  0  0  0  0  0  0  0  0  0
   -1.5459    1.5420   -2.0459 H   0  0  0  0  0  0  0  0  0  0  0  0
   -1.1799   -0.2161   -2.0734 H   0  0  0  0  0  0  0  0  0  0  0  0
    0.5675    1.0278   -1.8400 C   0  0  0  0  0  0  0  0  0  0  0  0
    0.9452    2.0522   -1.8362 H   0  0  0  0  0  0  0  0  0  0  0  0
    1.2377    0.3817   -2.4067 H   0  0  0  0  0  0  0  0  0  0  0  0
    0.3724    0.5200   -0.4020 C   0  0  1  0  0  0  0  0  0  0  0  0
    1.2226   -0.1060   -0.1299 H   0  0  0  0  0  0  0  0  0  0  0  0
    0.2441    1.6770    0.6029 C   0  0  0  0  0  0  0  0  0  0  0  0
    1.2345    2.1021    1.1943 O   0  0  0  0  0  0  0  0  0  0  0  0
   -0.9856    2.1577    0.8226 N   0  0  0  0  0  0  0  0  0  0  0  0
   -1.7368    1.7978    0.2560 H   0  0  0  0  0  0  0  0  0  0  0  0
   -1.2822    3.2473    1.7497 C   0  0  0  0  0  0  0  0  0  0  0  0
   -0.8110    4.1662    1.3944 H   0  0  0  0  0  0  0  0  0  0  0  0
   -2.3596    3.3991    1.8236 H   0  0  0  0  0  0  0  0  0  0  0  0
   -0.8807    3.0117    2.7376 H   0  0  0  0  0  0  0  0  0  0  0  0
  5  6  2  0  0  0  0
  5  7  1  0  0  0  0
  2  3  1  0  0  0  0
  2  4  1  0  0  0  0
  2  5  1  0  0  0  0
  1  2  1  0  0  0  0
 19 20  2  0  0  0  0
 19 21  1  0  0  0  0
 17 18  1  0  0  0  0
 17 19  1  0  0  0  0
 14 15  1  0  0  0  0
 14 16  1  0  0  0  0
 14 17  1  0  0  0  0
 11 12  1  0  0  0  0
 11 13  1  0  0  0  0
 11 14  1  0  0  0  0
  8  9  1  0  0  0  0
  8 10  1  0  0  0  0
  8 11  1  0  0  0  0
  7  8  1  0  0  0  0
  7 17  1  0  0  0  0
 23 24  1  0  0  0  0
 23 25  1  0  0  0  0
 23 26  1  0  0  0  0
 21 22  1  0  0  0  0
 21 23  1  0  0  0  0
M  END
$$$$
default_name
  -OEChem-11182114113D

 26 26  0     1  0  0  0  0  0999 V2000
   -1.8446   -3.5060   -0.3010 H   0  0  0  0  0  0  0  0  0  0  0  0
   -2.0746   -2.4490   -0.4240 C   0  0  0  0  0  0  0  0  0  0  0  0
   -2.6906   -2.1160    0.4090 H   0  0  0  0  0  0  0  0  0  0  0  0
   -2.5986   -2.2980   -1.3650 H   0  0  0  0  0  0  0  0  0  0  0  0
   -0.7756   -1.6630   -0.4350 C   0  0  0  0  0  0  0  0  0  0  0  0
    0.2844   -2.2800   -0.4550 O   0  0  0  0  0  0  0  0  0  0  0  0
   -0.8246   -0.3180   -0.4350 N   0  0  0  0  0  0  0  0  0  0  0  0
   -2.0106    0.5080   -0.5910 C   0  0  0  0  0  0  0  0  0  0  0  0
   -2.1735    1.4152   -0.0069 H   0  0  0  0  0  0  0  0  0  0  0  0
   -2.9337    0.2014   -1.0816 H   0  0  0  0  0  0  0  0  0  0  0  0
   -0.9212    0.7479   -1.6341 C   0  0  0  0  0  0  0  0  0  0  0  0
   -1.5459    1.5420   -2.0459 H   0  0  0  0  0  0  0  0  0  0  0  0
   -1.1799   -0.2161   -2.0734 H   0  0  0  0  0  0  0  0  0  0  0  0
    0.5675    1.0278   -1.8400 C   0  0  0  0  0  0  0  0  0  0  0  0
    0.9452    2.0522   -1.8362 H   0  0  0  0  0  0  0  0  0  0  0  0
    1.2377    0.3817   -2.4067 H   0  0  0  0  0  0  0  0  0  0  0  0
    0.3724    0.5200   -0.4020 C   0  0  1  0  0  0  0  0  0  0  0  0
    1.2226   -0.1060   -0.1299 H   0  0  0  0  0  0  0  0  0  0  0  0
    0.2441    1.6770    0.6029 C   0  0  0  0  0  0  0  0  0  0  0  0
    1.2423    2.2839    0.9860 O   0  0  0  0  0  0  0  0  0  0  0  0
   -0.9840    1.9537    1.0578 N   0  0  0  0  0  0  0  0  0  0  0  0
   -1.7574    1.4520    0.6516 H   0  0  0  0  0  0  0  0  0  0  0  0
   -1.2783    3.0132    2.0197 C   0  0  0  0  0  0  0  0  0  0  0  0
   -1.0490    3.9836    1.5743 H   0  0  0  0  0  0  0  0  0  0  0  0
   -2.3309    2.9857    2.3032 H   0  0  0  0  0  0  0  0  0  0  0  0
   -0.6595    2.8860    2.9106 H   0  0  0  0  0  0  0  0  0  0  0  0
  5  6  2  0  0  0  0
  5  7  1  0  0  0  0
  2  3  1  0  0  0  0
  2  4  1  0  0  0  0
  2  5  1  0  0  0  0
  1  2  1  0  0  0  0
 19 20  2  0  0  0  0
 19 21  1  0  0  0  0
 17 18  1  0  0  0  0
 17 19  1  0  0  0  0
 14 15  1  0  0  0  0
 14 16  1  0  0  0  0
 14 17  1  0  0  0  0
 11 12  1  0  0  0  0
 11 13  1  0  0  0  0
 11 14  1  0  0  0  0
  8  9  1  0  0  0  0
  8 10  1  0  0  0  0
  8 11  1  0  0  0  0
  7  8  1  0  0  0  0
  7 17  1  0  0  0  0
 23 24  1  0  0  0  0
 23 25  1  0  0  0  0
 23 26  1  0  0  0  0
 21 22  1  0  0  0  0
 21 23  1  0  0  0  0
M  END
$$$$
default_name
  -OEChem-11182114113D

 26 26  0     1  0  0  0  0  0999 V2000
   -1.8446   -3.5060   -0.3010 H   0  0  0  0  0  0  0  0  0  0  0  0
   -2.0746   -2.4490   -0.4240 C   0  0  0  0  0  0  0  0  0  0  0  0
   -2.6906   -2.1160    0.4090 H   0  0  0  0  0  0  0  0  0  0  0  0
   -2.5986   -2.2980   -1.3650 H   0  0  0  0  0  0  0  0  0  0  0  0
   -0.7756   -1.6630   -0.4350 C   0  0  0  0  0  0  0  0  0  0  0  0
    0.2844   -2.2800   -0.4550 O   0  0  0  0  0  0  0  0  0  0  0  0
   -0.8246   -0.3180   -0.4350 N   0  0  0  0  0  0  0  0  0  0  0  0
   -2.0106    0.5080   -0.5910 C   0  0  0  0  0  0  0  0  0  0  0  0
   -2.1735    1.4152   -0.0069 H   0  0  0  0  0  0  0  0  0  0  0  0
   -2.9337    0.2014   -1.0816 H   0  0  0  0  0  0  0  0  0  0  0  0
   -0.9212    0.7479   -1.6341 C   0  0  0  0  0  0  0  0  0  0  0  0
   -1.5459    1.5420   -2.0459 H   0  0  0  0  0  0  0  0  0  0  0  0
   -1.1799   -0.2161   -2.0734 H   0  0  0  0  0  0  0  0  0  0  0  0
    0.5675    1.0278   -1.8400 C   0  0  0  0  0  0  0  0  0  0  0  0
    0.9452    2.0522   -1.8362 H   0  0  0  0  0  0  0  0  0  0  0  0
    1.2377    0.3817   -2.4067 H   0  0  0  0  0  0  0  0  0  0  0  0
    0.3724    0.5200   -0.4020 C   0  0  1  0  0  0  0  0  0  0  0  0
    1.2226   -0.1060   -0.1299 H   0  0  0  0  0  0  0  0  0  0  0  0
    0.2441    1.6770    0.6029 C   0  0  0  0  0  0  0  0  0  0  0  0
    1.1785    2.4563    0.7794 O   0  0  0  0  0  0  0  0  0  0  0  0
   -0.9021    1.7620    1.2890 N   0  0  0  0  0  0  0  0  0  0  0  0
   -1.6417    1.1230    1.0452 H   0  0  0  0  0  0  0  0  0  0  0  0
   -1.1824    2.7935    2.2849 C   0  0  0  0  0  0  0  0  0  0  0  0
   -1.2129    3.7708    1.7984 H   0  0  0  0  0  0  0  0  0  0  0  0
   -2.1400    2.6015    2.7699 H   0  0  0  0  0  0  0  0  0  0  0  0
   -0.3908    2.8057    3.0373 H   0  0  0  0  0  0  0  0  0  0  0  0
  5  6  2  0  0  0  0
  5  7  1  0  0  0  0
  2  3  1  0  0  0  0
  2  4  1  0  0  0  0
  2  5  1  0  0  0  0
  1  2  1  0  0  0  0
 19 20  2  0  0  0  0
 19 21  1  0  0  0  0
 17 18  1  0  0  0  0
 17 19  1  0  0  0  0
 14 15  1  0  0  0  0
 14 16  1  0  0  0  0
 14 17  1  0  0  0  0
 11 12  1  0  0  0  0
 11 13  1  0  0  0  0
 11 14  1  0  0  0  0
  8  9  1  0  0  0  0
  8 10  1  0  0  0  0
  8 11  1  0  0  0  0
  7  8  1  0  0  0  0
  7 17  1  0  0  0  0
 23 24  1  0  0  0  0
 23 25  1  0  0  0  0
 23 26  1  0  0  0  0
 21 22  1  0  0  0  0
 21 23  1  0  0  0  0
M  END
$$$$
default_name
  -OEChem-11182114113D

 26 26  0     1  0  0  0  0  0999 V2000
   -1.8446   -3.5060   -0.3010 H   0  0  0  0  0  0  0  0  0  0  0  0
   -2.0746   -2.4490   -0.4240 C   0  0  0  0  0  0  0  0  0  0  0  0
   -2.6906   -2.1160    0.4090 H   0  0  0  0  0  0  0  0  0  0  0  0
   -2.5986   -2.2980   -1.3650 H   0  0  0  0  0  0  0  0  0  0  0  0
   -0.7756   -1.6630   -0.4350 C   0  0  0  0  0  0  0  0  0  0  0  0
    0.2844   -2.2800   -0.4550 O   0  0  0  0  0  0  0  0  0  0  0  0
   -0.8246   -0.3180   -0.4350 N   0  0  0  0  0  0  0  0  0  0  0  0
   -2.0106    0.5080   -0.5910 C   0  0  0  0  0  0  0  0  0  0  0  0
   -2.1735    1.4152   -0.0069 H   0  0  0  0  0  0  0  0  0  0  0  0
   -2.9337    0.2014   -1.0816 H   0  0  0  0  0  0  0  0  0  0  0  0
   -0.9212    0.7479   -1.6341 C   0  0  0  0  0  0  0  0  0  0  0  0
   -1.5459    1.5420   -2.0459 H   0  0  0  0  0  0  0  0  0  0  0  0
   -1.1799   -0.2161   -2.0734 H   0  0  0  0  0  0  0  0  0  0  0  0
    0.5675    1.0278   -1.8400 C   0  0  0  0  0  0  0  0  0  0  0  0
    0.9452    2.0522   -1.8362 H   0  0  0  0  0  0  0  0  0  0  0  0
    1.2377    0.3817   -2.4067 H   0  0  0  0  0  0  0  0  0  0  0  0
    0.3724    0.5200   -0.4020 C   0  0  1  0  0  0  0  0  0  0  0  0
    1.2226   -0.1060   -0.1299 H   0  0  0  0  0  0  0  0  0  0  0  0
    0.2441    1.6770    0.6029 C   0  0  0  0  0  0  0  0  0  0  0  0
    1.0474    2.6075    0.5885 O   0  0  0  0  0  0  0  0  0  0  0  0
   -0.7455    1.5956    1.5005 N   0  0  0  0  0  0  0  0  0  0  0  0
   -1.3977    0.8332    1.4100 H   0  0  0  0  0  0  0  0  0  0  0  0
   -1.0009    2.6033    2.5271 C   0  0  0  0  0  0  0  0  0  0  0  0
   -1.2916    3.5424    2.0513 H   0  0  0  0  0  0  0  0  0  0  0  0
   -1.7997    2.2729    3.1918 H   0  0  0  0  0  0  0  0  0  0  0  0
   -0.0931    2.7763    3.1092 H   0  0  0  0  0  0  0  0  0  0  0  0
  5  6  2  0  0  0  0
  5  7  1  0  0  0  0
  2  3  1  0  0  0  0
  2  4  1  0  0  0  0
  2  5  1  0  0  0  0
  1  2  1  0  0  0  0
 19 20  2  0  0  0  0
 19 21  1  0  0  0  0
 17 18  1  0  0  0  0
 17 19  1  0  0  0  0
 14 15  1  0  0  0  0
 14 16  1  0  0  0  0
 14 17  1  0  0  0  0
 11 12  1  0  0  0  0
 11 13  1  0  0  0  0
 11 14  1  0  0  0  0
  8  9  1  0  0  0  0
  8 10  1  0  0  0  0
  8 11  1  0  0  0  0
  7  8  1  0  0  0  0
  7 17  1  0  0  0  0
 23 24  1  0  0  0  0
 23 25  1  0  0  0  0
 23 26  1  0  0  0  0
 21 22  1  0  0  0  0
 21 23  1  0  0  0  0
M  END
$$$$
default_name
  -OEChem-11182114113D

 26 26  0     1  0  0  0  0  0999 V2000
   -1.8446   -3.5060   -0.3010 H   0  0  0  0  0  0  0  0  0  0  0  0
   -2.0746   -2.4490   -0.4240 C   0  0  0  0  0  0  0  0  0  0  0  0
   -2.6906   -2.1160    0.4090 H   0  0  0  0  0  0  0  0  0  0  0  0
   -2.5986   -2.2980   -1.3650 H   0  0  0  0  0  0  0  0  0  0  0  0
   -0.7756   -1.6630   -0.4350 C   0  0  0  0  0  0  0  0  0  0  0  0
    0.2844   -2.2800   -0.4550 O   0  0  0  0  0  0  0  0  0  0  0  0
   -0.8246   -0.3180   -0.4350 N   0  0  0  0  0  0  0  0  0  0  0  0
   -2.0106    0.5080   -0.5910 C   0  0  0  0  0  0  0  0  0  0  0  0
   -2.1735    1.4152   -0.0069 H   0  0  0  0  0  0  0  0  0  0  0  0
   -2.9337    0.2014   -1.0816 H   0  0  0  0  0  0  0  0  0  0  0  0
   -0.9212    0.7479   -1.6341 C   0  0  0  0  0  0  0  0  0  0  0  0
   -1.5459    1.5420   -2.0459 H   0  0  0  0  0  0  0  0  0  0  0  0
   -1.1799   -0.2161   -2.0734 H   0  0  0  0  0  0  0  0  0  0  0  0
    0.5675    1.0278   -1.8400 C   0  0  0  0  0  0  0  0  0  0  0  0
    0.9452    2.0522   -1.8362 H   0  0  0  0  0  0  0  0  0  0  0  0
    1.2377    0.3817   -2.4067 H   0  0  0  0  0  0  0  0  0  0  0  0
    0.3724    0.5200   -0.4020 C   0  0  1  0  0  0  0  0  0  0  0  0
    1.2226   -0.1060   -0.1299 H   0  0  0  0  0  0  0  0  0  0  0  0
    0.2441    1.6770    0.6029 C   0  0  0  0  0  0  0  0  0  0  0  0
    0.8581    2.7273    0.4263 O   0  0  0  0  0  0  0  0  0  0  0  0
   -0.5250    1.4660    1.6779 N   0  0  0  0  0  0  0  0  0  0  0  0
   -1.0420    0.6025    1.7211 H   0  0  0  0  0  0  0  0  0  0  0  0
   -0.7463    2.4555    2.7298 C   0  0  0  0  0  0  0  0  0  0  0  0
   -1.2797    3.3139    2.3159 H   0  0  0  0  0  0  0  0  0  0  0  0
   -1.3333    2.0221    3.5402 H   0  0  0  0  0  0  0  0  0  0  0  0
    0.2134    2.7999    3.1212 H   0  0  0  0  0  0  0  0  0  0  0  0
  5  6  2  0  0  0  0
  5  7  1  0  0  0  0
  2  3  1  0  0  0  0
  2  4  1  0  0  0  0
  2  5  1  0  0  0  0
  1  2  1  0  0  0  0
 19 20  2  0  0  0  0
 19 21  1  0  0  0  0
 17 18  1  0  0  0  0
 17 19  1  0  0  0  0
 14 15  1  0  0  0  0
 14 16  1  0  0  0  0
 14 17  1  0  0  0  0
 11 12  1  0  0  0  0
 11 13  1  0  0  0  0
 11 14  1  0  0  0  0
  8  9  1  0  0  0  0
  8 10  1  0  0  0  0
  8 11  1  0  0  0  0
  7  8  1  0  0  0  0
  7 17  1  0  0  0  0
 23 24  1  0  0  0  0
 23 25  1  0  0  0  0
 23 26  1  0  0  0  0
 21 22  1  0  0  0  0
 21 23  1  0  0  0  0
M  END
$$$$
default_name
  -OEChem-11182114113D

 26 26  0     1  0  0  0  0  0999 V2000
   -1.8446   -3.5060   -0.3010 H   0  0  0  0  0  0  0  0  0  0  0  0
   -2.0746   -2.4490   -0.4240 C   0  0  0  0  0  0  0  0  0  0  0  0
   -2.6906   -2.1160    0.4090 H   0  0  0  0  0  0  0  0  0  0  0  0
   -2.5986   -2.2980   -1.3650 H   0  0  0  0  0  0  0  0  0  0  0  0
   -0.7756   -1.6630   -0.4350 C   0  0  0  0  0  0  0  0  0  0  0  0
    0.2844   -2.2800   -0.4550 O   0  0  0  0  0  0  0  0  0  0  0  0
   -0.8246   -0.3180   -0.4350 N   0  0  0  0  0  0  0  0  0  0  0  0
   -2.0106    0.5080   -0.5910 C   0  0  0  0  0  0  0  0  0  0  0  0
   -2.1735    1.4152   -0.0069 H   0  0  0  0  0  0  0  0  0  0  0  0
   -2.9337    0.2014   -1.0816 H   0  0  0  0  0  0  0  0  0  0  0  0
   -0.9212    0.7479   -1.6341 C   0  0  0  0  0  0  0  0  0  0  0  0
   -1.5459    1.5420   -2.0459 H   0  0  0  0  0  0  0  0  0  0  0  0
   -1.1799   -0.2161   -2.0734 H   0  0  0  0  0  0  0  0  0  0  0  0
    0.5675    1.0278   -1.8400 C   0  0  0  0  0  0  0  0  0  0  0  0
    0.9452    2.0522   -1.8362 H   0  0  0  0  0  0  0  0  0  0  0  0
    1.2377    0.3817   -2.4067 H   0  0  0  0  0  0  0  0  0  0  0  0
    0.3724    0.5200   -0.4020 C   0  0  1  0  0  0  0  0  0  0  0  0
    1.2226   -0.1060   -0.1299 H   0  0  0  0  0  0  0  0  0  0  0  0
    0.2441    1.6770    0.6029 C   0  0  0  0  0  0  0  0  0  0  0  0
    0.6234    2.8076    0.3040 O   0  0  0  0  0  0  0  0  0  0  0  0
   -0.2555    1.3819    1.8091 N   0  0  0  0  0  0  0  0  0  0  0  0
   -0.5988    0.4465    1.9573 H   0  0  0  0  0  0  0  0  0  0  0  0
   -0.4359    2.3602    2.8792 C   0  0  0  0  0  0  0  0  0  0  0  0
   -1.1781    3.1010    2.5741 H   0  0  0  0  0  0  0  0  0  0  0  0
   -0.7725    1.8662    3.7912 H   0  0  0  0  0  0  0  0  0  0  0  0
    0.5079    2.8747    3.0726 H   0  0  0  0  0  0  0  0  0  0  0  0
  5  6  2  0  0  0  0
  5  7  1  0  0  0  0
  2  3  1  0  0  0  0
  2  4  1  0  0  0  0
  2  5  1  0  0  0  0
  1  2  1  0  0  0  0
 19 20  2  0  0  0  0
 19 21  1  0  0  0  0
 17 18  1  0  0  0  0
 17 19  1  0  0  0  0
 14 15  1  0  0  0  0
 14 16  1  0  0  0  0
 14 17  1  0  0  0  0
 11 12  1  0  0  0  0
 11 13  1  0  0  0  0
 11 14  1  0  0  0  0
  8  9  1  0  0  0  0
  8 10  1  0  0  0  0
  8 11  1  0  0  0  0
  7  8  1  0  0  0  0
  7 17  1  0  0  0  0
 23 24  1  0  0  0  0
 23 25  1  0  0  0  0
 23 26  1  0  0  0  0
 21 22  1  0  0  0  0
 21 23  1  0  0  0  0
M  END
$$$$
default_name
  -OEChem-11182114113D

 26 26  0     1  0  0  0  0  0999 V2000
   -1.8446   -3.5060   -0.3010 H   0  0  0  0  0  0  0  0  0  0  0  0
   -2.0746   -2.4490   -0.4240 C   0  0  0  0  0  0  0  0  0  0  0  0
   -2.6906   -2.1160    0.4090 H   0  0  0  0  0  0  0  0  0  0  0  0
   -2.5986   -2.2980   -1.3650 H   0  0  0  0  0  0  0  0  0  0  0  0
   -0.7756   -1.6630   -0.4350 C   0  0  0  0  0  0  0  0  0  0  0  0
    0.2844   -2.2800   -0.4550 O   0  0  0  0  0  0  0  0  0  0  0  0
   -0.8246   -0.3180   -0.4350 N   0  0  0  0  0  0  0  0  0  0  0  0
   -2.0106    0.5080   -0.5910 C   0  0  0  0  0  0  0  0  0  0  0  0
   -2.1735    1.4152   -0.0069 H   0  0  0  0  0  0  0  0  0  0  0  0
   -2.9337    0.2014   -1.0816 H   0  0  0  0  0  0  0  0  0  0  0  0
   -0.9212    0.7479   -1.6341 C   0  0  0  0  0  0  0  0  0  0  0  0
   -1.5459    1.5420   -2.0459 H   0  0  0  0  0  0  0  0  0  0  0  0
   -1.1799   -0.2161   -2.0734 H   0  0  0  0  0  0  0  0  0  0  0  0
    0.5675    1.0278   -1.8400 C   0  0  0  0  0  0  0  0  0  0  0  0
    0.9452    2.0522   -1.8362 H   0  0  0  0  0  0  0  0  0  0  0  0
    1.2377    0.3817   -2.4067 H   0  0  0  0  0  0  0  0  0  0  0  0
    0.3724    0.5200   -0.4020 C   0  0  1  0  0  0  0  0  0  0  0  0
    1.2226   -0.1060   -0.1299 H   0  0  0  0  0  0  0  0  0  0  0  0
    0.2441    1.6770    0.6029 C   0  0  0  0  0  0  0  0  0  0  0  0
    0.3593    2.8427    0.2298 O   0  0  0  0  0  0  0  0  0  0  0  0
    0.0446    1.3491    1.8852 N   0  0  0  0  0  0  0  0  0  0  0  0
   -0.0983    0.3759    2.1025 H   0  0  0  0  0  0  0  0  0  0  0  0
   -0.0909    2.3238    2.9651 C   0  0  0  0  0  0  0  0  0  0  0  0
   -0.9937    2.9180    2.8083 H   0  0  0  0  0  0  0  0  0  0  0  0
   -0.1555    1.8159    3.9279 H   0  0  0  0  0  0  0  0  0  0  0  0
    0.7701    2.9958    2.9667 H   0  0  0  0  0  0  0  0  0  0  0  0
  5  6  2  0  0  0  0
  5  7  1  0  0  0  0
  2  3  1  0  0  0  0
  2  4  1  0  0  0  0
  2  5  1  0  0  0  0
  1  2  1  0  0  0  0
 19 20  2  0  0  0  0
 19 21  1  0  0  0  0
 17 18  1  0  0  0  0
 17 19  1  0  0  0  0
 14 15  1  0  0  0  0
 14 16  1  0  0  0  0
 14 17  1  0  0  0  0
 11 12  1  0  0  0  0
 11 13  1  0  0  0  0
 11 14  1  0  0  0  0
  8  9  1  0  0  0  0
  8 10  1  0  0  0  0
  8 11  1  0  0  0  0
  7  8  1  0  0  0  0
  7 17  1  0  0  0  0
 23 24  1  0  0  0  0
 23 25  1  0  0  0  0
 23 26  1  0  0  0  0
 21 22  1  0  0  0  0
 21 23  1  0  0  0  0
M  END
$$$$
default_name
  -OEChem-11182114113D

 26 26  0     1  0  0  0  0  0999 V2000
   -1.8446   -3.5060   -0.3010 H   0  0  0  0  0  0  0  0  0  0  0  0
   -2.0746   -2.4490   -0.4240 C   0  0  0  0  0  0  0  0  0  0  0  0
   -2.6906   -2.1160    0.4090 H   0  0  0  0  0  0  0  0  0  0  0  0
   -2.5986   -2.2980   -1.3650 H   0  0  0  0  0  0  0  0  0  0  0  0
   -0.7756   -1.6630   -0.4350 C   0  0  0  0  0  0  0  0  0  0  0  0
    0.2844   -2.2800   -0.4550 O   0  0  0  0  0  0  0  0  0  0  0  0
   -0.8246   -0.3180   -0.4350 N   0  0  0  0  0  0  0  0  0  0  0  0
   -2.0106    0.5080   -0.5910 C   0  0  0  0  0  0  0  0  0  0  0  0
   -2.1735    1.4152   -0.0069 H   0  0  0  0  0  0  0  0  0  0  0  0
   -2.9337    0.2014   -1.0816 H   0  0  0  0  0  0  0  0  0  0  0  0
   -0.9212    0.7479   -1.6341 C   0  0  0  0  0  0  0  0  0  0  0  0
   -1.5459    1.5420   -2.0459 H   0  0  0  0  0  0  0  0  0  0  0  0
   -1.1799   -0.2161   -2.0734 H   0  0  0  0  0  0  0  0  0  0  0  0
    0.5675    1.0278   -1.8400 C   0  0  0  0  0  0  0  0  0  0  0  0
    0.9452    2.0522   -1.8362 H   0  0  0  0  0  0  0  0  0  0  0  0
    1.2377    0.3817   -2.4067 H   0  0  0  0  0  0  0  0  0  0  0  0
    0.3724    0.5200   -0.4020 C   0  0  1  0  0  0  0  0  0  0  0  0
    1.2226   -0.1060   -0.1299 H   0  0  0  0  0  0  0  0  0  0  0  0
    0.2441    1.6770    0.6029 C   0  0  0  0  0  0  0  0  0  0  0  0
    0.0838    2.8304    0.2088 O   0  0  0  0  0  0  0  0  0  0  0  0
    0.3548    1.3698    1.9010 N   0  0  0  0  0  0  0  0  0  0  0  0
    0.4254    0.3954    2.1469 H   0  0  0  0  0  0  0  0  0  0  0  0
    0.2653    2.3489    2.9817 C   0  0  0  0  0  0  0  0  0  0  0  0
   -0.7390    2.7776    3.0026 H   0  0  0  0  0  0  0  0  0  0  0  0
    0.4755    1.8746    3.9409 H   0  0  0  0  0  0  0  0  0  0  0  0
    0.9824    3.1547    2.8108 H   0  0  0  0  0  0  0  0  0  0  0  0
  5  6  2  0  0  0  0
  5  7  1  0  0  0  0
  2  3  1  0  0  0  0
  2  4  1  0  0  0  0
  2  5  1  0  0  0  0
  1  2  1  0  0  0  0
 19 20  2  0  0  0  0
 19 21  1  0  0  0  0
 17 18  1  0  0  0  0
 17 19  1  0  0  0  0
 14 15  1  0  0  0  0
 14 16  1  0  0  0  0
 14 17  1  0  0  0  0
 11 12  1  0  0  0  0
 11 13  1  0  0  0  0
 11 14  1  0  0  0  0
  8  9  1  0  0  0  0
  8 10  1  0  0  0  0
  8 11  1  0  0  0  0
  7  8  1  0  0  0  0
  7 17  1  0  0  0  0
 23 24  1  0  0  0  0
 23 25  1  0  0  0  0
 23 26  1  0  0  0  0
 21 22  1  0  0  0  0
 21 23  1  0  0  0  0
M  END
$$$$
default_name
  -OEChem-11182114113D

 26 26  0     1  0  0  0  0  0999 V2000
   -1.8446   -3.5060   -0.3010 H   0  0  0  0  0  0  0  0  0  0  0  0
   -2.0746   -2.4490   -0.4240 C   0  0  0  0  0  0  0  0  0  0  0  0
   -2.6906   -2.1160    0.4090 H   0  0  0  0  0  0  0  0  0  0  0  0
   -2.5986   -2.2980   -1.3650 H   0  0  0  0  0  0  0  0  0  0  0  0
   -0.7756   -1.6630   -0.4350 C   0  0  0  0  0  0  0  0  0  0  0  0
    0.2844   -2.2800   -0.4550 O   0  0  0  0  0  0  0  0  0  0  0  0
   -0.8246   -0.3180   -0.4350 N   0  0  0  0  0  0  0  0  0  0  0  0
   -2.0106    0.5080   -0.5910 C   0  0  0  0  0  0  0  0  0  0  0  0
   -2.1735    1.4152   -0.0069 H   0  0  0  0  0  0  0  0  0  0  0  0
   -2.9337    0.2014   -1.0816 H   0  0  0  0  0  0  0  0  0  0  0  0
   -0.9212    0.7479   -1.6341 C   0  0  0  0  0  0  0  0  0  0  0  0
   -1.5459    1.5420   -2.0459 H   0  0  0  0  0  0  0  0  0  0  0  0
   -1.1799   -0.2161   -2.0734 H   0  0  0  0  0  0  0  0  0  0  0  0
    0.5675    1.0278   -1.8400 C   0  0  0  0  0  0  0  0  0  0  0  0
    0.9452    2.0522   -1.8362 H   0  0  0  0  0  0  0  0  0  0  0  0
    1.2377    0.3817   -2.4067 H   0  0  0  0  0  0  0  0  0  0  0  0
    0.3724    0.5200   -0.4020 C   0  0  1  0  0  0  0  0  0  0  0  0
    1.2226   -0.1060   -0.1299 H   0  0  0  0  0  0  0  0  0  0  0  0
    0.2441    1.6770    0.6029 C   0  0  0  0  0  0  0  0  0  0  0  0
   -0.1843    2.7715    0.2424 O   0  0  0  0  0  0  0  0  0  0  0  0
    0.6541    1.4427    1.8554 N   0  0  0  0  0  0  0  0  0  0  0  0
    0.9365    0.5039    2.0873 H   0  0  0  0  0  0  0  0  0  0  0  0
    0.6083    2.4337    2.9279 C   0  0  0  0  0  0  0  0  0  0  0  0
   -0.4313    2.6891    3.1437 H   0  0  0  0  0  0  0  0  0  0  0  0
    1.0776    2.0383    3.8293 H   0  0  0  0  0  0  0  0  0  0  0  0
    1.1302    3.3408    2.6154 H   0  0  0  0  0  0  0  0  0  0  0  0
  5  6  2  0  0  0  0
  5  7  1  0  0  0  0
  2  3  1  0  0  0  0
  2  4  1  0  0  0  0
  2  5  1  0  0  0  0
  1  2  1  0  0  0  0
 19 20  2  0  0  0  0
 19 21  1  0  0  0  0
 17 18  1  0  0  0  0
 17 19  1  0  0  0  0
 14 15  1  0  0  0  0
 14 16  1  0  0  0  0
 14 17  1  0  0  0  0
 11 12  1  0  0  0  0
 11 13  1  0  0  0  0
 11 14  1  0  0  0  0
  8  9  1  0  0  0  0
  8 10  1  0  0  0  0
  8 11  1  0  0  0  0
  7  8  1  0  0  0  0
  7 17  1  0  0  0  0
 23 24  1  0  0  0  0
 23 25  1  0  0  0  0
 23 26  1  0  0  0  0
 21 22  1  0  0  0  0
 21 23  1  0  0  0  0
M  END
$$$$
default_name
  -OEChem-11182114113D

 26 26  0     1  0  0  0  0  0999 V2000
   -1.8446   -3.5060   -0.3010 H   0  0  0  0  0  0  0  0  0  0  0  0
   -2.0746   -2.4490   -0.4240 C   0  0  0  0  0  0  0  0  0  0  0  0
   -2.6906   -2.1160    0.4090 H   0  0  0  0  0  0  0  0  0  0  0  0
   -2.5986   -2.2980   -1.3650 H   0  0  0  0  0  0  0  0  0  0  0  0
   -0.7756   -1.6630   -0.4350 C   0  0  0  0  0  0  0  0  0  0  0  0
    0.2844   -2.2800   -0.4550 O   0  0  0  0  0  0  0  0  0  0  0  0
   -0.8246   -0.3180   -0.4350 N   0  0  0  0  0  0  0  0  0  0  0  0
   -2.0106    0.5080   -0.5910 C   0  0  0  0  0  0  0  0  0  0  0  0
   -2.1735    1.4152   -0.0069 H   0  0  0  0  0  0  0  0  0  0  0  0
   -2.9337    0.2014   -1.0816 H   0  0  0  0  0  0  0  0  0  0  0  0
   -0.9212    0.7479   -1.6341 C   0  0  0  0  0  0  0  0  0  0  0  0
   -1.5459    1.5420   -2.0459 H   0  0  0  0  0  0  0  0  0  0  0  0
   -1.1799   -0.2161   -2.0734 H   0  0  0  0  0  0  0  0  0  0  0  0
    0.5675    1.0278   -1.8400 C   0  0  0  0  0  0  0  0  0  0  0  0
    0.9452    2.0522   -1.8362 H   0  0  0  0  0  0  0  0  0  0  0  0
    1.2377    0.3817   -2.4067 H   0  0  0  0  0  0  0  0  0  0  0  0
    0.3724    0.5200   -0.4020 C   0  0  1  0  0  0  0  0  0  0  0  0
    1.2226   -0.1060   -0.1299 H   0  0  0  0  0  0  0  0  0  0  0  0
    0.2441    1.6770    0.6029 C   0  0  0  0  0  0  0  0  0  0  0  0
   -0.4268    2.6699    0.3284 O   0  0  0  0  0  0  0  0  0  0  0  0
    0.9219    1.5626    1.7514 N   0  0  0  0  0  0  0  0  0  0  0  0
    1.4003    0.6937    1.9279 H   0  0  0  0  0  0  0  0  0  0  0  0
    0.9148    2.5725    2.8072 C   0  0  0  0  0  0  0  0  0  0  0  0
   -0.0918    2.6588    3.2219 H   0  0  0  0  0  0  0  0  0  0  0  0
    1.6098    2.2959    3.6007 H   0  0  0  0  0  0  0  0  0  0  0  0
    1.2034    3.5414    2.3938 H   0  0  0  0  0  0  0  0  0  0  0  0
  5  6  2  0  0  0  0
  5  7  1  0  0  0  0
  2  3  1  0  0  0  0
  2  4  1  0  0  0  0
  2  5  1  0  0  0  0
  1  2  1  0  0  0  0
 19 20  2  0  0  0  0
 19 21  1  0  0  0  0
 17 18  1  0  0  0  0
 17 19  1  0  0  0  0
 14 15  1  0  0  0  0
 14 16  1  0  0  0  0
 14 17  1  0  0  0  0
 11 12  1  0  0  0  0
 11 13  1  0  0  0  0
 11 14  1  0  0  0  0
  8  9  1  0  0  0  0
  8 10  1  0  0  0  0
  8 11  1  0  0  0  0
  7  8  1  0  0  0  0
  7 17  1  0  0  0  0
 23 24  1  0  0  0  0
 23 25  1  0  0  0  0
 23 26  1  0  0  0  0
 21 22  1  0  0  0  0
 21 23  1  0  0  0  0
M  END
$$$$
default_name
  -OEChem-11182114113D

 26 26  0     1  0  0  0  0  0999 V2000
   -1.8446   -3.5060   -0.3010 H   0  0  0  0  0  0  0  0  0  0  0  0
   -2.0746   -2.4490   -0.4240 C   0  0  0  0  0  0  0  0  0  0  0  0
   -2.6906   -2.1160    0.4090 H   0  0  0  0  0  0  0  0  0  0  0  0
   -2.5986   -2.2980   -1.3650 H   0  0  0  0  0  0  0  0  0  0  0  0
   -0.7756   -1.6630   -0.4350 C   0  0  0  0  0  0  0  0  0  0  0  0
    0.2844   -2.2800   -0.4550 O   0  0  0  0  0  0  0  0  0  0  0  0
   -0.8246   -0.3180   -0.4350 N   0  0  0  0  0  0  0  0  0  0  0  0
   -2.0106    0.5080   -0.5910 C   0  0  0  0  0  0  0  0  0  0  0  0
   -2.1735    1.4152   -0.0069 H   0  0  0  0  0  0  0  0  0  0  0  0
   -2.9337    0.2014   -1.0816 H   0  0  0  0  0  0  0  0  0  0  0  0
   -0.9212    0.7479   -1.6341 C   0  0  0  0  0  0  0  0  0  0  0  0
   -1.5459    1.5420   -2.0459 H   0  0  0  0  0  0  0  0  0  0  0  0
   -1.1799   -0.2161   -2.0734 H   0  0  0  0  0  0  0  0  0  0  0  0
    0.5675    1.0278   -1.8400 C   0  0  0  0  0  0  0  0  0  0  0  0
    0.9452    2.0522   -1.8362 H   0  0  0  0  0  0  0  0  0  0  0  0
    1.2377    0.3817   -2.4067 H   0  0  0  0  0  0  0  0  0  0  0  0
    0.3724    0.5200   -0.4020 C   0  0  1  0  0  0  0  0  0  0  0  0
    1.2226   -0.1060   -0.1299 H   0  0  0  0  0  0  0  0  0  0  0  0
    0.2441    1.6770    0.6029 C   0  0  0  0  0  0  0  0  0  0  0  0
   -0.6271    2.5327    0.4608 O   0  0  0  0  0  0  0  0  0  0  0  0
    1.1401    1.7215    1.5963 N   0  0  0  0  0  0  0  0  0  0  0  0
    1.7851    0.9521    1.6795 H   0  0  0  0  0  0  0  0  0  0  0  0
    1.1639    2.7558    2.6280 C   0  0  0  0  0  0  0  0  0  0  0  0
    0.2566    2.6886    3.2321 H   0  0  0  0  0  0  0  0  0  0  0  0
    2.0358    2.6298    3.2706 H   0  0  0  0  0  0  0  0  0  0  0  0
    1.1971    3.7427    2.1612 H   0  0  0  0  0  0  0  0  0  0  0  0
  5  6  2  0  0  0  0
  5  7  1  0  0  0  0
  2  3  1  0  0  0  0
  2  4  1  0  0  0  0
  2  5  1  0  0  0  0
  1  2  1  0  0  0  0
 19 20  2  0  0  0  0
 19 21  1  0  0  0  0
 17 18  1  0  0  0  0
 17 19  1  0  0  0  0
 14 15  1  0  0  0  0
 14 16  1  0  0  0  0
 14 17  1  0  0  0  0
 11 12  1  0  0  0  0
 11 13  1  0  0  0  0
 11 14  1  0  0  0  0
  8  9  1  0  0  0  0
  8 10  1  0  0  0  0
  8 11  1  0  0  0  0
  7  8  1  0  0  0  0
  7 17  1  0  0  0  0
 23 24  1  0  0  0  0
 23 25  1  0  0  0  0
 23 26  1  0  0  0  0
 21 22  1  0  0  0  0
 21 23  1  0  0  0  0
M  END
$$$$
default_name
  -OEChem-11182114113D

 26 26  0     1  0  0  0  0  0999 V2000
   -1.8446   -3.5060   -0.3010 H   0  0  0  0  0  0  0  0  0  0  0  0
   -2.0746   -2.4490   -0.4240 C   0  0  0  0  0  0  0  0  0  0  0  0
   -2.6906   -2.1160    0.4090 H   0  0  0  0  0  0  0  0  0  0  0  0
   -2.5986   -2.2980   -1.3650 H   0  0  0  0  0  0  0  0  0  0  0  0
   -0.7756   -1.6630   -0.4350 C   0  0  0  0  0  0  0  0  0  0  0  0
    0.2844   -2.2800   -0.4550 O   0  0  0  0  0  0  0  0  0  0  0  0
   -0.8246   -0.3180   -0.4350 N   0  0  0  0  0  0  0  0  0  0  0  0
   -2.0106    0.5080   -0.5910 C   0  0  0  0  0  0  0  0  0  0  0  0
   -2.1735    1.4152   -0.0069 H   0  0  0  0  0  0  0  0  0  0  0  0
   -2.9337    0.2014   -1.0816 H   0  0  0  0  0  0  0  0  0  0  0  0
   -0.9212    0.7479   -1.6341 C   0  0  0  0  0  0  0  0  0  0  0  0
   -1.5459    1.5420   -2.0459 H   0  0  0  0  0  0  0  0  0  0  0  0
   -1.1799   -0.2161   -2.0734 H   0  0  0  0  0  0  0  0  0  0  0  0
    0.5675    1.0278   -1.8400 C   0  0  0  0  0  0  0  0  0  0  0  0
    0.9452    2.0522   -1.8362 H   0  0  0  0  0  0  0  0  0  0  0  0
    1.2377    0.3817   -2.4067 H   0  0  0  0  0  0  0  0  0  0  0  0
    0.3724    0.5200   -0.4020 C   0  0  1  0  0  0  0  0  0  0  0  0
    1.2226   -0.1060   -0.1299 H   0  0  0  0  0  0  0  0  0  0  0  0
    0.2441    1.6770    0.6029 C   0  0  0  0  0  0  0  0  0  0  0  0
   -0.7716    2.3691    0.6307 O   0  0  0  0  0  0  0  0  0  0  0  0
    1.2937    1.9086    1.4006 N   0  0  0  0  0  0  0  0  0  0  0  0
    2.0647    1.2615    1.3590 H   0  0  0  0  0  0  0  0  0  0  0  0
    1.3386    2.9711    2.4024 C   0  0  0  0  0  0  0  0  0  0  0  0
    0.5900    2.7766    3.1734 H   0  0  0  0  0  0  0  0  0  0  0  0
    2.3265    3.0171    2.8617 H   0  0  0  0  0  0  0  0  0  0  0  0
    1.1116    3.9310    1.9335 H   0  0  0  0  0  0  0  0  0  0  0  0
  5  6  2  0  0  0  0
  5  7  1  0  0  0  0
  2  3  1  0  0  0  0
  2  4  1  0  0  0  0
  2  5  1  0  0  0  0
  1  2  1  0  0  0  0
 19 20  2  0  0  0  0
 19 21  1  0  0  0  0
 17 18  1  0  0  0  0
 17 19  1  0  0  0  0
 14 15  1  0  0  0  0
 14 16  1  0  0  0  0
 14 17  1  0  0  0  0
 11 12  1  0  0  0  0
 11 13  1  0  0  0  0
 11 14  1  0  0  0  0
  8  9  1  0  0  0  0
  8 10  1  0  0  0  0
  8 11  1  0  0  0  0
  7  8  1  0  0  0  0
  7 17  1  0  0  0  0
 23 24  1  0  0  0  0
 23 25  1  0  0  0  0
 23 26  1  0  0  0  0
 21 22  1  0  0  0  0
 21 23  1  0  0  0  0
M  END
$$$$
default_name
  -OEChem-11182114113D

 26 26  0     1  0  0  0  0  0999 V2000
   -1.8446   -3.5060   -0.3010 H   0  0  0  0  0  0  0  0  0  0  0  0
   -2.0746   -2.4490   -0.4240 C   0  0  0  0  0  0  0  0  0  0  0  0
   -2.6906   -2.1160    0.4090 H   0  0  0  0  0  0  0  0  0  0  0  0
   -2.5986   -2.2980   -1.3650 H   0  0  0  0  0  0  0  0  0  0  0  0
   -0.7756   -1.6630   -0.4350 C   0  0  0  0  0  0  0  0  0  0  0  0
    0.2844   -2.2800   -0.4550 O   0  0  0  0  0  0  0  0  0  0  0  0
   -0.8246   -0.3180   -0.4350 N   0  0  0  0  0  0  0  0  0  0  0  0
   -2.0106    0.5080   -0.5910 C   0  0  0  0  0  0  0  0  0  0  0  0
   -2.1735    1.4152   -0.0069 H   0  0  0  0  0  0  0  0  0  0  0  0
   -2.9337    0.2014   -1.0816 H   0  0  0  0  0  0  0  0  0  0  0  0
   -0.9212    0.7479   -1.6341 C   0  0  0  0  0  0  0  0  0  0  0  0
   -1.5459    1.5420   -2.0459 H   0  0  0  0  0  0  0  0  0  0  0  0
   -1.1799   -0.2161   -2.0734 H   0  0  0  0  0  0  0  0  0  0  0  0
    0.5675    1.0278   -1.8400 C   0  0  0  0  0  0  0  0  0  0  0  0
    0.9452    2.0522   -1.8362 H   0  0  0  0  0  0  0  0  0  0  0  0
    1.2377    0.3817   -2.4067 H   0  0  0  0  0  0  0  0  0  0  0  0
    0.3724    0.5200   -0.4020 C   0  0  1  0  0  0  0  0  0  0  0  0
    1.2226   -0.1060   -0.1299 H   0  0  0  0  0  0  0  0  0  0  0  0
    0.2441    1.6770    0.6029 C   0  0  0  0  0  0  0  0  0  0  0  0
   -0.8504    2.1904    0.8265 O   0  0  0  0  0  0  0  0  0  0  0  0
    1.3724    2.1110    1.1775 N   0  0  0  0  0  0  0  0  0  0  0  0
    2.2201    1.6006    0.9884 H   0  0  0  0  0  0  0  0  0  0  0  0
    1.4270    3.2037    2.1458 C   0  0  0  0  0  0  0  0  0  0  0  0
    0.8857    2.9167    3.0499 H   0  0  0  0  0  0  0  0  0  0  0  0
    2.4622    3.4317    2.4018 H   0  0  0  0  0  0  0  0  0  0  0  0
    0.9529    4.0936    1.7260 H   0  0  0  0  0  0  0  0  0  0  0  0
  5  6  2  0  0  0  0
  5  7  1  0  0  0  0
  2  3  1  0  0  0  0
  2  4  1  0  0  0  0
  2  5  1  0  0  0  0
  1  2  1  0  0  0  0
 19 20  2  0  0  0  0
 19 21  1  0  0  0  0
 17 18  1  0  0  0  0
 17 19  1  0  0  0  0
 14 15  1  0  0  0  0
 14 16  1  0  0  0  0
 14 17  1  0  0  0  0
 11 12  1  0  0  0  0
 11 13  1  0  0  0  0
 11 14  1  0  0  0  0
  8  9  1  0  0  0  0
  8 10  1  0  0  0  0
  8 11  1  0  0  0  0
  7  8  1  0  0  0  0
  7 17  1  0  0  0  0
 23 24  1  0  0  0  0
 23 25  1  0  0  0  0
 23 26  1  0  0  0  0
 21 22  1  0  0  0  0
 21 23  1  0  0  0  0
M  END
$$$$
default_name
  -OEChem-11182114113D

 26 26  0     1  0  0  0  0  0999 V2000
   -1.8446   -3.5060   -0.3010 H   0  0  0  0  0  0  0  0  0  0  0  0
   -2.0746   -2.4490   -0.4240 C   0  0  0  0  0  0  0  0  0  0  0  0
   -2.6906   -2.1160    0.4090 H   0  0  0  0  0  0  0  0  0  0  0  0
   -2.5986   -2.2980   -1.3650 H   0  0  0  0  0  0  0  0  0  0  0  0
   -0.7756   -1.6630   -0.4350 C   0  0  0  0  0  0  0  0  0  0  0  0
    0.2844   -2.2800   -0.4550 O   0  0  0  0  0  0  0  0  0  0  0  0
   -0.8246   -0.3180   -0.4350 N   0  0  0  0  0  0  0  0  0  0  0  0
   -2.0106    0.5080   -0.5910 C   0  0  0  0  0  0  0  0  0  0  0  0
   -2.1735    1.4152   -0.0069 H   0  0  0  0  0  0  0  0  0  0  0  0
   -2.9337    0.2014   -1.0816 H   0  0  0  0  0  0  0  0  0  0  0  0
   -0.9212    0.7479   -1.6341 C   0  0  0  0  0  0  0  0  0  0  0  0
   -1.5459    1.5420   -2.0459 H   0  0  0  0  0  0  0  0  0  0  0  0
   -1.1799   -0.2161   -2.0734 H   0  0  0  0  0  0  0  0  0  0  0  0
    0.5675    1.0278   -1.8400 C   0  0  0  0  0  0  0  0  0  0  0  0
    0.9452    2.0522   -1.8362 H   0  0  0  0  0  0  0  0  0  0  0  0
    1.2377    0.3817   -2.4067 H   0  0  0  0  0  0  0  0  0  0  0  0
    0.3724    0.5200   -0.4020 C   0  0  1  0  0  0  0  0  0  0  0  0
    1.2226   -0.1060   -0.1299 H   0  0  0  0  0  0  0  0  0  0  0  0
    0.2441    1.6770    0.6029 C   0  0  0  0  0  0  0  0  0  0  0  0
   -0.8581    2.0086    1.0348 O   0  0  0  0  0  0  0  0  0  0  0  0
    1.3708    2.3150    0.9424 N   0  0  0  0  0  0  0  0  0  0  0  0
    2.2407    1.9465    0.5928 H   0  0  0  0  0  0  0  0  0  0  0  0
    1.4231    3.4378    1.8758 C   0  0  0  0  0  0  0  0  0  0  0  0
    1.1237    3.0993    2.8700 H   0  0  0  0  0  0  0  0  0  0  0  0
    2.4336    3.8451    1.9221 H   0  0  0  0  0  0  0  0  0  0  0  0
    0.7317    4.2193    1.5531 H   0  0  0  0  0  0  0  0  0  0  0  0
  5  6  2  0  0  0  0
  5  7  1  0  0  0  0
  2  3  1  0  0  0  0
  2  4  1  0  0  0  0
  2  5  1  0  0  0  0
  1  2  1  0  0  0  0
 19 20  2  0  0  0  0
 19 21  1  0  0  0  0
 17 18  1  0  0  0  0
 17 19  1  0  0  0  0
 14 15  1  0  0  0  0
 14 16  1  0  0  0  0
 14 17  1  0  0  0  0
 11 12  1  0  0  0  0
 11 13  1  0  0  0  0
 11 14  1  0  0  0  0
  8  9  1  0  0  0  0
  8 10  1  0  0  0  0
  8 11  1  0  0  0  0
  7  8  1  0  0  0  0
  7 17  1  0  0  0  0
 23 24  1  0  0  0  0
 23 25  1  0  0  0  0
 23 26  1  0  0  0  0
 21 22  1  0  0  0  0
 21 23  1  0  0  0  0
M  END
$$$$
default_name
  -OEChem-11182114113D

 26 26  0     1  0  0  0  0  0999 V2000
   -1.8446   -3.5060   -0.3010 H   0  0  0  0  0  0  0  0  0  0  0  0
   -2.0746   -2.4490   -0.4240 C   0  0  0  0  0  0  0  0  0  0  0  0
   -2.6906   -2.1160    0.4090 H   0  0  0  0  0  0  0  0  0  0  0  0
   -2.5986   -2.2980   -1.3650 H   0  0  0  0  0  0  0  0  0  0  0  0
   -0.7756   -1.6630   -0.4350 C   0  0  0  0  0  0  0  0  0  0  0  0
    0.2844   -2.2800   -0.4550 O   0  0  0  0  0  0  0  0  0  0  0  0
   -0.8246   -0.3180   -0.4350 N   0  0  0  0  0  0  0  0  0  0  0  0
   -2.0106    0.5080   -0.5910 C   0  0  0  0  0  0  0  0  0  0  0  0
   -2.1735    1.4152   -0.0069 H   0  0  0  0  0  0  0  0  0  0  0  0
   -2.9337    0.2014   -1.0816 H   0  0  0  0  0  0  0  0  0  0  0  0
   -0.9212    0.7479   -1.6341 C   0  0  0  0  0  0  0  0  0  0  0  0
   -1.5459    1.5420   -2.0459 H   0  0  0  0  0  0  0  0  0  0  0  0
   -1.1799   -0.2161   -2.0734 H   0  0  0  0  0  0  0  0  0  0  0  0
    0.5675    1.0278   -1.8400 C   0  0  0  0  0  0  0  0  0  0  0  0
    0.9452    2.0522   -1.8362 H   0  0  0  0  0  0  0  0  0  0  0  0
    1.2377    0.3817   -2.4067 H   0  0  0  0  0  0  0  0  0  0  0  0
    0.3724    0.5200   -0.4020 C   0  0  1  0  0  0  0  0  0  0  0  0
    1.2226   -0.1060   -0.1299 H   0  0  0  0  0  0  0  0  0  0  0  0
    0.2441    1.6770    0.6029 C   0  0  0  0  0  0  0  0  0  0  0  0
   -0.7943    1.8362    1.2414 O   0  0  0  0  0  0  0  0  0  0  0  0
    1.2888    2.5067    0.7112 N   0  0  0  0  0  0  0  0  0  0  0  0
    2.1250    2.2755    0.1992 H   0  0  0  0  0  0  0  0  0  0  0  0
    1.3272    3.6575    1.6106 C   0  0  0  0  0  0  0  0  0  0  0  0
    1.2876    3.3121    2.6459 H   0  0  0  0  0  0  0  0  0  0  0  0
    2.2427    4.2292    1.4554 H   0  0  0  0  0  0  0  0  0  0  0  0
    0.4631    4.2995    1.4263 H   0  0  0  0  0  0  0  0  0  0  0  0
  5  6  2  0  0  0  0
  5  7  1  0  0  0  0
  2  3  1  0  0  0  0
  2  4  1  0  0  0  0
  2  5  1  0  0  0  0
  1  2  1  0  0  0  0
 19 20  2  0  0  0  0
 19 21  1  0  0  0  0
 17 18  1  0  0  0  0
 17 19  1  0  0  0  0
 14 15  1  0  0  0  0
 14 16  1  0  0  0  0
 14 17  1  0  0  0  0
 11 12  1  0  0  0  0
 11 13  1  0  0  0  0
 11 14  1  0  0  0  0
  8  9  1  0  0  0  0
  8 10  1  0  0  0  0
  8 11  1  0  0  0  0
  7  8  1  0  0  0  0
  7 17  1  0  0  0  0
 23 24  1  0  0  0  0
 23 25  1  0  0  0  0
 23 26  1  0  0  0  0
 21 22  1  0  0  0  0
 21 23  1  0  0  0  0
M  END
$$$$
default_name
  -OEChem-11182114113D

 26 26  0     1  0  0  0  0  0999 V2000
   -1.8446   -3.5060   -0.3010 H   0  0  0  0  0  0  0  0  0  0  0  0
   -2.0746   -2.4490   -0.4240 C   0  0  0  0  0  0  0  0  0  0  0  0
   -2.6906   -2.1160    0.4090 H   0  0  0  0  0  0  0  0  0  0  0  0
   -2.5986   -2.2980   -1.3650 H   0  0  0  0  0  0  0  0  0  0  0  0
   -0.7756   -1.6630   -0.4350 C   0  0  0  0  0  0  0  0  0  0  0  0
    0.2844   -2.2800   -0.4550 O   0  0  0  0  0  0  0  0  0  0  0  0
   -0.8246   -0.3180   -0.4350 N   0  0  0  0  0  0  0  0  0  0  0  0
   -2.0106    0.5080   -0.5910 C   0  0  0  0  0  0  0  0  0  0  0  0
   -2.1735    1.4152   -0.0069 H   0  0  0  0  0  0  0  0  0  0  0  0
   -2.9337    0.2014   -1.0816 H   0  0  0  0  0  0  0  0  0  0  0  0
   -0.9212    0.7479   -1.6341 C   0  0  0  0  0  0  0  0  0  0  0  0
   -1.5459    1.5420   -2.0459 H   0  0  0  0  0  0  0  0  0  0  0  0
   -1.1799   -0.2161   -2.0734 H   0  0  0  0  0  0  0  0  0  0  0  0
    0.5675    1.0278   -1.8400 C   0  0  0  0  0  0  0  0  0  0  0  0
    0.9452    2.0522   -1.8362 H   0  0  0  0  0  0  0  0  0  0  0  0
    1.2377    0.3817   -2.4067 H   0  0  0  0  0  0  0  0  0  0  0  0
    0.3724    0.5200   -0.4020 C   0  0  1  0  0  0  0  0  0  0  0  0
    1.2226   -0.1060   -0.1299 H   0  0  0  0  0  0  0  0  0  0  0  0
    0.2441    1.6770    0.6029 C   0  0  0  0  0  0  0  0  0  0  0  0
   -0.6633    1.6849    1.4323 O   0  0  0  0  0  0  0  0  0  0  0  0
    1.1323    2.6731    0.4997 N   0  0  0  0  0  0  0  0  0  0  0  0
    1.8810    2.5652   -0.1656 H   0  0  0  0  0  0  0  0  0  0  0  0
    1.1457    3.8477    1.3684 C   0  0  0  0  0  0  0  0  0  0  0  0
    1.3663    3.5405    2.3929 H   0  0  0  0  0  0  0  0  0  0  0  0
    1.9024    4.5579    1.0335 H   0  0  0  0  0  0  0  0  0  0  0  0
    0.1653    4.3289    1.3545 H   0  0  0  0  0  0  0  0  0  0  0  0
  5  6  2  0  0  0  0
  5  7  1  0  0  0  0
  2  3  1  0  0  0  0
  2  4  1  0  0  0  0
  2  5  1  0  0  0  0
  1  2  1  0  0  0  0
 19 20  2  0  0  0  0
 19 21  1  0  0  0  0
 17 18  1  0  0  0  0
 17 19  1  0  0  0  0
 14 15  1  0  0  0  0
 14 16  1  0  0  0  0
 14 17  1  0  0  0  0
 11 12  1  0  0  0  0
 11 13  1  0  0  0  0
 11 14  1  0  0  0  0
  8  9  1  0  0  0  0
  8 10  1  0  0  0  0
  8 11  1  0  0  0  0
  7  8  1  0  0  0  0
  7 17  1  0  0  0  0
 23 24  1  0  0  0  0
 23 25  1  0  0  0  0
 23 26  1  0  0  0  0
 21 22  1  0  0  0  0
 21 23  1  0  0  0  0
M  END
$$$$
default_name
  -OEChem-11182114113D

 26 26  0     1  0  0  0  0  0999 V2000
   -1.8446   -3.5060   -0.3010 H   0  0  0  0  0  0  0  0  0  0  0  0
   -2.0746   -2.4490   -0.4240 C   0  0  0  0  0  0  0  0  0  0  0  0
   -2.6906   -2.1160    0.4090 H   0  0  0  0  0  0  0  0  0  0  0  0
   -2.5986   -2.2980   -1.3650 H   0  0  0  0  0  0  0  0  0  0  0  0
   -0.7756   -1.6630   -0.4350 C   0  0  0  0  0  0  0  0  0  0  0  0
    0.2844   -2.2800   -0.4550 O   0  0  0  0  0  0  0  0  0  0  0  0
   -0.8246   -0.3180   -0.4350 N   0  0  0  0  0  0  0  0  0  0  0  0
   -2.0106    0.5080   -0.5910 C   0  0  0  0  0  0  0  0  0  0  0  0
   -2.1735    1.4152   -0.0069 H   0  0  0  0  0  0  0  0  0  0  0  0
   -2.9337    0.2014   -1.0816 H   0  0  0  0  0  0  0  0  0  0  0  0
   -0.9212    0.7479   -1.6341 C   0  0  0  0  0  0  0  0  0  0  0  0
   -1.5459    1.5420   -2.0459 H   0  0  0  0  0  0  0  0  0  0  0  0
   -1.1799   -0.2161   -2.0734 H   0  0  0  0  0  0  0  0  0  0  0  0
    0.5675    1.0278   -1.8400 C   0  0  0  0  0  0  0  0  0  0  0  0
    0.9452    2.0522   -1.8362 H   0  0  0  0  0  0  0  0  0  0  0  0
    1.2377    0.3817   -2.4067 H   0  0  0  0  0  0  0  0  0  0  0  0
    0.3724    0.5200   -0.4020 C   0  0  1  0  0  0  0  0  0  0  0  0
    1.2226   -0.1060   -0.1299 H   0  0  0  0  0  0  0  0  0  0  0  0
    0.2441    1.6770    0.6029 C   0  0  0  0  0  0  0  0  0  0  0  0
   -0.4739    1.5651    1.5945 O   0  0  0  0  0  0  0  0  0  0  0  0
    0.9118    2.8027    0.3223 N   0  0  0  0  0  0  0  0  0  0  0  0
    1.5253    2.7960   -0.4767 H   0  0  0  0  0  0  0  0  0  0  0  0
    0.8911    3.9955    1.1657 C   0  0  0  0  0  0  0  0  0  0  0  0
    1.3544    3.7690    2.1284 H   0  0  0  0  0  0  0  0  0  0  0  0
    1.4359    4.8087    0.6852 H   0  0  0  0  0  0  0  0  0  0  0  0
   -0.1412    4.3053    1.3425 H   0  0  0  0  0  0  0  0  0  0  0  0
  5  6  2  0  0  0  0
  5  7  1  0  0  0  0
  2  3  1  0  0  0  0
  2  4  1  0  0  0  0
  2  5  1  0  0  0  0
  1  2  1  0  0  0  0
 19 20  2  0  0  0  0
 19 21  1  0  0  0  0
 17 18  1  0  0  0  0
 17 19  1  0  0  0  0
 14 15  1  0  0  0  0
 14 16  1  0  0  0  0
 14 17  1  0  0  0  0
 11 12  1  0  0  0  0
 11 13  1  0  0  0  0
 11 14  1  0  0  0  0
  8  9  1  0  0  0  0
  8 10  1  0  0  0  0
  8 11  1  0  0  0  0
  7  8  1  0  0  0  0
  7 17  1  0  0  0  0
 23 24  1  0  0  0  0
 23 25  1  0  0  0  0
 23 26  1  0  0  0  0
 21 22  1  0  0  0  0
 21 23  1  0  0  0  0
M  END
$$$$
default_name
  -OEChem-11182114113D

 26 26  0     1  0  0  0  0  0999 V2000
   -1.8446   -3.5060   -0.3010 H   0  0  0  0  0  0  0  0  0  0  0  0
   -2.0746   -2.4490   -0.4240 C   0  0  0  0  0  0  0  0  0  0  0  0
   -2.6906   -2.1160    0.4090 H   0  0  0  0  0  0  0  0  0  0  0  0
   -2.5986   -2.2980   -1.3650 H   0  0  0  0  0  0  0  0  0  0  0  0
   -0.7756   -1.6630   -0.4350 C   0  0  0  0  0  0  0  0  0  0  0  0
    0.2844   -2.2800   -0.4550 O   0  0  0  0  0  0  0  0  0  0  0  0
   -0.8246   -0.3180   -0.4350 N   0  0  0  0  0  0  0  0  0  0  0  0
   -2.0106    0.5080   -0.5910 C   0  0  0  0  0  0  0  0  0  0  0  0
   -2.1735    1.4152   -0.0069 H   0  0  0  0  0  0  0  0  0  0  0  0
   -2.9337    0.2014   -1.0816 H   0  0  0  0  0  0  0  0  0  0  0  0
   -0.9212    0.7479   -1.6341 C   0  0  0  0  0  0  0  0  0  0  0  0
   -1.5459    1.5420   -2.0459 H   0  0  0  0  0  0  0  0  0  0  0  0
   -1.1799   -0.2161   -2.0734 H   0  0  0  0  0  0  0  0  0  0  0  0
    0.5675    1.0278   -1.8400 C   0  0  0  0  0  0  0  0  0  0  0  0
    0.9452    2.0522   -1.8362 H   0  0  0  0  0  0  0  0  0  0  0  0
    1.2377    0.3817   -2.4067 H   0  0  0  0  0  0  0  0  0  0  0  0
    0.3724    0.5200   -0.4020 C   0  0  1  0  0  0  0  0  0  0  0  0
    1.2226   -0.1060   -0.1299 H   0  0  0  0  0  0  0  0  0  0  0  0
    0.2441    1.6770    0.6029 C   0  0  0  0  0  0  0  0  0  0  0  0
   -0.2392    1.4849    1.7168 O   0  0  0  0  0  0  0  0  0  0  0  0
    0.6423    2.8868    0.1911 N   0  0  0  0  0  0  0  0  0  0  0  0
    1.0821    2.9520   -0.7129 H   0  0  0  0  0  0  0  0  0  0  0  0
    0.5807    4.0908    1.0163 C   0  0  0  0  0  0  0  0  0  0  0  0
    1.2528    3.9819    1.8702 H   0  0  0  0  0  0  0  0  0  0  0  0
    0.8751    4.9646    0.4341 H   0  0  0  0  0  0  0  0  0  0  0  0
   -0.4356    4.2305    1.3911 H   0  0  0  0  0  0  0  0  0  0  0  0
  5  6  2  0  0  0  0
  5  7  1  0  0  0  0
  2  3  1  0  0  0  0
  2  4  1  0  0  0  0
  2  5  1  0  0  0  0
  1  2  1  0  0  0  0
 19 20  2  0  0  0  0
 19 21  1  0  0  0  0
 17 18  1  0  0  0  0
 17 19  1  0  0  0  0
 14 15  1  0  0  0  0
 14 16  1  0  0  0  0
 14 17  1  0  0  0  0
 11 12  1  0  0  0  0
 11 13  1  0  0  0  0
 11 14  1  0  0  0  0
  8  9  1  0  0  0  0
  8 10  1  0  0  0  0
  8 11  1  0  0  0  0
  7  8  1  0  0  0  0
  7 17  1  0  0  0  0
 23 24  1  0  0  0  0
 23 25  1  0  0  0  0
 23 26  1  0  0  0  0
 21 22  1  0  0  0  0
 21 23  1  0  0  0  0
M  END
$$$$
default_name
  -OEChem-11182114113D

 26 26  0     1  0  0  0  0  0999 V2000
   -1.8446   -3.5060   -0.3010 H   0  0  0  0  0  0  0  0  0  0  0  0
   -2.0746   -2.4490   -0.4240 C   0  0  0  0  0  0  0  0  0  0  0  0
   -2.6906   -2.1160    0.4090 H   0  0  0  0  0  0  0  0  0  0  0  0
   -2.5986   -2.2980   -1.3650 H   0  0  0  0  0  0  0  0  0  0  0  0
   -0.7756   -1.6630   -0.4350 C   0  0  0  0  0  0  0  0  0  0  0  0
    0.2844   -2.2800   -0.4550 O   0  0  0  0  0  0  0  0  0  0  0  0
   -0.8246   -0.3180   -0.4350 N   0  0  0  0  0  0  0  0  0  0  0  0
   -2.0106    0.5080   -0.5910 C   0  0  0  0  0  0  0  0  0  0  0  0
   -2.1735    1.4152   -0.0069 H   0  0  0  0  0  0  0  0  0  0  0  0
   -2.9337    0.2014   -1.0816 H   0  0  0  0  0  0  0  0  0  0  0  0
   -0.9212    0.7479   -1.6341 C   0  0  0  0  0  0  0  0  0  0  0  0
   -1.5459    1.5420   -2.0459 H   0  0  0  0  0  0  0  0  0  0  0  0
   -1.1799   -0.2161   -2.0734 H   0  0  0  0  0  0  0  0  0  0  0  0
    0.5675    1.0278   -1.8400 C   0  0  0  0  0  0  0  0  0  0  0  0
    0.9452    2.0522   -1.8362 H   0  0  0  0  0  0  0  0  0  0  0  0
    1.2377    0.3817   -2.4067 H   0  0  0  0  0  0  0  0  0  0  0  0
    0.3724    0.5200   -0.4020 C   0  0  1  0  0  0  0  0  0  0  0  0
    1.2226   -0.1060   -0.1299 H   0  0  0  0  0  0  0  0  0  0  0  0
    0.2441    1.6770    0.6029 C   0  0  0  0  0  0  0  0  0  0  0  0
    0.0249    1.4497    1.7910 O   0  0  0  0  0  0  0  0  0  0  0  0
    0.3422    2.9196    0.1150 N   0  0  0  0  0  0  0  0  0  0  0  0
    0.5816    3.0226   -0.8581 H   0  0  0  0  0  0  0  0  0  0  0  0
    0.2357    4.1272    0.9304 C   0  0  0  0  0  0  0  0  0  0  0  0
    1.0684    4.1649    1.6360 H   0  0  0  0  0  0  0  0  0  0  0  0
    0.2582    5.0149    0.2974 H   0  0  0  0  0  0  0  0  0  0  0  0
   -0.6979    4.1095    1.4969 H   0  0  0  0  0  0  0  0  0  0  0  0
  5  6  2  0  0  0  0
  5  7  1  0  0  0  0
  2  3  1  0  0  0  0
  2  4  1  0  0  0  0
  2  5  1  0  0  0  0
  1  2  1  0  0  0  0
 19 20  2  0  0  0  0
 19 21  1  0  0  0  0
 17 18  1  0  0  0  0
 17 19  1  0  0  0  0
 14 15  1  0  0  0  0
 14 16  1  0  0  0  0
 14 17  1  0  0  0  0
 11 12  1  0  0  0  0
 11 13  1  0  0  0  0
 11 14  1  0  0  0  0
  8  9  1  0  0  0  0
  8 10  1  0  0  0  0
  8 11  1  0  0  0  0
  7  8  1  0  0  0  0
  7 17  1  0  0  0  0
 23 24  1  0  0  0  0
 23 25  1  0  0  0  0
 23 26  1  0  0  0  0
 21 22  1  0  0  0  0
 21 23  1  0  0  0  0
M  END
$$$$
default_name
  -OEChem-11182114113D

 26 26  0     1  0  0  0  0  0999 V2000
   -1.8446   -3.5060   -0.3010 H   0  0  0  0  0  0  0  0  0  0  0  0
   -2.0746   -2.4490   -0.4240 C   0  0  0  0  0  0  0  0  0  0  0  0
   -2.6906   -2.1160    0.4090 H   0  0  0  0  0  0  0  0  0  0  0  0
   -2.5986   -2.2980   -1.3650 H   0  0  0  0  0  0  0  0  0  0  0  0
   -0.7756   -1.6630   -0.4350 C   0  0  0  0  0  0  0  0  0  0  0  0
    0.2844   -2.2800   -0.4550 O   0  0  0  0  0  0  0  0  0  0  0  0
   -0.8246   -0.3180   -0.4350 N   0  0  0  0  0  0  0  0  0  0  0  0
   -2.0106    0.5080   -0.5910 C   0  0  0  0  0  0  0  0  0  0  0  0
   -2.1735    1.4152   -0.0069 H   0  0  0  0  0  0  0  0  0  0  0  0
   -2.9337    0.2014   -1.0816 H   0  0  0  0  0  0  0  0  0  0  0  0
   -0.9212    0.7479   -1.6341 C   0  0  0  0  0  0  0  0  0  0  0  0
   -1.5459    1.5420   -2.0459 H   0  0  0  0  0  0  0  0  0  0  0  0
   -1.1799   -0.2161   -2.0734 H   0  0  0  0  0  0  0  0  0  0  0  0
    0.5675    1.0278   -1.8400 C   0  0  0  0  0  0  0  0  0  0  0  0
    0.9452    2.0522   -1.8362 H   0  0  0  0  0  0  0  0  0  0  0  0
    1.2377    0.3817   -2.4067 H   0  0  0  0  0  0  0  0  0  0  0  0
    0.3724    0.5200   -0.4020 C   0  0  1  0  0  0  0  0  0  0  0  0
    1.2226   -0.1060   -0.1299 H   0  0  0  0  0  0  0  0  0  0  0  0
    0.2441    1.6770    0.6029 C   0  0  0  0  0  0  0  0  0  0  0  0
    0.3004    1.4620    1.8120 O   0  0  0  0  0  0  0  0  0  0  0  0
    0.0319    2.8989    0.0992 N   0  0  0  0  0  0  0  0  0  0  0  0
    0.0579    3.0030   -0.9025 H   0  0  0  0  0  0  0  0  0  0  0  0
   -0.1205    4.1021    0.9138 C   0  0  0  0  0  0  0  0  0  0  0  0
    0.8137    4.3053    1.4417 H   0  0  0  0  0  0  0  0  0  0  0  0
   -0.3728    4.9561    0.2844 H   0  0  0  0  0  0  0  0  0  0  0  0
   -0.9102    3.9505    1.6529 H   0  0  0  0  0  0  0  0  0  0  0  0
  5  6  2  0  0  0  0
  5  7  1  0  0  0  0
  2  3  1  0  0  0  0
  2  4  1  0  0  0  0
  2  5  1  0  0  0  0
  1  2  1  0  0  0  0
 19 20  2  0  0  0  0
 19 21  1  0  0  0  0
 17 18  1  0  0  0  0
 17 19  1  0  0  0  0
 14 15  1  0  0  0  0
 14 16  1  0  0  0  0
 14 17  1  0  0  0  0
 11 12  1  0  0  0  0
 11 13  1  0  0  0  0
 11 14  1  0  0  0  0
  8  9  1  0  0  0  0
  8 10  1  0  0  0  0
  8 11  1  0  0  0  0
  7  8  1  0  0  0  0
  7 17  1  0  0  0  0
 23 24  1  0  0  0  0
 23 25  1  0  0  0  0
 23 26  1  0  0  0  0
 21 22  1  0  0  0  0
 21 23  1  0  0  0  0
M  END
$$$$
default_name
  -OEChem-11182114113D

 26 26  0     1  0  0  0  0  0999 V2000
   -1.8446   -3.5060   -0.3010 H   0  0  0  0  0  0  0  0  0  0  0  0
   -2.0746   -2.4490   -0.4240 C   0  0  0  0  0  0  0  0  0  0  0  0
   -2.6906   -2.1160    0.4090 H   0  0  0  0  0  0  0  0  0  0  0  0
   -2.5986   -2.2980   -1.3650 H   0  0  0  0  0  0  0  0  0  0  0  0
   -0.7756   -1.6630   -0.4350 C   0  0  0  0  0  0  0  0  0  0  0  0
    0.2844   -2.2800   -0.4550 O   0  0  0  0  0  0  0  0  0  0  0  0
   -0.8246   -0.3180   -0.4350 N   0  0  0  0  0  0  0  0  0  0  0  0
   -2.0106    0.5080   -0.5910 C   0  0  0  0  0  0  0  0  0  0  0  0
   -2.1735    1.4152   -0.0069 H   0  0  0  0  0  0  0  0  0  0  0  0
   -2.9337    0.2014   -1.0816 H   0  0  0  0  0  0  0  0  0  0  0  0
   -0.9212    0.7479   -1.6341 C   0  0  0  0  0  0  0  0  0  0  0  0
   -1.5459    1.5420   -2.0459 H   0  0  0  0  0  0  0  0  0  0  0  0
   -1.1799   -0.2161   -2.0734 H   0  0  0  0  0  0  0  0  0  0  0  0
    0.5675    1.0278   -1.8400 C   0  0  0  0  0  0  0  0  0  0  0  0
    0.9452    2.0522   -1.8362 H   0  0  0  0  0  0  0  0  0  0  0  0
    1.2377    0.3817   -2.4067 H   0  0  0  0  0  0  0  0  0  0  0  0
    0.3724    0.5200   -0.4020 C   0  0  1  0  0  0  0  0  0  0  0  0
    1.2226   -0.1060   -0.1299 H   0  0  0  0  0  0  0  0  0  0  0  0
    0.2441    1.6770    0.6029 C   0  0  0  0  0  0  0  0  0  0  0  0
    0.5685    1.5210    1.7784 O   0  0  0  0  0  0  0  0  0  0  0  0
   -0.2673    2.8261    0.1448 N   0  0  0  0  0  0  0  0  0  0  0  0
   -0.4532    2.8946   -0.8429 H   0  0  0  0  0  0  0  0  0  0  0  0
   -0.4635    4.0173    0.9676 C   0  0  0  0  0  0  0  0  0  0  0  0
    0.5061    4.3937    1.3006 H   0  0  0  0  0  0  0  0  0  0  0  0
   -0.9750    4.7924    0.3961 H   0  0  0  0  0  0  0  0  0  0  0  0
   -1.0580    3.7644    1.8483 H   0  0  0  0  0  0  0  0  0  0  0  0
  5  6  2  0  0  0  0
  5  7  1  0  0  0  0
  2  3  1  0  0  0  0
  2  4  1  0  0  0  0
  2  5  1  0  0  0  0
  1  2  1  0  0  0  0
 19 20  2  0  0  0  0
 19 21  1  0  0  0  0
 17 18  1  0  0  0  0
 17 19  1  0  0  0  0
 14 15  1  0  0  0  0
 14 16  1  0  0  0  0
 14 17  1  0  0  0  0
 11 12  1  0  0  0  0
 11 13  1  0  0  0  0
 11 14  1  0  0  0  0
  8  9  1  0  0  0  0
  8 10  1  0  0  0  0
  8 11  1  0  0  0  0
  7  8  1  0  0  0  0
  7 17  1  0  0  0  0
 23 24  1  0  0  0  0
 23 25  1  0  0  0  0
 23 26  1  0  0  0  0
 21 22  1  0  0  0  0
 21 23  1  0  0  0  0
M  END
$$$$
default_name
  -OEChem-11182114113D

 26 26  0     1  0  0  0  0  0999 V2000
   -1.8446   -3.5060   -0.3010 H   0  0  0  0  0  0  0  0  0  0  0  0
   -2.0746   -2.4490   -0.4240 C   0  0  0  0  0  0  0  0  0  0  0  0
   -2.6906   -2.1160    0.4090 H   0  0  0  0  0  0  0  0  0  0  0  0
   -2.5986   -2.2980   -1.3650 H   0  0  0  0  0  0  0  0  0  0  0  0
   -0.7756   -1.6630   -0.4350 C   0  0  0  0  0  0  0  0  0  0  0  0
    0.2844   -2.2800   -0.4550 O   0  0  0  0  0  0  0  0  0  0  0  0
   -0.8246   -0.3180   -0.4350 N   0  0  0  0  0  0  0  0  0  0  0  0
   -2.0106    0.5080   -0.5910 C   0  0  0  0  0  0  0  0  0  0  0  0
   -2.1735    1.4152   -0.0069 H   0  0  0  0  0  0  0  0  0  0  0  0
   -2.9337    0.2014   -1.0816 H   0  0  0  0  0  0  0  0  0  0  0  0
   -0.9212    0.7479   -1.6341 C   0  0  0  0  0  0  0  0  0  0  0  0
   -1.5459    1.5420   -2.0459 H   0  0  0  0  0  0  0  0  0  0  0  0
   -1.1799   -0.2161   -2.0734 H   0  0  0  0  0  0  0  0  0  0  0  0
    0.5675    1.0278   -1.8400 C   0  0  0  0  0  0  0  0  0  0  0  0
    0.9452    2.0522   -1.8362 H   0  0  0  0  0  0  0  0  0  0  0  0
    1.2377    0.3817   -2.4067 H   0  0  0  0  0  0  0  0  0  0  0  0
    0.3724    0.5200   -0.4020 C   0  0  1  0  0  0  0  0  0  0  0  0
    1.2226   -0.1060   -0.1299 H   0  0  0  0  0  0  0  0  0  0  0  0
    0.2441    1.6770    0.6029 C   0  0  0  0  0  0  0  0  0  0  0  0
    0.8110    1.6225    1.6924 O   0  0  0  0  0  0  0  0  0  0  0  0
   -0.5351    2.7061    0.2487 N   0  0  0  0  0  0  0  0  0  0  0  0
   -0.9170    2.7047   -0.6835 H   0  0  0  0  0  0  0  0  0  0  0  0
   -0.7700    3.8785    1.0883 C   0  0  0  0  0  0  0  0  0  0  0  0
    0.1665    4.4241    1.2224 H   0  0  0  0  0  0  0  0  0  0  0  0
   -1.5071    4.5349    0.6247 H   0  0  0  0  0  0  0  0  0  0  0  0
   -1.1312    3.5639    2.0698 H   0  0  0  0  0  0  0  0  0  0  0  0
  5  6  2  0  0  0  0
  5  7  1  0  0  0  0
  2  3  1  0  0  0  0
  2  4  1  0  0  0  0
  2  5  1  0  0  0  0
  1  2  1  0  0  0  0
 19 20  2  0  0  0  0
 19 21  1  0  0  0  0
 17 18  1  0  0  0  0
 17 19  1  0  0  0  0
 14 15  1  0  0  0  0
 14 16  1  0  0  0  0
 14 17  1  0  0  0  0
 11 12  1  0  0  0  0
 11 13  1  0  0  0  0
 11 14  1  0  0  0  0
  8  9  1  0  0  0  0
  8 10  1  0  0  0  0
  8 11  1  0  0  0  0
  7  8  1  0  0  0  0
  7 17  1  0  0  0  0
 23 24  1  0  0  0  0
 23 25  1  0  0  0  0
 23 26  1  0  0  0  0
 21 22  1  0  0  0  0
 21 23  1  0  0  0  0
M  END
$$$$
default_name
  -OEChem-11182114113D

 26 26  0     1  0  0  0  0  0999 V2000
   -1.8446   -3.5060   -0.3010 H   0  0  0  0  0  0  0  0  0  0  0  0
   -2.0746   -2.4490   -0.4240 C   0  0  0  0  0  0  0  0  0  0  0  0
   -2.6906   -2.1160    0.4090 H   0  0  0  0  0  0  0  0  0  0  0  0
   -2.5986   -2.2980   -1.3650 H   0  0  0  0  0  0  0  0  0  0  0  0
   -0.7756   -1.6630   -0.4350 C   0  0  0  0  0  0  0  0  0  0  0  0
    0.2844   -2.2800   -0.4550 O   0  0  0  0  0  0  0  0  0  0  0  0
   -0.8246   -0.3180   -0.4350 N   0  0  0  0  0  0  0  0  0  0  0  0
   -2.0106    0.5080   -0.5910 C   0  0  0  0  0  0  0  0  0  0  0  0
   -2.1735    1.4152   -0.0069 H   0  0  0  0  0  0  0  0  0  0  0  0
   -2.9337    0.2014   -1.0816 H   0  0  0  0  0  0  0  0  0  0  0  0
   -0.9212    0.7479   -1.6341 C   0  0  0  0  0  0  0  0  0  0  0  0
   -1.5459    1.5420   -2.0459 H   0  0  0  0  0  0  0  0  0  0  0  0
   -1.1799   -0.2161   -2.0734 H   0  0  0  0  0  0  0  0  0  0  0  0
    0.5675    1.0278   -1.8400 C   0  0  0  0  0  0  0  0  0  0  0  0
    0.9452    2.0522   -1.8362 H   0  0  0  0  0  0  0  0  0  0  0  0
    1.2377    0.3817   -2.4067 H   0  0  0  0  0  0  0  0  0  0  0  0
    0.3724    0.5200   -0.4020 C   0  0  1  0  0  0  0  0  0  0  0  0
    1.2226   -0.1060   -0.1299 H   0  0  0  0  0  0  0  0  0  0  0  0
    0.2441    1.6770    0.6029 C   0  0  0  0  0  0  0  0  0  0  0  0
    1.0113    1.7598    1.5600 O   0  0  0  0  0  0  0  0  0  0  0  0
   -0.7533    2.5472    0.4039 N   0  0  0  0  0  0  0  0  0  0  0  0
   -1.3018    2.4463   -0.4351 H   0  0  0  0  0  0  0  0  0  0  0  0
   -1.0191    3.6952    1.2675 C   0  0  0  0  0  0  0  0  0  0  0  0
   -0.1819    4.3942    1.2122 H   0  0  0  0  0  0  0  0  0  0  0  0
   -1.9331    4.2010    0.9547 H   0  0  0  0  0  0  0  0  0  0  0  0
   -1.1249    3.3626    2.3024 H   0  0  0  0  0  0  0  0  0  0  0  0
  5  6  2  0  0  0  0
  5  7  1  0  0  0  0
  2  3  1  0  0  0  0
  2  4  1  0  0  0  0
  2  5  1  0  0  0  0
  1  2  1  0  0  0  0
 19 20  2  0  0  0  0
 19 21  1  0  0  0  0
 17 18  1  0  0  0  0
 17 19  1  0  0  0  0
 14 15  1  0  0  0  0
 14 16  1  0  0  0  0
 14 17  1  0  0  0  0
 11 12  1  0  0  0  0
 11 13  1  0  0  0  0
 11 14  1  0  0  0  0
  8  9  1  0  0  0  0
  8 10  1  0  0  0  0
  8 11  1  0  0  0  0
  7  8  1  0  0  0  0
  7 17  1  0  0  0  0
 23 24  1  0  0  0  0
 23 25  1  0  0  0  0
 23 26  1  0  0  0  0
 21 22  1  0  0  0  0
 21 23  1  0  0  0  0
M  END
$$$$
default_name
  -OEChem-11182114113D

 26 26  0     1  0  0  0  0  0999 V2000
   -1.8446   -3.5060   -0.3010 H   0  0  0  0  0  0  0  0  0  0  0  0
   -2.0746   -2.4490   -0.4240 C   0  0  0  0  0  0  0  0  0  0  0  0
   -2.6906   -2.1160    0.4090 H   0  0  0  0  0  0  0  0  0  0  0  0
   -2.5986   -2.2980   -1.3650 H   0  0  0  0  0  0  0  0  0  0  0  0
   -0.7756   -1.6630   -0.4350 C   0  0  0  0  0  0  0  0  0  0  0  0
    0.2844   -2.2800   -0.4550 O   0  0  0  0  0  0  0  0  0  0  0  0
   -0.8246   -0.3180   -0.4350 N   0  0  0  0  0  0  0  0  0  0  0  0
   -2.0106    0.5080   -0.5910 C   0  0  0  0  0  0  0  0  0  0  0  0
   -2.1735    1.4152   -0.0069 H   0  0  0  0  0  0  0  0  0  0  0  0
   -2.9337    0.2014   -1.0816 H   0  0  0  0  0  0  0  0  0  0  0  0
   -0.9212    0.7479   -1.6341 C   0  0  0  0  0  0  0  0  0  0  0  0
   -1.5459    1.5420   -2.0459 H   0  0  0  0  0  0  0  0  0  0  0  0
   -1.1799   -0.2161   -2.0734 H   0  0  0  0  0  0  0  0  0  0  0  0
    0.5675    1.0278   -1.8400 C   0  0  0  0  0  0  0  0  0  0  0  0
    0.9452    2.0522   -1.8362 H   0  0  0  0  0  0  0  0  0  0  0  0
    1.2377    0.3817   -2.4067 H   0  0  0  0  0  0  0  0  0  0  0  0
    0.3724    0.5200   -0.4020 C   0  0  1  0  0  0  0  0  0  0  0  0
    1.2226   -0.1060   -0.1299 H   0  0  0  0  0  0  0  0  0  0  0  0
    0.2441    1.6770    0.6029 C   0  0  0  0  0  0  0  0  0  0  0  0
    1.1557    1.9233    1.3901 O   0  0  0  0  0  0  0  0  0  0  0  0
   -0.9070    2.3602    0.5996 N   0  0  0  0  0  0  0  0  0  0  0  0
   -1.5814    2.1370   -0.1147 H   0  0  0  0  0  0  0  0  0  0  0  0
   -1.1938    3.4799    1.4931 C   0  0  0  0  0  0  0  0  0  0  0  0
   -0.5153    4.3063    1.2709 H   0  0  0  0  0  0  0  0  0  0  0  0
   -2.2239    3.8136    1.3636 H   0  0  0  0  0  0  0  0  0  0  0  0
   -1.0394    3.1742    2.5302 H   0  0  0  0  0  0  0  0  0  0  0  0
  5  6  2  0  0  0  0
  5  7  1  0  0  0  0
  2  3  1  0  0  0  0
  2  4  1  0  0  0  0
  2  5  1  0  0  0  0
  1  2  1  0  0  0  0
 19 20  2  0  0  0  0
 19 21  1  0  0  0  0
 17 18  1  0  0  0  0
 17 19  1  0  0  0  0
 14 15  1  0  0  0  0
 14 16  1  0  0  0  0
 14 17  1  0  0  0  0
 11 12  1  0  0  0  0
 11 13  1  0  0  0  0
 11 14  1  0  0  0  0
  8  9  1  0  0  0  0
  8 10  1  0  0  0  0
  8 11  1  0  0  0  0
  7  8  1  0  0  0  0
  7 17  1  0  0  0  0
 23 24  1  0  0  0  0
 23 25  1  0  0  0  0
 23 26  1  0  0  0  0
 21 22  1  0  0  0  0
 21 23  1  0  0  0  0
M  END
$$$$
default_name
  -OEChem-11182114113D

 26 26  0     1  0  0  0  0  0999 V2000
   -1.8446   -3.5060   -0.3010 H   0  0  0  0  0  0  0  0  0  0  0  0
   -2.0746   -2.4490   -0.4240 C   0  0  0  0  0  0  0  0  0  0  0  0
   -2.6906   -2.1160    0.4090 H   0  0  0  0  0  0  0  0  0  0  0  0
   -2.5986   -2.2980   -1.3650 H   0  0  0  0  0  0  0  0  0  0  0  0
   -0.7756   -1.6630   -0.4350 C   0  0  0  0  0  0  0  0  0  0  0  0
    0.2844   -2.2800   -0.4550 O   0  0  0  0  0  0  0  0  0  0  0  0
   -0.8246   -0.3180   -0.4350 N   0  0  0  0  0  0  0  0  0  0  0  0
   -2.0106    0.5080   -0.5910 C   0  0  0  0  0  0  0  0  0  0  0  0
   -2.1735    1.4152   -0.0069 H   0  0  0  0  0  0  0  0  0  0  0  0
   -2.9337    0.2014   -1.0816 H   0  0  0  0  0  0  0  0  0  0  0  0
   -0.9212    0.7479   -1.6341 C   0  0  0  0  0  0  0  0  0  0  0  0
   -1.5459    1.5420   -2.0459 H   0  0  0  0  0  0  0  0  0  0  0  0
   -1.1799   -0.2161   -2.0734 H   0  0  0  0  0  0  0  0  0  0  0  0
    0.5675    1.0278   -1.8400 C   0  0  0  0  0  0  0  0  0  0  0  0
    0.9452    2.0522   -1.8362 H   0  0  0  0  0  0  0  0  0  0  0  0
    1.2377    0.3817   -2.4067 H   0  0  0  0  0  0  0  0  0  0  0  0
    0.3724    0.5200   -0.4020 C   0  0  1  0  0  0  0  0  0  0  0  0
    1.2226   -0.1060   -0.1299 H   0  0  0  0  0  0  0  0  0  0  0  0
    0.2441    1.6770    0.6029 C   0  0  0  0  0  0  0  0  0  0  0  0
    1.2345    2.1021    1.1943 O   0  0  0  0  0  0  0  0  0  0  0  0
   -0.9856    2.1577    0.8226 N   0  0  0  0  0  0  0  0  0  0  0  0
   -1.7368    1.7978    0.2560 H   0  0  0  0  0  0  0  0  0  0  0  0
   -1.2822    3.2473    1.7497 C   0  0  0  0  0  0  0  0  0  0  0  0
   -0.8110    4.1662    1.3944 H   0  0  0  0  0  0  0  0  0  0  0  0
   -2.3596    3.3991    1.8236 H   0  0  0  0  0  0  0  0  0  0  0  0
   -0.8807    3.0117    2.7376 H   0  0  0  0  0  0  0  0  0  0  0  0
  5  6  2  0  0  0  0
  5  7  1  0  0  0  0
  2  3  1  0  0  0  0
  2  4  1  0  0  0  0
  2  5  1  0  0  0  0
  1  2  1  0  0  0  0
 19 20  2  0  0  0  0
 19 21  1  0  0  0  0
 17 18  1  0  0  0  0
 17 19  1  0  0  0  0
 14 15  1  0  0  0  0
 14 16  1  0  0  0  0
 14 17  1  0  0  0  0
 11 12  1  0  0  0  0
 11 13  1  0  0  0  0
 11 14  1  0  0  0  0
  8  9  1  0  0  0  0
  8 10  1  0  0  0  0
  8 11  1  0  0  0  0
  7  8  1  0  0  0  0
  7 17  1  0  0  0  0
 23 24  1  0  0  0  0
 23 25  1  0  0  0  0
 23 26  1  0  0  0  0
 21 22  1  0  0  0  0
 21 23  1  0  0  0  0
M  END
$$$$
default_name
  -OEChem-11182114113D

 26 26  0     1  0  0  0  0  0999 V2000
   -1.8446   -3.5060   -0.3010 H   0  0  0  0  0  0  0  0  0  0  0  0
   -2.0746   -2.4490   -0.4240 C   0  0  0  0  0  0  0  0  0  0  0  0
   -2.6906   -2.1160    0.4090 H   0  0  0  0  0  0  0  0  0  0  0  0
   -2.5986   -2.2980   -1.3650 H   0  0  0  0  0  0  0  0  0  0  0  0
   -0.7756   -1.6630   -0.4350 C   0  0  0  0  0  0  0  0  0  0  0  0
    0.2844   -2.2800   -0.4550 O   0  0  0  0  0  0  0  0  0  0  0  0
   -0.8246   -0.3180   -0.4350 N   0  0  0  0  0  0  0  0  0  0  0  0
   -2.0106    0.5080   -0.5910 C   0  0  0  0  0  0  0  0  0  0  0  0
   -2.1735    1.4152   -0.0069 H   0  0  0  0  0  0  0  0  0  0  0  0
   -2.9337    0.2014   -1.0816 H   0  0  0  0  0  0  0  0  0  0  0  0
   -0.9212    0.7479   -1.6341 C   0  0  0  0  0  0  0  0  0  0  0  0
   -1.5459    1.5420   -2.0459 H   0  0  0  0  0  0  0  0  0  0  0  0
   -1.1799   -0.2161   -2.0734 H   0  0  0  0  0  0  0  0  0  0  0  0
    0.5675    1.0278   -1.8400 C   0  0  0  0  0  0  0  0  0  0  0  0
    0.9452    2.0522   -1.8362 H   0  0  0  0  0  0  0  0  0  0  0  0
    1.2377    0.3817   -2.4067 H   0  0  0  0  0  0  0  0  0  0  0  0
    0.3724    0.5200   -0.4020 C   0  0  1  0  0  0  0  0  0  0  0  0
    1.2226   -0.1060   -0.1299 H   0  0  0  0  0  0  0  0  0  0  0  0
    0.2441    1.6770    0.6029 C   0  0  0  0  0  0  0  0  0  0  0  0
    1.2423    2.2839    0.9860 O   0  0  0  0  0  0  0  0  0  0  0  0
   -0.9840    1.9537    1.0578 N   0  0  0  0  0  0  0  0  0  0  0  0
   -1.7574    1.4520    0.6516 H   0  0  0  0  0  0  0  0  0  0  0  0
   -1.2783    3.0132    2.0197 C   0  0  0  0  0  0  0  0  0  0  0  0
   -1.0490    3.9836    1.5743 H   0  0  0  0  0  0  0  0  0  0  0  0
   -2.3309    2.9857    2.3032 H   0  0  0  0  0  0  0  0  0  0  0  0
   -0.6595    2.8860    2.9106 H   0  0  0  0  0  0  0  0  0  0  0  0
  5  6  2  0  0  0  0
  5  7  1  0  0  0  0
  2  3  1  0  0  0  0
  2  4  1  0  0  0  0
  2  5  1  0  0  0  0
  1  2  1  0  0  0  0
 19 20  2  0  0  0  0
 19 21  1  0  0  0  0
 17 18  1  0  0  0  0
 17 19  1  0  0  0  0
 14 15  1  0  0  0  0
 14 16  1  0  0  0  0
 14 17  1  0  0  0  0
 11 12  1  0  0  0  0
 11 13  1  0  0  0  0
 11 14  1  0  0  0  0
  8  9  1  0  0  0  0
  8 10  1  0  0  0  0
  8 11  1  0  0  0  0
  7  8  1  0  0  0  0
  7 17  1  0  0  0  0
 23 24  1  0  0  0  0
 23 25  1  0  0  0  0
 23 26  1  0  0  0  0
 21 22  1  0  0  0  0
 21 23  1  0  0  0  0
M  END
$$$$
default_name
  -OEChem-11182114113D

 26 26  0     1  0  0  0  0  0999 V2000
   -1.8446   -3.5060   -0.3010 H   0  0  0  0  0  0  0  0  0  0  0  0
   -2.0746   -2.4490   -0.4240 C   0  0  0  0  0  0  0  0  0  0  0  0
   -2.6906   -2.1160    0.4090 H   0  0  0  0  0  0  0  0  0  0  0  0
   -2.5986   -2.2980   -1.3650 H   0  0  0  0  0  0  0  0  0  0  0  0
   -0.7756   -1.6630   -0.4350 C   0  0  0  0  0  0  0  0  0  0  0  0
    0.2844   -2.2800   -0.4550 O   0  0  0  0  0  0  0  0  0  0  0  0
   -0.8246   -0.3180   -0.4350 N   0  0  0  0  0  0  0  0  0  0  0  0
   -2.0106    0.5080   -0.5910 C   0  0  0  0  0  0  0  0  0  0  0  0
   -2.1735    1.4152   -0.0069 H   0  0  0  0  0  0  0  0  0  0  0  0
   -2.9337    0.2014   -1.0816 H   0  0  0  0  0  0  0  0  0  0  0  0
   -0.9212    0.7479   -1.6341 C   0  0  0  0  0  0  0  0  0  0  0  0
   -1.5459    1.5420   -2.0459 H   0  0  0  0  0  0  0  0  0  0  0  0
   -1.1799   -0.2161   -2.0734 H   0  0  0  0  0  0  0  0  0  0  0  0
    0.5675    1.0278   -1.8400 C   0  0  0  0  0  0  0  0  0  0  0  0
    0.9452    2.0522   -1.8362 H   0  0  0  0  0  0  0  0  0  0  0  0
    1.2377    0.3817   -2.4067 H   0  0  0  0  0  0  0  0  0  0  0  0
    0.3724    0.5200   -0.4020 C   0  0  1  0  0  0  0  0  0  0  0  0
    1.2226   -0.1060   -0.1299 H   0  0  0  0  0  0  0  0  0  0  0  0
    0.2441    1.6770    0.6029 C   0  0  0  0  0  0  0  0  0  0  0  0
    1.1785    2.4563    0.7794 O   0  0  0  0  0  0  0  0  0  0  0  0
   -0.9021    1.7620    1.2890 N   0  0  0  0  0  0  0  0  0  0  0  0
   -1.6417    1.1230    1.0452 H   0  0  0  0  0  0  0  0  0  0  0  0
   -1.1824    2.7935    2.2849 C   0  0  0  0  0  0  0  0  0  0  0  0
   -1.2129    3.7708    1.7984 H   0  0  0  0  0  0  0  0  0  0  0  0
   -2.1400    2.6015    2.7699 H   0  0  0  0  0  0  0  0  0  0  0  0
   -0.3908    2.8057    3.0373 H   0  0  0  0  0  0  0  0  0  0  0  0
  5  6  2  0  0  0  0
  5  7  1  0  0  0  0
  2  3  1  0  0  0  0
  2  4  1  0  0  0  0
  2  5  1  0  0  0  0
  1  2  1  0  0  0  0
 19 20  2  0  0  0  0
 19 21  1  0  0  0  0
 17 18  1  0  0  0  0
 17 19  1  0  0  0  0
 14 15  1  0  0  0  0
 14 16  1  0  0  0  0
 14 17  1  0  0  0  0
 11 12  1  0  0  0  0
 11 13  1  0  0  0  0
 11 14  1  0  0  0  0
  8  9  1  0  0  0  0
  8 10  1  0  0  0  0
  8 11  1  0  0  0  0
  7  8  1  0  0  0  0
  7 17  1  0  0  0  0
 23 24  1  0  0  0  0
 23 25  1  0  0  0  0
 23 26  1  0  0  0  0
 21 22  1  0  0  0  0
 21 23  1  0  0  0  0
M  END
$$$$
default_name
  -OEChem-11182114113D

 26 26  0     1  0  0  0  0  0999 V2000
   -1.8446   -3.5060   -0.3010 H   0  0  0  0  0  0  0  0  0  0  0  0
   -2.0746   -2.4490   -0.4240 C   0  0  0  0  0  0  0  0  0  0  0  0
   -2.6906   -2.1160    0.4090 H   0  0  0  0  0  0  0  0  0  0  0  0
   -2.5986   -2.2980   -1.3650 H   0  0  0  0  0  0  0  0  0  0  0  0
   -0.7756   -1.6630   -0.4350 C   0  0  0  0  0  0  0  0  0  0  0  0
    0.2844   -2.2800   -0.4550 O   0  0  0  0  0  0  0  0  0  0  0  0
   -0.8246   -0.3180   -0.4350 N   0  0  0  0  0  0  0  0  0  0  0  0
   -2.0106    0.5080   -0.5910 C   0  0  0  0  0  0  0  0  0  0  0  0
   -2.1735    1.4152   -0.0069 H   0  0  0  0  0  0  0  0  0  0  0  0
   -2.9337    0.2014   -1.0816 H   0  0  0  0  0  0  0  0  0  0  0  0
   -0.9212    0.7479   -1.6341 C   0  0  0  0  0  0  0  0  0  0  0  0
   -1.5459    1.5420   -2.0459 H   0  0  0  0  0  0  0  0  0  0  0  0
   -1.1799   -0.2161   -2.0734 H   0  0  0  0  0  0  0  0  0  0  0  0
    0.5675    1.0278   -1.8400 C   0  0  0  0  0  0  0  0  0  0  0  0
    0.9452    2.0522   -1.8362 H   0  0  0  0  0  0  0  0  0  0  0  0
    1.2377    0.3817   -2.4067 H   0  0  0  0  0  0  0  0  0  0  0  0
    0.3724    0.5200   -0.4020 C   0  0  1  0  0  0  0  0  0  0  0  0
    1.2226   -0.1060   -0.1299 H   0  0  0  0  0  0  0  0  0  0  0  0
    0.2441    1.6770    0.6029 C   0  0  0  0  0  0  0  0  0  0  0  0
    1.0474    2.6075    0.5885 O   0  0  0  0  0  0  0  0  0  0  0  0
   -0.7455    1.5956    1.5005 N   0  0  0  0  0  0  0  0  0  0  0  0
   -1.3977    0.8332    1.4100 H   0  0  0  0  0  0  0  0  0  0  0  0
   -1.0009    2.6033    2.5271 C   0  0  0  0  0  0  0  0  0  0  0  0
   -1.2916    3.5424    2.0513 H   0  0  0  0  0  0  0  0  0  0  0  0
   -1.7997    2.2729    3.1918 H   0  0  0  0  0  0  0  0  0  0  0  0
   -0.0931    2.7763    3.1092 H   0  0  0  0  0  0  0  0  0  0  0  0
  5  6  2  0  0  0  0
  5  7  1  0  0  0  0
  2  3  1  0  0  0  0
  2  4  1  0  0  0  0
  2  5  1  0  0  0  0
  1  2  1  0  0  0  0
 19 20  2  0  0  0  0
 19 21  1  0  0  0  0
 17 18  1  0  0  0  0
 17 19  1  0  0  0  0
 14 15  1  0  0  0  0
 14 16  1  0  0  0  0
 14 17  1  0  0  0  0
 11 12  1  0  0  0  0
 11 13  1  0  0  0  0
 11 14  1  0  0  0  0
  8  9  1  0  0  0  0
  8 10  1  0  0  0  0
  8 11  1  0  0  0  0
  7  8  1  0  0  0  0
  7 17  1  0  0  0  0
 23 24  1  0  0  0  0
 23 25  1  0  0  0  0
 23 26  1  0  0  0  0
 21 22  1  0  0  0  0
 21 23  1  0  0  0  0
M  END
$$$$
default_name
  -OEChem-11182114113D

 26 26  0     1  0  0  0  0  0999 V2000
   -1.8446   -3.5060   -0.3010 H   0  0  0  0  0  0  0  0  0  0  0  0
   -2.0746   -2.4490   -0.4240 C   0  0  0  0  0  0  0  0  0  0  0  0
   -2.6906   -2.1160    0.4090 H   0  0  0  0  0  0  0  0  0  0  0  0
   -2.5986   -2.2980   -1.3650 H   0  0  0  0  0  0  0  0  0  0  0  0
   -0.7756   -1.6630   -0.4350 C   0  0  0  0  0  0  0  0  0  0  0  0
    0.2844   -2.2800   -0.4550 O   0  0  0  0  0  0  0  0  0  0  0  0
   -0.8246   -0.3180   -0.4350 N   0  0  0  0  0  0  0  0  0  0  0  0
   -2.0106    0.5080   -0.5910 C   0  0  0  0  0  0  0  0  0  0  0  0
   -2.1735    1.4152   -0.0069 H   0  0  0  0  0  0  0  0  0  0  0  0
   -2.9337    0.2014   -1.0816 H   0  0  0  0  0  0  0  0  0  0  0  0
   -0.9212    0.7479   -1.6341 C   0  0  0  0  0  0  0  0  0  0  0  0
   -1.5459    1.5420   -2.0459 H   0  0  0  0  0  0  0  0  0  0  0  0
   -1.1799   -0.2161   -2.0734 H   0  0  0  0  0  0  0  0  0  0  0  0
    0.5675    1.0278   -1.8400 C   0  0  0  0  0  0  0  0  0  0  0  0
    0.9452    2.0522   -1.8362 H   0  0  0  0  0  0  0  0  0  0  0  0
    1.2377    0.3817   -2.4067 H   0  0  0  0  0  0  0  0  0  0  0  0
    0.3724    0.5200   -0.4020 C   0  0  1  0  0  0  0  0  0  0  0  0
    1.2226   -0.1060   -0.1299 H   0  0  0  0  0  0  0  0  0  0  0  0
    0.2441    1.6770    0.6029 C   0  0  0  0  0  0  0  0  0  0  0  0
    0.8581    2.7273    0.4263 O   0  0  0  0  0  0  0  0  0  0  0  0
   -0.5250    1.4660    1.6779 N   0  0  0  0  0  0  0  0  0  0  0  0
   -1.0420    0.6025    1.7211 H   0  0  0  0  0  0  0  0  0  0  0  0
   -0.7463    2.4555    2.7298 C   0  0  0  0  0  0  0  0  0  0  0  0
   -1.2797    3.3139    2.3159 H   0  0  0  0  0  0  0  0  0  0  0  0
   -1.3333    2.0221    3.5402 H   0  0  0  0  0  0  0  0  0  0  0  0
    0.2134    2.7999    3.1212 H   0  0  0  0  0  0  0  0  0  0  0  0
  5  6  2  0  0  0  0
  5  7  1  0  0  0  0
  2  3  1  0  0  0  0
  2  4  1  0  0  0  0
  2  5  1  0  0  0  0
  1  2  1  0  0  0  0
 19 20  2  0  0  0  0
 19 21  1  0  0  0  0
 17 18  1  0  0  0  0
 17 19  1  0  0  0  0
 14 15  1  0  0  0  0
 14 16  1  0  0  0  0
 14 17  1  0  0  0  0
 11 12  1  0  0  0  0
 11 13  1  0  0  0  0
 11 14  1  0  0  0  0
  8  9  1  0  0  0  0
  8 10  1  0  0  0  0
  8 11  1  0  0  0  0
  7  8  1  0  0  0  0
  7 17  1  0  0  0  0
 23 24  1  0  0  0  0
 23 25  1  0  0  0  0
 23 26  1  0  0  0  0
 21 22  1  0  0  0  0
 21 23  1  0  0  0  0
M  END
$$$$
default_name
  -OEChem-11182114113D

 26 26  0     1  0  0  0  0  0999 V2000
   -1.8446   -3.5060   -0.3010 H   0  0  0  0  0  0  0  0  0  0  0  0
   -2.0746   -2.4490   -0.4240 C   0  0  0  0  0  0  0  0  0  0  0  0
   -2.6906   -2.1160    0.4090 H   0  0  0  0  0  0  0  0  0  0  0  0
   -2.5986   -2.2980   -1.3650 H   0  0  0  0  0  0  0  0  0  0  0  0
   -0.7756   -1.6630   -0.4350 C   0  0  0  0  0  0  0  0  0  0  0  0
    0.2844   -2.2800   -0.4550 O   0  0  0  0  0  0  0  0  0  0  0  0
   -0.8246   -0.3180   -0.4350 N   0  0  0  0  0  0  0  0  0  0  0  0
   -2.0106    0.5080   -0.5910 C   0  0  0  0  0  0  0  0  0  0  0  0
   -2.1735    1.4152   -0.0069 H   0  0  0  0  0  0  0  0  0  0  0  0
   -2.9337    0.2014   -1.0816 H   0  0  0  0  0  0  0  0  0  0  0  0
   -0.9212    0.7479   -1.6341 C   0  0  0  0  0  0  0  0  0  0  0  0
   -1.5459    1.5420   -2.0459 H   0  0  0  0  0  0  0  0  0  0  0  0
   -1.1799   -0.2161   -2.0734 H   0  0  0  0  0  0  0  0  0  0  0  0
    0.5675    1.0278   -1.8400 C   0  0  0  0  0  0  0  0  0  0  0  0
    0.9452    2.0522   -1.8362 H   0  0  0  0  0  0  0  0  0  0  0  0
    1.2377    0.3817   -2.4067 H   0  0  0  0  0  0  0  0  0  0  0  0
    0.3724    0.5200   -0.4020 C   0  0  1  0  0  0  0  0  0  0  0  0
    1.2226   -0.1060   -0.1299 H   0  0  0  0  0  0  0  0  0  0  0  0
    0.2441    1.6770    0.6029 C   0  0  0  0  0  0  0  0  0  0  0  0
    0.6234    2.8076    0.3040 O   0  0  0  0  0  0  0  0  0  0  0  0
   -0.2555    1.3819    1.8091 N   0  0  0  0  0  0  0  0  0  0  0  0
   -0.5988    0.4465    1.9573 H   0  0  0  0  0  0  0  0  0  0  0  0
   -0.4359    2.3602    2.8792 C   0  0  0  0  0  0  0  0  0  0  0  0
   -1.1781    3.1010    2.5741 H   0  0  0  0  0  0  0  0  0  0  0  0
   -0.7725    1.8662    3.7912 H   0  0  0  0  0  0  0  0  0  0  0  0
    0.5079    2.8747    3.0726 H   0  0  0  0  0  0  0  0  0  0  0  0
  5  6  2  0  0  0  0
  5  7  1  0  0  0  0
  2  3  1  0  0  0  0
  2  4  1  0  0  0  0
  2  5  1  0  0  0  0
  1  2  1  0  0  0  0
 19 20  2  0  0  0  0
 19 21  1  0  0  0  0
 17 18  1  0  0  0  0
 17 19  1  0  0  0  0
 14 15  1  0  0  0  0
 14 16  1  0  0  0  0
 14 17  1  0  0  0  0
 11 12  1  0  0  0  0
 11 13  1  0  0  0  0
 11 14  1  0  0  0  0
  8  9  1  0  0  0  0
  8 10  1  0  0  0  0
  8 11  1  0  0  0  0
  7  8  1  0  0  0  0
  7 17  1  0  0  0  0
 23 24  1  0  0  0  0
 23 25  1  0  0  0  0
 23 26  1  0  0  0  0
 21 22  1  0  0  0  0
 21 23  1  0  0  0  0
M  END
$$$$
default_name
  -OEChem-11182114113D

 26 26  0     1  0  0  0  0  0999 V2000
   -1.8446   -3.5060   -0.3010 H   0  0  0  0  0  0  0  0  0  0  0  0
   -2.0746   -2.4490   -0.4240 C   0  0  0  0  0  0  0  0  0  0  0  0
   -2.6906   -2.1160    0.4090 H   0  0  0  0  0  0  0  0  0  0  0  0
   -2.5986   -2.2980   -1.3650 H   0  0  0  0  0  0  0  0  0  0  0  0
   -0.7756   -1.6630   -0.4350 C   0  0  0  0  0  0  0  0  0  0  0  0
    0.2844   -2.2800   -0.4550 O   0  0  0  0  0  0  0  0  0  0  0  0
   -0.8246   -0.3180   -0.4350 N   0  0  0  0  0  0  0  0  0  0  0  0
   -2.0106    0.5080   -0.5910 C   0  0  0  0  0  0  0  0  0  0  0  0
   -2.1735    1.4152   -0.0069 H   0  0  0  0  0  0  0  0  0  0  0  0
   -2.9337    0.2014   -1.0816 H   0  0  0  0  0  0  0  0  0  0  0  0
   -0.9212    0.7479   -1.6341 C   0  0  0  0  0  0  0  0  0  0  0  0
   -1.5459    1.5420   -2.0459 H   0  0  0  0  0  0  0  0  0  0  0  0
   -1.1799   -0.2161   -2.0734 H   0  0  0  0  0  0  0  0  0  0  0  0
    0.5675    1.0278   -1.8400 C   0  0  0  0  0  0  0  0  0  0  0  0
    0.9452    2.0522   -1.8362 H   0  0  0  0  0  0  0  0  0  0  0  0
    1.2377    0.3817   -2.4067 H   0  0  0  0  0  0  0  0  0  0  0  0
    0.3724    0.5200   -0.4020 C   0  0  1  0  0  0  0  0  0  0  0  0
    1.2226   -0.1060   -0.1299 H   0  0  0  0  0  0  0  0  0  0  0  0
    0.2441    1.6770    0.6029 C   0  0  0  0  0  0  0  0  0  0  0  0
    0.3593    2.8427    0.2298 O   0  0  0  0  0  0  0  0  0  0  0  0
    0.0446    1.3491    1.8852 N   0  0  0  0  0  0  0  0  0  0  0  0
   -0.0983    0.3759    2.1025 H   0  0  0  0  0  0  0  0  0  0  0  0
   -0.0909    2.3238    2.9651 C   0  0  0  0  0  0  0  0  0  0  0  0
   -0.9937    2.9180    2.8083 H   0  0  0  0  0  0  0  0  0  0  0  0
   -0.1555    1.8159    3.9279 H   0  0  0  0  0  0  0  0  0  0  0  0
    0.7701    2.9958    2.9667 H   0  0  0  0  0  0  0  0  0  0  0  0
  5  6  2  0  0  0  0
  5  7  1  0  0  0  0
  2  3  1  0  0  0  0
  2  4  1  0  0  0  0
  2  5  1  0  0  0  0
  1  2  1  0  0  0  0
 19 20  2  0  0  0  0
 19 21  1  0  0  0  0
 17 18  1  0  0  0  0
 17 19  1  0  0  0  0
 14 15  1  0  0  0  0
 14 16  1  0  0  0  0
 14 17  1  0  0  0  0
 11 12  1  0  0  0  0
 11 13  1  0  0  0  0
 11 14  1  0  0  0  0
  8  9  1  0  0  0  0
  8 10  1  0  0  0  0
  8 11  1  0  0  0  0
  7  8  1  0  0  0  0
  7 17  1  0  0  0  0
 23 24  1  0  0  0  0
 23 25  1  0  0  0  0
 23 26  1  0  0  0  0
 21 22  1  0  0  0  0
 21 23  1  0  0  0  0
M  END
$$$$
default_name
  -OEChem-11182114113D

 26 26  0     1  0  0  0  0  0999 V2000
   -1.8446   -3.5060   -0.3010 H   0  0  0  0  0  0  0  0  0  0  0  0
   -2.0746   -2.4490   -0.4240 C   0  0  0  0  0  0  0  0  0  0  0  0
   -2.6906   -2.1160    0.4090 H   0  0  0  0  0  0  0  0  0  0  0  0
   -2.5986   -2.2980   -1.3650 H   0  0  0  0  0  0  0  0  0  0  0  0
   -0.7756   -1.6630   -0.4350 C   0  0  0  0  0  0  0  0  0  0  0  0
    0.2844   -2.2800   -0.4550 O   0  0  0  0  0  0  0  0  0  0  0  0
   -0.8246   -0.3180   -0.4350 N   0  0  0  0  0  0  0  0  0  0  0  0
   -2.0106    0.5080   -0.5910 C   0  0  0  0  0  0  0  0  0  0  0  0
   -2.1735    1.4152   -0.0069 H   0  0  0  0  0  0  0  0  0  0  0  0
   -2.9337    0.2014   -1.0816 H   0  0  0  0  0  0  0  0  0  0  0  0
   -0.9212    0.7479   -1.6341 C   0  0  0  0  0  0  0  0  0  0  0  0
   -1.5459    1.5420   -2.0459 H   0  0  0  0  0  0  0  0  0  0  0  0
   -1.1799   -0.2161   -2.0734 H   0  0  0  0  0  0  0  0  0  0  0  0
    0.5675    1.0278   -1.8400 C   0  0  0  0  0  0  0  0  0  0  0  0
    0.9452    2.0522   -1.8362 H   0  0  0  0  0  0  0  0  0  0  0  0
    1.2377    0.3817   -2.4067 H   0  0  0  0  0  0  0  0  0  0  0  0
    0.3724    0.5200   -0.4020 C   0  0  1  0  0  0  0  0  0  0  0  0
    1.2226   -0.1060   -0.1299 H   0  0  0  0  0  0  0  0  0  0  0  0
    0.2441    1.6770    0.6029 C   0  0  0  0  0  0  0  0  0  0  0  0
    0.0838    2.8304    0.2088 O   0  0  0  0  0  0  0  0  0  0  0  0
    0.3548    1.3698    1.9010 N   0  0  0  0  0  0  0  0  0  0  0  0
    0.4254    0.3954    2.1469 H   0  0  0  0  0  0  0  0  0  0  0  0
    0.2653    2.3489    2.9817 C   0  0  0  0  0  0  0  0  0  0  0  0
   -0.7390    2.7776    3.0026 H   0  0  0  0  0  0  0  0  0  0  0  0
    0.4755    1.8746    3.9409 H   0  0  0  0  0  0  0  0  0  0  0  0
    0.9824    3.1547    2.8108 H   0  0  0  0  0  0  0  0  0  0  0  0
  5  6  2  0  0  0  0
  5  7  1  0  0  0  0
  2  3  1  0  0  0  0
  2  4  1  0  0  0  0
  2  5  1  0  0  0  0
  1  2  1  0  0  0  0
 19 20  2  0  0  0  0
 19 21  1  0  0  0  0
 17 18  1  0  0  0  0
 17 19  1  0  0  0  0
 14 15  1  0  0  0  0
 14 16  1  0  0  0  0
 14 17  1  0  0  0  0
 11 12  1  0  0  0  0
 11 13  1  0  0  0  0
 11 14  1  0  0  0  0
  8  9  1  0  0  0  0
  8 10  1  0  0  0  0
  8 11  1  0  0  0  0
  7  8  1  0  0  0  0
  7 17  1  0  0  0  0
 23 24  1  0  0  0  0
 23 25  1  0  0  0  0
 23 26  1  0  0  0  0
 21 22  1  0  0  0  0
 21 23  1  0  0  0  0
M  END
$$$$
default_name
  -OEChem-11182114113D

 26 26  0     1  0  0  0  0  0999 V2000
   -1.8446   -3.5060   -0.3010 H   0  0  0  0  0  0  0  0  0  0  0  0
   -2.0746   -2.4490   -0.4240 C   0  0  0  0  0  0  0  0  0  0  0  0
   -2.6906   -2.1160    0.4090 H   0  0  0  0  0  0  0  0  0  0  0  0
   -2.5986   -2.2980   -1.3650 H   0  0  0  0  0  0  0  0  0  0  0  0
   -0.7756   -1.6630   -0.4350 C   0  0  0  0  0  0  0  0  0  0  0  0
    0.2844   -2.2800   -0.4550 O   0  0  0  0  0  0  0  0  0  0  0  0
   -0.8246   -0.3180   -0.4350 N   0  0  0  0  0  0  0  0  0  0  0  0
   -2.0106    0.5080   -0.5910 C   0  0  0  0  0  0  0  0  0  0  0  0
   -2.1735    1.4152   -0.0069 H   0  0  0  0  0  0  0  0  0  0  0  0
   -2.9337    0.2014   -1.0816 H   0  0  0  0  0  0  0  0  0  0  0  0
   -0.9212    0.7479   -1.6341 C   0  0  0  0  0  0  0  0  0  0  0  0
   -1.5459    1.5420   -2.0459 H   0  0  0  0  0  0  0  0  0  0  0  0
   -1.1799   -0.2161   -2.0734 H   0  0  0  0  0  0  0  0  0  0  0  0
    0.5675    1.0278   -1.8400 C   0  0  0  0  0  0  0  0  0  0  0  0
    0.9452    2.0522   -1.8362 H   0  0  0  0  0  0  0  0  0  0  0  0
    1.2377    0.3817   -2.4067 H   0  0  0  0  0  0  0  0  0  0  0  0
    0.3724    0.5200   -0.4020 C   0  0  1  0  0  0  0  0  0  0  0  0
    1.2226   -0.1060   -0.1299 H   0  0  0  0  0  0  0  0  0  0  0  0
    0.2441    1.6770    0.6029 C   0  0  0  0  0  0  0  0  0  0  0  0
   -0.1843    2.7715    0.2424 O   0  0  0  0  0  0  0  0  0  0  0  0
    0.6541    1.4427    1.8554 N   0  0  0  0  0  0  0  0  0  0  0  0
    0.9365    0.5039    2.0873 H   0  0  0  0  0  0  0  0  0  0  0  0
    0.6083    2.4337    2.9279 C   0  0  0  0  0  0  0  0  0  0  0  0
   -0.4313    2.6891    3.1437 H   0  0  0  0  0  0  0  0  0  0  0  0
    1.0776    2.0383    3.8293 H   0  0  0  0  0  0  0  0  0  0  0  0
    1.1302    3.3408    2.6154 H   0  0  0  0  0  0  0  0  0  0  0  0
  5  6  2  0  0  0  0
  5  7  1  0  0  0  0
  2  3  1  0  0  0  0
  2  4  1  0  0  0  0
  2  5  1  0  0  0  0
  1  2  1  0  0  0  0
 19 20  2  0  0  0  0
 19 21  1  0  0  0  0
 17 18  1  0  0  0  0
 17 19  1  0  0  0  0
 14 15  1  0  0  0  0
 14 16  1  0  0  0  0
 14 17  1  0  0  0  0
 11 12  1  0  0  0  0
 11 13  1  0  0  0  0
 11 14  1  0  0  0  0
  8  9  1  0  0  0  0
  8 10  1  0  0  0  0
  8 11  1  0  0  0  0
  7  8  1  0  0  0  0
  7 17  1  0  0  0  0
 23 24  1  0  0  0  0
 23 25  1  0  0  0  0
 23 26  1  0  0  0  0
 21 22  1  0  0  0  0
 21 23  1  0  0  0  0
M  END
$$$$
default_name
  -OEChem-11182114113D

 26 26  0     1  0  0  0  0  0999 V2000
   -1.8446   -3.5060   -0.3010 H   0  0  0  0  0  0  0  0  0  0  0  0
   -2.0746   -2.4490   -0.4240 C   0  0  0  0  0  0  0  0  0  0  0  0
   -2.6906   -2.1160    0.4090 H   0  0  0  0  0  0  0  0  0  0  0  0
   -2.5986   -2.2980   -1.3650 H   0  0  0  0  0  0  0  0  0  0  0  0
   -0.7756   -1.6630   -0.4350 C   0  0  0  0  0  0  0  0  0  0  0  0
    0.2844   -2.2800   -0.4550 O   0  0  0  0  0  0  0  0  0  0  0  0
   -0.8246   -0.3180   -0.4350 N   0  0  0  0  0  0  0  0  0  0  0  0
   -2.0106    0.5080   -0.5910 C   0  0  0  0  0  0  0  0  0  0  0  0
   -2.1735    1.4152   -0.0069 H   0  0  0  0  0  0  0  0  0  0  0  0
   -2.9337    0.2014   -1.0816 H   0  0  0  0  0  0  0  0  0  0  0  0
   -0.9212    0.7479   -1.6341 C   0  0  0  0  0  0  0  0  0  0  0  0
   -1.5459    1.5420   -2.0459 H   0  0  0  0  0  0  0  0  0  0  0  0
   -1.1799   -0.2161   -2.0734 H   0  0  0  0  0  0  0  0  0  0  0  0
    0.5675    1.0278   -1.8400 C   0  0  0  0  0  0  0  0  0  0  0  0
    0.9452    2.0522   -1.8362 H   0  0  0  0  0  0  0  0  0  0  0  0
    1.2377    0.3817   -2.4067 H   0  0  0  0  0  0  0  0  0  0  0  0
    0.3724    0.5200   -0.4020 C   0  0  1  0  0  0  0  0  0  0  0  0
    1.2226   -0.1060   -0.1299 H   0  0  0  0  0  0  0  0  0  0  0  0
    0.2441    1.6770    0.6029 C   0  0  0  0  0  0  0  0  0  0  0  0
   -0.4268    2.6699    0.3284 O   0  0  0  0  0  0  0  0  0  0  0  0
    0.9219    1.5626    1.7514 N   0  0  0  0  0  0  0  0  0  0  0  0
    1.4003    0.6937    1.9279 H   0  0  0  0  0  0  0  0  0  0  0  0
    0.9148    2.5725    2.8072 C   0  0  0  0  0  0  0  0  0  0  0  0
   -0.0918    2.6588    3.2219 H   0  0  0  0  0  0  0  0  0  0  0  0
    1.6098    2.2959    3.6007 H   0  0  0  0  0  0  0  0  0  0  0  0
    1.2034    3.5414    2.3938 H   0  0  0  0  0  0  0  0  0  0  0  0
  5  6  2  0  0  0  0
  5  7  1  0  0  0  0
  2  3  1  0  0  0  0
  2  4  1  0  0  0  0
  2  5  1  0  0  0  0
  1  2  1  0  0  0  0
 19 20  2  0  0  0  0
 19 21  1  0  0  0  0
 17 18  1  0  0  0  0
 17 19  1  0  0  0  0
 14 15  1  0  0  0  0
 14 16  1  0  0  0  0
 14 17  1  0  0  0  0
 11 12  1  0  0  0  0
 11 13  1  0  0  0  0
 11 14  1  0  0  0  0
  8  9  1  0  0  0  0
  8 10  1  0  0  0  0
  8 11  1  0  0  0  0
  7  8  1  0  0  0  0
  7 17  1  0  0  0  0
 23 24  1  0  0  0  0
 23 25  1  0  0  0  0
 23 26  1  0  0  0  0
 21 22  1  0  0  0  0
 21 23  1  0  0  0  0
M  END
$$$$
default_name
  -OEChem-11182114113D

 26 26  0     1  0  0  0  0  0999 V2000
   -1.8446   -3.5060   -0.3010 H   0  0  0  0  0  0  0  0  0  0  0  0
   -2.0746   -2.4490   -0.4240 C   0  0  0  0  0  0  0  0  0  0  0  0
   -2.6906   -2.1160    0.4090 H   0  0  0  0  0  0  0  0  0  0  0  0
   -2.5986   -2.2980   -1.3650 H   0  0  0  0  0  0  0  0  0  0  0  0
   -0.7756   -1.6630   -0.4350 C   0  0  0  0  0  0  0  0  0  0  0  0
    0.2844   -2.2800   -0.4550 O   0  0  0  0  0  0  0  0  0  0  0  0
   -0.8246   -0.3180   -0.4350 N   0  0  0  0  0  0  0  0  0  0  0  0
   -2.0106    0.5080   -0.5910 C   0  0  0  0  0  0  0  0  0  0  0  0
   -2.1735    1.4152   -0.0069 H   0  0  0  0  0  0  0  0  0  0  0  0
   -2.9337    0.2014   -1.0816 H   0  0  0  0  0  0  0  0  0  0  0  0
   -0.9212    0.7479   -1.6341 C   0  0  0  0  0  0  0  0  0  0  0  0
   -1.5459    1.5420   -2.0459 H   0  0  0  0  0  0  0  0  0  0  0  0
   -1.1799   -0.2161   -2.0734 H   0  0  0  0  0  0  0  0  0  0  0  0
    0.5675    1.0278   -1.8400 C   0  0  0  0  0  0  0  0  0  0  0  0
    0.9452    2.0522   -1.8362 H   0  0  0  0  0  0  0  0  0  0  0  0
    1.2377    0.3817   -2.4067 H   0  0  0  0  0  0  0  0  0  0  0  0
    0.3724    0.5200   -0.4020 C   0  0  1  0  0  0  0  0  0  0  0  0
    1.2226   -0.1060   -0.1299 H   0  0  0  0  0  0  0  0  0  0  0  0
    0.2441    1.6770    0.6029 C   0  0  0  0  0  0  0  0  0  0  0  0
   -0.6271    2.5327    0.4608 O   0  0  0  0  0  0  0  0  0  0  0  0
    1.1401    1.7215    1.5963 N   0  0  0  0  0  0  0  0  0  0  0  0
    1.7851    0.9521    1.6795 H   0  0  0  0  0  0  0  0  0  0  0  0
    1.1639    2.7558    2.6280 C   0  0  0  0  0  0  0  0  0  0  0  0
    0.2566    2.6886    3.2321 H   0  0  0  0  0  0  0  0  0  0  0  0
    2.0358    2.6298    3.2706 H   0  0  0  0  0  0  0  0  0  0  0  0
    1.1971    3.7427    2.1612 H   0  0  0  0  0  0  0  0  0  0  0  0
  5  6  2  0  0  0  0
  5  7  1  0  0  0  0
  2  3  1  0  0  0  0
  2  4  1  0  0  0  0
  2  5  1  0  0  0  0
  1  2  1  0  0  0  0
 19 20  2  0  0  0  0
 19 21  1  0  0  0  0
 17 18  1  0  0  0  0
 17 19  1  0  0  0  0
 14 15  1  0  0  0  0
 14 16  1  0  0  0  0
 14 17  1  0  0  0  0
 11 12  1  0  0  0  0
 11 13  1  0  0  0  0
 11 14  1  0  0  0  0
  8  9  1  0  0  0  0
  8 10  1  0  0  0  0
  8 11  1  0  0  0  0
  7  8  1  0  0  0  0
  7 17  1  0  0  0  0
 23 24  1  0  0  0  0
 23 25  1  0  0  0  0
 23 26  1  0  0  0  0
 21 22  1  0  0  0  0
 21 23  1  0  0  0  0
M  END
$$$$
default_name
  -OEChem-11182114113D

 26 26  0     1  0  0  0  0  0999 V2000
   -1.8446   -3.5060   -0.3010 H   0  0  0  0  0  0  0  0  0  0  0  0
   -2.0746   -2.4490   -0.4240 C   0  0  0  0  0  0  0  0  0  0  0  0
   -2.6906   -2.1160    0.4090 H   0  0  0  0  0  0  0  0  0  0  0  0
   -2.5986   -2.2980   -1.3650 H   0  0  0  0  0  0  0  0  0  0  0  0
   -0.7756   -1.6630   -0.4350 C   0  0  0  0  0  0  0  0  0  0  0  0
    0.2844   -2.2800   -0.4550 O   0  0  0  0  0  0  0  0  0  0  0  0
   -0.8246   -0.3180   -0.4350 N   0  0  0  0  0  0  0  0  0  0  0  0
   -2.0106    0.5080   -0.5910 C   0  0  0  0  0  0  0  0  0  0  0  0
   -2.1735    1.4152   -0.0069 H   0  0  0  0  0  0  0  0  0  0  0  0
   -2.9337    0.2014   -1.0816 H   0  0  0  0  0  0  0  0  0  0  0  0
   -0.9212    0.7479   -1.6341 C   0  0  0  0  0  0  0  0  0  0  0  0
   -1.5459    1.5420   -2.0459 H   0  0  0  0  0  0  0  0  0  0  0  0
   -1.1799   -0.2161   -2.0734 H   0  0  0  0  0  0  0  0  0  0  0  0
    0.5675    1.0278   -1.8400 C   0  0  0  0  0  0  0  0  0  0  0  0
    0.9452    2.0522   -1.8362 H   0  0  0  0  0  0  0  0  0  0  0  0
    1.2377    0.3817   -2.4067 H   0  0  0  0  0  0  0  0  0  0  0  0
    0.3724    0.5200   -0.4020 C   0  0  1  0  0  0  0  0  0  0  0  0
    1.2226   -0.1060   -0.1299 H   0  0  0  0  0  0  0  0  0  0  0  0
    0.2441    1.6770    0.6029 C   0  0  0  0  0  0  0  0  0  0  0  0
   -0.7716    2.3691    0.6307 O   0  0  0  0  0  0  0  0  0  0  0  0
    1.2937    1.9086    1.4006 N   0  0  0  0  0  0  0  0  0  0  0  0
    2.0647    1.2615    1.3590 H   0  0  0  0  0  0  0  0  0  0  0  0
    1.3386    2.9711    2.4024 C   0  0  0  0  0  0  0  0  0  0  0  0
    0.5900    2.7766    3.1734 H   0  0  0  0  0  0  0  0  0  0  0  0
    2.3265    3.0171    2.8617 H   0  0  0  0  0  0  0  0  0  0  0  0
    1.1116    3.9310    1.9335 H   0  0  0  0  0  0  0  0  0  0  0  0
  5  6  2  0  0  0  0
  5  7  1  0  0  0  0
  2  3  1  0  0  0  0
  2  4  1  0  0  0  0
  2  5  1  0  0  0  0
  1  2  1  0  0  0  0
 19 20  2  0  0  0  0
 19 21  1  0  0  0  0
 17 18  1  0  0  0  0
 17 19  1  0  0  0  0
 14 15  1  0  0  0  0
 14 16  1  0  0  0  0
 14 17  1  0  0  0  0
 11 12  1  0  0  0  0
 11 13  1  0  0  0  0
 11 14  1  0  0  0  0
  8  9  1  0  0  0  0
  8 10  1  0  0  0  0
  8 11  1  0  0  0  0
  7  8  1  0  0  0  0
  7 17  1  0  0  0  0
 23 24  1  0  0  0  0
 23 25  1  0  0  0  0
 23 26  1  0  0  0  0
 21 22  1  0  0  0  0
 21 23  1  0  0  0  0
M  END
$$$$
default_name
  -OEChem-11182114113D

 26 26  0     1  0  0  0  0  0999 V2000
   -1.8446   -3.5060   -0.3010 H   0  0  0  0  0  0  0  0  0  0  0  0
   -2.0746   -2.4490   -0.4240 C   0  0  0  0  0  0  0  0  0  0  0  0
   -2.6906   -2.1160    0.4090 H   0  0  0  0  0  0  0  0  0  0  0  0
   -2.5986   -2.2980   -1.3650 H   0  0  0  0  0  0  0  0  0  0  0  0
   -0.7756   -1.6630   -0.4350 C   0  0  0  0  0  0  0  0  0  0  0  0
    0.2844   -2.2800   -0.4550 O   0  0  0  0  0  0  0  0  0  0  0  0
   -0.8246   -0.3180   -0.4350 N   0  0  0  0  0  0  0  0  0  0  0  0
   -2.0106    0.5080   -0.5910 C   0  0  0  0  0  0  0  0  0  0  0  0
   -2.1735    1.4152   -0.0069 H   0  0  0  0  0  0  0  0  0  0  0  0
   -2.9337    0.2014   -1.0816 H   0  0  0  0  0  0  0  0  0  0  0  0
   -0.9212    0.7479   -1.6341 C   0  0  0  0  0  0  0  0  0  0  0  0
   -1.5459    1.5420   -2.0459 H   0  0  0  0  0  0  0  0  0  0  0  0
   -1.1799   -0.2161   -2.0734 H   0  0  0  0  0  0  0  0  0  0  0  0
    0.5675    1.0278   -1.8400 C   0  0  0  0  0  0  0  0  0  0  0  0
    0.9452    2.0522   -1.8362 H   0  0  0  0  0  0  0  0  0  0  0  0
    1.2377    0.3817   -2.4067 H   0  0  0  0  0  0  0  0  0  0  0  0
    0.3724    0.5200   -0.4020 C   0  0  1  0  0  0  0  0  0  0  0  0
    1.2226   -0.1060   -0.1299 H   0  0  0  0  0  0  0  0  0  0  0  0
    0.2441    1.6770    0.6029 C   0  0  0  0  0  0  0  0  0  0  0  0
   -0.8504    2.1904    0.8265 O   0  0  0  0  0  0  0  0  0  0  0  0
    1.3724    2.1110    1.1775 N   0  0  0  0  0  0  0  0  0  0  0  0
    2.2201    1.6006    0.9884 H   0  0  0  0  0  0  0  0  0  0  0  0
    1.4270    3.2037    2.1458 C   0  0  0  0  0  0  0  0  0  0  0  0
    0.8857    2.9167    3.0499 H   0  0  0  0  0  0  0  0  0  0  0  0
    2.4622    3.4317    2.4018 H   0  0  0  0  0  0  0  0  0  0  0  0
    0.9529    4.0936    1.7260 H   0  0  0  0  0  0  0  0  0  0  0  0
  5  6  2  0  0  0  0
  5  7  1  0  0  0  0
  2  3  1  0  0  0  0
  2  4  1  0  0  0  0
  2  5  1  0  0  0  0
  1  2  1  0  0  0  0
 19 20  2  0  0  0  0
 19 21  1  0  0  0  0
 17 18  1  0  0  0  0
 17 19  1  0  0  0  0
 14 15  1  0  0  0  0
 14 16  1  0  0  0  0
 14 17  1  0  0  0  0
 11 12  1  0  0  0  0
 11 13  1  0  0  0  0
 11 14  1  0  0  0  0
  8  9  1  0  0  0  0
  8 10  1  0  0  0  0
  8 11  1  0  0  0  0
  7  8  1  0  0  0  0
  7 17  1  0  0  0  0
 23 24  1  0  0  0  0
 23 25  1  0  0  0  0
 23 26  1  0  0  0  0
 21 22  1  0  0  0  0
 21 23  1  0  0  0  0
M  END
$$$$
default_name
  -OEChem-11182114113D

 26 26  0     1  0  0  0  0  0999 V2000
   -1.8446   -3.5060   -0.3010 H   0  0  0  0  0  0  0  0  0  0  0  0
   -2.0746   -2.4490   -0.4240 C   0  0  0  0  0  0  0  0  0  0  0  0
   -2.6906   -2.1160    0.4090 H   0  0  0  0  0  0  0  0  0  0  0  0
   -2.5986   -2.2980   -1.3650 H   0  0  0  0  0  0  0  0  0  0  0  0
   -0.7756   -1.6630   -0.4350 C   0  0  0  0  0  0  0  0  0  0  0  0
    0.2844   -2.2800   -0.4550 O   0  0  0  0  0  0  0  0  0  0  0  0
   -0.8246   -0.3180   -0.4350 N   0  0  0  0  0  0  0  0  0  0  0  0
   -2.0106    0.5080   -0.5910 C   0  0  0  0  0  0  0  0  0  0  0  0
   -2.1735    1.4152   -0.0069 H   0  0  0  0  0  0  0  0  0  0  0  0
   -2.9337    0.2014   -1.0816 H   0  0  0  0  0  0  0  0  0  0  0  0
   -0.9212    0.7479   -1.6341 C   0  0  0  0  0  0  0  0  0  0  0  0
   -1.5459    1.5420   -2.0459 H   0  0  0  0  0  0  0  0  0  0  0  0
   -1.1799   -0.2161   -2.0734 H   0  0  0  0  0  0  0  0  0  0  0  0
    0.5675    1.0278   -1.8400 C   0  0  0  0  0  0  0  0  0  0  0  0
    0.9452    2.0522   -1.8362 H   0  0  0  0  0  0  0  0  0  0  0  0
    1.2377    0.3817   -2.4067 H   0  0  0  0  0  0  0  0  0  0  0  0
    0.3724    0.5200   -0.4020 C   0  0  1  0  0  0  0  0  0  0  0  0
    1.2226   -0.1060   -0.1299 H   0  0  0  0  0  0  0  0  0  0  0  0
    0.2441    1.6770    0.6029 C   0  0  0  0  0  0  0  0  0  0  0  0
   -0.8581    2.0086    1.0348 O   0  0  0  0  0  0  0  0  0  0  0  0
    1.3708    2.3150    0.9424 N   0  0  0  0  0  0  0  0  0  0  0  0
    2.2407    1.9465    0.5928 H   0  0  0  0  0  0  0  0  0  0  0  0
    1.4231    3.4378    1.8758 C   0  0  0  0  0  0  0  0  0  0  0  0
    1.1237    3.0993    2.8700 H   0  0  0  0  0  0  0  0  0  0  0  0
    2.4336    3.8451    1.9221 H   0  0  0  0  0  0  0  0  0  0  0  0
    0.7317    4.2193    1.5531 H   0  0  0  0  0  0  0  0  0  0  0  0
  5  6  2  0  0  0  0
  5  7  1  0  0  0  0
  2  3  1  0  0  0  0
  2  4  1  0  0  0  0
  2  5  1  0  0  0  0
  1  2  1  0  0  0  0
 19 20  2  0  0  0  0
 19 21  1  0  0  0  0
 17 18  1  0  0  0  0
 17 19  1  0  0  0  0
 14 15  1  0  0  0  0
 14 16  1  0  0  0  0
 14 17  1  0  0  0  0
 11 12  1  0  0  0  0
 11 13  1  0  0  0  0
 11 14  1  0  0  0  0
  8  9  1  0  0  0  0
  8 10  1  0  0  0  0
  8 11  1  0  0  0  0
  7  8  1  0  0  0  0
  7 17  1  0  0  0  0
 23 24  1  0  0  0  0
 23 25  1  0  0  0  0
 23 26  1  0  0  0  0
 21 22  1  0  0  0  0
 21 23  1  0  0  0  0
M  END
$$$$
default_name
  -OEChem-11182114113D

 26 26  0     1  0  0  0  0  0999 V2000
   -1.8446   -3.5060   -0.3010 H   0  0  0  0  0  0  0  0  0  0  0  0
   -2.0746   -2.4490   -0.4240 C   0  0  0  0  0  0  0  0  0  0  0  0
   -2.6906   -2.1160    0.4090 H   0  0  0  0  0  0  0  0  0  0  0  0
   -2.5986   -2.2980   -1.3650 H   0  0  0  0  0  0  0  0  0  0  0  0
   -0.7756   -1.6630   -0.4350 C   0  0  0  0  0  0  0  0  0  0  0  0
    0.2844   -2.2800   -0.4550 O   0  0  0  0  0  0  0  0  0  0  0  0
   -0.8246   -0.3180   -0.4350 N   0  0  0  0  0  0  0  0  0  0  0  0
   -2.0106    0.5080   -0.5910 C   0  0  0  0  0  0  0  0  0  0  0  0
   -2.1735    1.4152   -0.0069 H   0  0  0  0  0  0  0  0  0  0  0  0
   -2.9337    0.2014   -1.0816 H   0  0  0  0  0  0  0  0  0  0  0  0
   -0.9212    0.7479   -1.6341 C   0  0  0  0  0  0  0  0  0  0  0  0
   -1.5459    1.5420   -2.0459 H   0  0  0  0  0  0  0  0  0  0  0  0
   -1.1799   -0.2161   -2.0734 H   0  0  0  0  0  0  0  0  0  0  0  0
    0.5675    1.0278   -1.8400 C   0  0  0  0  0  0  0  0  0  0  0  0
    0.9452    2.0522   -1.8362 H   0  0  0  0  0  0  0  0  0  0  0  0
    1.2377    0.3817   -2.4067 H   0  0  0  0  0  0  0  0  0  0  0  0
    0.3724    0.5200   -0.4020 C   0  0  1  0  0  0  0  0  0  0  0  0
    1.2226   -0.1060   -0.1299 H   0  0  0  0  0  0  0  0  0  0  0  0
    0.2441    1.6770    0.6029 C   0  0  0  0  0  0  0  0  0  0  0  0
   -0.7943    1.8362    1.2414 O   0  0  0  0  0  0  0  0  0  0  0  0
    1.2888    2.5067    0.7112 N   0  0  0  0  0  0  0  0  0  0  0  0
    2.1250    2.2755    0.1992 H   0  0  0  0  0  0  0  0  0  0  0  0
    1.3272    3.6575    1.6106 C   0  0  0  0  0  0  0  0  0  0  0  0
    1.2876    3.3121    2.6459 H   0  0  0  0  0  0  0  0  0  0  0  0
    2.2427    4.2292    1.4554 H   0  0  0  0  0  0  0  0  0  0  0  0
    0.4631    4.2995    1.4263 H   0  0  0  0  0  0  0  0  0  0  0  0
  5  6  2  0  0  0  0
  5  7  1  0  0  0  0
  2  3  1  0  0  0  0
  2  4  1  0  0  0  0
  2  5  1  0  0  0  0
  1  2  1  0  0  0  0
 19 20  2  0  0  0  0
 19 21  1  0  0  0  0
 17 18  1  0  0  0  0
 17 19  1  0  0  0  0
 14 15  1  0  0  0  0
 14 16  1  0  0  0  0
 14 17  1  0  0  0  0
 11 12  1  0  0  0  0
 11 13  1  0  0  0  0
 11 14  1  0  0  0  0
  8  9  1  0  0  0  0
  8 10  1  0  0  0  0
  8 11  1  0  0  0  0
  7  8  1  0  0  0  0
  7 17  1  0  0  0  0
 23 24  1  0  0  0  0
 23 25  1  0  0  0  0
 23 26  1  0  0  0  0
 21 22  1  0  0  0  0
 21 23  1  0  0  0  0
M  END
$$$$
default_name
  -OEChem-11182114113D

 26 26  0     1  0  0  0  0  0999 V2000
   -1.8446   -3.5060   -0.3010 H   0  0  0  0  0  0  0  0  0  0  0  0
   -2.0746   -2.4490   -0.4240 C   0  0  0  0  0  0  0  0  0  0  0  0
   -2.6906   -2.1160    0.4090 H   0  0  0  0  0  0  0  0  0  0  0  0
   -2.5986   -2.2980   -1.3650 H   0  0  0  0  0  0  0  0  0  0  0  0
   -0.7756   -1.6630   -0.4350 C   0  0  0  0  0  0  0  0  0  0  0  0
    0.2844   -2.2800   -0.4550 O   0  0  0  0  0  0  0  0  0  0  0  0
   -0.8246   -0.3180   -0.4350 N   0  0  0  0  0  0  0  0  0  0  0  0
   -2.0106    0.5080   -0.5910 C   0  0  0  0  0  0  0  0  0  0  0  0
   -2.1735    1.4152   -0.0069 H   0  0  0  0  0  0  0  0  0  0  0  0
   -2.9337    0.2014   -1.0816 H   0  0  0  0  0  0  0  0  0  0  0  0
   -0.9212    0.7479   -1.6341 C   0  0  0  0  0  0  0  0  0  0  0  0
   -1.5459    1.5420   -2.0459 H   0  0  0  0  0  0  0  0  0  0  0  0
   -1.1799   -0.2161   -2.0734 H   0  0  0  0  0  0  0  0  0  0  0  0
    0.5675    1.0278   -1.8400 C   0  0  0  0  0  0  0  0  0  0  0  0
    0.9452    2.0522   -1.8362 H   0  0  0  0  0  0  0  0  0  0  0  0
    1.2377    0.3817   -2.4067 H   0  0  0  0  0  0  0  0  0  0  0  0
    0.3724    0.5200   -0.4020 C   0  0  1  0  0  0  0  0  0  0  0  0
    1.2226   -0.1060   -0.1299 H   0  0  0  0  0  0  0  0  0  0  0  0
    0.2441    1.6770    0.6029 C   0  0  0  0  0  0  0  0  0  0  0  0
   -0.6633    1.6849    1.4323 O   0  0  0  0  0  0  0  0  0  0  0  0
    1.1323    2.6731    0.4997 N   0  0  0  0  0  0  0  0  0  0  0  0
    1.8810    2.5652   -0.1656 H   0  0  0  0  0  0  0  0  0  0  0  0
    1.1457    3.8477    1.3684 C   0  0  0  0  0  0  0  0  0  0  0  0
    1.3663    3.5405    2.3929 H   0  0  0  0  0  0  0  0  0  0  0  0
    1.9024    4.5579    1.0335 H   0  0  0  0  0  0  0  0  0  0  0  0
    0.1653    4.3289    1.3545 H   0  0  0  0  0  0  0  0  0  0  0  0
  5  6  2  0  0  0  0
  5  7  1  0  0  0  0
  2  3  1  0  0  0  0
  2  4  1  0  0  0  0
  2  5  1  0  0  0  0
  1  2  1  0  0  0  0
 19 20  2  0  0  0  0
 19 21  1  0  0  0  0
 17 18  1  0  0  0  0
 17 19  1  0  0  0  0
 14 15  1  0  0  0  0
 14 16  1  0  0  0  0
 14 17  1  0  0  0  0
 11 12  1  0  0  0  0
 11 13  1  0  0  0  0
 11 14  1  0  0  0  0
  8  9  1  0  0  0  0
  8 10  1  0  0  0  0
  8 11  1  0  0  0  0
  7  8  1  0  0  0  0
  7 17  1  0  0  0  0
 23 24  1  0  0  0  0
 23 25  1  0  0  0  0
 23 26  1  0  0  0  0
 21 22  1  0  0  0  0
 21 23  1  0  0  0  0
M  END
$$$$
default_name
  -OEChem-11182114113D

 26 26  0     1  0  0  0  0  0999 V2000
   -1.8446   -3.5060   -0.3010 H   0  0  0  0  0  0  0  0  0  0  0  0
   -2.0746   -2.4490   -0.4240 C   0  0  0  0  0  0  0  0  0  0  0  0
   -2.6906   -2.1160    0.4090 H   0  0  0  0  0  0  0  0  0  0  0  0
   -2.5986   -2.2980   -1.3650 H   0  0  0  0  0  0  0  0  0  0  0  0
   -0.7756   -1.6630   -0.4350 C   0  0  0  0  0  0  0  0  0  0  0  0
    0.2844   -2.2800   -0.4550 O   0  0  0  0  0  0  0  0  0  0  0  0
   -0.8246   -0.3180   -0.4350 N   0  0  0  0  0  0  0  0  0  0  0  0
   -2.0106    0.5080   -0.5910 C   0  0  0  0  0  0  0  0  0  0  0  0
   -2.1735    1.4152   -0.0069 H   0  0  0  0  0  0  0  0  0  0  0  0
   -2.9337    0.2014   -1.0816 H   0  0  0  0  0  0  0  0  0  0  0  0
   -0.9212    0.7479   -1.6341 C   0  0  0  0  0  0  0  0  0  0  0  0
   -1.5459    1.5420   -2.0459 H   0  0  0  0  0  0  0  0  0  0  0  0
   -1.1799   -0.2161   -2.0734 H   0  0  0  0  0  0  0  0  0  0  0  0
    0.5675    1.0278   -1.8400 C   0  0  0  0  0  0  0  0  0  0  0  0
    0.9452    2.0522   -1.8362 H   0  0  0  0  0  0  0  0  0  0  0  0
    1.2377    0.3817   -2.4067 H   0  0  0  0  0  0  0  0  0  0  0  0
    0.3724    0.5200   -0.4020 C   0  0  1  0  0  0  0  0  0  0  0  0
    1.2226   -0.1060   -0.1299 H   0  0  0  0  0  0  0  0  0  0  0  0
    0.2441    1.6770    0.6029 C   0  0  0  0  0  0  0  0  0  0  0  0
   -0.4739    1.5651    1.5945 O   0  0  0  0  0  0  0  0  0  0  0  0
    0.9118    2.8027    0.3223 N   0  0  0  0  0  0  0  0  0  0  0  0
    1.5253    2.7960   -0.4767 H   0  0  0  0  0  0  0  0  0  0  0  0
    0.8911    3.9955    1.1657 C   0  0  0  0  0  0  0  0  0  0  0  0
    1.3544    3.7690    2.1284 H   0  0  0  0  0  0  0  0  0  0  0  0
    1.4359    4.8087    0.6852 H   0  0  0  0  0  0  0  0  0  0  0  0
   -0.1412    4.3053    1.3425 H   0  0  0  0  0  0  0  0  0  0  0  0
  5  6  2  0  0  0  0
  5  7  1  0  0  0  0
  2  3  1  0  0  0  0
  2  4  1  0  0  0  0
  2  5  1  0  0  0  0
  1  2  1  0  0  0  0
 19 20  2  0  0  0  0
 19 21  1  0  0  0  0
 17 18  1  0  0  0  0
 17 19  1  0  0  0  0
 14 15  1  0  0  0  0
 14 16  1  0  0  0  0
 14 17  1  0  0  0  0
 11 12  1  0  0  0  0
 11 13  1  0  0  0  0
 11 14  1  0  0  0  0
  8  9  1  0  0  0  0
  8 10  1  0  0  0  0
  8 11  1  0  0  0  0
  7  8  1  0  0  0  0
  7 17  1  0  0  0  0
 23 24  1  0  0  0  0
 23 25  1  0  0  0  0
 23 26  1  0  0  0  0
 21 22  1  0  0  0  0
 21 23  1  0  0  0  0
M  END
$$$$
default_name
  -OEChem-11182114113D

 26 26  0     1  0  0  0  0  0999 V2000
   -1.8446   -3.5060   -0.3010 H   0  0  0  0  0  0  0  0  0  0  0  0
   -2.0746   -2.4490   -0.4240 C   0  0  0  0  0  0  0  0  0  0  0  0
   -2.6906   -2.1160    0.4090 H   0  0  0  0  0  0  0  0  0  0  0  0
   -2.5986   -2.2980   -1.3650 H   0  0  0  0  0  0  0  0  0  0  0  0
   -0.7756   -1.6630   -0.4350 C   0  0  0  0  0  0  0  0  0  0  0  0
    0.2844   -2.2800   -0.4550 O   0  0  0  0  0  0  0  0  0  0  0  0
   -0.8246   -0.3180   -0.4350 N   0  0  0  0  0  0  0  0  0  0  0  0
   -2.0106    0.5080   -0.5910 C   0  0  0  0  0  0  0  0  0  0  0  0
   -2.1735    1.4152   -0.0069 H   0  0  0  0  0  0  0  0  0  0  0  0
   -2.9337    0.2014   -1.0816 H   0  0  0  0  0  0  0  0  0  0  0  0
   -0.9212    0.7479   -1.6341 C   0  0  0  0  0  0  0  0  0  0  0  0
   -1.5459    1.5420   -2.0459 H   0  0  0  0  0  0  0  0  0  0  0  0
   -1.1799   -0.2161   -2.0734 H   0  0  0  0  0  0  0  0  0  0  0  0
    0.5675    1.0278   -1.8400 C   0  0  0  0  0  0  0  0  0  0  0  0
    0.9452    2.0522   -1.8362 H   0  0  0  0  0  0  0  0  0  0  0  0
    1.2377    0.3817   -2.4067 H   0  0  0  0  0  0  0  0  0  0  0  0
    0.3724    0.5200   -0.4020 C   0  0  1  0  0  0  0  0  0  0  0  0
    1.2226   -0.1060   -0.1299 H   0  0  0  0  0  0  0  0  0  0  0  0
    0.2441    1.6770    0.6029 C   0  0  0  0  0  0  0  0  0  0  0  0
   -0.2392    1.4849    1.7168 O   0  0  0  0  0  0  0  0  0  0  0  0
    0.6423    2.8868    0.1911 N   0  0  0  0  0  0  0  0  0  0  0  0
    1.0821    2.9520   -0.7129 H   0  0  0  0  0  0  0  0  0  0  0  0
    0.5807    4.0908    1.0163 C   0  0  0  0  0  0  0  0  0  0  0  0
    1.2528    3.9819    1.8702 H   0  0  0  0  0  0  0  0  0  0  0  0
    0.8751    4.9646    0.4341 H   0  0  0  0  0  0  0  0  0  0  0  0
   -0.4356    4.2305    1.3911 H   0  0  0  0  0  0  0  0  0  0  0  0
  5  6  2  0  0  0  0
  5  7  1  0  0  0  0
  2  3  1  0  0  0  0
  2  4  1  0  0  0  0
  2  5  1  0  0  0  0
  1  2  1  0  0  0  0
 19 20  2  0  0  0  0
 19 21  1  0  0  0  0
 17 18  1  0  0  0  0
 17 19  1  0  0  0  0
 14 15  1  0  0  0  0
 14 16  1  0  0  0  0
 14 17  1  0  0  0  0
 11 12  1  0  0  0  0
 11 13  1  0  0  0  0
 11 14  1  0  0  0  0
  8  9  1  0  0  0  0
  8 10  1  0  0  0  0
  8 11  1  0  0  0  0
  7  8  1  0  0  0  0
  7 17  1  0  0  0  0
 23 24  1  0  0  0  0
 23 25  1  0  0  0  0
 23 26  1  0  0  0  0
 21 22  1  0  0  0  0
 21 23  1  0  0  0  0
M  END
$$$$
default_name
  -OEChem-11182114113D

 26 26  0     1  0  0  0  0  0999 V2000
   -1.8446   -3.5060   -0.3010 H   0  0  0  0  0  0  0  0  0  0  0  0
   -2.0746   -2.4490   -0.4240 C   0  0  0  0  0  0  0  0  0  0  0  0
   -2.6906   -2.1160    0.4090 H   0  0  0  0  0  0  0  0  0  0  0  0
   -2.5986   -2.2980   -1.3650 H   0  0  0  0  0  0  0  0  0  0  0  0
   -0.7756   -1.6630   -0.4350 C   0  0  0  0  0  0  0  0  0  0  0  0
    0.2844   -2.2800   -0.4550 O   0  0  0  0  0  0  0  0  0  0  0  0
   -0.8246   -0.3180   -0.4350 N   0  0  0  0  0  0  0  0  0  0  0  0
   -2.0106    0.5080   -0.5910 C   0  0  0  0  0  0  0  0  0  0  0  0
   -2.1735    1.4152   -0.0069 H   0  0  0  0  0  0  0  0  0  0  0  0
   -2.9337    0.2014   -1.0816 H   0  0  0  0  0  0  0  0  0  0  0  0
   -0.9212    0.7479   -1.6341 C   0  0  0  0  0  0  0  0  0  0  0  0
   -1.5459    1.5420   -2.0459 H   0  0  0  0  0  0  0  0  0  0  0  0
   -1.1799   -0.2161   -2.0734 H   0  0  0  0  0  0  0  0  0  0  0  0
    0.5675    1.0278   -1.8400 C   0  0  0  0  0  0  0  0  0  0  0  0
    0.9452    2.0522   -1.8362 H   0  0  0  0  0  0  0  0  0  0  0  0
    1.2377    0.3817   -2.4067 H   0  0  0  0  0  0  0  0  0  0  0  0
    0.3724    0.5200   -0.4020 C   0  0  1  0  0  0  0  0  0  0  0  0
    1.2226   -0.1060   -0.1299 H   0  0  0  0  0  0  0  0  0  0  0  0
    0.2441    1.6770    0.6029 C   0  0  0  0  0  0  0  0  0  0  0  0
    0.0249    1.4497    1.7910 O   0  0  0  0  0  0  0  0  0  0  0  0
    0.3422    2.9196    0.1150 N   0  0  0  0  0  0  0  0  0  0  0  0
    0.5816    3.0226   -0.8581 H   0  0  0  0  0  0  0  0  0  0  0  0
    0.2357    4.1272    0.9304 C   0  0  0  0  0  0  0  0  0  0  0  0
    1.0684    4.1649    1.6360 H   0  0  0  0  0  0  0  0  0  0  0  0
    0.2582    5.0149    0.2974 H   0  0  0  0  0  0  0  0  0  0  0  0
   -0.6979    4.1095    1.4969 H   0  0  0  0  0  0  0  0  0  0  0  0
  5  6  2  0  0  0  0
  5  7  1  0  0  0  0
  2  3  1  0  0  0  0
  2  4  1  0  0  0  0
  2  5  1  0  0  0  0
  1  2  1  0  0  0  0
 19 20  2  0  0  0  0
 19 21  1  0  0  0  0
 17 18  1  0  0  0  0
 17 19  1  0  0  0  0
 14 15  1  0  0  0  0
 14 16  1  0  0  0  0
 14 17  1  0  0  0  0
 11 12  1  0  0  0  0
 11 13  1  0  0  0  0
 11 14  1  0  0  0  0
  8  9  1  0  0  0  0
  8 10  1  0  0  0  0
  8 11  1  0  0  0  0
  7  8  1  0  0  0  0
  7 17  1  0  0  0  0
 23 24  1  0  0  0  0
 23 25  1  0  0  0  0
 23 26  1  0  0  0  0
 21 22  1  0  0  0  0
 21 23  1  0  0  0  0
M  END
$$$$
default_name
  -OEChem-11182114113D

 26 26  0     1  0  0  0  0  0999 V2000
   -1.8446   -3.5060   -0.3010 H   0  0  0  0  0  0  0  0  0  0  0  0
   -2.0746   -2.4490   -0.4240 C   0  0  0  0  0  0  0  0  0  0  0  0
   -2.6906   -2.1160    0.4090 H   0  0  0  0  0  0  0  0  0  0  0  0
   -2.5986   -2.2980   -1.3650 H   0  0  0  0  0  0  0  0  0  0  0  0
   -0.7756   -1.6630   -0.4350 C   0  0  0  0  0  0  0  0  0  0  0  0
    0.2844   -2.2800   -0.4550 O   0  0  0  0  0  0  0  0  0  0  0  0
   -0.8246   -0.3180   -0.4350 N   0  0  0  0  0  0  0  0  0  0  0  0
   -2.0106    0.5080   -0.5910 C   0  0  0  0  0  0  0  0  0  0  0  0
   -2.1735    1.4152   -0.0069 H   0  0  0  0  0  0  0  0  0  0  0  0
   -2.9337    0.2014   -1.0816 H   0  0  0  0  0  0  0  0  0  0  0  0
   -0.9212    0.7479   -1.6341 C   0  0  0  0  0  0  0  0  0  0  0  0
   -1.5459    1.5420   -2.0459 H   0  0  0  0  0  0  0  0  0  0  0  0
   -1.1799   -0.2161   -2.0734 H   0  0  0  0  0  0  0  0  0  0  0  0
    0.5675    1.0278   -1.8400 C   0  0  0  0  0  0  0  0  0  0  0  0
    0.9452    2.0522   -1.8362 H   0  0  0  0  0  0  0  0  0  0  0  0
    1.2377    0.3817   -2.4067 H   0  0  0  0  0  0  0  0  0  0  0  0
    0.3724    0.5200   -0.4020 C   0  0  1  0  0  0  0  0  0  0  0  0
    1.2226   -0.1060   -0.1299 H   0  0  0  0  0  0  0  0  0  0  0  0
    0.2441    1.6770    0.6029 C   0  0  0  0  0  0  0  0  0  0  0  0
    0.3004    1.4620    1.8120 O   0  0  0  0  0  0  0  0  0  0  0  0
    0.0319    2.8989    0.0992 N   0  0  0  0  0  0  0  0  0  0  0  0
    0.0579    3.0030   -0.9025 H   0  0  0  0  0  0  0  0  0  0  0  0
   -0.1205    4.1021    0.9138 C   0  0  0  0  0  0  0  0  0  0  0  0
    0.8137    4.3053    1.4417 H   0  0  0  0  0  0  0  0  0  0  0  0
   -0.3728    4.9561    0.2844 H   0  0  0  0  0  0  0  0  0  0  0  0
   -0.9102    3.9505    1.6529 H   0  0  0  0  0  0  0  0  0  0  0  0
  5  6  2  0  0  0  0
  5  7  1  0  0  0  0
  2  3  1  0  0  0  0
  2  4  1  0  0  0  0
  2  5  1  0  0  0  0
  1  2  1  0  0  0  0
 19 20  2  0  0  0  0
 19 21  1  0  0  0  0
 17 18  1  0  0  0  0
 17 19  1  0  0  0  0
 14 15  1  0  0  0  0
 14 16  1  0  0  0  0
 14 17  1  0  0  0  0
 11 12  1  0  0  0  0
 11 13  1  0  0  0  0
 11 14  1  0  0  0  0
  8  9  1  0  0  0  0
  8 10  1  0  0  0  0
  8 11  1  0  0  0  0
  7  8  1  0  0  0  0
  7 17  1  0  0  0  0
 23 24  1  0  0  0  0
 23 25  1  0  0  0  0
 23 26  1  0  0  0  0
 21 22  1  0  0  0  0
 21 23  1  0  0  0  0
M  END
$$$$
default_name
  -OEChem-11182114113D

 26 26  0     1  0  0  0  0  0999 V2000
   -1.8446   -3.5060   -0.3010 H   0  0  0  0  0  0  0  0  0  0  0  0
   -2.0746   -2.4490   -0.4240 C   0  0  0  0  0  0  0  0  0  0  0  0
   -2.6906   -2.1160    0.4090 H   0  0  0  0  0  0  0  0  0  0  0  0
   -2.5986   -2.2980   -1.3650 H   0  0  0  0  0  0  0  0  0  0  0  0
   -0.7756   -1.6630   -0.4350 C   0  0  0  0  0  0  0  0  0  0  0  0
    0.2844   -2.2800   -0.4550 O   0  0  0  0  0  0  0  0  0  0  0  0
   -0.8246   -0.3180   -0.4350 N   0  0  0  0  0  0  0  0  0  0  0  0
   -2.0106    0.5080   -0.5910 C   0  0  0  0  0  0  0  0  0  0  0  0
   -2.1735    1.4152   -0.0069 H   0  0  0  0  0  0  0  0  0  0  0  0
   -2.9337    0.2014   -1.0816 H   0  0  0  0  0  0  0  0  0  0  0  0
   -0.9212    0.7479   -1.6341 C   0  0  0  0  0  0  0  0  0  0  0  0
   -1.5459    1.5420   -2.0459 H   0  0  0  0  0  0  0  0  0  0  0  0
   -1.1799   -0.2161   -2.0734 H   0  0  0  0  0  0  0  0  0  0  0  0
    0.5675    1.0278   -1.8400 C   0  0  0  0  0  0  0  0  0  0  0  0
    0.9452    2.0522   -1.8362 H   0  0  0  0  0  0  0  0  0  0  0  0
    1.2377    0.3817   -2.4067 H   0  0  0  0  0  0  0  0  0  0  0  0
    0.3724    0.5200   -0.4020 C   0  0  1  0  0  0  0  0  0  0  0  0
    1.2226   -0.1060   -0.1299 H   0  0  0  0  0  0  0  0  0  0  0  0
    0.2441    1.6770    0.6029 C   0  0  0  0  0  0  0  0  0  0  0  0
    0.5685    1.5210    1.7784 O   0  0  0  0  0  0  0  0  0  0  0  0
   -0.2673    2.8261    0.1448 N   0  0  0  0  0  0  0  0  0  0  0  0
   -0.4532    2.8946   -0.8429 H   0  0  0  0  0  0  0  0  0  0  0  0
   -0.4635    4.0173    0.9676 C   0  0  0  0  0  0  0  0  0  0  0  0
    0.5061    4.3937    1.3006 H   0  0  0  0  0  0  0  0  0  0  0  0
   -0.9750    4.7924    0.3961 H   0  0  0  0  0  0  0  0  0  0  0  0
   -1.0580    3.7644    1.8483 H   0  0  0  0  0  0  0  0  0  0  0  0
  5  6  2  0  0  0  0
  5  7  1  0  0  0  0
  2  3  1  0  0  0  0
  2  4  1  0  0  0  0
  2  5  1  0  0  0  0
  1  2  1  0  0  0  0
 19 20  2  0  0  0  0
 19 21  1  0  0  0  0
 17 18  1  0  0  0  0
 17 19  1  0  0  0  0
 14 15  1  0  0  0  0
 14 16  1  0  0  0  0
 14 17  1  0  0  0  0
 11 12  1  0  0  0  0
 11 13  1  0  0  0  0
 11 14  1  0  0  0  0
  8  9  1  0  0  0  0
  8 10  1  0  0  0  0
  8 11  1  0  0  0  0
  7  8  1  0  0  0  0
  7 17  1  0  0  0  0
 23 24  1  0  0  0  0
 23 25  1  0  0  0  0
 23 26  1  0  0  0  0
 21 22  1  0  0  0  0
 21 23  1  0  0  0  0
M  END
$$$$
default_name
  -OEChem-11182114113D

 26 26  0     1  0  0  0  0  0999 V2000
   -1.8446   -3.5060   -0.3010 H   0  0  0  0  0  0  0  0  0  0  0  0
   -2.0746   -2.4490   -0.4240 C   0  0  0  0  0  0  0  0  0  0  0  0
   -2.6906   -2.1160    0.4090 H   0  0  0  0  0  0  0  0  0  0  0  0
   -2.5986   -2.2980   -1.3650 H   0  0  0  0  0  0  0  0  0  0  0  0
   -0.7756   -1.6630   -0.4350 C   0  0  0  0  0  0  0  0  0  0  0  0
    0.2844   -2.2800   -0.4550 O   0  0  0  0  0  0  0  0  0  0  0  0
   -0.8246   -0.3180   -0.4350 N   0  0  0  0  0  0  0  0  0  0  0  0
   -2.0106    0.5080   -0.5910 C   0  0  0  0  0  0  0  0  0  0  0  0
   -2.1735    1.4152   -0.0069 H   0  0  0  0  0  0  0  0  0  0  0  0
   -2.9337    0.2014   -1.0816 H   0  0  0  0  0  0  0  0  0  0  0  0
   -0.9212    0.7479   -1.6341 C   0  0  0  0  0  0  0  0  0  0  0  0
   -1.5459    1.5420   -2.0459 H   0  0  0  0  0  0  0  0  0  0  0  0
   -1.1799   -0.2161   -2.0734 H   0  0  0  0  0  0  0  0  0  0  0  0
    0.5675    1.0278   -1.8400 C   0  0  0  0  0  0  0  0  0  0  0  0
    0.9452    2.0522   -1.8362 H   0  0  0  0  0  0  0  0  0  0  0  0
    1.2377    0.3817   -2.4067 H   0  0  0  0  0  0  0  0  0  0  0  0
    0.3724    0.5200   -0.4020 C   0  0  1  0  0  0  0  0  0  0  0  0
    1.2226   -0.1060   -0.1299 H   0  0  0  0  0  0  0  0  0  0  0  0
    0.2441    1.6770    0.6029 C   0  0  0  0  0  0  0  0  0  0  0  0
    0.8110    1.6225    1.6924 O   0  0  0  0  0  0  0  0  0  0  0  0
   -0.5351    2.7061    0.2487 N   0  0  0  0  0  0  0  0  0  0  0  0
   -0.9170    2.7047   -0.6835 H   0  0  0  0  0  0  0  0  0  0  0  0
   -0.7700    3.8785    1.0883 C   0  0  0  0  0  0  0  0  0  0  0  0
    0.1665    4.4241    1.2224 H   0  0  0  0  0  0  0  0  0  0  0  0
   -1.5071    4.5349    0.6247 H   0  0  0  0  0  0  0  0  0  0  0  0
   -1.1312    3.5639    2.0698 H   0  0  0  0  0  0  0  0  0  0  0  0
  5  6  2  0  0  0  0
  5  7  1  0  0  0  0
  2  3  1  0  0  0  0
  2  4  1  0  0  0  0
  2  5  1  0  0  0  0
  1  2  1  0  0  0  0
 19 20  2  0  0  0  0
 19 21  1  0  0  0  0
 17 18  1  0  0  0  0
 17 19  1  0  0  0  0
 14 15  1  0  0  0  0
 14 16  1  0  0  0  0
 14 17  1  0  0  0  0
 11 12  1  0  0  0  0
 11 13  1  0  0  0  0
 11 14  1  0  0  0  0
  8  9  1  0  0  0  0
  8 10  1  0  0  0  0
  8 11  1  0  0  0  0
  7  8  1  0  0  0  0
  7 17  1  0  0  0  0
 23 24  1  0  0  0  0
 23 25  1  0  0  0  0
 23 26  1  0  0  0  0
 21 22  1  0  0  0  0
 21 23  1  0  0  0  0
M  END
$$$$
default_name
  -OEChem-11182114113D

 26 26  0     1  0  0  0  0  0999 V2000
   -1.8446   -3.5060   -0.3010 H   0  0  0  0  0  0  0  0  0  0  0  0
   -2.0746   -2.4490   -0.4240 C   0  0  0  0  0  0  0  0  0  0  0  0
   -2.6906   -2.1160    0.4090 H   0  0  0  0  0  0  0  0  0  0  0  0
   -2.5986   -2.2980   -1.3650 H   0  0  0  0  0  0  0  0  0  0  0  0
   -0.7756   -1.6630   -0.4350 C   0  0  0  0  0  0  0  0  0  0  0  0
    0.2844   -2.2800   -0.4550 O   0  0  0  0  0  0  0  0  0  0  0  0
   -0.8246   -0.3180   -0.4350 N   0  0  0  0  0  0  0  0  0  0  0  0
   -2.0106    0.5080   -0.5910 C   0  0  0  0  0  0  0  0  0  0  0  0
   -2.1735    1.4152   -0.0069 H   0  0  0  0  0  0  0  0  0  0  0  0
   -2.9337    0.2014   -1.0816 H   0  0  0  0  0  0  0  0  0  0  0  0
   -0.9212    0.7479   -1.6341 C   0  0  0  0  0  0  0  0  0  0  0  0
   -1.5459    1.5420   -2.0459 H   0  0  0  0  0  0  0  0  0  0  0  0
   -1.1799   -0.2161   -2.0734 H   0  0  0  0  0  0  0  0  0  0  0  0
    0.5675    1.0278   -1.8400 C   0  0  0  0  0  0  0  0  0  0  0  0
    0.9452    2.0522   -1.8362 H   0  0  0  0  0  0  0  0  0  0  0  0
    1.2377    0.3817   -2.4067 H   0  0  0  0  0  0  0  0  0  0  0  0
    0.3724    0.5200   -0.4020 C   0  0  1  0  0  0  0  0  0  0  0  0
    1.2226   -0.1060   -0.1299 H   0  0  0  0  0  0  0  0  0  0  0  0
    0.2441    1.6770    0.6029 C   0  0  0  0  0  0  0  0  0  0  0  0
    1.0113    1.7598    1.5600 O   0  0  0  0  0  0  0  0  0  0  0  0
   -0.7533    2.5472    0.4039 N   0  0  0  0  0  0  0  0  0  0  0  0
   -1.3018    2.4463   -0.4351 H   0  0  0  0  0  0  0  0  0  0  0  0
   -1.0191    3.6952    1.2675 C   0  0  0  0  0  0  0  0  0  0  0  0
   -0.1819    4.3942    1.2122 H   0  0  0  0  0  0  0  0  0  0  0  0
   -1.9331    4.2010    0.9547 H   0  0  0  0  0  0  0  0  0  0  0  0
   -1.1249    3.3626    2.3024 H   0  0  0  0  0  0  0  0  0  0  0  0
  5  6  2  0  0  0  0
  5  7  1  0  0  0  0
  2  3  1  0  0  0  0
  2  4  1  0  0  0  0
  2  5  1  0  0  0  0
  1  2  1  0  0  0  0
 19 20  2  0  0  0  0
 19 21  1  0  0  0  0
 17 18  1  0  0  0  0
 17 19  1  0  0  0  0
 14 15  1  0  0  0  0
 14 16  1  0  0  0  0
 14 17  1  0  0  0  0
 11 12  1  0  0  0  0
 11 13  1  0  0  0  0
 11 14  1  0  0  0  0
  8  9  1  0  0  0  0
  8 10  1  0  0  0  0
  8 11  1  0  0  0  0
  7  8  1  0  0  0  0
  7 17  1  0  0  0  0
 23 24  1  0  0  0  0
 23 25  1  0  0  0  0
 23 26  1  0  0  0  0
 21 22  1  0  0  0  0
 21 23  1  0  0  0  0
M  END
$$$$
default_name
  -OEChem-11182114113D

 26 26  0     1  0  0  0  0  0999 V2000
   -1.8446   -3.5060   -0.3010 H   0  0  0  0  0  0  0  0  0  0  0  0
   -2.0746   -2.4490   -0.4240 C   0  0  0  0  0  0  0  0  0  0  0  0
   -2.6906   -2.1160    0.4090 H   0  0  0  0  0  0  0  0  0  0  0  0
   -2.5986   -2.2980   -1.3650 H   0  0  0  0  0  0  0  0  0  0  0  0
   -0.7756   -1.6630   -0.4350 C   0  0  0  0  0  0  0  0  0  0  0  0
    0.2844   -2.2800   -0.4550 O   0  0  0  0  0  0  0  0  0  0  0  0
   -0.8246   -0.3180   -0.4350 N   0  0  0  0  0  0  0  0  0  0  0  0
   -2.0106    0.5080   -0.5910 C   0  0  0  0  0  0  0  0  0  0  0  0
   -2.1735    1.4152   -0.0069 H   0  0  0  0  0  0  0  0  0  0  0  0
   -2.9337    0.2014   -1.0816 H   0  0  0  0  0  0  0  0  0  0  0  0
   -0.9212    0.7479   -1.6341 C   0  0  0  0  0  0  0  0  0  0  0  0
   -1.5459    1.5420   -2.0459 H   0  0  0  0  0  0  0  0  0  0  0  0
   -1.1799   -0.2161   -2.0734 H   0  0  0  0  0  0  0  0  0  0  0  0
    0.5675    1.0278   -1.8400 C   0  0  0  0  0  0  0  0  0  0  0  0
    0.9452    2.0522   -1.8362 H   0  0  0  0  0  0  0  0  0  0  0  0
    1.2377    0.3817   -2.4067 H   0  0  0  0  0  0  0  0  0  0  0  0
    0.3724    0.5200   -0.4020 C   0  0  1  0  0  0  0  0  0  0  0  0
    1.2226   -0.1060   -0.1299 H   0  0  0  0  0  0  0  0  0  0  0  0
    0.2441    1.6770    0.6029 C   0  0  0  0  0  0  0  0  0  0  0  0
    1.1557    1.9233    1.3901 O   0  0  0  0  0  0  0  0  0  0  0  0
   -0.9070    2.3602    0.5996 N   0  0  0  0  0  0  0  0  0  0  0  0
   -1.5814    2.1370   -0.1147 H   0  0  0  0  0  0  0  0  0  0  0  0
   -1.1938    3.4799    1.4931 C   0  0  0  0  0  0  0  0  0  0  0  0
   -0.5153    4.3063    1.2709 H   0  0  0  0  0  0  0  0  0  0  0  0
   -2.2239    3.8136    1.3636 H   0  0  0  0  0  0  0  0  0  0  0  0
   -1.0394    3.1742    2.5302 H   0  0  0  0  0  0  0  0  0  0  0  0
  5  6  2  0  0  0  0
  5  7  1  0  0  0  0
  2  3  1  0  0  0  0
  2  4  1  0  0  0  0
  2  5  1  0  0  0  0
  1  2  1  0  0  0  0
 19 20  2  0  0  0  0
 19 21  1  0  0  0  0
 17 18  1  0  0  0  0
 17 19  1  0  0  0  0
 14 15  1  0  0  0  0
 14 16  1  0  0  0  0
 14 17  1  0  0  0  0
 11 12  1  0  0  0  0
 11 13  1  0  0  0  0
 11 14  1  0  0  0  0
  8  9  1  0  0  0  0
  8 10  1  0  0  0  0
  8 11  1  0  0  0  0
  7  8  1  0  0  0  0
  7 17  1  0  0  0  0
 23 24  1  0  0  0  0
 23 25  1  0  0  0  0
 23 26  1  0  0  0  0
 21 22  1  0  0  0  0
 21 23  1  0  0  0  0
M  END
$$$$
default_name
  -OEChem-11182114113D

 26 26  0     1  0  0  0  0  0999 V2000
   -1.8446   -3.5060   -0.3010 H   0  0  0  0  0  0  0  0  0  0  0  0
   -2.0746   -2.4490   -0.4240 C   0  0  0  0  0  0  0  0  0  0  0  0
   -2.6906   -2.1160    0.4090 H   0  0  0  0  0  0  0  0  0  0  0  0
   -2.5986   -2.2980   -1.3650 H   0  0  0  0  0  0  0  0  0  0  0  0
   -0.7756   -1.6630   -0.4350 C   0  0  0  0  0  0  0  0  0  0  0  0
    0.2844   -2.2800   -0.4550 O   0  0  0  0  0  0  0  0  0  0  0  0
   -0.8246   -0.3180   -0.4350 N   0  0  0  0  0  0  0  0  0  0  0  0
   -2.0106    0.5080   -0.5910 C   0  0  0  0  0  0  0  0  0  0  0  0
   -2.1735    1.4152   -0.0069 H   0  0  0  0  0  0  0  0  0  0  0  0
   -2.9337    0.2014   -1.0816 H   0  0  0  0  0  0  0  0  0  0  0  0
   -0.9212    0.7479   -1.6341 C   0  0  0  0  0  0  0  0  0  0  0  0
   -1.5459    1.5420   -2.0459 H   0  0  0  0  0  0  0  0  0  0  0  0
   -1.1799   -0.2161   -2.0734 H   0  0  0  0  0  0  0  0  0  0  0  0
    0.5675    1.0278   -1.8400 C   0  0  0  0  0  0  0  0  0  0  0  0
    0.9452    2.0522   -1.8362 H   0  0  0  0  0  0  0  0  0  0  0  0
    1.2377    0.3817   -2.4067 H   0  0  0  0  0  0  0  0  0  0  0  0
    0.3724    0.5200   -0.4020 C   0  0  1  0  0  0  0  0  0  0  0  0
    1.2226   -0.1060   -0.1299 H   0  0  0  0  0  0  0  0  0  0  0  0
    0.2441    1.6770    0.6029 C   0  0  0  0  0  0  0  0  0  0  0  0
    1.2345    2.1021    1.1943 O   0  0  0  0  0  0  0  0  0  0  0  0
   -0.9856    2.1577    0.8226 N   0  0  0  0  0  0  0  0  0  0  0  0
   -1.7368    1.7978    0.2560 H   0  0  0  0  0  0  0  0  0  0  0  0
   -1.2822    3.2473    1.7497 C   0  0  0  0  0  0  0  0  0  0  0  0
   -0.8110    4.1662    1.3944 H   0  0  0  0  0  0  0  0  0  0  0  0
   -2.3596    3.3991    1.8236 H   0  0  0  0  0  0  0  0  0  0  0  0
   -0.8807    3.0117    2.7376 H   0  0  0  0  0  0  0  0  0  0  0  0
  5  6  2  0  0  0  0
  5  7  1  0  0  0  0
  2  3  1  0  0  0  0
  2  4  1  0  0  0  0
  2  5  1  0  0  0  0
  1  2  1  0  0  0  0
 19 20  2  0  0  0  0
 19 21  1  0  0  0  0
 17 18  1  0  0  0  0
 17 19  1  0  0  0  0
 14 15  1  0  0  0  0
 14 16  1  0  0  0  0
 14 17  1  0  0  0  0
 11 12  1  0  0  0  0
 11 13  1  0  0  0  0
 11 14  1  0  0  0  0
  8  9  1  0  0  0  0
  8 10  1  0  0  0  0
  8 11  1  0  0  0  0
  7  8  1  0  0  0  0
  7 17  1  0  0  0  0
 23 24  1  0  0  0  0
 23 25  1  0  0  0  0
 23 26  1  0  0  0  0
 21 22  1  0  0  0  0
 21 23  1  0  0  0  0
M  END
$$$$
default_name
  -OEChem-11182114113D

 26 26  0     1  0  0  0  0  0999 V2000
   -1.8446   -3.5060   -0.3010 H   0  0  0  0  0  0  0  0  0  0  0  0
   -2.0746   -2.4490   -0.4240 C   0  0  0  0  0  0  0  0  0  0  0  0
   -2.6906   -2.1160    0.4090 H   0  0  0  0  0  0  0  0  0  0  0  0
   -2.5986   -2.2980   -1.3650 H   0  0  0  0  0  0  0  0  0  0  0  0
   -0.7756   -1.6630   -0.4350 C   0  0  0  0  0  0  0  0  0  0  0  0
    0.2844   -2.2800   -0.4550 O   0  0  0  0  0  0  0  0  0  0  0  0
   -0.8246   -0.3180   -0.4350 N   0  0  0  0  0  0  0  0  0  0  0  0
   -2.0106    0.5080   -0.5910 C   0  0  0  0  0  0  0  0  0  0  0  0
   -2.1735    1.4152   -0.0069 H   0  0  0  0  0  0  0  0  0  0  0  0
   -2.9337    0.2014   -1.0816 H   0  0  0  0  0  0  0  0  0  0  0  0
   -0.9212    0.7479   -1.6341 C   0  0  0  0  0  0  0  0  0  0  0  0
   -1.5459    1.5420   -2.0459 H   0  0  0  0  0  0  0  0  0  0  0  0
   -1.1799   -0.2161   -2.0734 H   0  0  0  0  0  0  0  0  0  0  0  0
    0.5675    1.0278   -1.8400 C   0  0  0  0  0  0  0  0  0  0  0  0
    0.9452    2.0522   -1.8362 H   0  0  0  0  0  0  0  0  0  0  0  0
    1.2377    0.3817   -2.4067 H   0  0  0  0  0  0  0  0  0  0  0  0
    0.3724    0.5200   -0.4020 C   0  0  1  0  0  0  0  0  0  0  0  0
    1.2226   -0.1060   -0.1299 H   0  0  0  0  0  0  0  0  0  0  0  0
    0.2441    1.6770    0.6029 C   0  0  0  0  0  0  0  0  0  0  0  0
    1.2423    2.2839    0.9860 O   0  0  0  0  0  0  0  0  0  0  0  0
   -0.9840    1.9537    1.0578 N   0  0  0  0  0  0  0  0  0  0  0  0
   -1.7574    1.4520    0.6516 H   0  0  0  0  0  0  0  0  0  0  0  0
   -1.2783    3.0132    2.0197 C   0  0  0  0  0  0  0  0  0  0  0  0
   -1.0490    3.9836    1.5743 H   0  0  0  0  0  0  0  0  0  0  0  0
   -2.3309    2.9857    2.3032 H   0  0  0  0  0  0  0  0  0  0  0  0
   -0.6595    2.8860    2.9106 H   0  0  0  0  0  0  0  0  0  0  0  0
  5  6  2  0  0  0  0
  5  7  1  0  0  0  0
  2  3  1  0  0  0  0
  2  4  1  0  0  0  0
  2  5  1  0  0  0  0
  1  2  1  0  0  0  0
 19 20  2  0  0  0  0
 19 21  1  0  0  0  0
 17 18  1  0  0  0  0
 17 19  1  0  0  0  0
 14 15  1  0  0  0  0
 14 16  1  0  0  0  0
 14 17  1  0  0  0  0
 11 12  1  0  0  0  0
 11 13  1  0  0  0  0
 11 14  1  0  0  0  0
  8  9  1  0  0  0  0
  8 10  1  0  0  0  0
  8 11  1  0  0  0  0
  7  8  1  0  0  0  0
  7 17  1  0  0  0  0
 23 24  1  0  0  0  0
 23 25  1  0  0  0  0
 23 26  1  0  0  0  0
 21 22  1  0  0  0  0
 21 23  1  0  0  0  0
M  END
$$$$
default_name
  -OEChem-11182114113D

 26 26  0     1  0  0  0  0  0999 V2000
   -1.8446   -3.5060   -0.3010 H   0  0  0  0  0  0  0  0  0  0  0  0
   -2.0746   -2.4490   -0.4240 C   0  0  0  0  0  0  0  0  0  0  0  0
   -2.6906   -2.1160    0.4090 H   0  0  0  0  0  0  0  0  0  0  0  0
   -2.5986   -2.2980   -1.3650 H   0  0  0  0  0  0  0  0  0  0  0  0
   -0.7756   -1.6630   -0.4350 C   0  0  0  0  0  0  0  0  0  0  0  0
    0.2844   -2.2800   -0.4550 O   0  0  0  0  0  0  0  0  0  0  0  0
   -0.8246   -0.3180   -0.4350 N   0  0  0  0  0  0  0  0  0  0  0  0
   -2.0106    0.5080   -0.5910 C   0  0  0  0  0  0  0  0  0  0  0  0
   -2.1735    1.4152   -0.0069 H   0  0  0  0  0  0  0  0  0  0  0  0
   -2.9337    0.2014   -1.0816 H   0  0  0  0  0  0  0  0  0  0  0  0
   -0.9212    0.7479   -1.6341 C   0  0  0  0  0  0  0  0  0  0  0  0
   -1.5459    1.5420   -2.0459 H   0  0  0  0  0  0  0  0  0  0  0  0
   -1.1799   -0.2161   -2.0734 H   0  0  0  0  0  0  0  0  0  0  0  0
    0.5675    1.0278   -1.8400 C   0  0  0  0  0  0  0  0  0  0  0  0
    0.9452    2.0522   -1.8362 H   0  0  0  0  0  0  0  0  0  0  0  0
    1.2377    0.3817   -2.4067 H   0  0  0  0  0  0  0  0  0  0  0  0
    0.3724    0.5200   -0.4020 C   0  0  1  0  0  0  0  0  0  0  0  0
    1.2226   -0.1060   -0.1299 H   0  0  0  0  0  0  0  0  0  0  0  0
    0.2441    1.6770    0.6029 C   0  0  0  0  0  0  0  0  0  0  0  0
    1.1785    2.4563    0.7794 O   0  0  0  0  0  0  0  0  0  0  0  0
   -0.9021    1.7620    1.2890 N   0  0  0  0  0  0  0  0  0  0  0  0
   -1.6417    1.1230    1.0452 H   0  0  0  0  0  0  0  0  0  0  0  0
   -1.1824    2.7935    2.2849 C   0  0  0  0  0  0  0  0  0  0  0  0
   -1.2129    3.7708    1.7984 H   0  0  0  0  0  0  0  0  0  0  0  0
   -2.1400    2.6015    2.7699 H   0  0  0  0  0  0  0  0  0  0  0  0
   -0.3908    2.8057    3.0373 H   0  0  0  0  0  0  0  0  0  0  0  0
  5  6  2  0  0  0  0
  5  7  1  0  0  0  0
  2  3  1  0  0  0  0
  2  4  1  0  0  0  0
  2  5  1  0  0  0  0
  1  2  1  0  0  0  0
 19 20  2  0  0  0  0
 19 21  1  0  0  0  0
 17 18  1  0  0  0  0
 17 19  1  0  0  0  0
 14 15  1  0  0  0  0
 14 16  1  0  0  0  0
 14 17  1  0  0  0  0
 11 12  1  0  0  0  0
 11 13  1  0  0  0  0
 11 14  1  0  0  0  0
  8  9  1  0  0  0  0
  8 10  1  0  0  0  0
  8 11  1  0  0  0  0
  7  8  1  0  0  0  0
  7 17  1  0  0  0  0
 23 24  1  0  0  0  0
 23 25  1  0  0  0  0
 23 26  1  0  0  0  0
 21 22  1  0  0  0  0
 21 23  1  0  0  0  0
M  END
$$$$
default_name
  -OEChem-11182114113D

 26 26  0     1  0  0  0  0  0999 V2000
   -1.8446   -3.5060   -0.3010 H   0  0  0  0  0  0  0  0  0  0  0  0
   -2.0746   -2.4490   -0.4240 C   0  0  0  0  0  0  0  0  0  0  0  0
   -2.6906   -2.1160    0.4090 H   0  0  0  0  0  0  0  0  0  0  0  0
   -2.5986   -2.2980   -1.3650 H   0  0  0  0  0  0  0  0  0  0  0  0
   -0.7756   -1.6630   -0.4350 C   0  0  0  0  0  0  0  0  0  0  0  0
    0.2844   -2.2800   -0.4550 O   0  0  0  0  0  0  0  0  0  0  0  0
   -0.8246   -0.3180   -0.4350 N   0  0  0  0  0  0  0  0  0  0  0  0
   -2.0106    0.5080   -0.5910 C   0  0  0  0  0  0  0  0  0  0  0  0
   -2.1735    1.4152   -0.0069 H   0  0  0  0  0  0  0  0  0  0  0  0
   -2.9337    0.2014   -1.0816 H   0  0  0  0  0  0  0  0  0  0  0  0
   -0.9212    0.7479   -1.6341 C   0  0  0  0  0  0  0  0  0  0  0  0
   -1.5459    1.5420   -2.0459 H   0  0  0  0  0  0  0  0  0  0  0  0
   -1.1799   -0.2161   -2.0734 H   0  0  0  0  0  0  0  0  0  0  0  0
    0.5675    1.0278   -1.8400 C   0  0  0  0  0  0  0  0  0  0  0  0
    0.9452    2.0522   -1.8362 H   0  0  0  0  0  0  0  0  0  0  0  0
    1.2377    0.3817   -2.4067 H   0  0  0  0  0  0  0  0  0  0  0  0
    0.3724    0.5200   -0.4020 C   0  0  1  0  0  0  0  0  0  0  0  0
    1.2226   -0.1060   -0.1299 H   0  0  0  0  0  0  0  0  0  0  0  0
    0.2441    1.6770    0.6029 C   0  0  0  0  0  0  0  0  0  0  0  0
    1.0474    2.6075    0.5885 O   0  0  0  0  0  0  0  0  0  0  0  0
   -0.7455    1.5956    1.5005 N   0  0  0  0  0  0  0  0  0  0  0  0
   -1.3977    0.8332    1.4100 H   0  0  0  0  0  0  0  0  0  0  0  0
   -1.0009    2.6033    2.5271 C   0  0  0  0  0  0  0  0  0  0  0  0
   -1.2916    3.5424    2.0513 H   0  0  0  0  0  0  0  0  0  0  0  0
   -1.7997    2.2729    3.1918 H   0  0  0  0  0  0  0  0  0  0  0  0
   -0.0931    2.7763    3.1092 H   0  0  0  0  0  0  0  0  0  0  0  0
  5  6  2  0  0  0  0
  5  7  1  0  0  0  0
  2  3  1  0  0  0  0
  2  4  1  0  0  0  0
  2  5  1  0  0  0  0
  1  2  1  0  0  0  0
 19 20  2  0  0  0  0
 19 21  1  0  0  0  0
 17 18  1  0  0  0  0
 17 19  1  0  0  0  0
 14 15  1  0  0  0  0
 14 16  1  0  0  0  0
 14 17  1  0  0  0  0
 11 12  1  0  0  0  0
 11 13  1  0  0  0  0
 11 14  1  0  0  0  0
  8  9  1  0  0  0  0
  8 10  1  0  0  0  0
  8 11  1  0  0  0  0
  7  8  1  0  0  0  0
  7 17  1  0  0  0  0
 23 24  1  0  0  0  0
 23 25  1  0  0  0  0
 23 26  1  0  0  0  0
 21 22  1  0  0  0  0
 21 23  1  0  0  0  0
M  END
$$$$
default_name
  -OEChem-11182114113D

 26 26  0     1  0  0  0  0  0999 V2000
   -1.8446   -3.5060   -0.3010 H   0  0  0  0  0  0  0  0  0  0  0  0
   -2.0746   -2.4490   -0.4240 C   0  0  0  0  0  0  0  0  0  0  0  0
   -2.6906   -2.1160    0.4090 H   0  0  0  0  0  0  0  0  0  0  0  0
   -2.5986   -2.2980   -1.3650 H   0  0  0  0  0  0  0  0  0  0  0  0
   -0.7756   -1.6630   -0.4350 C   0  0  0  0  0  0  0  0  0  0  0  0
    0.2844   -2.2800   -0.4550 O   0  0  0  0  0  0  0  0  0  0  0  0
   -0.8246   -0.3180   -0.4350 N   0  0  0  0  0  0  0  0  0  0  0  0
   -2.0106    0.5080   -0.5910 C   0  0  0  0  0  0  0  0  0  0  0  0
   -2.1735    1.4152   -0.0069 H   0  0  0  0  0  0  0  0  0  0  0  0
   -2.9337    0.2014   -1.0816 H   0  0  0  0  0  0  0  0  0  0  0  0
   -0.9212    0.7479   -1.6341 C   0  0  0  0  0  0  0  0  0  0  0  0
   -1.5459    1.5420   -2.0459 H   0  0  0  0  0  0  0  0  0  0  0  0
   -1.1799   -0.2161   -2.0734 H   0  0  0  0  0  0  0  0  0  0  0  0
    0.5675    1.0278   -1.8400 C   0  0  0  0  0  0  0  0  0  0  0  0
    0.9452    2.0522   -1.8362 H   0  0  0  0  0  0  0  0  0  0  0  0
    1.2377    0.3817   -2.4067 H   0  0  0  0  0  0  0  0  0  0  0  0
    0.3724    0.5200   -0.4020 C   0  0  1  0  0  0  0  0  0  0  0  0
    1.2226   -0.1060   -0.1299 H   0  0  0  0  0  0  0  0  0  0  0  0
    0.2441    1.6770    0.6029 C   0  0  0  0  0  0  0  0  0  0  0  0
    0.8581    2.7273    0.4263 O   0  0  0  0  0  0  0  0  0  0  0  0
   -0.5250    1.4660    1.6779 N   0  0  0  0  0  0  0  0  0  0  0  0
   -1.0420    0.6025    1.7211 H   0  0  0  0  0  0  0  0  0  0  0  0
   -0.7463    2.4555    2.7298 C   0  0  0  0  0  0  0  0  0  0  0  0
   -1.2797    3.3139    2.3159 H   0  0  0  0  0  0  0  0  0  0  0  0
   -1.3333    2.0221    3.5402 H   0  0  0  0  0  0  0  0  0  0  0  0
    0.2134    2.7999    3.1212 H   0  0  0  0  0  0  0  0  0  0  0  0
  5  6  2  0  0  0  0
  5  7  1  0  0  0  0
  2  3  1  0  0  0  0
  2  4  1  0  0  0  0
  2  5  1  0  0  0  0
  1  2  1  0  0  0  0
 19 20  2  0  0  0  0
 19 21  1  0  0  0  0
 17 18  1  0  0  0  0
 17 19  1  0  0  0  0
 14 15  1  0  0  0  0
 14 16  1  0  0  0  0
 14 17  1  0  0  0  0
 11 12  1  0  0  0  0
 11 13  1  0  0  0  0
 11 14  1  0  0  0  0
  8  9  1  0  0  0  0
  8 10  1  0  0  0  0
  8 11  1  0  0  0  0
  7  8  1  0  0  0  0
  7 17  1  0  0  0  0
 23 24  1  0  0  0  0
 23 25  1  0  0  0  0
 23 26  1  0  0  0  0
 21 22  1  0  0  0  0
 21 23  1  0  0  0  0
M  END
$$$$
default_name
  -OEChem-11182114113D

 26 26  0     1  0  0  0  0  0999 V2000
   -1.8446   -3.5060   -0.3010 H   0  0  0  0  0  0  0  0  0  0  0  0
   -2.0746   -2.4490   -0.4240 C   0  0  0  0  0  0  0  0  0  0  0  0
   -2.6906   -2.1160    0.4090 H   0  0  0  0  0  0  0  0  0  0  0  0
   -2.5986   -2.2980   -1.3650 H   0  0  0  0  0  0  0  0  0  0  0  0
   -0.7756   -1.6630   -0.4350 C   0  0  0  0  0  0  0  0  0  0  0  0
    0.2844   -2.2800   -0.4550 O   0  0  0  0  0  0  0  0  0  0  0  0
   -0.8246   -0.3180   -0.4350 N   0  0  0  0  0  0  0  0  0  0  0  0
   -2.0106    0.5080   -0.5910 C   0  0  0  0  0  0  0  0  0  0  0  0
   -2.1735    1.4152   -0.0069 H   0  0  0  0  0  0  0  0  0  0  0  0
   -2.9337    0.2014   -1.0816 H   0  0  0  0  0  0  0  0  0  0  0  0
   -0.9212    0.7479   -1.6341 C   0  0  0  0  0  0  0  0  0  0  0  0
   -1.5459    1.5420   -2.0459 H   0  0  0  0  0  0  0  0  0  0  0  0
   -1.1799   -0.2161   -2.0734 H   0  0  0  0  0  0  0  0  0  0  0  0
    0.5675    1.0278   -1.8400 C   0  0  0  0  0  0  0  0  0  0  0  0
    0.9452    2.0522   -1.8362 H   0  0  0  0  0  0  0  0  0  0  0  0
    1.2377    0.3817   -2.4067 H   0  0  0  0  0  0  0  0  0  0  0  0
    0.3724    0.5200   -0.4020 C   0  0  1  0  0  0  0  0  0  0  0  0
    1.2226   -0.1060   -0.1299 H   0  0  0  0  0  0  0  0  0  0  0  0
    0.2441    1.6770    0.6029 C   0  0  0  0  0  0  0  0  0  0  0  0
    0.6234    2.8076    0.3040 O   0  0  0  0  0  0  0  0  0  0  0  0
   -0.2555    1.3819    1.8091 N   0  0  0  0  0  0  0  0  0  0  0  0
   -0.5988    0.4465    1.9573 H   0  0  0  0  0  0  0  0  0  0  0  0
   -0.4359    2.3602    2.8792 C   0  0  0  0  0  0  0  0  0  0  0  0
   -1.1781    3.1010    2.5741 H   0  0  0  0  0  0  0  0  0  0  0  0
   -0.7725    1.8662    3.7912 H   0  0  0  0  0  0  0  0  0  0  0  0
    0.5079    2.8747    3.0726 H   0  0  0  0  0  0  0  0  0  0  0  0
  5  6  2  0  0  0  0
  5  7  1  0  0  0  0
  2  3  1  0  0  0  0
  2  4  1  0  0  0  0
  2  5  1  0  0  0  0
  1  2  1  0  0  0  0
 19 20  2  0  0  0  0
 19 21  1  0  0  0  0
 17 18  1  0  0  0  0
 17 19  1  0  0  0  0
 14 15  1  0  0  0  0
 14 16  1  0  0  0  0
 14 17  1  0  0  0  0
 11 12  1  0  0  0  0
 11 13  1  0  0  0  0
 11 14  1  0  0  0  0
  8  9  1  0  0  0  0
  8 10  1  0  0  0  0
  8 11  1  0  0  0  0
  7  8  1  0  0  0  0
  7 17  1  0  0  0  0
 23 24  1  0  0  0  0
 23 25  1  0  0  0  0
 23 26  1  0  0  0  0
 21 22  1  0  0  0  0
 21 23  1  0  0  0  0
M  END
$$$$
default_name
  -OEChem-11182114113D

 26 26  0     1  0  0  0  0  0999 V2000
   -1.8446   -3.5060   -0.3010 H   0  0  0  0  0  0  0  0  0  0  0  0
   -2.0746   -2.4490   -0.4240 C   0  0  0  0  0  0  0  0  0  0  0  0
   -2.6906   -2.1160    0.4090 H   0  0  0  0  0  0  0  0  0  0  0  0
   -2.5986   -2.2980   -1.3650 H   0  0  0  0  0  0  0  0  0  0  0  0
   -0.7756   -1.6630   -0.4350 C   0  0  0  0  0  0  0  0  0  0  0  0
    0.2844   -2.2800   -0.4550 O   0  0  0  0  0  0  0  0  0  0  0  0
   -0.8246   -0.3180   -0.4350 N   0  0  0  0  0  0  0  0  0  0  0  0
   -2.0106    0.5080   -0.5910 C   0  0  0  0  0  0  0  0  0  0  0  0
   -2.1735    1.4152   -0.0069 H   0  0  0  0  0  0  0  0  0  0  0  0
   -2.9337    0.2014   -1.0816 H   0  0  0  0  0  0  0  0  0  0  0  0
   -0.9212    0.7479   -1.6341 C   0  0  0  0  0  0  0  0  0  0  0  0
   -1.5459    1.5420   -2.0459 H   0  0  0  0  0  0  0  0  0  0  0  0
   -1.1799   -0.2161   -2.0734 H   0  0  0  0  0  0  0  0  0  0  0  0
    0.5675    1.0278   -1.8400 C   0  0  0  0  0  0  0  0  0  0  0  0
    0.9452    2.0522   -1.8362 H   0  0  0  0  0  0  0  0  0  0  0  0
    1.2377    0.3817   -2.4067 H   0  0  0  0  0  0  0  0  0  0  0  0
    0.3724    0.5200   -0.4020 C   0  0  1  0  0  0  0  0  0  0  0  0
    1.2226   -0.1060   -0.1299 H   0  0  0  0  0  0  0  0  0  0  0  0
    0.2441    1.6770    0.6029 C   0  0  0  0  0  0  0  0  0  0  0  0
    0.3593    2.8427    0.2298 O   0  0  0  0  0  0  0  0  0  0  0  0
    0.0446    1.3491    1.8852 N   0  0  0  0  0  0  0  0  0  0  0  0
   -0.0983    0.3759    2.1025 H   0  0  0  0  0  0  0  0  0  0  0  0
   -0.0909    2.3238    2.9651 C   0  0  0  0  0  0  0  0  0  0  0  0
   -0.9937    2.9180    2.8083 H   0  0  0  0  0  0  0  0  0  0  0  0
   -0.1555    1.8159    3.9279 H   0  0  0  0  0  0  0  0  0  0  0  0
    0.7701    2.9958    2.9667 H   0  0  0  0  0  0  0  0  0  0  0  0
  5  6  2  0  0  0  0
  5  7  1  0  0  0  0
  2  3  1  0  0  0  0
  2  4  1  0  0  0  0
  2  5  1  0  0  0  0
  1  2  1  0  0  0  0
 19 20  2  0  0  0  0
 19 21  1  0  0  0  0
 17 18  1  0  0  0  0
 17 19  1  0  0  0  0
 14 15  1  0  0  0  0
 14 16  1  0  0  0  0
 14 17  1  0  0  0  0
 11 12  1  0  0  0  0
 11 13  1  0  0  0  0
 11 14  1  0  0  0  0
  8  9  1  0  0  0  0
  8 10  1  0  0  0  0
  8 11  1  0  0  0  0
  7  8  1  0  0  0  0
  7 17  1  0  0  0  0
 23 24  1  0  0  0  0
 23 25  1  0  0  0  0
 23 26  1  0  0  0  0
 21 22  1  0  0  0  0
 21 23  1  0  0  0  0
M  END
$$$$
default_name
  -OEChem-11182114113D

 26 26  0     1  0  0  0  0  0999 V2000
   -1.8446   -3.5060   -0.3010 H   0  0  0  0  0  0  0  0  0  0  0  0
   -2.0746   -2.4490   -0.4240 C   0  0  0  0  0  0  0  0  0  0  0  0
   -2.6906   -2.1160    0.4090 H   0  0  0  0  0  0  0  0  0  0  0  0
   -2.5986   -2.2980   -1.3650 H   0  0  0  0  0  0  0  0  0  0  0  0
   -0.7756   -1.6630   -0.4350 C   0  0  0  0  0  0  0  0  0  0  0  0
    0.2844   -2.2800   -0.4550 O   0  0  0  0  0  0  0  0  0  0  0  0
   -0.8246   -0.3180   -0.4350 N   0  0  0  0  0  0  0  0  0  0  0  0
   -2.0106    0.5080   -0.5910 C   0  0  0  0  0  0  0  0  0  0  0  0
   -2.1735    1.4152   -0.0069 H   0  0  0  0  0  0  0  0  0  0  0  0
   -2.9337    0.2014   -1.0816 H   0  0  0  0  0  0  0  0  0  0  0  0
   -0.9212    0.7479   -1.6341 C   0  0  0  0  0  0  0  0  0  0  0  0
   -1.5459    1.5420   -2.0459 H   0  0  0  0  0  0  0  0  0  0  0  0
   -1.1799   -0.2161   -2.0734 H   0  0  0  0  0  0  0  0  0  0  0  0
    0.5675    1.0278   -1.8400 C   0  0  0  0  0  0  0  0  0  0  0  0
    0.9452    2.0522   -1.8362 H   0  0  0  0  0  0  0  0  0  0  0  0
    1.2377    0.3817   -2.4067 H   0  0  0  0  0  0  0  0  0  0  0  0
    0.3724    0.5200   -0.4020 C   0  0  1  0  0  0  0  0  0  0  0  0
    1.2226   -0.1060   -0.1299 H   0  0  0  0  0  0  0  0  0  0  0  0
    0.2441    1.6770    0.6029 C   0  0  0  0  0  0  0  0  0  0  0  0
    0.0838    2.8304    0.2088 O   0  0  0  0  0  0  0  0  0  0  0  0
    0.3548    1.3698    1.9010 N   0  0  0  0  0  0  0  0  0  0  0  0
    0.4254    0.3954    2.1469 H   0  0  0  0  0  0  0  0  0  0  0  0
    0.2653    2.3489    2.9817 C   0  0  0  0  0  0  0  0  0  0  0  0
   -0.7390    2.7776    3.0026 H   0  0  0  0  0  0  0  0  0  0  0  0
    0.4755    1.8746    3.9409 H   0  0  0  0  0  0  0  0  0  0  0  0
    0.9824    3.1547    2.8108 H   0  0  0  0  0  0  0  0  0  0  0  0
  5  6  2  0  0  0  0
  5  7  1  0  0  0  0
  2  3  1  0  0  0  0
  2  4  1  0  0  0  0
  2  5  1  0  0  0  0
  1  2  1  0  0  0  0
 19 20  2  0  0  0  0
 19 21  1  0  0  0  0
 17 18  1  0  0  0  0
 17 19  1  0  0  0  0
 14 15  1  0  0  0  0
 14 16  1  0  0  0  0
 14 17  1  0  0  0  0
 11 12  1  0  0  0  0
 11 13  1  0  0  0  0
 11 14  1  0  0  0  0
  8  9  1  0  0  0  0
  8 10  1  0  0  0  0
  8 11  1  0  0  0  0
  7  8  1  0  0  0  0
  7 17  1  0  0  0  0
 23 24  1  0  0  0  0
 23 25  1  0  0  0  0
 23 26  1  0  0  0  0
 21 22  1  0  0  0  0
 21 23  1  0  0  0  0
M  END
$$$$
default_name
  -OEChem-11182114113D

 26 26  0     1  0  0  0  0  0999 V2000
   -1.8446   -3.5060   -0.3010 H   0  0  0  0  0  0  0  0  0  0  0  0
   -2.0746   -2.4490   -0.4240 C   0  0  0  0  0  0  0  0  0  0  0  0
   -2.6906   -2.1160    0.4090 H   0  0  0  0  0  0  0  0  0  0  0  0
   -2.5986   -2.2980   -1.3650 H   0  0  0  0  0  0  0  0  0  0  0  0
   -0.7756   -1.6630   -0.4350 C   0  0  0  0  0  0  0  0  0  0  0  0
    0.2844   -2.2800   -0.4550 O   0  0  0  0  0  0  0  0  0  0  0  0
   -0.8246   -0.3180   -0.4350 N   0  0  0  0  0  0  0  0  0  0  0  0
   -2.0106    0.5080   -0.5910 C   0  0  0  0  0  0  0  0  0  0  0  0
   -2.1735    1.4152   -0.0069 H   0  0  0  0  0  0  0  0  0  0  0  0
   -2.9337    0.2014   -1.0816 H   0  0  0  0  0  0  0  0  0  0  0  0
   -0.9212    0.7479   -1.6341 C   0  0  0  0  0  0  0  0  0  0  0  0
   -1.5459    1.5420   -2.0459 H   0  0  0  0  0  0  0  0  0  0  0  0
   -1.1799   -0.2161   -2.0734 H   0  0  0  0  0  0  0  0  0  0  0  0
    0.5675    1.0278   -1.8400 C   0  0  0  0  0  0  0  0  0  0  0  0
    0.9452    2.0522   -1.8362 H   0  0  0  0  0  0  0  0  0  0  0  0
    1.2377    0.3817   -2.4067 H   0  0  0  0  0  0  0  0  0  0  0  0
    0.3724    0.5200   -0.4020 C   0  0  1  0  0  0  0  0  0  0  0  0
    1.2226   -0.1060   -0.1299 H   0  0  0  0  0  0  0  0  0  0  0  0
    0.2441    1.6770    0.6029 C   0  0  0  0  0  0  0  0  0  0  0  0
   -0.1843    2.7715    0.2424 O   0  0  0  0  0  0  0  0  0  0  0  0
    0.6541    1.4427    1.8554 N   0  0  0  0  0  0  0  0  0  0  0  0
    0.9365    0.5039    2.0873 H   0  0  0  0  0  0  0  0  0  0  0  0
    0.6083    2.4337    2.9279 C   0  0  0  0  0  0  0  0  0  0  0  0
   -0.4313    2.6891    3.1437 H   0  0  0  0  0  0  0  0  0  0  0  0
    1.0776    2.0383    3.8293 H   0  0  0  0  0  0  0  0  0  0  0  0
    1.1302    3.3408    2.6154 H   0  0  0  0  0  0  0  0  0  0  0  0
  5  6  2  0  0  0  0
  5  7  1  0  0  0  0
  2  3  1  0  0  0  0
  2  4  1  0  0  0  0
  2  5  1  0  0  0  0
  1  2  1  0  0  0  0
 19 20  2  0  0  0  0
 19 21  1  0  0  0  0
 17 18  1  0  0  0  0
 17 19  1  0  0  0  0
 14 15  1  0  0  0  0
 14 16  1  0  0  0  0
 14 17  1  0  0  0  0
 11 12  1  0  0  0  0
 11 13  1  0  0  0  0
 11 14  1  0  0  0  0
  8  9  1  0  0  0  0
  8 10  1  0  0  0  0
  8 11  1  0  0  0  0
  7  8  1  0  0  0  0
  7 17  1  0  0  0  0
 23 24  1  0  0  0  0
 23 25  1  0  0  0  0
 23 26  1  0  0  0  0
 21 22  1  0  0  0  0
 21 23  1  0  0  0  0
M  END
$$$$
default_name
  -OEChem-11182114113D

 26 26  0     1  0  0  0  0  0999 V2000
   -1.8446   -3.5060   -0.3010 H   0  0  0  0  0  0  0  0  0  0  0  0
   -2.0746   -2.4490   -0.4240 C   0  0  0  0  0  0  0  0  0  0  0  0
   -2.6906   -2.1160    0.4090 H   0  0  0  0  0  0  0  0  0  0  0  0
   -2.5986   -2.2980   -1.3650 H   0  0  0  0  0  0  0  0  0  0  0  0
   -0.7756   -1.6630   -0.4350 C   0  0  0  0  0  0  0  0  0  0  0  0
    0.2844   -2.2800   -0.4550 O   0  0  0  0  0  0  0  0  0  0  0  0
   -0.8246   -0.3180   -0.4350 N   0  0  0  0  0  0  0  0  0  0  0  0
   -2.0106    0.5080   -0.5910 C   0  0  0  0  0  0  0  0  0  0  0  0
   -2.1735    1.4152   -0.0069 H   0  0  0  0  0  0  0  0  0  0  0  0
   -2.9337    0.2014   -1.0816 H   0  0  0  0  0  0  0  0  0  0  0  0
   -0.9212    0.7479   -1.6341 C   0  0  0  0  0  0  0  0  0  0  0  0
   -1.5459    1.5420   -2.0459 H   0  0  0  0  0  0  0  0  0  0  0  0
   -1.1799   -0.2161   -2.0734 H   0  0  0  0  0  0  0  0  0  0  0  0
    0.5675    1.0278   -1.8400 C   0  0  0  0  0  0  0  0  0  0  0  0
    0.9452    2.0522   -1.8362 H   0  0  0  0  0  0  0  0  0  0  0  0
    1.2377    0.3817   -2.4067 H   0  0  0  0  0  0  0  0  0  0  0  0
    0.3724    0.5200   -0.4020 C   0  0  1  0  0  0  0  0  0  0  0  0
    1.2226   -0.1060   -0.1299 H   0  0  0  0  0  0  0  0  0  0  0  0
    0.2441    1.6770    0.6029 C   0  0  0  0  0  0  0  0  0  0  0  0
   -0.4268    2.6699    0.3284 O   0  0  0  0  0  0  0  0  0  0  0  0
    0.9219    1.5626    1.7514 N   0  0  0  0  0  0  0  0  0  0  0  0
    1.4003    0.6937    1.9279 H   0  0  0  0  0  0  0  0  0  0  0  0
    0.9148    2.5725    2.8072 C   0  0  0  0  0  0  0  0  0  0  0  0
   -0.0918    2.6588    3.2219 H   0  0  0  0  0  0  0  0  0  0  0  0
    1.6098    2.2959    3.6007 H   0  0  0  0  0  0  0  0  0  0  0  0
    1.2034    3.5414    2.3938 H   0  0  0  0  0  0  0  0  0  0  0  0
  5  6  2  0  0  0  0
  5  7  1  0  0  0  0
  2  3  1  0  0  0  0
  2  4  1  0  0  0  0
  2  5  1  0  0  0  0
  1  2  1  0  0  0  0
 19 20  2  0  0  0  0
 19 21  1  0  0  0  0
 17 18  1  0  0  0  0
 17 19  1  0  0  0  0
 14 15  1  0  0  0  0
 14 16  1  0  0  0  0
 14 17  1  0  0  0  0
 11 12  1  0  0  0  0
 11 13  1  0  0  0  0
 11 14  1  0  0  0  0
  8  9  1  0  0  0  0
  8 10  1  0  0  0  0
  8 11  1  0  0  0  0
  7  8  1  0  0  0  0
  7 17  1  0  0  0  0
 23 24  1  0  0  0  0
 23 25  1  0  0  0  0
 23 26  1  0  0  0  0
 21 22  1  0  0  0  0
 21 23  1  0  0  0  0
M  END
$$$$
default_name
  -OEChem-11182114113D

 26 26  0     1  0  0  0  0  0999 V2000
   -1.8446   -3.5060   -0.3010 H   0  0  0  0  0  0  0  0  0  0  0  0
   -2.0746   -2.4490   -0.4240 C   0  0  0  0  0  0  0  0  0  0  0  0
   -2.6906   -2.1160    0.4090 H   0  0  0  0  0  0  0  0  0  0  0  0
   -2.5986   -2.2980   -1.3650 H   0  0  0  0  0  0  0  0  0  0  0  0
   -0.7756   -1.6630   -0.4350 C   0  0  0  0  0  0  0  0  0  0  0  0
    0.2844   -2.2800   -0.4550 O   0  0  0  0  0  0  0  0  0  0  0  0
   -0.8246   -0.3180   -0.4350 N   0  0  0  0  0  0  0  0  0  0  0  0
   -2.0106    0.5080   -0.5910 C   0  0  0  0  0  0  0  0  0  0  0  0
   -2.1735    1.4152   -0.0069 H   0  0  0  0  0  0  0  0  0  0  0  0
   -2.9337    0.2014   -1.0816 H   0  0  0  0  0  0  0  0  0  0  0  0
   -0.9212    0.7479   -1.6341 C   0  0  0  0  0  0  0  0  0  0  0  0
   -1.5459    1.5420   -2.0459 H   0  0  0  0  0  0  0  0  0  0  0  0
   -1.1799   -0.2161   -2.0734 H   0  0  0  0  0  0  0  0  0  0  0  0
    0.5675    1.0278   -1.8400 C   0  0  0  0  0  0  0  0  0  0  0  0
    0.9452    2.0522   -1.8362 H   0  0  0  0  0  0  0  0  0  0  0  0
    1.2377    0.3817   -2.4067 H   0  0  0  0  0  0  0  0  0  0  0  0
    0.3724    0.5200   -0.4020 C   0  0  1  0  0  0  0  0  0  0  0  0
    1.2226   -0.1060   -0.1299 H   0  0  0  0  0  0  0  0  0  0  0  0
    0.2441    1.6770    0.6029 C   0  0  0  0  0  0  0  0  0  0  0  0
   -0.6271    2.5327    0.4608 O   0  0  0  0  0  0  0  0  0  0  0  0
    1.1401    1.7215    1.5963 N   0  0  0  0  0  0  0  0  0  0  0  0
    1.7851    0.9521    1.6795 H   0  0  0  0  0  0  0  0  0  0  0  0
    1.1639    2.7558    2.6280 C   0  0  0  0  0  0  0  0  0  0  0  0
    0.2566    2.6886    3.2321 H   0  0  0  0  0  0  0  0  0  0  0  0
    2.0358    2.6298    3.2706 H   0  0  0  0  0  0  0  0  0  0  0  0
    1.1971    3.7427    2.1612 H   0  0  0  0  0  0  0  0  0  0  0  0
  5  6  2  0  0  0  0
  5  7  1  0  0  0  0
  2  3  1  0  0  0  0
  2  4  1  0  0  0  0
  2  5  1  0  0  0  0
  1  2  1  0  0  0  0
 19 20  2  0  0  0  0
 19 21  1  0  0  0  0
 17 18  1  0  0  0  0
 17 19  1  0  0  0  0
 14 15  1  0  0  0  0
 14 16  1  0  0  0  0
 14 17  1  0  0  0  0
 11 12  1  0  0  0  0
 11 13  1  0  0  0  0
 11 14  1  0  0  0  0
  8  9  1  0  0  0  0
  8 10  1  0  0  0  0
  8 11  1  0  0  0  0
  7  8  1  0  0  0  0
  7 17  1  0  0  0  0
 23 24  1  0  0  0  0
 23 25  1  0  0  0  0
 23 26  1  0  0  0  0
 21 22  1  0  0  0  0
 21 23  1  0  0  0  0
M  END
$$$$
default_name
  -OEChem-11182114113D

 26 26  0     1  0  0  0  0  0999 V2000
   -1.8446   -3.5060   -0.3010 H   0  0  0  0  0  0  0  0  0  0  0  0
   -2.0746   -2.4490   -0.4240 C   0  0  0  0  0  0  0  0  0  0  0  0
   -2.6906   -2.1160    0.4090 H   0  0  0  0  0  0  0  0  0  0  0  0
   -2.5986   -2.2980   -1.3650 H   0  0  0  0  0  0  0  0  0  0  0  0
   -0.7756   -1.6630   -0.4350 C   0  0  0  0  0  0  0  0  0  0  0  0
    0.2844   -2.2800   -0.4550 O   0  0  0  0  0  0  0  0  0  0  0  0
   -0.8246   -0.3180   -0.4350 N   0  0  0  0  0  0  0  0  0  0  0  0
   -2.0106    0.5080   -0.5910 C   0  0  0  0  0  0  0  0  0  0  0  0
   -2.1735    1.4152   -0.0069 H   0  0  0  0  0  0  0  0  0  0  0  0
   -2.9337    0.2014   -1.0816 H   0  0  0  0  0  0  0  0  0  0  0  0
   -0.9212    0.7479   -1.6341 C   0  0  0  0  0  0  0  0  0  0  0  0
   -1.5459    1.5420   -2.0459 H   0  0  0  0  0  0  0  0  0  0  0  0
   -1.1799   -0.2161   -2.0734 H   0  0  0  0  0  0  0  0  0  0  0  0
    0.5675    1.0278   -1.8400 C   0  0  0  0  0  0  0  0  0  0  0  0
    0.9452    2.0522   -1.8362 H   0  0  0  0  0  0  0  0  0  0  0  0
    1.2377    0.3817   -2.4067 H   0  0  0  0  0  0  0  0  0  0  0  0
    0.3724    0.5200   -0.4020 C   0  0  1  0  0  0  0  0  0  0  0  0
    1.2226   -0.1060   -0.1299 H   0  0  0  0  0  0  0  0  0  0  0  0
    0.2441    1.6770    0.6029 C   0  0  0  0  0  0  0  0  0  0  0  0
   -0.7716    2.3691    0.6307 O   0  0  0  0  0  0  0  0  0  0  0  0
    1.2937    1.9086    1.4006 N   0  0  0  0  0  0  0  0  0  0  0  0
    2.0647    1.2615    1.3590 H   0  0  0  0  0  0  0  0  0  0  0  0
    1.3386    2.9711    2.4024 C   0  0  0  0  0  0  0  0  0  0  0  0
    0.5900    2.7766    3.1734 H   0  0  0  0  0  0  0  0  0  0  0  0
    2.3265    3.0171    2.8617 H   0  0  0  0  0  0  0  0  0  0  0  0
    1.1116    3.9310    1.9335 H   0  0  0  0  0  0  0  0  0  0  0  0
  5  6  2  0  0  0  0
  5  7  1  0  0  0  0
  2  3  1  0  0  0  0
  2  4  1  0  0  0  0
  2  5  1  0  0  0  0
  1  2  1  0  0  0  0
 19 20  2  0  0  0  0
 19 21  1  0  0  0  0
 17 18  1  0  0  0  0
 17 19  1  0  0  0  0
 14 15  1  0  0  0  0
 14 16  1  0  0  0  0
 14 17  1  0  0  0  0
 11 12  1  0  0  0  0
 11 13  1  0  0  0  0
 11 14  1  0  0  0  0
  8  9  1  0  0  0  0
  8 10  1  0  0  0  0
  8 11  1  0  0  0  0
  7  8  1  0  0  0  0
  7 17  1  0  0  0  0
 23 24  1  0  0  0  0
 23 25  1  0  0  0  0
 23 26  1  0  0  0  0
 21 22  1  0  0  0  0
 21 23  1  0  0  0  0
M  END
$$$$
default_name
  -OEChem-11182114113D

 26 26  0     1  0  0  0  0  0999 V2000
   -1.8446   -3.5060   -0.3010 H   0  0  0  0  0  0  0  0  0  0  0  0
   -2.0746   -2.4490   -0.4240 C   0  0  0  0  0  0  0  0  0  0  0  0
   -2.6906   -2.1160    0.4090 H   0  0  0  0  0  0  0  0  0  0  0  0
   -2.5986   -2.2980   -1.3650 H   0  0  0  0  0  0  0  0  0  0  0  0
   -0.7756   -1.6630   -0.4350 C   0  0  0  0  0  0  0  0  0  0  0  0
    0.2844   -2.2800   -0.4550 O   0  0  0  0  0  0  0  0  0  0  0  0
   -0.8246   -0.3180   -0.4350 N   0  0  0  0  0  0  0  0  0  0  0  0
   -2.0106    0.5080   -0.5910 C   0  0  0  0  0  0  0  0  0  0  0  0
   -2.1735    1.4152   -0.0069 H   0  0  0  0  0  0  0  0  0  0  0  0
   -2.9337    0.2014   -1.0816 H   0  0  0  0  0  0  0  0  0  0  0  0
   -0.9212    0.7479   -1.6341 C   0  0  0  0  0  0  0  0  0  0  0  0
   -1.5459    1.5420   -2.0459 H   0  0  0  0  0  0  0  0  0  0  0  0
   -1.1799   -0.2161   -2.0734 H   0  0  0  0  0  0  0  0  0  0  0  0
    0.5675    1.0278   -1.8400 C   0  0  0  0  0  0  0  0  0  0  0  0
    0.9452    2.0522   -1.8362 H   0  0  0  0  0  0  0  0  0  0  0  0
    1.2377    0.3817   -2.4067 H   0  0  0  0  0  0  0  0  0  0  0  0
    0.3724    0.5200   -0.4020 C   0  0  1  0  0  0  0  0  0  0  0  0
    1.2226   -0.1060   -0.1299 H   0  0  0  0  0  0  0  0  0  0  0  0
    0.2441    1.6770    0.6029 C   0  0  0  0  0  0  0  0  0  0  0  0
   -0.8504    2.1904    0.8265 O   0  0  0  0  0  0  0  0  0  0  0  0
    1.3724    2.1110    1.1775 N   0  0  0  0  0  0  0  0  0  0  0  0
    2.2201    1.6006    0.9884 H   0  0  0  0  0  0  0  0  0  0  0  0
    1.4270    3.2037    2.1458 C   0  0  0  0  0  0  0  0  0  0  0  0
    0.8857    2.9167    3.0499 H   0  0  0  0  0  0  0  0  0  0  0  0
    2.4622    3.4317    2.4018 H   0  0  0  0  0  0  0  0  0  0  0  0
    0.9529    4.0936    1.7260 H   0  0  0  0  0  0  0  0  0  0  0  0
  5  6  2  0  0  0  0
  5  7  1  0  0  0  0
  2  3  1  0  0  0  0
  2  4  1  0  0  0  0
  2  5  1  0  0  0  0
  1  2  1  0  0  0  0
 19 20  2  0  0  0  0
 19 21  1  0  0  0  0
 17 18  1  0  0  0  0
 17 19  1  0  0  0  0
 14 15  1  0  0  0  0
 14 16  1  0  0  0  0
 14 17  1  0  0  0  0
 11 12  1  0  0  0  0
 11 13  1  0  0  0  0
 11 14  1  0  0  0  0
  8  9  1  0  0  0  0
  8 10  1  0  0  0  0
  8 11  1  0  0  0  0
  7  8  1  0  0  0  0
  7 17  1  0  0  0  0
 23 24  1  0  0  0  0
 23 25  1  0  0  0  0
 23 26  1  0  0  0  0
 21 22  1  0  0  0  0
 21 23  1  0  0  0  0
M  END
$$$$
default_name
  -OEChem-11182114113D

 26 26  0     1  0  0  0  0  0999 V2000
   -1.8446   -3.5060   -0.3010 H   0  0  0  0  0  0  0  0  0  0  0  0
   -2.0746   -2.4490   -0.4240 C   0  0  0  0  0  0  0  0  0  0  0  0
   -2.6906   -2.1160    0.4090 H   0  0  0  0  0  0  0  0  0  0  0  0
   -2.5986   -2.2980   -1.3650 H   0  0  0  0  0  0  0  0  0  0  0  0
   -0.7756   -1.6630   -0.4350 C   0  0  0  0  0  0  0  0  0  0  0  0
    0.2844   -2.2800   -0.4550 O   0  0  0  0  0  0  0  0  0  0  0  0
   -0.8246   -0.3180   -0.4350 N   0  0  0  0  0  0  0  0  0  0  0  0
   -2.0106    0.5080   -0.5910 C   0  0  0  0  0  0  0  0  0  0  0  0
   -2.1735    1.4152   -0.0069 H   0  0  0  0  0  0  0  0  0  0  0  0
   -2.9337    0.2014   -1.0816 H   0  0  0  0  0  0  0  0  0  0  0  0
   -0.9212    0.7479   -1.6341 C   0  0  0  0  0  0  0  0  0  0  0  0
   -1.5459    1.5420   -2.0459 H   0  0  0  0  0  0  0  0  0  0  0  0
   -1.1799   -0.2161   -2.0734 H   0  0  0  0  0  0  0  0  0  0  0  0
    0.5675    1.0278   -1.8400 C   0  0  0  0  0  0  0  0  0  0  0  0
    0.9452    2.0522   -1.8362 H   0  0  0  0  0  0  0  0  0  0  0  0
    1.2377    0.3817   -2.4067 H   0  0  0  0  0  0  0  0  0  0  0  0
    0.3724    0.5200   -0.4020 C   0  0  1  0  0  0  0  0  0  0  0  0
    1.2226   -0.1060   -0.1299 H   0  0  0  0  0  0  0  0  0  0  0  0
    0.2441    1.6770    0.6029 C   0  0  0  0  0  0  0  0  0  0  0  0
   -0.8581    2.0086    1.0348 O   0  0  0  0  0  0  0  0  0  0  0  0
    1.3708    2.3150    0.9424 N   0  0  0  0  0  0  0  0  0  0  0  0
    2.2407    1.9465    0.5928 H   0  0  0  0  0  0  0  0  0  0  0  0
    1.4231    3.4378    1.8758 C   0  0  0  0  0  0  0  0  0  0  0  0
    1.1237    3.0993    2.8700 H   0  0  0  0  0  0  0  0  0  0  0  0
    2.4336    3.8451    1.9221 H   0  0  0  0  0  0  0  0  0  0  0  0
    0.7317    4.2193    1.5531 H   0  0  0  0  0  0  0  0  0  0  0  0
  5  6  2  0  0  0  0
  5  7  1  0  0  0  0
  2  3  1  0  0  0  0
  2  4  1  0  0  0  0
  2  5  1  0  0  0  0
  1  2  1  0  0  0  0
 19 20  2  0  0  0  0
 19 21  1  0  0  0  0
 17 18  1  0  0  0  0
 17 19  1  0  0  0  0
 14 15  1  0  0  0  0
 14 16  1  0  0  0  0
 14 17  1  0  0  0  0
 11 12  1  0  0  0  0
 11 13  1  0  0  0  0
 11 14  1  0  0  0  0
  8  9  1  0  0  0  0
  8 10  1  0  0  0  0
  8 11  1  0  0  0  0
  7  8  1  0  0  0  0
  7 17  1  0  0  0  0
 23 24  1  0  0  0  0
 23 25  1  0  0  0  0
 23 26  1  0  0  0  0
 21 22  1  0  0  0  0
 21 23  1  0  0  0  0
M  END
$$$$
default_name
  -OEChem-11182114113D

 26 26  0     1  0  0  0  0  0999 V2000
   -1.8446   -3.5060   -0.3010 H   0  0  0  0  0  0  0  0  0  0  0  0
   -2.0746   -2.4490   -0.4240 C   0  0  0  0  0  0  0  0  0  0  0  0
   -2.6906   -2.1160    0.4090 H   0  0  0  0  0  0  0  0  0  0  0  0
   -2.5986   -2.2980   -1.3650 H   0  0  0  0  0  0  0  0  0  0  0  0
   -0.7756   -1.6630   -0.4350 C   0  0  0  0  0  0  0  0  0  0  0  0
    0.2844   -2.2800   -0.4550 O   0  0  0  0  0  0  0  0  0  0  0  0
   -0.8246   -0.3180   -0.4350 N   0  0  0  0  0  0  0  0  0  0  0  0
   -2.0106    0.5080   -0.5910 C   0  0  0  0  0  0  0  0  0  0  0  0
   -2.1735    1.4152   -0.0069 H   0  0  0  0  0  0  0  0  0  0  0  0
   -2.9337    0.2014   -1.0816 H   0  0  0  0  0  0  0  0  0  0  0  0
   -0.9212    0.7479   -1.6341 C   0  0  0  0  0  0  0  0  0  0  0  0
   -1.5459    1.5420   -2.0459 H   0  0  0  0  0  0  0  0  0  0  0  0
   -1.1799   -0.2161   -2.0734 H   0  0  0  0  0  0  0  0  0  0  0  0
    0.5675    1.0278   -1.8400 C   0  0  0  0  0  0  0  0  0  0  0  0
    0.9452    2.0522   -1.8362 H   0  0  0  0  0  0  0  0  0  0  0  0
    1.2377    0.3817   -2.4067 H   0  0  0  0  0  0  0  0  0  0  0  0
    0.3724    0.5200   -0.4020 C   0  0  1  0  0  0  0  0  0  0  0  0
    1.2226   -0.1060   -0.1299 H   0  0  0  0  0  0  0  0  0  0  0  0
    0.2441    1.6770    0.6029 C   0  0  0  0  0  0  0  0  0  0  0  0
   -0.7943    1.8362    1.2414 O   0  0  0  0  0  0  0  0  0  0  0  0
    1.2888    2.5067    0.7112 N   0  0  0  0  0  0  0  0  0  0  0  0
    2.1250    2.2755    0.1992 H   0  0  0  0  0  0  0  0  0  0  0  0
    1.3272    3.6575    1.6106 C   0  0  0  0  0  0  0  0  0  0  0  0
    1.2876    3.3121    2.6459 H   0  0  0  0  0  0  0  0  0  0  0  0
    2.2427    4.2292    1.4554 H   0  0  0  0  0  0  0  0  0  0  0  0
    0.4631    4.2995    1.4263 H   0  0  0  0  0  0  0  0  0  0  0  0
  5  6  2  0  0  0  0
  5  7  1  0  0  0  0
  2  3  1  0  0  0  0
  2  4  1  0  0  0  0
  2  5  1  0  0  0  0
  1  2  1  0  0  0  0
 19 20  2  0  0  0  0
 19 21  1  0  0  0  0
 17 18  1  0  0  0  0
 17 19  1  0  0  0  0
 14 15  1  0  0  0  0
 14 16  1  0  0  0  0
 14 17  1  0  0  0  0
 11 12  1  0  0  0  0
 11 13  1  0  0  0  0
 11 14  1  0  0  0  0
  8  9  1  0  0  0  0
  8 10  1  0  0  0  0
  8 11  1  0  0  0  0
  7  8  1  0  0  0  0
  7 17  1  0  0  0  0
 23 24  1  0  0  0  0
 23 25  1  0  0  0  0
 23 26  1  0  0  0  0
 21 22  1  0  0  0  0
 21 23  1  0  0  0  0
M  END
$$$$
default_name
  -OEChem-11182114113D

 26 26  0     1  0  0  0  0  0999 V2000
   -1.8446   -3.5060   -0.3010 H   0  0  0  0  0  0  0  0  0  0  0  0
   -2.0746   -2.4490   -0.4240 C   0  0  0  0  0  0  0  0  0  0  0  0
   -2.6906   -2.1160    0.4090 H   0  0  0  0  0  0  0  0  0  0  0  0
   -2.5986   -2.2980   -1.3650 H   0  0  0  0  0  0  0  0  0  0  0  0
   -0.7756   -1.6630   -0.4350 C   0  0  0  0  0  0  0  0  0  0  0  0
    0.2844   -2.2800   -0.4550 O   0  0  0  0  0  0  0  0  0  0  0  0
   -0.8246   -0.3180   -0.4350 N   0  0  0  0  0  0  0  0  0  0  0  0
   -2.0106    0.5080   -0.5910 C   0  0  0  0  0  0  0  0  0  0  0  0
   -2.1735    1.4152   -0.0069 H   0  0  0  0  0  0  0  0  0  0  0  0
   -2.9337    0.2014   -1.0816 H   0  0  0  0  0  0  0  0  0  0  0  0
   -0.9212    0.7479   -1.6341 C   0  0  0  0  0  0  0  0  0  0  0  0
   -1.5459    1.5420   -2.0459 H   0  0  0  0  0  0  0  0  0  0  0  0
   -1.1799   -0.2161   -2.0734 H   0  0  0  0  0  0  0  0  0  0  0  0
    0.5675    1.0278   -1.8400 C   0  0  0  0  0  0  0  0  0  0  0  0
    0.9452    2.0522   -1.8362 H   0  0  0  0  0  0  0  0  0  0  0  0
    1.2377    0.3817   -2.4067 H   0  0  0  0  0  0  0  0  0  0  0  0
    0.3724    0.5200   -0.4020 C   0  0  1  0  0  0  0  0  0  0  0  0
    1.2226   -0.1060   -0.1299 H   0  0  0  0  0  0  0  0  0  0  0  0
    0.2441    1.6770    0.6029 C   0  0  0  0  0  0  0  0  0  0  0  0
   -0.6633    1.6849    1.4323 O   0  0  0  0  0  0  0  0  0  0  0  0
    1.1323    2.6731    0.4997 N   0  0  0  0  0  0  0  0  0  0  0  0
    1.8810    2.5652   -0.1656 H   0  0  0  0  0  0  0  0  0  0  0  0
    1.1457    3.8477    1.3684 C   0  0  0  0  0  0  0  0  0  0  0  0
    1.3663    3.5405    2.3929 H   0  0  0  0  0  0  0  0  0  0  0  0
    1.9024    4.5579    1.0335 H   0  0  0  0  0  0  0  0  0  0  0  0
    0.1653    4.3289    1.3545 H   0  0  0  0  0  0  0  0  0  0  0  0
  5  6  2  0  0  0  0
  5  7  1  0  0  0  0
  2  3  1  0  0  0  0
  2  4  1  0  0  0  0
  2  5  1  0  0  0  0
  1  2  1  0  0  0  0
 19 20  2  0  0  0  0
 19 21  1  0  0  0  0
 17 18  1  0  0  0  0
 17 19  1  0  0  0  0
 14 15  1  0  0  0  0
 14 16  1  0  0  0  0
 14 17  1  0  0  0  0
 11 12  1  0  0  0  0
 11 13  1  0  0  0  0
 11 14  1  0  0  0  0
  8  9  1  0  0  0  0
  8 10  1  0  0  0  0
  8 11  1  0  0  0  0
  7  8  1  0  0  0  0
  7 17  1  0  0  0  0
 23 24  1  0  0  0  0
 23 25  1  0  0  0  0
 23 26  1  0  0  0  0
 21 22  1  0  0  0  0
 21 23  1  0  0  0  0
M  END
$$$$
default_name
  -OEChem-11182114113D

 26 26  0     1  0  0  0  0  0999 V2000
   -1.8446   -3.5060   -0.3010 H   0  0  0  0  0  0  0  0  0  0  0  0
   -2.0746   -2.4490   -0.4240 C   0  0  0  0  0  0  0  0  0  0  0  0
   -2.6906   -2.1160    0.4090 H   0  0  0  0  0  0  0  0  0  0  0  0
   -2.5986   -2.2980   -1.3650 H   0  0  0  0  0  0  0  0  0  0  0  0
   -0.7756   -1.6630   -0.4350 C   0  0  0  0  0  0  0  0  0  0  0  0
    0.2844   -2.2800   -0.4550 O   0  0  0  0  0  0  0  0  0  0  0  0
   -0.8246   -0.3180   -0.4350 N   0  0  0  0  0  0  0  0  0  0  0  0
   -2.0106    0.5080   -0.5910 C   0  0  0  0  0  0  0  0  0  0  0  0
   -2.1735    1.4152   -0.0069 H   0  0  0  0  0  0  0  0  0  0  0  0
   -2.9337    0.2014   -1.0816 H   0  0  0  0  0  0  0  0  0  0  0  0
   -0.9212    0.7479   -1.6341 C   0  0  0  0  0  0  0  0  0  0  0  0
   -1.5459    1.5420   -2.0459 H   0  0  0  0  0  0  0  0  0  0  0  0
   -1.1799   -0.2161   -2.0734 H   0  0  0  0  0  0  0  0  0  0  0  0
    0.5675    1.0278   -1.8400 C   0  0  0  0  0  0  0  0  0  0  0  0
    0.9452    2.0522   -1.8362 H   0  0  0  0  0  0  0  0  0  0  0  0
    1.2377    0.3817   -2.4067 H   0  0  0  0  0  0  0  0  0  0  0  0
    0.3724    0.5200   -0.4020 C   0  0  1  0  0  0  0  0  0  0  0  0
    1.2226   -0.1060   -0.1299 H   0  0  0  0  0  0  0  0  0  0  0  0
    0.2441    1.6770    0.6029 C   0  0  0  0  0  0  0  0  0  0  0  0
   -0.4739    1.5651    1.5945 O   0  0  0  0  0  0  0  0  0  0  0  0
    0.9118    2.8027    0.3223 N   0  0  0  0  0  0  0  0  0  0  0  0
    1.5253    2.7960   -0.4767 H   0  0  0  0  0  0  0  0  0  0  0  0
    0.8911    3.9955    1.1657 C   0  0  0  0  0  0  0  0  0  0  0  0
    1.3544    3.7690    2.1284 H   0  0  0  0  0  0  0  0  0  0  0  0
    1.4359    4.8087    0.6852 H   0  0  0  0  0  0  0  0  0  0  0  0
   -0.1412    4.3053    1.3425 H   0  0  0  0  0  0  0  0  0  0  0  0
  5  6  2  0  0  0  0
  5  7  1  0  0  0  0
  2  3  1  0  0  0  0
  2  4  1  0  0  0  0
  2  5  1  0  0  0  0
  1  2  1  0  0  0  0
 19 20  2  0  0  0  0
 19 21  1  0  0  0  0
 17 18  1  0  0  0  0
 17 19  1  0  0  0  0
 14 15  1  0  0  0  0
 14 16  1  0  0  0  0
 14 17  1  0  0  0  0
 11 12  1  0  0  0  0
 11 13  1  0  0  0  0
 11 14  1  0  0  0  0
  8  9  1  0  0  0  0
  8 10  1  0  0  0  0
  8 11  1  0  0  0  0
  7  8  1  0  0  0  0
  7 17  1  0  0  0  0
 23 24  1  0  0  0  0
 23 25  1  0  0  0  0
 23 26  1  0  0  0  0
 21 22  1  0  0  0  0
 21 23  1  0  0  0  0
M  END
$$$$
default_name
  -OEChem-11182114113D

 26 26  0     1  0  0  0  0  0999 V2000
   -1.8446   -3.5060   -0.3010 H   0  0  0  0  0  0  0  0  0  0  0  0
   -2.0746   -2.4490   -0.4240 C   0  0  0  0  0  0  0  0  0  0  0  0
   -2.6906   -2.1160    0.4090 H   0  0  0  0  0  0  0  0  0  0  0  0
   -2.5986   -2.2980   -1.3650 H   0  0  0  0  0  0  0  0  0  0  0  0
   -0.7756   -1.6630   -0.4350 C   0  0  0  0  0  0  0  0  0  0  0  0
    0.2844   -2.2800   -0.4550 O   0  0  0  0  0  0  0  0  0  0  0  0
   -0.8246   -0.3180   -0.4350 N   0  0  0  0  0  0  0  0  0  0  0  0
   -2.0106    0.5080   -0.5910 C   0  0  0  0  0  0  0  0  0  0  0  0
   -2.1735    1.4152   -0.0069 H   0  0  0  0  0  0  0  0  0  0  0  0
   -2.9337    0.2014   -1.0816 H   0  0  0  0  0  0  0  0  0  0  0  0
   -0.9212    0.7479   -1.6341 C   0  0  0  0  0  0  0  0  0  0  0  0
   -1.5459    1.5420   -2.0459 H   0  0  0  0  0  0  0  0  0  0  0  0
   -1.1799   -0.2161   -2.0734 H   0  0  0  0  0  0  0  0  0  0  0  0
    0.5675    1.0278   -1.8400 C   0  0  0  0  0  0  0  0  0  0  0  0
    0.9452    2.0522   -1.8362 H   0  0  0  0  0  0  0  0  0  0  0  0
    1.2377    0.3817   -2.4067 H   0  0  0  0  0  0  0  0  0  0  0  0
    0.3724    0.5200   -0.4020 C   0  0  1  0  0  0  0  0  0  0  0  0
    1.2226   -0.1060   -0.1299 H   0  0  0  0  0  0  0  0  0  0  0  0
    0.2441    1.6770    0.6029 C   0  0  0  0  0  0  0  0  0  0  0  0
   -0.2392    1.4849    1.7168 O   0  0  0  0  0  0  0  0  0  0  0  0
    0.6423    2.8868    0.1911 N   0  0  0  0  0  0  0  0  0  0  0  0
    1.0821    2.9520   -0.7129 H   0  0  0  0  0  0  0  0  0  0  0  0
    0.5807    4.0908    1.0163 C   0  0  0  0  0  0  0  0  0  0  0  0
    1.2528    3.9819    1.8702 H   0  0  0  0  0  0  0  0  0  0  0  0
    0.8751    4.9646    0.4341 H   0  0  0  0  0  0  0  0  0  0  0  0
   -0.4356    4.2305    1.3911 H   0  0  0  0  0  0  0  0  0  0  0  0
  5  6  2  0  0  0  0
  5  7  1  0  0  0  0
  2  3  1  0  0  0  0
  2  4  1  0  0  0  0
  2  5  1  0  0  0  0
  1  2  1  0  0  0  0
 19 20  2  0  0  0  0
 19 21  1  0  0  0  0
 17 18  1  0  0  0  0
 17 19  1  0  0  0  0
 14 15  1  0  0  0  0
 14 16  1  0  0  0  0
 14 17  1  0  0  0  0
 11 12  1  0  0  0  0
 11 13  1  0  0  0  0
 11 14  1  0  0  0  0
  8  9  1  0  0  0  0
  8 10  1  0  0  0  0
  8 11  1  0  0  0  0
  7  8  1  0  0  0  0
  7 17  1  0  0  0  0
 23 24  1  0  0  0  0
 23 25  1  0  0  0  0
 23 26  1  0  0  0  0
 21 22  1  0  0  0  0
 21 23  1  0  0  0  0
M  END
$$$$
default_name
  -OEChem-11182114113D

 26 26  0     1  0  0  0  0  0999 V2000
   -1.8446   -3.5060   -0.3010 H   0  0  0  0  0  0  0  0  0  0  0  0
   -2.0746   -2.4490   -0.4240 C   0  0  0  0  0  0  0  0  0  0  0  0
   -2.6906   -2.1160    0.4090 H   0  0  0  0  0  0  0  0  0  0  0  0
   -2.5986   -2.2980   -1.3650 H   0  0  0  0  0  0  0  0  0  0  0  0
   -0.7756   -1.6630   -0.4350 C   0  0  0  0  0  0  0  0  0  0  0  0
    0.2844   -2.2800   -0.4550 O   0  0  0  0  0  0  0  0  0  0  0  0
   -0.8246   -0.3180   -0.4350 N   0  0  0  0  0  0  0  0  0  0  0  0
   -2.0106    0.5080   -0.5910 C   0  0  0  0  0  0  0  0  0  0  0  0
   -2.1735    1.4152   -0.0069 H   0  0  0  0  0  0  0  0  0  0  0  0
   -2.9337    0.2014   -1.0816 H   0  0  0  0  0  0  0  0  0  0  0  0
   -0.9212    0.7479   -1.6341 C   0  0  0  0  0  0  0  0  0  0  0  0
   -1.5459    1.5420   -2.0459 H   0  0  0  0  0  0  0  0  0  0  0  0
   -1.1799   -0.2161   -2.0734 H   0  0  0  0  0  0  0  0  0  0  0  0
    0.5675    1.0278   -1.8400 C   0  0  0  0  0  0  0  0  0  0  0  0
    0.9452    2.0522   -1.8362 H   0  0  0  0  0  0  0  0  0  0  0  0
    1.2377    0.3817   -2.4067 H   0  0  0  0  0  0  0  0  0  0  0  0
    0.3724    0.5200   -0.4020 C   0  0  1  0  0  0  0  0  0  0  0  0
    1.2226   -0.1060   -0.1299 H   0  0  0  0  0  0  0  0  0  0  0  0
    0.2441    1.6770    0.6029 C   0  0  0  0  0  0  0  0  0  0  0  0
    0.0249    1.4497    1.7910 O   0  0  0  0  0  0  0  0  0  0  0  0
    0.3422    2.9196    0.1150 N   0  0  0  0  0  0  0  0  0  0  0  0
    0.5816    3.0226   -0.8581 H   0  0  0  0  0  0  0  0  0  0  0  0
    0.2357    4.1272    0.9304 C   0  0  0  0  0  0  0  0  0  0  0  0
    1.0684    4.1649    1.6360 H   0  0  0  0  0  0  0  0  0  0  0  0
    0.2582    5.0149    0.2974 H   0  0  0  0  0  0  0  0  0  0  0  0
   -0.6979    4.1095    1.4969 H   0  0  0  0  0  0  0  0  0  0  0  0
  5  6  2  0  0  0  0
  5  7  1  0  0  0  0
  2  3  1  0  0  0  0
  2  4  1  0  0  0  0
  2  5  1  0  0  0  0
  1  2  1  0  0  0  0
 19 20  2  0  0  0  0
 19 21  1  0  0  0  0
 17 18  1  0  0  0  0
 17 19  1  0  0  0  0
 14 15  1  0  0  0  0
 14 16  1  0  0  0  0
 14 17  1  0  0  0  0
 11 12  1  0  0  0  0
 11 13  1  0  0  0  0
 11 14  1  0  0  0  0
  8  9  1  0  0  0  0
  8 10  1  0  0  0  0
  8 11  1  0  0  0  0
  7  8  1  0  0  0  0
  7 17  1  0  0  0  0
 23 24  1  0  0  0  0
 23 25  1  0  0  0  0
 23 26  1  0  0  0  0
 21 22  1  0  0  0  0
 21 23  1  0  0  0  0
M  END
$$$$
default_name
  -OEChem-11182114113D

 26 26  0     1  0  0  0  0  0999 V2000
   -1.8446   -3.5060   -0.3010 H   0  0  0  0  0  0  0  0  0  0  0  0
   -2.0746   -2.4490   -0.4240 C   0  0  0  0  0  0  0  0  0  0  0  0
   -2.6906   -2.1160    0.4090 H   0  0  0  0  0  0  0  0  0  0  0  0
   -2.5986   -2.2980   -1.3650 H   0  0  0  0  0  0  0  0  0  0  0  0
   -0.7756   -1.6630   -0.4350 C   0  0  0  0  0  0  0  0  0  0  0  0
    0.2844   -2.2800   -0.4550 O   0  0  0  0  0  0  0  0  0  0  0  0
   -0.8246   -0.3180   -0.4350 N   0  0  0  0  0  0  0  0  0  0  0  0
   -2.0106    0.5080   -0.5910 C   0  0  0  0  0  0  0  0  0  0  0  0
   -2.1735    1.4152   -0.0069 H   0  0  0  0  0  0  0  0  0  0  0  0
   -2.9337    0.2014   -1.0816 H   0  0  0  0  0  0  0  0  0  0  0  0
   -0.9212    0.7479   -1.6341 C   0  0  0  0  0  0  0  0  0  0  0  0
   -1.5459    1.5420   -2.0459 H   0  0  0  0  0  0  0  0  0  0  0  0
   -1.1799   -0.2161   -2.0734 H   0  0  0  0  0  0  0  0  0  0  0  0
    0.5675    1.0278   -1.8400 C   0  0  0  0  0  0  0  0  0  0  0  0
    0.9452    2.0522   -1.8362 H   0  0  0  0  0  0  0  0  0  0  0  0
    1.2377    0.3817   -2.4067 H   0  0  0  0  0  0  0  0  0  0  0  0
    0.3724    0.5200   -0.4020 C   0  0  1  0  0  0  0  0  0  0  0  0
    1.2226   -0.1060   -0.1299 H   0  0  0  0  0  0  0  0  0  0  0  0
    0.2441    1.6770    0.6029 C   0  0  0  0  0  0  0  0  0  0  0  0
    0.3004    1.4620    1.8120 O   0  0  0  0  0  0  0  0  0  0  0  0
    0.0319    2.8989    0.0992 N   0  0  0  0  0  0  0  0  0  0  0  0
    0.0579    3.0030   -0.9025 H   0  0  0  0  0  0  0  0  0  0  0  0
   -0.1205    4.1021    0.9138 C   0  0  0  0  0  0  0  0  0  0  0  0
    0.8137    4.3053    1.4417 H   0  0  0  0  0  0  0  0  0  0  0  0
   -0.3728    4.9561    0.2844 H   0  0  0  0  0  0  0  0  0  0  0  0
   -0.9102    3.9505    1.6529 H   0  0  0  0  0  0  0  0  0  0  0  0
  5  6  2  0  0  0  0
  5  7  1  0  0  0  0
  2  3  1  0  0  0  0
  2  4  1  0  0  0  0
  2  5  1  0  0  0  0
  1  2  1  0  0  0  0
 19 20  2  0  0  0  0
 19 21  1  0  0  0  0
 17 18  1  0  0  0  0
 17 19  1  0  0  0  0
 14 15  1  0  0  0  0
 14 16  1  0  0  0  0
 14 17  1  0  0  0  0
 11 12  1  0  0  0  0
 11 13  1  0  0  0  0
 11 14  1  0  0  0  0
  8  9  1  0  0  0  0
  8 10  1  0  0  0  0
  8 11  1  0  0  0  0
  7  8  1  0  0  0  0
  7 17  1  0  0  0  0
 23 24  1  0  0  0  0
 23 25  1  0  0  0  0
 23 26  1  0  0  0  0
 21 22  1  0  0  0  0
 21 23  1  0  0  0  0
M  END
$$$$
default_name
  -OEChem-11182114113D

 26 26  0     1  0  0  0  0  0999 V2000
   -1.8446   -3.5060   -0.3010 H   0  0  0  0  0  0  0  0  0  0  0  0
   -2.0746   -2.4490   -0.4240 C   0  0  0  0  0  0  0  0  0  0  0  0
   -2.6906   -2.1160    0.4090 H   0  0  0  0  0  0  0  0  0  0  0  0
   -2.5986   -2.2980   -1.3650 H   0  0  0  0  0  0  0  0  0  0  0  0
   -0.7756   -1.6630   -0.4350 C   0  0  0  0  0  0  0  0  0  0  0  0
    0.2844   -2.2800   -0.4550 O   0  0  0  0  0  0  0  0  0  0  0  0
   -0.8246   -0.3180   -0.4350 N   0  0  0  0  0  0  0  0  0  0  0  0
   -2.0106    0.5080   -0.5910 C   0  0  0  0  0  0  0  0  0  0  0  0
   -2.1735    1.4152   -0.0069 H   0  0  0  0  0  0  0  0  0  0  0  0
   -2.9337    0.2014   -1.0816 H   0  0  0  0  0  0  0  0  0  0  0  0
   -0.9212    0.7479   -1.6341 C   0  0  0  0  0  0  0  0  0  0  0  0
   -1.5459    1.5420   -2.0459 H   0  0  0  0  0  0  0  0  0  0  0  0
   -1.1799   -0.2161   -2.0734 H   0  0  0  0  0  0  0  0  0  0  0  0
    0.5675    1.0278   -1.8400 C   0  0  0  0  0  0  0  0  0  0  0  0
    0.9452    2.0522   -1.8362 H   0  0  0  0  0  0  0  0  0  0  0  0
    1.2377    0.3817   -2.4067 H   0  0  0  0  0  0  0  0  0  0  0  0
    0.3724    0.5200   -0.4020 C   0  0  1  0  0  0  0  0  0  0  0  0
    1.2226   -0.1060   -0.1299 H   0  0  0  0  0  0  0  0  0  0  0  0
    0.2441    1.6770    0.6029 C   0  0  0  0  0  0  0  0  0  0  0  0
    0.5685    1.5210    1.7784 O   0  0  0  0  0  0  0  0  0  0  0  0
   -0.2673    2.8261    0.1448 N   0  0  0  0  0  0  0  0  0  0  0  0
   -0.4532    2.8946   -0.8429 H   0  0  0  0  0  0  0  0  0  0  0  0
   -0.4635    4.0173    0.9676 C   0  0  0  0  0  0  0  0  0  0  0  0
    0.5061    4.3937    1.3006 H   0  0  0  0  0  0  0  0  0  0  0  0
   -0.9750    4.7924    0.3961 H   0  0  0  0  0  0  0  0  0  0  0  0
   -1.0580    3.7644    1.8483 H   0  0  0  0  0  0  0  0  0  0  0  0
  5  6  2  0  0  0  0
  5  7  1  0  0  0  0
  2  3  1  0  0  0  0
  2  4  1  0  0  0  0
  2  5  1  0  0  0  0
  1  2  1  0  0  0  0
 19 20  2  0  0  0  0
 19 21  1  0  0  0  0
 17 18  1  0  0  0  0
 17 19  1  0  0  0  0
 14 15  1  0  0  0  0
 14 16  1  0  0  0  0
 14 17  1  0  0  0  0
 11 12  1  0  0  0  0
 11 13  1  0  0  0  0
 11 14  1  0  0  0  0
  8  9  1  0  0  0  0
  8 10  1  0  0  0  0
  8 11  1  0  0  0  0
  7  8  1  0  0  0  0
  7 17  1  0  0  0  0
 23 24  1  0  0  0  0
 23 25  1  0  0  0  0
 23 26  1  0  0  0  0
 21 22  1  0  0  0  0
 21 23  1  0  0  0  0
M  END
$$$$
default_name
  -OEChem-11182114113D

 26 26  0     1  0  0  0  0  0999 V2000
   -1.8446   -3.5060   -0.3010 H   0  0  0  0  0  0  0  0  0  0  0  0
   -2.0746   -2.4490   -0.4240 C   0  0  0  0  0  0  0  0  0  0  0  0
   -2.6906   -2.1160    0.4090 H   0  0  0  0  0  0  0  0  0  0  0  0
   -2.5986   -2.2980   -1.3650 H   0  0  0  0  0  0  0  0  0  0  0  0
   -0.7756   -1.6630   -0.4350 C   0  0  0  0  0  0  0  0  0  0  0  0
    0.2844   -2.2800   -0.4550 O   0  0  0  0  0  0  0  0  0  0  0  0
   -0.8246   -0.3180   -0.4350 N   0  0  0  0  0  0  0  0  0  0  0  0
   -2.0106    0.5080   -0.5910 C   0  0  0  0  0  0  0  0  0  0  0  0
   -2.1735    1.4152   -0.0069 H   0  0  0  0  0  0  0  0  0  0  0  0
   -2.9337    0.2014   -1.0816 H   0  0  0  0  0  0  0  0  0  0  0  0
   -0.9212    0.7479   -1.6341 C   0  0  0  0  0  0  0  0  0  0  0  0
   -1.5459    1.5420   -2.0459 H   0  0  0  0  0  0  0  0  0  0  0  0
   -1.1799   -0.2161   -2.0734 H   0  0  0  0  0  0  0  0  0  0  0  0
    0.5675    1.0278   -1.8400 C   0  0  0  0  0  0  0  0  0  0  0  0
    0.9452    2.0522   -1.8362 H   0  0  0  0  0  0  0  0  0  0  0  0
    1.2377    0.3817   -2.4067 H   0  0  0  0  0  0  0  0  0  0  0  0
    0.3724    0.5200   -0.4020 C   0  0  1  0  0  0  0  0  0  0  0  0
    1.2226   -0.1060   -0.1299 H   0  0  0  0  0  0  0  0  0  0  0  0
    0.2441    1.6770    0.6029 C   0  0  0  0  0  0  0  0  0  0  0  0
    0.8110    1.6225    1.6924 O   0  0  0  0  0  0  0  0  0  0  0  0
   -0.5351    2.7061    0.2487 N   0  0  0  0  0  0  0  0  0  0  0  0
   -0.9170    2.7047   -0.6835 H   0  0  0  0  0  0  0  0  0  0  0  0
   -0.7700    3.8785    1.0883 C   0  0  0  0  0  0  0  0  0  0  0  0
    0.1665    4.4241    1.2224 H   0  0  0  0  0  0  0  0  0  0  0  0
   -1.5071    4.5349    0.6247 H   0  0  0  0  0  0  0  0  0  0  0  0
   -1.1312    3.5639    2.0698 H   0  0  0  0  0  0  0  0  0  0  0  0
  5  6  2  0  0  0  0
  5  7  1  0  0  0  0
  2  3  1  0  0  0  0
  2  4  1  0  0  0  0
  2  5  1  0  0  0  0
  1  2  1  0  0  0  0
 19 20  2  0  0  0  0
 19 21  1  0  0  0  0
 17 18  1  0  0  0  0
 17 19  1  0  0  0  0
 14 15  1  0  0  0  0
 14 16  1  0  0  0  0
 14 17  1  0  0  0  0
 11 12  1  0  0  0  0
 11 13  1  0  0  0  0
 11 14  1  0  0  0  0
  8  9  1  0  0  0  0
  8 10  1  0  0  0  0
  8 11  1  0  0  0  0
  7  8  1  0  0  0  0
  7 17  1  0  0  0  0
 23 24  1  0  0  0  0
 23 25  1  0  0  0  0
 23 26  1  0  0  0  0
 21 22  1  0  0  0  0
 21 23  1  0  0  0  0
M  END
$$$$
default_name
  -OEChem-11182114113D

 26 26  0     1  0  0  0  0  0999 V2000
   -1.8446   -3.5060   -0.3010 H   0  0  0  0  0  0  0  0  0  0  0  0
   -2.0746   -2.4490   -0.4240 C   0  0  0  0  0  0  0  0  0  0  0  0
   -2.6906   -2.1160    0.4090 H   0  0  0  0  0  0  0  0  0  0  0  0
   -2.5986   -2.2980   -1.3650 H   0  0  0  0  0  0  0  0  0  0  0  0
   -0.7756   -1.6630   -0.4350 C   0  0  0  0  0  0  0  0  0  0  0  0
    0.2844   -2.2800   -0.4550 O   0  0  0  0  0  0  0  0  0  0  0  0
   -0.8246   -0.3180   -0.4350 N   0  0  0  0  0  0  0  0  0  0  0  0
   -2.0106    0.5080   -0.5910 C   0  0  0  0  0  0  0  0  0  0  0  0
   -2.1735    1.4152   -0.0069 H   0  0  0  0  0  0  0  0  0  0  0  0
   -2.9337    0.2014   -1.0816 H   0  0  0  0  0  0  0  0  0  0  0  0
   -0.9212    0.7479   -1.6341 C   0  0  0  0  0  0  0  0  0  0  0  0
   -1.5459    1.5420   -2.0459 H   0  0  0  0  0  0  0  0  0  0  0  0
   -1.1799   -0.2161   -2.0734 H   0  0  0  0  0  0  0  0  0  0  0  0
    0.5675    1.0278   -1.8400 C   0  0  0  0  0  0  0  0  0  0  0  0
    0.9452    2.0522   -1.8362 H   0  0  0  0  0  0  0  0  0  0  0  0
    1.2377    0.3817   -2.4067 H   0  0  0  0  0  0  0  0  0  0  0  0
    0.3724    0.5200   -0.4020 C   0  0  1  0  0  0  0  0  0  0  0  0
    1.2226   -0.1060   -0.1299 H   0  0  0  0  0  0  0  0  0  0  0  0
    0.2441    1.6770    0.6029 C   0  0  0  0  0  0  0  0  0  0  0  0
    1.0113    1.7598    1.5600 O   0  0  0  0  0  0  0  0  0  0  0  0
   -0.7533    2.5472    0.4039 N   0  0  0  0  0  0  0  0  0  0  0  0
   -1.3018    2.4463   -0.4351 H   0  0  0  0  0  0  0  0  0  0  0  0
   -1.0191    3.6952    1.2675 C   0  0  0  0  0  0  0  0  0  0  0  0
   -0.1819    4.3942    1.2122 H   0  0  0  0  0  0  0  0  0  0  0  0
   -1.9331    4.2010    0.9547 H   0  0  0  0  0  0  0  0  0  0  0  0
   -1.1249    3.3626    2.3024 H   0  0  0  0  0  0  0  0  0  0  0  0
  5  6  2  0  0  0  0
  5  7  1  0  0  0  0
  2  3  1  0  0  0  0
  2  4  1  0  0  0  0
  2  5  1  0  0  0  0
  1  2  1  0  0  0  0
 19 20  2  0  0  0  0
 19 21  1  0  0  0  0
 17 18  1  0  0  0  0
 17 19  1  0  0  0  0
 14 15  1  0  0  0  0
 14 16  1  0  0  0  0
 14 17  1  0  0  0  0
 11 12  1  0  0  0  0
 11 13  1  0  0  0  0
 11 14  1  0  0  0  0
  8  9  1  0  0  0  0
  8 10  1  0  0  0  0
  8 11  1  0  0  0  0
  7  8  1  0  0  0  0
  7 17  1  0  0  0  0
 23 24  1  0  0  0  0
 23 25  1  0  0  0  0
 23 26  1  0  0  0  0
 21 22  1  0  0  0  0
 21 23  1  0  0  0  0
M  END
$$$$
default_name
  -OEChem-11182114113D

 26 26  0     1  0  0  0  0  0999 V2000
   -1.8446   -3.5060   -0.3010 H   0  0  0  0  0  0  0  0  0  0  0  0
   -2.0746   -2.4490   -0.4240 C   0  0  0  0  0  0  0  0  0  0  0  0
   -2.6906   -2.1160    0.4090 H   0  0  0  0  0  0  0  0  0  0  0  0
   -2.5986   -2.2980   -1.3650 H   0  0  0  0  0  0  0  0  0  0  0  0
   -0.7756   -1.6630   -0.4350 C   0  0  0  0  0  0  0  0  0  0  0  0
    0.2844   -2.2800   -0.4550 O   0  0  0  0  0  0  0  0  0  0  0  0
   -0.8246   -0.3180   -0.4350 N   0  0  0  0  0  0  0  0  0  0  0  0
   -2.0106    0.5080   -0.5910 C   0  0  0  0  0  0  0  0  0  0  0  0
   -2.1735    1.4152   -0.0069 H   0  0  0  0  0  0  0  0  0  0  0  0
   -2.9337    0.2014   -1.0816 H   0  0  0  0  0  0  0  0  0  0  0  0
   -0.9212    0.7479   -1.6341 C   0  0  0  0  0  0  0  0  0  0  0  0
   -1.5459    1.5420   -2.0459 H   0  0  0  0  0  0  0  0  0  0  0  0
   -1.1799   -0.2161   -2.0734 H   0  0  0  0  0  0  0  0  0  0  0  0
    0.5675    1.0278   -1.8400 C   0  0  0  0  0  0  0  0  0  0  0  0
    0.9452    2.0522   -1.8362 H   0  0  0  0  0  0  0  0  0  0  0  0
    1.2377    0.3817   -2.4067 H   0  0  0  0  0  0  0  0  0  0  0  0
    0.3724    0.5200   -0.4020 C   0  0  1  0  0  0  0  0  0  0  0  0
    1.2226   -0.1060   -0.1299 H   0  0  0  0  0  0  0  0  0  0  0  0
    0.2441    1.6770    0.6029 C   0  0  0  0  0  0  0  0  0  0  0  0
    1.1557    1.9233    1.3901 O   0  0  0  0  0  0  0  0  0  0  0  0
   -0.9070    2.3602    0.5996 N   0  0  0  0  0  0  0  0  0  0  0  0
   -1.5814    2.1370   -0.1147 H   0  0  0  0  0  0  0  0  0  0  0  0
   -1.1938    3.4799    1.4931 C   0  0  0  0  0  0  0  0  0  0  0  0
   -0.5153    4.3063    1.2709 H   0  0  0  0  0  0  0  0  0  0  0  0
   -2.2239    3.8136    1.3636 H   0  0  0  0  0  0  0  0  0  0  0  0
   -1.0394    3.1742    2.5302 H   0  0  0  0  0  0  0  0  0  0  0  0
  5  6  2  0  0  0  0
  5  7  1  0  0  0  0
  2  3  1  0  0  0  0
  2  4  1  0  0  0  0
  2  5  1  0  0  0  0
  1  2  1  0  0  0  0
 19 20  2  0  0  0  0
 19 21  1  0  0  0  0
 17 18  1  0  0  0  0
 17 19  1  0  0  0  0
 14 15  1  0  0  0  0
 14 16  1  0  0  0  0
 14 17  1  0  0  0  0
 11 12  1  0  0  0  0
 11 13  1  0  0  0  0
 11 14  1  0  0  0  0
  8  9  1  0  0  0  0
  8 10  1  0  0  0  0
  8 11  1  0  0  0  0
  7  8  1  0  0  0  0
  7 17  1  0  0  0  0
 23 24  1  0  0  0  0
 23 25  1  0  0  0  0
 23 26  1  0  0  0  0
 21 22  1  0  0  0  0
 21 23  1  0  0  0  0
M  END
$$$$
default_name
  -OEChem-11182114113D

 26 26  0     1  0  0  0  0  0999 V2000
   -1.8446   -3.5060   -0.3010 H   0  0  0  0  0  0  0  0  0  0  0  0
   -2.0746   -2.4490   -0.4240 C   0  0  0  0  0  0  0  0  0  0  0  0
   -2.6906   -2.1160    0.4090 H   0  0  0  0  0  0  0  0  0  0  0  0
   -2.5986   -2.2980   -1.3650 H   0  0  0  0  0  0  0  0  0  0  0  0
   -0.7756   -1.6630   -0.4350 C   0  0  0  0  0  0  0  0  0  0  0  0
    0.2844   -2.2800   -0.4550 O   0  0  0  0  0  0  0  0  0  0  0  0
   -0.8246   -0.3180   -0.4350 N   0  0  0  0  0  0  0  0  0  0  0  0
   -2.0106    0.5080   -0.5910 C   0  0  0  0  0  0  0  0  0  0  0  0
   -2.1735    1.4152   -0.0069 H   0  0  0  0  0  0  0  0  0  0  0  0
   -2.9337    0.2014   -1.0816 H   0  0  0  0  0  0  0  0  0  0  0  0
   -0.9212    0.7479   -1.6341 C   0  0  0  0  0  0  0  0  0  0  0  0
   -1.5459    1.5420   -2.0459 H   0  0  0  0  0  0  0  0  0  0  0  0
   -1.1799   -0.2161   -2.0734 H   0  0  0  0  0  0  0  0  0  0  0  0
    0.5675    1.0278   -1.8400 C   0  0  0  0  0  0  0  0  0  0  0  0
    0.9452    2.0522   -1.8362 H   0  0  0  0  0  0  0  0  0  0  0  0
    1.2377    0.3817   -2.4067 H   0  0  0  0  0  0  0  0  0  0  0  0
    0.3724    0.5200   -0.4020 C   0  0  1  0  0  0  0  0  0  0  0  0
    1.2226   -0.1060   -0.1299 H   0  0  0  0  0  0  0  0  0  0  0  0
    0.2441    1.6770    0.6029 C   0  0  0  0  0  0  0  0  0  0  0  0
    1.2345    2.1021    1.1943 O   0  0  0  0  0  0  0  0  0  0  0  0
   -0.9856    2.1577    0.8226 N   0  0  0  0  0  0  0  0  0  0  0  0
   -1.7368    1.7978    0.2560 H   0  0  0  0  0  0  0  0  0  0  0  0
   -1.2822    3.2473    1.7497 C   0  0  0  0  0  0  0  0  0  0  0  0
   -0.8110    4.1662    1.3944 H   0  0  0  0  0  0  0  0  0  0  0  0
   -2.3596    3.3991    1.8236 H   0  0  0  0  0  0  0  0  0  0  0  0
   -0.8807    3.0117    2.7376 H   0  0  0  0  0  0  0  0  0  0  0  0
  5  6  2  0  0  0  0
  5  7  1  0  0  0  0
  2  3  1  0  0  0  0
  2  4  1  0  0  0  0
  2  5  1  0  0  0  0
  1  2  1  0  0  0  0
 19 20  2  0  0  0  0
 19 21  1  0  0  0  0
 17 18  1  0  0  0  0
 17 19  1  0  0  0  0
 14 15  1  0  0  0  0
 14 16  1  0  0  0  0
 14 17  1  0  0  0  0
 11 12  1  0  0  0  0
 11 13  1  0  0  0  0
 11 14  1  0  0  0  0
  8  9  1  0  0  0  0
  8 10  1  0  0  0  0
  8 11  1  0  0  0  0
  7  8  1  0  0  0  0
  7 17  1  0  0  0  0
 23 24  1  0  0  0  0
 23 25  1  0  0  0  0
 23 26  1  0  0  0  0
 21 22  1  0  0  0  0
 21 23  1  0  0  0  0
M  END
$$$$
default_name
  -OEChem-11182114113D

 26 26  0     1  0  0  0  0  0999 V2000
   -1.8446   -3.5060   -0.3010 H   0  0  0  0  0  0  0  0  0  0  0  0
   -2.0746   -2.4490   -0.4240 C   0  0  0  0  0  0  0  0  0  0  0  0
   -2.6906   -2.1160    0.4090 H   0  0  0  0  0  0  0  0  0  0  0  0
   -2.5986   -2.2980   -1.3650 H   0  0  0  0  0  0  0  0  0  0  0  0
   -0.7756   -1.6630   -0.4350 C   0  0  0  0  0  0  0  0  0  0  0  0
    0.2844   -2.2800   -0.4550 O   0  0  0  0  0  0  0  0  0  0  0  0
   -0.8246   -0.3180   -0.4350 N   0  0  0  0  0  0  0  0  0  0  0  0
   -2.0106    0.5080   -0.5910 C   0  0  0  0  0  0  0  0  0  0  0  0
   -2.1735    1.4152   -0.0069 H   0  0  0  0  0  0  0  0  0  0  0  0
   -2.9337    0.2014   -1.0816 H   0  0  0  0  0  0  0  0  0  0  0  0
   -0.9212    0.7479   -1.6341 C   0  0  0  0  0  0  0  0  0  0  0  0
   -1.5459    1.5420   -2.0459 H   0  0  0  0  0  0  0  0  0  0  0  0
   -1.1799   -0.2161   -2.0734 H   0  0  0  0  0  0  0  0  0  0  0  0
    0.5675    1.0278   -1.8400 C   0  0  0  0  0  0  0  0  0  0  0  0
    0.9452    2.0522   -1.8362 H   0  0  0  0  0  0  0  0  0  0  0  0
    1.2377    0.3817   -2.4067 H   0  0  0  0  0  0  0  0  0  0  0  0
    0.3724    0.5200   -0.4020 C   0  0  1  0  0  0  0  0  0  0  0  0
    1.2226   -0.1060   -0.1299 H   0  0  0  0  0  0  0  0  0  0  0  0
    0.2441    1.6770    0.6029 C   0  0  0  0  0  0  0  0  0  0  0  0
    1.2423    2.2839    0.9860 O   0  0  0  0  0  0  0  0  0  0  0  0
   -0.9840    1.9537    1.0578 N   0  0  0  0  0  0  0  0  0  0  0  0
   -1.7574    1.4520    0.6516 H   0  0  0  0  0  0  0  0  0  0  0  0
   -1.2783    3.0132    2.0197 C   0  0  0  0  0  0  0  0  0  0  0  0
   -1.0490    3.9836    1.5743 H   0  0  0  0  0  0  0  0  0  0  0  0
   -2.3309    2.9857    2.3032 H   0  0  0  0  0  0  0  0  0  0  0  0
   -0.6595    2.8860    2.9106 H   0  0  0  0  0  0  0  0  0  0  0  0
  5  6  2  0  0  0  0
  5  7  1  0  0  0  0
  2  3  1  0  0  0  0
  2  4  1  0  0  0  0
  2  5  1  0  0  0  0
  1  2  1  0  0  0  0
 19 20  2  0  0  0  0
 19 21  1  0  0  0  0
 17 18  1  0  0  0  0
 17 19  1  0  0  0  0
 14 15  1  0  0  0  0
 14 16  1  0  0  0  0
 14 17  1  0  0  0  0
 11 12  1  0  0  0  0
 11 13  1  0  0  0  0
 11 14  1  0  0  0  0
  8  9  1  0  0  0  0
  8 10  1  0  0  0  0
  8 11  1  0  0  0  0
  7  8  1  0  0  0  0
  7 17  1  0  0  0  0
 23 24  1  0  0  0  0
 23 25  1  0  0  0  0
 23 26  1  0  0  0  0
 21 22  1  0  0  0  0
 21 23  1  0  0  0  0
M  END
$$$$
default_name
  -OEChem-11182114113D

 26 26  0     1  0  0  0  0  0999 V2000
   -1.8446   -3.5060   -0.3010 H   0  0  0  0  0  0  0  0  0  0  0  0
   -2.0746   -2.4490   -0.4240 C   0  0  0  0  0  0  0  0  0  0  0  0
   -2.6906   -2.1160    0.4090 H   0  0  0  0  0  0  0  0  0  0  0  0
   -2.5986   -2.2980   -1.3650 H   0  0  0  0  0  0  0  0  0  0  0  0
   -0.7756   -1.6630   -0.4350 C   0  0  0  0  0  0  0  0  0  0  0  0
    0.2844   -2.2800   -0.4550 O   0  0  0  0  0  0  0  0  0  0  0  0
   -0.8246   -0.3180   -0.4350 N   0  0  0  0  0  0  0  0  0  0  0  0
   -2.0106    0.5080   -0.5910 C   0  0  0  0  0  0  0  0  0  0  0  0
   -2.1735    1.4152   -0.0069 H   0  0  0  0  0  0  0  0  0  0  0  0
   -2.9337    0.2014   -1.0816 H   0  0  0  0  0  0  0  0  0  0  0  0
   -0.9212    0.7479   -1.6341 C   0  0  0  0  0  0  0  0  0  0  0  0
   -1.5459    1.5420   -2.0459 H   0  0  0  0  0  0  0  0  0  0  0  0
   -1.1799   -0.2161   -2.0734 H   0  0  0  0  0  0  0  0  0  0  0  0
    0.5675    1.0278   -1.8400 C   0  0  0  0  0  0  0  0  0  0  0  0
    0.9452    2.0522   -1.8362 H   0  0  0  0  0  0  0  0  0  0  0  0
    1.2377    0.3817   -2.4067 H   0  0  0  0  0  0  0  0  0  0  0  0
    0.3724    0.5200   -0.4020 C   0  0  1  0  0  0  0  0  0  0  0  0
    1.2226   -0.1060   -0.1299 H   0  0  0  0  0  0  0  0  0  0  0  0
    0.2441    1.6770    0.6029 C   0  0  0  0  0  0  0  0  0  0  0  0
    1.1785    2.4563    0.7794 O   0  0  0  0  0  0  0  0  0  0  0  0
   -0.9021    1.7620    1.2890 N   0  0  0  0  0  0  0  0  0  0  0  0
   -1.6417    1.1230    1.0452 H   0  0  0  0  0  0  0  0  0  0  0  0
   -1.1824    2.7935    2.2849 C   0  0  0  0  0  0  0  0  0  0  0  0
   -1.2129    3.7708    1.7984 H   0  0  0  0  0  0  0  0  0  0  0  0
   -2.1400    2.6015    2.7699 H   0  0  0  0  0  0  0  0  0  0  0  0
   -0.3908    2.8057    3.0373 H   0  0  0  0  0  0  0  0  0  0  0  0
  5  6  2  0  0  0  0
  5  7  1  0  0  0  0
  2  3  1  0  0  0  0
  2  4  1  0  0  0  0
  2  5  1  0  0  0  0
  1  2  1  0  0  0  0
 19 20  2  0  0  0  0
 19 21  1  0  0  0  0
 17 18  1  0  0  0  0
 17 19  1  0  0  0  0
 14 15  1  0  0  0  0
 14 16  1  0  0  0  0
 14 17  1  0  0  0  0
 11 12  1  0  0  0  0
 11 13  1  0  0  0  0
 11 14  1  0  0  0  0
  8  9  1  0  0  0  0
  8 10  1  0  0  0  0
  8 11  1  0  0  0  0
  7  8  1  0  0  0  0
  7 17  1  0  0  0  0
 23 24  1  0  0  0  0
 23 25  1  0  0  0  0
 23 26  1  0  0  0  0
 21 22  1  0  0  0  0
 21 23  1  0  0  0  0
M  END
$$$$
default_name
  -OEChem-11182114113D

 26 26  0     1  0  0  0  0  0999 V2000
   -1.8446   -3.5060   -0.3010 H   0  0  0  0  0  0  0  0  0  0  0  0
   -2.0746   -2.4490   -0.4240 C   0  0  0  0  0  0  0  0  0  0  0  0
   -2.6906   -2.1160    0.4090 H   0  0  0  0  0  0  0  0  0  0  0  0
   -2.5986   -2.2980   -1.3650 H   0  0  0  0  0  0  0  0  0  0  0  0
   -0.7756   -1.6630   -0.4350 C   0  0  0  0  0  0  0  0  0  0  0  0
    0.2844   -2.2800   -0.4550 O   0  0  0  0  0  0  0  0  0  0  0  0
   -0.8246   -0.3180   -0.4350 N   0  0  0  0  0  0  0  0  0  0  0  0
   -2.0106    0.5080   -0.5910 C   0  0  0  0  0  0  0  0  0  0  0  0
   -2.1735    1.4152   -0.0069 H   0  0  0  0  0  0  0  0  0  0  0  0
   -2.9337    0.2014   -1.0816 H   0  0  0  0  0  0  0  0  0  0  0  0
   -0.9212    0.7479   -1.6341 C   0  0  0  0  0  0  0  0  0  0  0  0
   -1.5459    1.5420   -2.0459 H   0  0  0  0  0  0  0  0  0  0  0  0
   -1.1799   -0.2161   -2.0734 H   0  0  0  0  0  0  0  0  0  0  0  0
    0.5675    1.0278   -1.8400 C   0  0  0  0  0  0  0  0  0  0  0  0
    0.9452    2.0522   -1.8362 H   0  0  0  0  0  0  0  0  0  0  0  0
    1.2377    0.3817   -2.4067 H   0  0  0  0  0  0  0  0  0  0  0  0
    0.3724    0.5200   -0.4020 C   0  0  1  0  0  0  0  0  0  0  0  0
    1.2226   -0.1060   -0.1299 H   0  0  0  0  0  0  0  0  0  0  0  0
    0.2441    1.6770    0.6029 C   0  0  0  0  0  0  0  0  0  0  0  0
    1.0474    2.6075    0.5885 O   0  0  0  0  0  0  0  0  0  0  0  0
   -0.7455    1.5956    1.5005 N   0  0  0  0  0  0  0  0  0  0  0  0
   -1.3977    0.8332    1.4100 H   0  0  0  0  0  0  0  0  0  0  0  0
   -1.0009    2.6033    2.5271 C   0  0  0  0  0  0  0  0  0  0  0  0
   -1.2916    3.5424    2.0513 H   0  0  0  0  0  0  0  0  0  0  0  0
   -1.7997    2.2729    3.1918 H   0  0  0  0  0  0  0  0  0  0  0  0
   -0.0931    2.7763    3.1092 H   0  0  0  0  0  0  0  0  0  0  0  0
  5  6  2  0  0  0  0
  5  7  1  0  0  0  0
  2  3  1  0  0  0  0
  2  4  1  0  0  0  0
  2  5  1  0  0  0  0
  1  2  1  0  0  0  0
 19 20  2  0  0  0  0
 19 21  1  0  0  0  0
 17 18  1  0  0  0  0
 17 19  1  0  0  0  0
 14 15  1  0  0  0  0
 14 16  1  0  0  0  0
 14 17  1  0  0  0  0
 11 12  1  0  0  0  0
 11 13  1  0  0  0  0
 11 14  1  0  0  0  0
  8  9  1  0  0  0  0
  8 10  1  0  0  0  0
  8 11  1  0  0  0  0
  7  8  1  0  0  0  0
  7 17  1  0  0  0  0
 23 24  1  0  0  0  0
 23 25  1  0  0  0  0
 23 26  1  0  0  0  0
 21 22  1  0  0  0  0
 21 23  1  0  0  0  0
M  END
$$$$
default_name
  -OEChem-11182114113D

 26 26  0     1  0  0  0  0  0999 V2000
   -1.8446   -3.5060   -0.3010 H   0  0  0  0  0  0  0  0  0  0  0  0
   -2.0746   -2.4490   -0.4240 C   0  0  0  0  0  0  0  0  0  0  0  0
   -2.6906   -2.1160    0.4090 H   0  0  0  0  0  0  0  0  0  0  0  0
   -2.5986   -2.2980   -1.3650 H   0  0  0  0  0  0  0  0  0  0  0  0
   -0.7756   -1.6630   -0.4350 C   0  0  0  0  0  0  0  0  0  0  0  0
    0.2844   -2.2800   -0.4550 O   0  0  0  0  0  0  0  0  0  0  0  0
   -0.8246   -0.3180   -0.4350 N   0  0  0  0  0  0  0  0  0  0  0  0
   -2.0106    0.5080   -0.5910 C   0  0  0  0  0  0  0  0  0  0  0  0
   -2.1735    1.4152   -0.0069 H   0  0  0  0  0  0  0  0  0  0  0  0
   -2.9337    0.2014   -1.0816 H   0  0  0  0  0  0  0  0  0  0  0  0
   -0.9212    0.7479   -1.6341 C   0  0  0  0  0  0  0  0  0  0  0  0
   -1.5459    1.5420   -2.0459 H   0  0  0  0  0  0  0  0  0  0  0  0
   -1.1799   -0.2161   -2.0734 H   0  0  0  0  0  0  0  0  0  0  0  0
    0.5675    1.0278   -1.8400 C   0  0  0  0  0  0  0  0  0  0  0  0
    0.9452    2.0522   -1.8362 H   0  0  0  0  0  0  0  0  0  0  0  0
    1.2377    0.3817   -2.4067 H   0  0  0  0  0  0  0  0  0  0  0  0
    0.3724    0.5200   -0.4020 C   0  0  1  0  0  0  0  0  0  0  0  0
    1.2226   -0.1060   -0.1299 H   0  0  0  0  0  0  0  0  0  0  0  0
    0.2441    1.6770    0.6029 C   0  0  0  0  0  0  0  0  0  0  0  0
    0.8581    2.7273    0.4263 O   0  0  0  0  0  0  0  0  0  0  0  0
   -0.5250    1.4660    1.6779 N   0  0  0  0  0  0  0  0  0  0  0  0
   -1.0420    0.6025    1.7211 H   0  0  0  0  0  0  0  0  0  0  0  0
   -0.7463    2.4555    2.7298 C   0  0  0  0  0  0  0  0  0  0  0  0
   -1.2797    3.3139    2.3159 H   0  0  0  0  0  0  0  0  0  0  0  0
   -1.3333    2.0221    3.5402 H   0  0  0  0  0  0  0  0  0  0  0  0
    0.2134    2.7999    3.1212 H   0  0  0  0  0  0  0  0  0  0  0  0
  5  6  2  0  0  0  0
  5  7  1  0  0  0  0
  2  3  1  0  0  0  0
  2  4  1  0  0  0  0
  2  5  1  0  0  0  0
  1  2  1  0  0  0  0
 19 20  2  0  0  0  0
 19 21  1  0  0  0  0
 17 18  1  0  0  0  0
 17 19  1  0  0  0  0
 14 15  1  0  0  0  0
 14 16  1  0  0  0  0
 14 17  1  0  0  0  0
 11 12  1  0  0  0  0
 11 13  1  0  0  0  0
 11 14  1  0  0  0  0
  8  9  1  0  0  0  0
  8 10  1  0  0  0  0
  8 11  1  0  0  0  0
  7  8  1  0  0  0  0
  7 17  1  0  0  0  0
 23 24  1  0  0  0  0
 23 25  1  0  0  0  0
 23 26  1  0  0  0  0
 21 22  1  0  0  0  0
 21 23  1  0  0  0  0
M  END
$$$$
default_name
  -OEChem-11182114113D

 26 26  0     1  0  0  0  0  0999 V2000
   -1.8446   -3.5060   -0.3010 H   0  0  0  0  0  0  0  0  0  0  0  0
   -2.0746   -2.4490   -0.4240 C   0  0  0  0  0  0  0  0  0  0  0  0
   -2.6906   -2.1160    0.4090 H   0  0  0  0  0  0  0  0  0  0  0  0
   -2.5986   -2.2980   -1.3650 H   0  0  0  0  0  0  0  0  0  0  0  0
   -0.7756   -1.6630   -0.4350 C   0  0  0  0  0  0  0  0  0  0  0  0
    0.2844   -2.2800   -0.4550 O   0  0  0  0  0  0  0  0  0  0  0  0
   -0.8246   -0.3180   -0.4350 N   0  0  0  0  0  0  0  0  0  0  0  0
   -2.0106    0.5080   -0.5910 C   0  0  0  0  0  0  0  0  0  0  0  0
   -2.1735    1.4152   -0.0069 H   0  0  0  0  0  0  0  0  0  0  0  0
   -2.9337    0.2014   -1.0816 H   0  0  0  0  0  0  0  0  0  0  0  0
   -0.9212    0.7479   -1.6341 C   0  0  0  0  0  0  0  0  0  0  0  0
   -1.5459    1.5420   -2.0459 H   0  0  0  0  0  0  0  0  0  0  0  0
   -1.1799   -0.2161   -2.0734 H   0  0  0  0  0  0  0  0  0  0  0  0
    0.5675    1.0278   -1.8400 C   0  0  0  0  0  0  0  0  0  0  0  0
    0.9452    2.0522   -1.8362 H   0  0  0  0  0  0  0  0  0  0  0  0
    1.2377    0.3817   -2.4067 H   0  0  0  0  0  0  0  0  0  0  0  0
    0.3724    0.5200   -0.4020 C   0  0  1  0  0  0  0  0  0  0  0  0
    1.2226   -0.1060   -0.1299 H   0  0  0  0  0  0  0  0  0  0  0  0
    0.2441    1.6770    0.6029 C   0  0  0  0  0  0  0  0  0  0  0  0
    0.6234    2.8076    0.3040 O   0  0  0  0  0  0  0  0  0  0  0  0
   -0.2555    1.3819    1.8091 N   0  0  0  0  0  0  0  0  0  0  0  0
   -0.5988    0.4465    1.9573 H   0  0  0  0  0  0  0  0  0  0  0  0
   -0.4359    2.3602    2.8792 C   0  0  0  0  0  0  0  0  0  0  0  0
   -1.1781    3.1010    2.5741 H   0  0  0  0  0  0  0  0  0  0  0  0
   -0.7725    1.8662    3.7912 H   0  0  0  0  0  0  0  0  0  0  0  0
    0.5079    2.8747    3.0726 H   0  0  0  0  0  0  0  0  0  0  0  0
  5  6  2  0  0  0  0
  5  7  1  0  0  0  0
  2  3  1  0  0  0  0
  2  4  1  0  0  0  0
  2  5  1  0  0  0  0
  1  2  1  0  0  0  0
 19 20  2  0  0  0  0
 19 21  1  0  0  0  0
 17 18  1  0  0  0  0
 17 19  1  0  0  0  0
 14 15  1  0  0  0  0
 14 16  1  0  0  0  0
 14 17  1  0  0  0  0
 11 12  1  0  0  0  0
 11 13  1  0  0  0  0
 11 14  1  0  0  0  0
  8  9  1  0  0  0  0
  8 10  1  0  0  0  0
  8 11  1  0  0  0  0
  7  8  1  0  0  0  0
  7 17  1  0  0  0  0
 23 24  1  0  0  0  0
 23 25  1  0  0  0  0
 23 26  1  0  0  0  0
 21 22  1  0  0  0  0
 21 23  1  0  0  0  0
M  END
$$$$
default_name
  -OEChem-11182114113D

 26 26  0     1  0  0  0  0  0999 V2000
   -1.8446   -3.5060   -0.3010 H   0  0  0  0  0  0  0  0  0  0  0  0
   -2.0746   -2.4490   -0.4240 C   0  0  0  0  0  0  0  0  0  0  0  0
   -2.6906   -2.1160    0.4090 H   0  0  0  0  0  0  0  0  0  0  0  0
   -2.5986   -2.2980   -1.3650 H   0  0  0  0  0  0  0  0  0  0  0  0
   -0.7756   -1.6630   -0.4350 C   0  0  0  0  0  0  0  0  0  0  0  0
    0.2844   -2.2800   -0.4550 O   0  0  0  0  0  0  0  0  0  0  0  0
   -0.8246   -0.3180   -0.4350 N   0  0  0  0  0  0  0  0  0  0  0  0
   -2.0106    0.5080   -0.5910 C   0  0  0  0  0  0  0  0  0  0  0  0
   -2.1735    1.4152   -0.0069 H   0  0  0  0  0  0  0  0  0  0  0  0
   -2.9337    0.2014   -1.0816 H   0  0  0  0  0  0  0  0  0  0  0  0
   -0.9212    0.7479   -1.6341 C   0  0  0  0  0  0  0  0  0  0  0  0
   -1.5459    1.5420   -2.0459 H   0  0  0  0  0  0  0  0  0  0  0  0
   -1.1799   -0.2161   -2.0734 H   0  0  0  0  0  0  0  0  0  0  0  0
    0.5675    1.0278   -1.8400 C   0  0  0  0  0  0  0  0  0  0  0  0
    0.9452    2.0522   -1.8362 H   0  0  0  0  0  0  0  0  0  0  0  0
    1.2377    0.3817   -2.4067 H   0  0  0  0  0  0  0  0  0  0  0  0
    0.3724    0.5200   -0.4020 C   0  0  1  0  0  0  0  0  0  0  0  0
    1.2226   -0.1060   -0.1299 H   0  0  0  0  0  0  0  0  0  0  0  0
    0.2441    1.6770    0.6029 C   0  0  0  0  0  0  0  0  0  0  0  0
    0.3593    2.8427    0.2298 O   0  0  0  0  0  0  0  0  0  0  0  0
    0.0446    1.3491    1.8852 N   0  0  0  0  0  0  0  0  0  0  0  0
   -0.0983    0.3759    2.1025 H   0  0  0  0  0  0  0  0  0  0  0  0
   -0.0909    2.3238    2.9651 C   0  0  0  0  0  0  0  0  0  0  0  0
   -0.9937    2.9180    2.8083 H   0  0  0  0  0  0  0  0  0  0  0  0
   -0.1555    1.8159    3.9279 H   0  0  0  0  0  0  0  0  0  0  0  0
    0.7701    2.9958    2.9667 H   0  0  0  0  0  0  0  0  0  0  0  0
  5  6  2  0  0  0  0
  5  7  1  0  0  0  0
  2  3  1  0  0  0  0
  2  4  1  0  0  0  0
  2  5  1  0  0  0  0
  1  2  1  0  0  0  0
 19 20  2  0  0  0  0
 19 21  1  0  0  0  0
 17 18  1  0  0  0  0
 17 19  1  0  0  0  0
 14 15  1  0  0  0  0
 14 16  1  0  0  0  0
 14 17  1  0  0  0  0
 11 12  1  0  0  0  0
 11 13  1  0  0  0  0
 11 14  1  0  0  0  0
  8  9  1  0  0  0  0
  8 10  1  0  0  0  0
  8 11  1  0  0  0  0
  7  8  1  0  0  0  0
  7 17  1  0  0  0  0
 23 24  1  0  0  0  0
 23 25  1  0  0  0  0
 23 26  1  0  0  0  0
 21 22  1  0  0  0  0
 21 23  1  0  0  0  0
M  END
$$$$
default_name
  -OEChem-11182114113D

 26 26  0     1  0  0  0  0  0999 V2000
   -1.8446   -3.5060   -0.3010 H   0  0  0  0  0  0  0  0  0  0  0  0
   -2.0746   -2.4490   -0.4240 C   0  0  0  0  0  0  0  0  0  0  0  0
   -2.6906   -2.1160    0.4090 H   0  0  0  0  0  0  0  0  0  0  0  0
   -2.5986   -2.2980   -1.3650 H   0  0  0  0  0  0  0  0  0  0  0  0
   -0.7756   -1.6630   -0.4350 C   0  0  0  0  0  0  0  0  0  0  0  0
    0.2844   -2.2800   -0.4550 O   0  0  0  0  0  0  0  0  0  0  0  0
   -0.8246   -0.3180   -0.4350 N   0  0  0  0  0  0  0  0  0  0  0  0
   -2.0106    0.5080   -0.5910 C   0  0  0  0  0  0  0  0  0  0  0  0
   -2.1735    1.4152   -0.0069 H   0  0  0  0  0  0  0  0  0  0  0  0
   -2.9337    0.2014   -1.0816 H   0  0  0  0  0  0  0  0  0  0  0  0
   -0.9212    0.7479   -1.6341 C   0  0  0  0  0  0  0  0  0  0  0  0
   -1.5459    1.5420   -2.0459 H   0  0  0  0  0  0  0  0  0  0  0  0
   -1.1799   -0.2161   -2.0734 H   0  0  0  0  0  0  0  0  0  0  0  0
    0.5675    1.0278   -1.8400 C   0  0  0  0  0  0  0  0  0  0  0  0
    0.9452    2.0522   -1.8362 H   0  0  0  0  0  0  0  0  0  0  0  0
    1.2377    0.3817   -2.4067 H   0  0  0  0  0  0  0  0  0  0  0  0
    0.3724    0.5200   -0.4020 C   0  0  1  0  0  0  0  0  0  0  0  0
    1.2226   -0.1060   -0.1299 H   0  0  0  0  0  0  0  0  0  0  0  0
    0.2441    1.6770    0.6029 C   0  0  0  0  0  0  0  0  0  0  0  0
    0.0838    2.8304    0.2088 O   0  0  0  0  0  0  0  0  0  0  0  0
    0.3548    1.3698    1.9010 N   0  0  0  0  0  0  0  0  0  0  0  0
    0.4254    0.3954    2.1469 H   0  0  0  0  0  0  0  0  0  0  0  0
    0.2653    2.3489    2.9817 C   0  0  0  0  0  0  0  0  0  0  0  0
   -0.7390    2.7776    3.0026 H   0  0  0  0  0  0  0  0  0  0  0  0
    0.4755    1.8746    3.9409 H   0  0  0  0  0  0  0  0  0  0  0  0
    0.9824    3.1547    2.8108 H   0  0  0  0  0  0  0  0  0  0  0  0
  5  6  2  0  0  0  0
  5  7  1  0  0  0  0
  2  3  1  0  0  0  0
  2  4  1  0  0  0  0
  2  5  1  0  0  0  0
  1  2  1  0  0  0  0
 19 20  2  0  0  0  0
 19 21  1  0  0  0  0
 17 18  1  0  0  0  0
 17 19  1  0  0  0  0
 14 15  1  0  0  0  0
 14 16  1  0  0  0  0
 14 17  1  0  0  0  0
 11 12  1  0  0  0  0
 11 13  1  0  0  0  0
 11 14  1  0  0  0  0
  8  9  1  0  0  0  0
  8 10  1  0  0  0  0
  8 11  1  0  0  0  0
  7  8  1  0  0  0  0
  7 17  1  0  0  0  0
 23 24  1  0  0  0  0
 23 25  1  0  0  0  0
 23 26  1  0  0  0  0
 21 22  1  0  0  0  0
 21 23  1  0  0  0  0
M  END
$$$$
default_name
  -OEChem-11182114113D

 26 26  0     1  0  0  0  0  0999 V2000
   -1.8446   -3.5060   -0.3010 H   0  0  0  0  0  0  0  0  0  0  0  0
   -2.0746   -2.4490   -0.4240 C   0  0  0  0  0  0  0  0  0  0  0  0
   -2.6906   -2.1160    0.4090 H   0  0  0  0  0  0  0  0  0  0  0  0
   -2.5986   -2.2980   -1.3650 H   0  0  0  0  0  0  0  0  0  0  0  0
   -0.7756   -1.6630   -0.4350 C   0  0  0  0  0  0  0  0  0  0  0  0
    0.2844   -2.2800   -0.4550 O   0  0  0  0  0  0  0  0  0  0  0  0
   -0.8246   -0.3180   -0.4350 N   0  0  0  0  0  0  0  0  0  0  0  0
   -2.0106    0.5080   -0.5910 C   0  0  0  0  0  0  0  0  0  0  0  0
   -2.1735    1.4152   -0.0069 H   0  0  0  0  0  0  0  0  0  0  0  0
   -2.9337    0.2014   -1.0816 H   0  0  0  0  0  0  0  0  0  0  0  0
   -0.9212    0.7479   -1.6341 C   0  0  0  0  0  0  0  0  0  0  0  0
   -1.5459    1.5420   -2.0459 H   0  0  0  0  0  0  0  0  0  0  0  0
   -1.1799   -0.2161   -2.0734 H   0  0  0  0  0  0  0  0  0  0  0  0
    0.5675    1.0278   -1.8400 C   0  0  0  0  0  0  0  0  0  0  0  0
    0.9452    2.0522   -1.8362 H   0  0  0  0  0  0  0  0  0  0  0  0
    1.2377    0.3817   -2.4067 H   0  0  0  0  0  0  0  0  0  0  0  0
    0.3724    0.5200   -0.4020 C   0  0  1  0  0  0  0  0  0  0  0  0
    1.2226   -0.1060   -0.1299 H   0  0  0  0  0  0  0  0  0  0  0  0
    0.2441    1.6770    0.6029 C   0  0  0  0  0  0  0  0  0  0  0  0
   -0.1843    2.7715    0.2424 O   0  0  0  0  0  0  0  0  0  0  0  0
    0.6541    1.4427    1.8554 N   0  0  0  0  0  0  0  0  0  0  0  0
    0.9365    0.5039    2.0873 H   0  0  0  0  0  0  0  0  0  0  0  0
    0.6083    2.4337    2.9279 C   0  0  0  0  0  0  0  0  0  0  0  0
   -0.4313    2.6891    3.1437 H   0  0  0  0  0  0  0  0  0  0  0  0
    1.0776    2.0383    3.8293 H   0  0  0  0  0  0  0  0  0  0  0  0
    1.1302    3.3408    2.6154 H   0  0  0  0  0  0  0  0  0  0  0  0
  5  6  2  0  0  0  0
  5  7  1  0  0  0  0
  2  3  1  0  0  0  0
  2  4  1  0  0  0  0
  2  5  1  0  0  0  0
  1  2  1  0  0  0  0
 19 20  2  0  0  0  0
 19 21  1  0  0  0  0
 17 18  1  0  0  0  0
 17 19  1  0  0  0  0
 14 15  1  0  0  0  0
 14 16  1  0  0  0  0
 14 17  1  0  0  0  0
 11 12  1  0  0  0  0
 11 13  1  0  0  0  0
 11 14  1  0  0  0  0
  8  9  1  0  0  0  0
  8 10  1  0  0  0  0
  8 11  1  0  0  0  0
  7  8  1  0  0  0  0
  7 17  1  0  0  0  0
 23 24  1  0  0  0  0
 23 25  1  0  0  0  0
 23 26  1  0  0  0  0
 21 22  1  0  0  0  0
 21 23  1  0  0  0  0
M  END
$$$$
default_name
  -OEChem-11182114113D

 26 26  0     1  0  0  0  0  0999 V2000
   -1.8446   -3.5060   -0.3010 H   0  0  0  0  0  0  0  0  0  0  0  0
   -2.0746   -2.4490   -0.4240 C   0  0  0  0  0  0  0  0  0  0  0  0
   -2.6906   -2.1160    0.4090 H   0  0  0  0  0  0  0  0  0  0  0  0
   -2.5986   -2.2980   -1.3650 H   0  0  0  0  0  0  0  0  0  0  0  0
   -0.7756   -1.6630   -0.4350 C   0  0  0  0  0  0  0  0  0  0  0  0
    0.2844   -2.2800   -0.4550 O   0  0  0  0  0  0  0  0  0  0  0  0
   -0.8246   -0.3180   -0.4350 N   0  0  0  0  0  0  0  0  0  0  0  0
   -2.0106    0.5080   -0.5910 C   0  0  0  0  0  0  0  0  0  0  0  0
   -2.1735    1.4152   -0.0069 H   0  0  0  0  0  0  0  0  0  0  0  0
   -2.9337    0.2014   -1.0816 H   0  0  0  0  0  0  0  0  0  0  0  0
   -0.9212    0.7479   -1.6341 C   0  0  0  0  0  0  0  0  0  0  0  0
   -1.5459    1.5420   -2.0459 H   0  0  0  0  0  0  0  0  0  0  0  0
   -1.1799   -0.2161   -2.0734 H   0  0  0  0  0  0  0  0  0  0  0  0
    0.5675    1.0278   -1.8400 C   0  0  0  0  0  0  0  0  0  0  0  0
    0.9452    2.0522   -1.8362 H   0  0  0  0  0  0  0  0  0  0  0  0
    1.2377    0.3817   -2.4067 H   0  0  0  0  0  0  0  0  0  0  0  0
    0.3724    0.5200   -0.4020 C   0  0  1  0  0  0  0  0  0  0  0  0
    1.2226   -0.1060   -0.1299 H   0  0  0  0  0  0  0  0  0  0  0  0
    0.2441    1.6770    0.6029 C   0  0  0  0  0  0  0  0  0  0  0  0
   -0.4268    2.6699    0.3284 O   0  0  0  0  0  0  0  0  0  0  0  0
    0.9219    1.5626    1.7514 N   0  0  0  0  0  0  0  0  0  0  0  0
    1.4003    0.6937    1.9279 H   0  0  0  0  0  0  0  0  0  0  0  0
    0.9148    2.5725    2.8072 C   0  0  0  0  0  0  0  0  0  0  0  0
   -0.0918    2.6588    3.2219 H   0  0  0  0  0  0  0  0  0  0  0  0
    1.6098    2.2959    3.6007 H   0  0  0  0  0  0  0  0  0  0  0  0
    1.2034    3.5414    2.3938 H   0  0  0  0  0  0  0  0  0  0  0  0
  5  6  2  0  0  0  0
  5  7  1  0  0  0  0
  2  3  1  0  0  0  0
  2  4  1  0  0  0  0
  2  5  1  0  0  0  0
  1  2  1  0  0  0  0
 19 20  2  0  0  0  0
 19 21  1  0  0  0  0
 17 18  1  0  0  0  0
 17 19  1  0  0  0  0
 14 15  1  0  0  0  0
 14 16  1  0  0  0  0
 14 17  1  0  0  0  0
 11 12  1  0  0  0  0
 11 13  1  0  0  0  0
 11 14  1  0  0  0  0
  8  9  1  0  0  0  0
  8 10  1  0  0  0  0
  8 11  1  0  0  0  0
  7  8  1  0  0  0  0
  7 17  1  0  0  0  0
 23 24  1  0  0  0  0
 23 25  1  0  0  0  0
 23 26  1  0  0  0  0
 21 22  1  0  0  0  0
 21 23  1  0  0  0  0
M  END
$$$$
default_name
  -OEChem-11182114113D

 26 26  0     1  0  0  0  0  0999 V2000
   -1.8446   -3.5060   -0.3010 H   0  0  0  0  0  0  0  0  0  0  0  0
   -2.0746   -2.4490   -0.4240 C   0  0  0  0  0  0  0  0  0  0  0  0
   -2.6906   -2.1160    0.4090 H   0  0  0  0  0  0  0  0  0  0  0  0
   -2.5986   -2.2980   -1.3650 H   0  0  0  0  0  0  0  0  0  0  0  0
   -0.7756   -1.6630   -0.4350 C   0  0  0  0  0  0  0  0  0  0  0  0
    0.2844   -2.2800   -0.4550 O   0  0  0  0  0  0  0  0  0  0  0  0
   -0.8246   -0.3180   -0.4350 N   0  0  0  0  0  0  0  0  0  0  0  0
   -2.0106    0.5080   -0.5910 C   0  0  0  0  0  0  0  0  0  0  0  0
   -2.1735    1.4152   -0.0069 H   0  0  0  0  0  0  0  0  0  0  0  0
   -2.9337    0.2014   -1.0816 H   0  0  0  0  0  0  0  0  0  0  0  0
   -0.9212    0.7479   -1.6341 C   0  0  0  0  0  0  0  0  0  0  0  0
   -1.5459    1.5420   -2.0459 H   0  0  0  0  0  0  0  0  0  0  0  0
   -1.1799   -0.2161   -2.0734 H   0  0  0  0  0  0  0  0  0  0  0  0
    0.5675    1.0278   -1.8400 C   0  0  0  0  0  0  0  0  0  0  0  0
    0.9452    2.0522   -1.8362 H   0  0  0  0  0  0  0  0  0  0  0  0
    1.2377    0.3817   -2.4067 H   0  0  0  0  0  0  0  0  0  0  0  0
    0.3724    0.5200   -0.4020 C   0  0  1  0  0  0  0  0  0  0  0  0
    1.2226   -0.1060   -0.1299 H   0  0  0  0  0  0  0  0  0  0  0  0
    0.2441    1.6770    0.6029 C   0  0  0  0  0  0  0  0  0  0  0  0
   -0.6271    2.5327    0.4608 O   0  0  0  0  0  0  0  0  0  0  0  0
    1.1401    1.7215    1.5963 N   0  0  0  0  0  0  0  0  0  0  0  0
    1.7851    0.9521    1.6795 H   0  0  0  0  0  0  0  0  0  0  0  0
    1.1639    2.7558    2.6280 C   0  0  0  0  0  0  0  0  0  0  0  0
    0.2566    2.6886    3.2321 H   0  0  0  0  0  0  0  0  0  0  0  0
    2.0358    2.6298    3.2706 H   0  0  0  0  0  0  0  0  0  0  0  0
    1.1971    3.7427    2.1612 H   0  0  0  0  0  0  0  0  0  0  0  0
  5  6  2  0  0  0  0
  5  7  1  0  0  0  0
  2  3  1  0  0  0  0
  2  4  1  0  0  0  0
  2  5  1  0  0  0  0
  1  2  1  0  0  0  0
 19 20  2  0  0  0  0
 19 21  1  0  0  0  0
 17 18  1  0  0  0  0
 17 19  1  0  0  0  0
 14 15  1  0  0  0  0
 14 16  1  0  0  0  0
 14 17  1  0  0  0  0
 11 12  1  0  0  0  0
 11 13  1  0  0  0  0
 11 14  1  0  0  0  0
  8  9  1  0  0  0  0
  8 10  1  0  0  0  0
  8 11  1  0  0  0  0
  7  8  1  0  0  0  0
  7 17  1  0  0  0  0
 23 24  1  0  0  0  0
 23 25  1  0  0  0  0
 23 26  1  0  0  0  0
 21 22  1  0  0  0  0
 21 23  1  0  0  0  0
M  END
$$$$
default_name
  -OEChem-11182114113D

 26 26  0     1  0  0  0  0  0999 V2000
   -1.8446   -3.5060   -0.3010 H   0  0  0  0  0  0  0  0  0  0  0  0
   -2.0746   -2.4490   -0.4240 C   0  0  0  0  0  0  0  0  0  0  0  0
   -2.6906   -2.1160    0.4090 H   0  0  0  0  0  0  0  0  0  0  0  0
   -2.5986   -2.2980   -1.3650 H   0  0  0  0  0  0  0  0  0  0  0  0
   -0.7756   -1.6630   -0.4350 C   0  0  0  0  0  0  0  0  0  0  0  0
    0.2844   -2.2800   -0.4550 O   0  0  0  0  0  0  0  0  0  0  0  0
   -0.8246   -0.3180   -0.4350 N   0  0  0  0  0  0  0  0  0  0  0  0
   -2.0106    0.5080   -0.5910 C   0  0  0  0  0  0  0  0  0  0  0  0
   -2.1735    1.4152   -0.0069 H   0  0  0  0  0  0  0  0  0  0  0  0
   -2.9337    0.2014   -1.0816 H   0  0  0  0  0  0  0  0  0  0  0  0
   -0.9212    0.7479   -1.6341 C   0  0  0  0  0  0  0  0  0  0  0  0
   -1.5459    1.5420   -2.0459 H   0  0  0  0  0  0  0  0  0  0  0  0
   -1.1799   -0.2161   -2.0734 H   0  0  0  0  0  0  0  0  0  0  0  0
    0.5675    1.0278   -1.8400 C   0  0  0  0  0  0  0  0  0  0  0  0
    0.9452    2.0522   -1.8362 H   0  0  0  0  0  0  0  0  0  0  0  0
    1.2377    0.3817   -2.4067 H   0  0  0  0  0  0  0  0  0  0  0  0
    0.3724    0.5200   -0.4020 C   0  0  1  0  0  0  0  0  0  0  0  0
    1.2226   -0.1060   -0.1299 H   0  0  0  0  0  0  0  0  0  0  0  0
    0.2441    1.6770    0.6029 C   0  0  0  0  0  0  0  0  0  0  0  0
   -0.7716    2.3691    0.6307 O   0  0  0  0  0  0  0  0  0  0  0  0
    1.2937    1.9086    1.4006 N   0  0  0  0  0  0  0  0  0  0  0  0
    2.0647    1.2615    1.3590 H   0  0  0  0  0  0  0  0  0  0  0  0
    1.3386    2.9711    2.4024 C   0  0  0  0  0  0  0  0  0  0  0  0
    0.5900    2.7766    3.1734 H   0  0  0  0  0  0  0  0  0  0  0  0
    2.3265    3.0171    2.8617 H   0  0  0  0  0  0  0  0  0  0  0  0
    1.1116    3.9310    1.9335 H   0  0  0  0  0  0  0  0  0  0  0  0
  5  6  2  0  0  0  0
  5  7  1  0  0  0  0
  2  3  1  0  0  0  0
  2  4  1  0  0  0  0
  2  5  1  0  0  0  0
  1  2  1  0  0  0  0
 19 20  2  0  0  0  0
 19 21  1  0  0  0  0
 17 18  1  0  0  0  0
 17 19  1  0  0  0  0
 14 15  1  0  0  0  0
 14 16  1  0  0  0  0
 14 17  1  0  0  0  0
 11 12  1  0  0  0  0
 11 13  1  0  0  0  0
 11 14  1  0  0  0  0
  8  9  1  0  0  0  0
  8 10  1  0  0  0  0
  8 11  1  0  0  0  0
  7  8  1  0  0  0  0
  7 17  1  0  0  0  0
 23 24  1  0  0  0  0
 23 25  1  0  0  0  0
 23 26  1  0  0  0  0
 21 22  1  0  0  0  0
 21 23  1  0  0  0  0
M  END
$$$$
default_name
  -OEChem-11182114113D

 26 26  0     1  0  0  0  0  0999 V2000
   -1.8446   -3.5060   -0.3010 H   0  0  0  0  0  0  0  0  0  0  0  0
   -2.0746   -2.4490   -0.4240 C   0  0  0  0  0  0  0  0  0  0  0  0
   -2.6906   -2.1160    0.4090 H   0  0  0  0  0  0  0  0  0  0  0  0
   -2.5986   -2.2980   -1.3650 H   0  0  0  0  0  0  0  0  0  0  0  0
   -0.7756   -1.6630   -0.4350 C   0  0  0  0  0  0  0  0  0  0  0  0
    0.2844   -2.2800   -0.4550 O   0  0  0  0  0  0  0  0  0  0  0  0
   -0.8246   -0.3180   -0.4350 N   0  0  0  0  0  0  0  0  0  0  0  0
   -2.0106    0.5080   -0.5910 C   0  0  0  0  0  0  0  0  0  0  0  0
   -2.1735    1.4152   -0.0069 H   0  0  0  0  0  0  0  0  0  0  0  0
   -2.9337    0.2014   -1.0816 H   0  0  0  0  0  0  0  0  0  0  0  0
   -0.9212    0.7479   -1.6341 C   0  0  0  0  0  0  0  0  0  0  0  0
   -1.5459    1.5420   -2.0459 H   0  0  0  0  0  0  0  0  0  0  0  0
   -1.1799   -0.2161   -2.0734 H   0  0  0  0  0  0  0  0  0  0  0  0
    0.5675    1.0278   -1.8400 C   0  0  0  0  0  0  0  0  0  0  0  0
    0.9452    2.0522   -1.8362 H   0  0  0  0  0  0  0  0  0  0  0  0
    1.2377    0.3817   -2.4067 H   0  0  0  0  0  0  0  0  0  0  0  0
    0.3724    0.5200   -0.4020 C   0  0  1  0  0  0  0  0  0  0  0  0
    1.2226   -0.1060   -0.1299 H   0  0  0  0  0  0  0  0  0  0  0  0
    0.2441    1.6770    0.6029 C   0  0  0  0  0  0  0  0  0  0  0  0
   -0.8504    2.1904    0.8265 O   0  0  0  0  0  0  0  0  0  0  0  0
    1.3724    2.1110    1.1775 N   0  0  0  0  0  0  0  0  0  0  0  0
    2.2201    1.6006    0.9884 H   0  0  0  0  0  0  0  0  0  0  0  0
    1.4270    3.2037    2.1458 C   0  0  0  0  0  0  0  0  0  0  0  0
    0.8857    2.9167    3.0499 H   0  0  0  0  0  0  0  0  0  0  0  0
    2.4622    3.4317    2.4018 H   0  0  0  0  0  0  0  0  0  0  0  0
    0.9529    4.0936    1.7260 H   0  0  0  0  0  0  0  0  0  0  0  0
  5  6  2  0  0  0  0
  5  7  1  0  0  0  0
  2  3  1  0  0  0  0
  2  4  1  0  0  0  0
  2  5  1  0  0  0  0
  1  2  1  0  0  0  0
 19 20  2  0  0  0  0
 19 21  1  0  0  0  0
 17 18  1  0  0  0  0
 17 19  1  0  0  0  0
 14 15  1  0  0  0  0
 14 16  1  0  0  0  0
 14 17  1  0  0  0  0
 11 12  1  0  0  0  0
 11 13  1  0  0  0  0
 11 14  1  0  0  0  0
  8  9  1  0  0  0  0
  8 10  1  0  0  0  0
  8 11  1  0  0  0  0
  7  8  1  0  0  0  0
  7 17  1  0  0  0  0
 23 24  1  0  0  0  0
 23 25  1  0  0  0  0
 23 26  1  0  0  0  0
 21 22  1  0  0  0  0
 21 23  1  0  0  0  0
M  END
$$$$
default_name
  -OEChem-11182114113D

 26 26  0     1  0  0  0  0  0999 V2000
   -1.8446   -3.5060   -0.3010 H   0  0  0  0  0  0  0  0  0  0  0  0
   -2.0746   -2.4490   -0.4240 C   0  0  0  0  0  0  0  0  0  0  0  0
   -2.6906   -2.1160    0.4090 H   0  0  0  0  0  0  0  0  0  0  0  0
   -2.5986   -2.2980   -1.3650 H   0  0  0  0  0  0  0  0  0  0  0  0
   -0.7756   -1.6630   -0.4350 C   0  0  0  0  0  0  0  0  0  0  0  0
    0.2844   -2.2800   -0.4550 O   0  0  0  0  0  0  0  0  0  0  0  0
   -0.8246   -0.3180   -0.4350 N   0  0  0  0  0  0  0  0  0  0  0  0
   -2.0106    0.5080   -0.5910 C   0  0  0  0  0  0  0  0  0  0  0  0
   -2.1735    1.4152   -0.0069 H   0  0  0  0  0  0  0  0  0  0  0  0
   -2.9337    0.2014   -1.0816 H   0  0  0  0  0  0  0  0  0  0  0  0
   -0.9212    0.7479   -1.6341 C   0  0  0  0  0  0  0  0  0  0  0  0
   -1.5459    1.5420   -2.0459 H   0  0  0  0  0  0  0  0  0  0  0  0
   -1.1799   -0.2161   -2.0734 H   0  0  0  0  0  0  0  0  0  0  0  0
    0.5675    1.0278   -1.8400 C   0  0  0  0  0  0  0  0  0  0  0  0
    0.9452    2.0522   -1.8362 H   0  0  0  0  0  0  0  0  0  0  0  0
    1.2377    0.3817   -2.4067 H   0  0  0  0  0  0  0  0  0  0  0  0
    0.3724    0.5200   -0.4020 C   0  0  1  0  0  0  0  0  0  0  0  0
    1.2226   -0.1060   -0.1299 H   0  0  0  0  0  0  0  0  0  0  0  0
    0.2441    1.6770    0.6029 C   0  0  0  0  0  0  0  0  0  0  0  0
   -0.8581    2.0086    1.0348 O   0  0  0  0  0  0  0  0  0  0  0  0
    1.3708    2.3150    0.9424 N   0  0  0  0  0  0  0  0  0  0  0  0
    2.2407    1.9465    0.5928 H   0  0  0  0  0  0  0  0  0  0  0  0
    1.4231    3.4378    1.8758 C   0  0  0  0  0  0  0  0  0  0  0  0
    1.1237    3.0993    2.8700 H   0  0  0  0  0  0  0  0  0  0  0  0
    2.4336    3.8451    1.9221 H   0  0  0  0  0  0  0  0  0  0  0  0
    0.7317    4.2193    1.5531 H   0  0  0  0  0  0  0  0  0  0  0  0
  5  6  2  0  0  0  0
  5  7  1  0  0  0  0
  2  3  1  0  0  0  0
  2  4  1  0  0  0  0
  2  5  1  0  0  0  0
  1  2  1  0  0  0  0
 19 20  2  0  0  0  0
 19 21  1  0  0  0  0
 17 18  1  0  0  0  0
 17 19  1  0  0  0  0
 14 15  1  0  0  0  0
 14 16  1  0  0  0  0
 14 17  1  0  0  0  0
 11 12  1  0  0  0  0
 11 13  1  0  0  0  0
 11 14  1  0  0  0  0
  8  9  1  0  0  0  0
  8 10  1  0  0  0  0
  8 11  1  0  0  0  0
  7  8  1  0  0  0  0
  7 17  1  0  0  0  0
 23 24  1  0  0  0  0
 23 25  1  0  0  0  0
 23 26  1  0  0  0  0
 21 22  1  0  0  0  0
 21 23  1  0  0  0  0
M  END
$$$$
default_name
  -OEChem-11182114113D

 26 26  0     1  0  0  0  0  0999 V2000
   -1.8446   -3.5060   -0.3010 H   0  0  0  0  0  0  0  0  0  0  0  0
   -2.0746   -2.4490   -0.4240 C   0  0  0  0  0  0  0  0  0  0  0  0
   -2.6906   -2.1160    0.4090 H   0  0  0  0  0  0  0  0  0  0  0  0
   -2.5986   -2.2980   -1.3650 H   0  0  0  0  0  0  0  0  0  0  0  0
   -0.7756   -1.6630   -0.4350 C   0  0  0  0  0  0  0  0  0  0  0  0
    0.2844   -2.2800   -0.4550 O   0  0  0  0  0  0  0  0  0  0  0  0
   -0.8246   -0.3180   -0.4350 N   0  0  0  0  0  0  0  0  0  0  0  0
   -2.0106    0.5080   -0.5910 C   0  0  0  0  0  0  0  0  0  0  0  0
   -2.2435    1.2322    0.1914 H   0  0  0  0  0  0  0  0  0  0  0  0
   -2.9272    0.1097   -1.0248 H   0  0  0  0  0  0  0  0  0  0  0  0
   -1.1641    1.1681   -1.6773 C   0  0  0  0  0  0  0  0  0  0  0  0
   -1.6737    2.1326   -1.7002 H   0  0  0  0  0  0  0  0  0  0  0  0
   -1.4895    0.5381   -2.5058 H   0  0  0  0  0  0  0  0  0  0  0  0
    0.3561    1.3246   -1.7120 C   0  0  0  0  0  0  0  0  0  0  0  0
    0.7406    2.3330   -1.5465 H   0  0  0  0  0  0  0  0  0  0  0  0
    0.9278    0.8278   -2.4957 H   0  0  0  0  0  0  0  0  0  0  0  0
    0.3724    0.5200   -0.4020 C   0  0  1  0  0  0  0  0  0  0  0  0
    1.2472   -0.1306   -0.3978 H   0  0  0  0  0  0  0  0  0  0  0  0
    0.4071    1.4352    0.8334 C   0  0  0  0  0  0  0  0  0  0  0  0
   -0.5229    1.4330    1.6374 O   0  0  0  0  0  0  0  0  0  0  0  0
    1.4646    2.2458    0.9599 N   0  0  0  0  0  0  0  0  0  0  0  0
    2.2128    2.1465    0.2926 H   0  0  0  0  0  0  0  0  0  0  0  0
    1.6483    3.1808    2.0674 C   0  0  0  0  0  0  0  0  0  0  0  0
    1.7599    2.6235    2.9999 H   0  0  0  0  0  0  0  0  0  0  0  0
    2.5361    3.7924    1.9037 H   0  0  0  0  0  0  0  0  0  0  0  0
    0.7729    3.8283    2.1535 H   0  0  0  0  0  0  0  0  0  0  0  0
  5  6  2  0  0  0  0
  5  7  1  0  0  0  0
  2  3  1  0  0  0  0
  2  4  1  0  0  0  0
  2  5  1  0  0  0  0
  1  2  1  0  0  0  0
 19 20  2  0  0  0  0
 19 21  1  0  0  0  0
 17 18  1  0  0  0  0
 17 19  1  0  0  0  0
 14 15  1  0  0  0  0
 14 16  1  0  0  0  0
 14 17  1  0  0  0  0
 11 12  1  0  0  0  0
 11 13  1  0  0  0  0
 11 14  1  0  0  0  0
  8  9  1  0  0  0  0
  8 10  1  0  0  0  0
  8 11  1  0  0  0  0
  7  8  1  0  0  0  0
  7 17  1  0  0  0  0
 23 24  1  0  0  0  0
 23 25  1  0  0  0  0
 23 26  1  0  0  0  0
 21 22  1  0  0  0  0
 21 23  1  0  0  0  0
M  END
$$$$
default_name
  -OEChem-11182114113D

 26 26  0     1  0  0  0  0  0999 V2000
   -1.8446   -3.5060   -0.3010 H   0  0  0  0  0  0  0  0  0  0  0  0
   -2.0746   -2.4490   -0.4240 C   0  0  0  0  0  0  0  0  0  0  0  0
   -2.6906   -2.1160    0.4090 H   0  0  0  0  0  0  0  0  0  0  0  0
   -2.5986   -2.2980   -1.3650 H   0  0  0  0  0  0  0  0  0  0  0  0
   -0.7756   -1.6630   -0.4350 C   0  0  0  0  0  0  0  0  0  0  0  0
    0.2844   -2.2800   -0.4550 O   0  0  0  0  0  0  0  0  0  0  0  0
   -0.8246   -0.3180   -0.4350 N   0  0  0  0  0  0  0  0  0  0  0  0
   -2.0106    0.5080   -0.5910 C   0  0  0  0  0  0  0  0  0  0  0  0
   -2.2435    1.2322    0.1914 H   0  0  0  0  0  0  0  0  0  0  0  0
   -2.9272    0.1097   -1.0248 H   0  0  0  0  0  0  0  0  0  0  0  0
   -1.1641    1.1681   -1.6773 C   0  0  0  0  0  0  0  0  0  0  0  0
   -1.6737    2.1326   -1.7002 H   0  0  0  0  0  0  0  0  0  0  0  0
   -1.4895    0.5381   -2.5058 H   0  0  0  0  0  0  0  0  0  0  0  0
    0.3561    1.3246   -1.7120 C   0  0  0  0  0  0  0  0  0  0  0  0
    0.7406    2.3330   -1.5465 H   0  0  0  0  0  0  0  0  0  0  0  0
    0.9278    0.8278   -2.4957 H   0  0  0  0  0  0  0  0  0  0  0  0
    0.3724    0.5200   -0.4020 C   0  0  1  0  0  0  0  0  0  0  0  0
    1.2472   -0.1306   -0.3978 H   0  0  0  0  0  0  0  0  0  0  0  0
    0.4071    1.4352    0.8334 C   0  0  0  0  0  0  0  0  0  0  0  0
   -0.3665    1.2476    1.7703 O   0  0  0  0  0  0  0  0  0  0  0  0
    1.2800    2.4497    0.8140 N   0  0  0  0  0  0  0  0  0  0  0  0
    1.9201    2.5014    0.0378 H   0  0  0  0  0  0  0  0  0  0  0  0
    1.4347    3.4140    1.9007 C   0  0  0  0  0  0  0  0  0  0  0  0
    1.8023    2.9019    2.7925 H   0  0  0  0  0  0  0  0  0  0  0  0
    2.1401    4.1953    1.6162 H   0  0  0  0  0  0  0  0  0  0  0  0
    0.4681    3.8657    2.1344 H   0  0  0  0  0  0  0  0  0  0  0  0
  5  6  2  0  0  0  0
  5  7  1  0  0  0  0
  2  3  1  0  0  0  0
  2  4  1  0  0  0  0
  2  5  1  0  0  0  0
  1  2  1  0  0  0  0
 19 20  2  0  0  0  0
 19 21  1  0  0  0  0
 17 18  1  0  0  0  0
 17 19  1  0  0  0  0
 14 15  1  0  0  0  0
 14 16  1  0  0  0  0
 14 17  1  0  0  0  0
 11 12  1  0  0  0  0
 11 13  1  0  0  0  0
 11 14  1  0  0  0  0
  8  9  1  0  0  0  0
  8 10  1  0  0  0  0
  8 11  1  0  0  0  0
  7  8  1  0  0  0  0
  7 17  1  0  0  0  0
 23 24  1  0  0  0  0
 23 25  1  0  0  0  0
 23 26  1  0  0  0  0
 21 22  1  0  0  0  0
 21 23  1  0  0  0  0
M  END
$$$$
default_name
  -OEChem-11182114113D

 26 26  0     1  0  0  0  0  0999 V2000
   -1.8446   -3.5060   -0.3010 H   0  0  0  0  0  0  0  0  0  0  0  0
   -2.0746   -2.4490   -0.4240 C   0  0  0  0  0  0  0  0  0  0  0  0
   -2.6906   -2.1160    0.4090 H   0  0  0  0  0  0  0  0  0  0  0  0
   -2.5986   -2.2980   -1.3650 H   0  0  0  0  0  0  0  0  0  0  0  0
   -0.7756   -1.6630   -0.4350 C   0  0  0  0  0  0  0  0  0  0  0  0
    0.2844   -2.2800   -0.4550 O   0  0  0  0  0  0  0  0  0  0  0  0
   -0.8246   -0.3180   -0.4350 N   0  0  0  0  0  0  0  0  0  0  0  0
   -2.0106    0.5080   -0.5910 C   0  0  0  0  0  0  0  0  0  0  0  0
   -2.2435    1.2322    0.1914 H   0  0  0  0  0  0  0  0  0  0  0  0
   -2.9272    0.1097   -1.0248 H   0  0  0  0  0  0  0  0  0  0  0  0
   -1.1641    1.1681   -1.6773 C   0  0  0  0  0  0  0  0  0  0  0  0
   -1.6737    2.1326   -1.7002 H   0  0  0  0  0  0  0  0  0  0  0  0
   -1.4895    0.5381   -2.5058 H   0  0  0  0  0  0  0  0  0  0  0  0
    0.3561    1.3246   -1.7120 C   0  0  0  0  0  0  0  0  0  0  0  0
    0.7406    2.3330   -1.5465 H   0  0  0  0  0  0  0  0  0  0  0  0
    0.9278    0.8278   -2.4957 H   0  0  0  0  0  0  0  0  0  0  0  0
    0.3724    0.5200   -0.4020 C   0  0  1  0  0  0  0  0  0  0  0  0
    1.2472   -0.1306   -0.3978 H   0  0  0  0  0  0  0  0  0  0  0  0
    0.4071    1.4352    0.8334 C   0  0  0  0  0  0  0  0  0  0  0  0
   -0.1563    1.1004    1.8735 O   0  0  0  0  0  0  0  0  0  0  0  0
    1.0368    2.6091    0.7028 N   0  0  0  0  0  0  0  0  0  0  0  0
    1.5243    2.7849   -0.1611 H   0  0  0  0  0  0  0  0  0  0  0  0
    1.1542    3.5957    1.7739 C   0  0  0  0  0  0  0  0  0  0  0  0
    1.7535    3.1809    2.5872 H   0  0  0  0  0  0  0  0  0  0  0  0
    1.6296    4.5039    1.4020 H   0  0  0  0  0  0  0  0  0  0  0  0
    0.1630    3.8385    2.1630 H   0  0  0  0  0  0  0  0  0  0  0  0
  5  6  2  0  0  0  0
  5  7  1  0  0  0  0
  2  3  1  0  0  0  0
  2  4  1  0  0  0  0
  2  5  1  0  0  0  0
  1  2  1  0  0  0  0
 19 20  2  0  0  0  0
 19 21  1  0  0  0  0
 17 18  1  0  0  0  0
 17 19  1  0  0  0  0
 14 15  1  0  0  0  0
 14 16  1  0  0  0  0
 14 17  1  0  0  0  0
 11 12  1  0  0  0  0
 11 13  1  0  0  0  0
 11 14  1  0  0  0  0
  8  9  1  0  0  0  0
  8 10  1  0  0  0  0
  8 11  1  0  0  0  0
  7  8  1  0  0  0  0
  7 17  1  0  0  0  0
 23 24  1  0  0  0  0
 23 25  1  0  0  0  0
 23 26  1  0  0  0  0
 21 22  1  0  0  0  0
 21 23  1  0  0  0  0
M  END
$$$$
default_name
  -OEChem-11182114113D

 26 26  0     1  0  0  0  0  0999 V2000
   -1.8446   -3.5060   -0.3010 H   0  0  0  0  0  0  0  0  0  0  0  0
   -2.0746   -2.4490   -0.4240 C   0  0  0  0  0  0  0  0  0  0  0  0
   -2.6906   -2.1160    0.4090 H   0  0  0  0  0  0  0  0  0  0  0  0
   -2.5986   -2.2980   -1.3650 H   0  0  0  0  0  0  0  0  0  0  0  0
   -0.7756   -1.6630   -0.4350 C   0  0  0  0  0  0  0  0  0  0  0  0
    0.2844   -2.2800   -0.4550 O   0  0  0  0  0  0  0  0  0  0  0  0
   -0.8246   -0.3180   -0.4350 N   0  0  0  0  0  0  0  0  0  0  0  0
   -2.0106    0.5080   -0.5910 C   0  0  0  0  0  0  0  0  0  0  0  0
   -2.2435    1.2322    0.1914 H   0  0  0  0  0  0  0  0  0  0  0  0
   -2.9272    0.1097   -1.0248 H   0  0  0  0  0  0  0  0  0  0  0  0
   -1.1641    1.1681   -1.6773 C   0  0  0  0  0  0  0  0  0  0  0  0
   -1.6737    2.1326   -1.7002 H   0  0  0  0  0  0  0  0  0  0  0  0
   -1.4895    0.5381   -2.5058 H   0  0  0  0  0  0  0  0  0  0  0  0
    0.3561    1.3246   -1.7120 C   0  0  0  0  0  0  0  0  0  0  0  0
    0.7406    2.3330   -1.5465 H   0  0  0  0  0  0  0  0  0  0  0  0
    0.9278    0.8278   -2.4957 H   0  0  0  0  0  0  0  0  0  0  0  0
    0.3724    0.5200   -0.4020 C   0  0  1  0  0  0  0  0  0  0  0  0
    1.2472   -0.1306   -0.3978 H   0  0  0  0  0  0  0  0  0  0  0  0
    0.4071    1.4352    0.8334 C   0  0  0  0  0  0  0  0  0  0  0  0
    0.0932    1.0013    1.9400 O   0  0  0  0  0  0  0  0  0  0  0  0
    0.7516    2.7131    0.6337 N   0  0  0  0  0  0  0  0  0  0  0  0
    1.0525    2.9776   -0.2906 H   0  0  0  0  0  0  0  0  0  0  0  0
    0.8260    3.7137    1.6957 C   0  0  0  0  0  0  0  0  0  0  0  0
    1.6167    3.4413    2.3980 H   0  0  0  0  0  0  0  0  0  0  0  0
    1.0392    4.6970    1.2754 H   0  0  0  0  0  0  0  0  0  0  0  0
   -0.1217    3.7487    2.2376 H   0  0  0  0  0  0  0  0  0  0  0  0
  5  6  2  0  0  0  0
  5  7  1  0  0  0  0
  2  3  1  0  0  0  0
  2  4  1  0  0  0  0
  2  5  1  0  0  0  0
  1  2  1  0  0  0  0
 19 20  2  0  0  0  0
 19 21  1  0  0  0  0
 17 18  1  0  0  0  0
 17 19  1  0  0  0  0
 14 15  1  0  0  0  0
 14 16  1  0  0  0  0
 14 17  1  0  0  0  0
 11 12  1  0  0  0  0
 11 13  1  0  0  0  0
 11 14  1  0  0  0  0
  8  9  1  0  0  0  0
  8 10  1  0  0  0  0
  8 11  1  0  0  0  0
  7  8  1  0  0  0  0
  7 17  1  0  0  0  0
 23 24  1  0  0  0  0
 23 25  1  0  0  0  0
 23 26  1  0  0  0  0
 21 22  1  0  0  0  0
 21 23  1  0  0  0  0
M  END
$$$$
default_name
  -OEChem-11182114113D

 26 26  0     1  0  0  0  0  0999 V2000
   -1.8446   -3.5060   -0.3010 H   0  0  0  0  0  0  0  0  0  0  0  0
   -2.0746   -2.4490   -0.4240 C   0  0  0  0  0  0  0  0  0  0  0  0
   -2.6906   -2.1160    0.4090 H   0  0  0  0  0  0  0  0  0  0  0  0
   -2.5986   -2.2980   -1.3650 H   0  0  0  0  0  0  0  0  0  0  0  0
   -0.7756   -1.6630   -0.4350 C   0  0  0  0  0  0  0  0  0  0  0  0
    0.2844   -2.2800   -0.4550 O   0  0  0  0  0  0  0  0  0  0  0  0
   -0.8246   -0.3180   -0.4350 N   0  0  0  0  0  0  0  0  0  0  0  0
   -2.0106    0.5080   -0.5910 C   0  0  0  0  0  0  0  0  0  0  0  0
   -2.2435    1.2322    0.1914 H   0  0  0  0  0  0  0  0  0  0  0  0
   -2.9272    0.1097   -1.0248 H   0  0  0  0  0  0  0  0  0  0  0  0
   -1.1641    1.1681   -1.6773 C   0  0  0  0  0  0  0  0  0  0  0  0
   -1.6737    2.1326   -1.7002 H   0  0  0  0  0  0  0  0  0  0  0  0
   -1.4895    0.5381   -2.5058 H   0  0  0  0  0  0  0  0  0  0  0  0
    0.3561    1.3246   -1.7120 C   0  0  0  0  0  0  0  0  0  0  0  0
    0.7406    2.3330   -1.5465 H   0  0  0  0  0  0  0  0  0  0  0  0
    0.9278    0.8278   -2.4957 H   0  0  0  0  0  0  0  0  0  0  0  0
    0.3724    0.5200   -0.4020 C   0  0  1  0  0  0  0  0  0  0  0  0
    1.2472   -0.1306   -0.3978 H   0  0  0  0  0  0  0  0  0  0  0  0
    0.4071    1.4352    0.8334 C   0  0  0  0  0  0  0  0  0  0  0  0
    0.3650    0.9570    1.9652 O   0  0  0  0  0  0  0  0  0  0  0  0
    0.4439    2.7547    0.6115 N   0  0  0  0  0  0  0  0  0  0  0  0
    0.5367    3.0664   -0.3419 H   0  0  0  0  0  0  0  0  0  0  0  0
    0.4724    3.7599    1.6714 C   0  0  0  0  0  0  0  0  0  0  0  0
    1.4013    3.6656    2.2379 H   0  0  0  0  0  0  0  0  0  0  0  0
    0.4094    4.7616    1.2452 H   0  0  0  0  0  0  0  0  0  0  0  0
   -0.3665    3.6023    2.3529 H   0  0  0  0  0  0  0  0  0  0  0  0
  5  6  2  0  0  0  0
  5  7  1  0  0  0  0
  2  3  1  0  0  0  0
  2  4  1  0  0  0  0
  2  5  1  0  0  0  0
  1  2  1  0  0  0  0
 19 20  2  0  0  0  0
 19 21  1  0  0  0  0
 17 18  1  0  0  0  0
 17 19  1  0  0  0  0
 14 15  1  0  0  0  0
 14 16  1  0  0  0  0
 14 17  1  0  0  0  0
 11 12  1  0  0  0  0
 11 13  1  0  0  0  0
 11 14  1  0  0  0  0
  8  9  1  0  0  0  0
  8 10  1  0  0  0  0
  8 11  1  0  0  0  0
  7  8  1  0  0  0  0
  7 17  1  0  0  0  0
 23 24  1  0  0  0  0
 23 25  1  0  0  0  0
 23 26  1  0  0  0  0
 21 22  1  0  0  0  0
 21 23  1  0  0  0  0
M  END
$$$$
default_name
  -OEChem-11182114113D

 26 26  0     1  0  0  0  0  0999 V2000
   -1.8446   -3.5060   -0.3010 H   0  0  0  0  0  0  0  0  0  0  0  0
   -2.0746   -2.4490   -0.4240 C   0  0  0  0  0  0  0  0  0  0  0  0
   -2.6906   -2.1160    0.4090 H   0  0  0  0  0  0  0  0  0  0  0  0
   -2.5986   -2.2980   -1.3650 H   0  0  0  0  0  0  0  0  0  0  0  0
   -0.7756   -1.6630   -0.4350 C   0  0  0  0  0  0  0  0  0  0  0  0
    0.2844   -2.2800   -0.4550 O   0  0  0  0  0  0  0  0  0  0  0  0
   -0.8246   -0.3180   -0.4350 N   0  0  0  0  0  0  0  0  0  0  0  0
   -2.0106    0.5080   -0.5910 C   0  0  0  0  0  0  0  0  0  0  0  0
   -2.2435    1.2322    0.1914 H   0  0  0  0  0  0  0  0  0  0  0  0
   -2.9272    0.1097   -1.0248 H   0  0  0  0  0  0  0  0  0  0  0  0
   -1.1641    1.1681   -1.6773 C   0  0  0  0  0  0  0  0  0  0  0  0
   -1.6737    2.1326   -1.7002 H   0  0  0  0  0  0  0  0  0  0  0  0
   -1.4895    0.5381   -2.5058 H   0  0  0  0  0  0  0  0  0  0  0  0
    0.3561    1.3246   -1.7120 C   0  0  0  0  0  0  0  0  0  0  0  0
    0.7406    2.3330   -1.5465 H   0  0  0  0  0  0  0  0  0  0  0  0
    0.9278    0.8278   -2.4957 H   0  0  0  0  0  0  0  0  0  0  0  0
    0.3724    0.5200   -0.4020 C   0  0  1  0  0  0  0  0  0  0  0  0
    1.2472   -0.1306   -0.3978 H   0  0  0  0  0  0  0  0  0  0  0  0
    0.4071    1.4352    0.8334 C   0  0  0  0  0  0  0  0  0  0  0  0
    0.6407    0.9706    1.9474 O   0  0  0  0  0  0  0  0  0  0  0  0
    0.1346    2.7310    0.6378 N   0  0  0  0  0  0  0  0  0  0  0  0
    0.0121    3.0452   -0.3115 H   0  0  0  0  0  0  0  0  0  0  0  0
    0.1175    3.7311    1.7027 C   0  0  0  0  0  0  0  0  0  0  0  0
    1.1219    3.8384    2.1178 H   0  0  0  0  0  0  0  0  0  0  0  0
   -0.2171    4.6932    1.3135 H   0  0  0  0  0  0  0  0  0  0  0  0
   -0.5547    3.4093    2.5011 H   0  0  0  0  0  0  0  0  0  0  0  0
  5  6  2  0  0  0  0
  5  7  1  0  0  0  0
  2  3  1  0  0  0  0
  2  4  1  0  0  0  0
  2  5  1  0  0  0  0
  1  2  1  0  0  0  0
 19 20  2  0  0  0  0
 19 21  1  0  0  0  0
 17 18  1  0  0  0  0
 17 19  1  0  0  0  0
 14 15  1  0  0  0  0
 14 16  1  0  0  0  0
 14 17  1  0  0  0  0
 11 12  1  0  0  0  0
 11 13  1  0  0  0  0
 11 14  1  0  0  0  0
  8  9  1  0  0  0  0
  8 10  1  0  0  0  0
  8 11  1  0  0  0  0
  7  8  1  0  0  0  0
  7 17  1  0  0  0  0
 23 24  1  0  0  0  0
 23 25  1  0  0  0  0
 23 26  1  0  0  0  0
 21 22  1  0  0  0  0
 21 23  1  0  0  0  0
M  END
$$$$
default_name
  -OEChem-11182114113D

 26 26  0     1  0  0  0  0  0999 V2000
   -1.8446   -3.5060   -0.3010 H   0  0  0  0  0  0  0  0  0  0  0  0
   -2.0746   -2.4490   -0.4240 C   0  0  0  0  0  0  0  0  0  0  0  0
   -2.6906   -2.1160    0.4090 H   0  0  0  0  0  0  0  0  0  0  0  0
   -2.5986   -2.2980   -1.3650 H   0  0  0  0  0  0  0  0  0  0  0  0
   -0.7756   -1.6630   -0.4350 C   0  0  0  0  0  0  0  0  0  0  0  0
    0.2844   -2.2800   -0.4550 O   0  0  0  0  0  0  0  0  0  0  0  0
   -0.8246   -0.3180   -0.4350 N   0  0  0  0  0  0  0  0  0  0  0  0
   -2.0106    0.5080   -0.5910 C   0  0  0  0  0  0  0  0  0  0  0  0
   -2.2435    1.2322    0.1914 H   0  0  0  0  0  0  0  0  0  0  0  0
   -2.9272    0.1097   -1.0248 H   0  0  0  0  0  0  0  0  0  0  0  0
   -1.1641    1.1681   -1.6773 C   0  0  0  0  0  0  0  0  0  0  0  0
   -1.6737    2.1326   -1.7002 H   0  0  0  0  0  0  0  0  0  0  0  0
   -1.4895    0.5381   -2.5058 H   0  0  0  0  0  0  0  0  0  0  0  0
    0.3561    1.3246   -1.7120 C   0  0  0  0  0  0  0  0  0  0  0  0
    0.7406    2.3330   -1.5465 H   0  0  0  0  0  0  0  0  0  0  0  0
    0.9278    0.8278   -2.4957 H   0  0  0  0  0  0  0  0  0  0  0  0
    0.3724    0.5200   -0.4020 C   0  0  1  0  0  0  0  0  0  0  0  0
    1.2472   -0.1306   -0.3978 H   0  0  0  0  0  0  0  0  0  0  0  0
    0.4071    1.4352    0.8334 C   0  0  0  0  0  0  0  0  0  0  0  0
    0.9014    1.0411    1.8878 O   0  0  0  0  0  0  0  0  0  0  0  0
   -0.1552    2.6437    0.7106 N   0  0  0  0  0  0  0  0  0  0  0  0
   -0.4855    2.9155   -0.2015 H   0  0  0  0  0  0  0  0  0  0  0  0
   -0.2145    3.6293    1.7874 C   0  0  0  0  0  0  0  0  0  0  0  0
    0.7976    3.9479    2.0457 H   0  0  0  0  0  0  0  0  0  0  0  0
   -0.7975    4.4965    1.4755 H   0  0  0  0  0  0  0  0  0  0  0  0
   -0.6736    3.1829    2.6722 H   0  0  0  0  0  0  0  0  0  0  0  0
  5  6  2  0  0  0  0
  5  7  1  0  0  0  0
  2  3  1  0  0  0  0
  2  4  1  0  0  0  0
  2  5  1  0  0  0  0
  1  2  1  0  0  0  0
 19 20  2  0  0  0  0
 19 21  1  0  0  0  0
 17 18  1  0  0  0  0
 17 19  1  0  0  0  0
 14 15  1  0  0  0  0
 14 16  1  0  0  0  0
 14 17  1  0  0  0  0
 11 12  1  0  0  0  0
 11 13  1  0  0  0  0
 11 14  1  0  0  0  0
  8  9  1  0  0  0  0
  8 10  1  0  0  0  0
  8 11  1  0  0  0  0
  7  8  1  0  0  0  0
  7 17  1  0  0  0  0
 23 24  1  0  0  0  0
 23 25  1  0  0  0  0
 23 26  1  0  0  0  0
 21 22  1  0  0  0  0
 21 23  1  0  0  0  0
M  END
$$$$
default_name
  -OEChem-11182114113D

 26 26  0     1  0  0  0  0  0999 V2000
   -1.8446   -3.5060   -0.3010 H   0  0  0  0  0  0  0  0  0  0  0  0
   -2.0746   -2.4490   -0.4240 C   0  0  0  0  0  0  0  0  0  0  0  0
   -2.6906   -2.1160    0.4090 H   0  0  0  0  0  0  0  0  0  0  0  0
   -2.5986   -2.2980   -1.3650 H   0  0  0  0  0  0  0  0  0  0  0  0
   -0.7756   -1.6630   -0.4350 C   0  0  0  0  0  0  0  0  0  0  0  0
    0.2844   -2.2800   -0.4550 O   0  0  0  0  0  0  0  0  0  0  0  0
   -0.8246   -0.3180   -0.4350 N   0  0  0  0  0  0  0  0  0  0  0  0
   -2.0106    0.5080   -0.5910 C   0  0  0  0  0  0  0  0  0  0  0  0
   -2.2435    1.2322    0.1914 H   0  0  0  0  0  0  0  0  0  0  0  0
   -2.9272    0.1097   -1.0248 H   0  0  0  0  0  0  0  0  0  0  0  0
   -1.1641    1.1681   -1.6773 C   0  0  0  0  0  0  0  0  0  0  0  0
   -1.6737    2.1326   -1.7002 H   0  0  0  0  0  0  0  0  0  0  0  0
   -1.4895    0.5381   -2.5058 H   0  0  0  0  0  0  0  0  0  0  0  0
    0.3561    1.3246   -1.7120 C   0  0  0  0  0  0  0  0  0  0  0  0
    0.7406    2.3330   -1.5465 H   0  0  0  0  0  0  0  0  0  0  0  0
    0.9278    0.8278   -2.4957 H   0  0  0  0  0  0  0  0  0  0  0  0
    0.3724    0.5200   -0.4020 C   0  0  1  0  0  0  0  0  0  0  0  0
    1.2472   -0.1306   -0.3978 H   0  0  0  0  0  0  0  0  0  0  0  0
    0.4071    1.4352    0.8334 C   0  0  0  0  0  0  0  0  0  0  0  0
    1.1294    1.1639    1.7905 O   0  0  0  0  0  0  0  0  0  0  0  0
   -0.4057    2.4986    0.8250 N   0  0  0  0  0  0  0  0  0  0  0  0
   -0.9223    2.6861   -0.0193 H   0  0  0  0  0  0  0  0  0  0  0  0
   -0.5010    3.4615    1.9197 C   0  0  0  0  0  0  0  0  0  0  0  0
    0.4505    3.9867    2.0267 H   0  0  0  0  0  0  0  0  0  0  0  0
   -1.2923    4.1848    1.7202 H   0  0  0  0  0  0  0  0  0  0  0  0
   -0.7150    2.9385    2.8544 H   0  0  0  0  0  0  0  0  0  0  0  0
  5  6  2  0  0  0  0
  5  7  1  0  0  0  0
  2  3  1  0  0  0  0
  2  4  1  0  0  0  0
  2  5  1  0  0  0  0
  1  2  1  0  0  0  0
 19 20  2  0  0  0  0
 19 21  1  0  0  0  0
 17 18  1  0  0  0  0
 17 19  1  0  0  0  0
 14 15  1  0  0  0  0
 14 16  1  0  0  0  0
 14 17  1  0  0  0  0
 11 12  1  0  0  0  0
 11 13  1  0  0  0  0
 11 14  1  0  0  0  0
  8  9  1  0  0  0  0
  8 10  1  0  0  0  0
  8 11  1  0  0  0  0
  7  8  1  0  0  0  0
  7 17  1  0  0  0  0
 23 24  1  0  0  0  0
 23 25  1  0  0  0  0
 23 26  1  0  0  0  0
 21 22  1  0  0  0  0
 21 23  1  0  0  0  0
M  END
$$$$
default_name
  -OEChem-11182114113D

 26 26  0     1  0  0  0  0  0999 V2000
   -1.8446   -3.5060   -0.3010 H   0  0  0  0  0  0  0  0  0  0  0  0
   -2.0746   -2.4490   -0.4240 C   0  0  0  0  0  0  0  0  0  0  0  0
   -2.6906   -2.1160    0.4090 H   0  0  0  0  0  0  0  0  0  0  0  0
   -2.5986   -2.2980   -1.3650 H   0  0  0  0  0  0  0  0  0  0  0  0
   -0.7756   -1.6630   -0.4350 C   0  0  0  0  0  0  0  0  0  0  0  0
    0.2844   -2.2800   -0.4550 O   0  0  0  0  0  0  0  0  0  0  0  0
   -0.8246   -0.3180   -0.4350 N   0  0  0  0  0  0  0  0  0  0  0  0
   -2.0106    0.5080   -0.5910 C   0  0  0  0  0  0  0  0  0  0  0  0
   -2.2435    1.2322    0.1914 H   0  0  0  0  0  0  0  0  0  0  0  0
   -2.9272    0.1097   -1.0248 H   0  0  0  0  0  0  0  0  0  0  0  0
   -1.1641    1.1681   -1.6773 C   0  0  0  0  0  0  0  0  0  0  0  0
   -1.6737    2.1326   -1.7002 H   0  0  0  0  0  0  0  0  0  0  0  0
   -1.4895    0.5381   -2.5058 H   0  0  0  0  0  0  0  0  0  0  0  0
    0.3561    1.3246   -1.7120 C   0  0  0  0  0  0  0  0  0  0  0  0
    0.7406    2.3330   -1.5465 H   0  0  0  0  0  0  0  0  0  0  0  0
    0.9278    0.8278   -2.4957 H   0  0  0  0  0  0  0  0  0  0  0  0
    0.3724    0.5200   -0.4020 C   0  0  1  0  0  0  0  0  0  0  0  0
    1.2472   -0.1306   -0.3978 H   0  0  0  0  0  0  0  0  0  0  0  0
    0.4071    1.4352    0.8334 C   0  0  0  0  0  0  0  0  0  0  0  0
    1.3091    1.3303    1.6621 O   0  0  0  0  0  0  0  0  0  0  0  0
   -0.6000    2.3058    0.9734 N   0  0  0  0  0  0  0  0  0  0  0  0
   -1.2684    2.3727    0.2226 H   0  0  0  0  0  0  0  0  0  0  0  0
   -0.7225    3.2391    2.0907 C   0  0  0  0  0  0  0  0  0  0  0  0
    0.1043    3.9521    2.0621 H   0  0  0  0  0  0  0  0  0  0  0  0
   -1.6677    3.7795    2.0310 H   0  0  0  0  0  0  0  0  0  0  0  0
   -0.6762    2.6928    3.0354 H   0  0  0  0  0  0  0  0  0  0  0  0
  5  6  2  0  0  0  0
  5  7  1  0  0  0  0
  2  3  1  0  0  0  0
  2  4  1  0  0  0  0
  2  5  1  0  0  0  0
  1  2  1  0  0  0  0
 19 20  2  0  0  0  0
 19 21  1  0  0  0  0
 17 18  1  0  0  0  0
 17 19  1  0  0  0  0
 14 15  1  0  0  0  0
 14 16  1  0  0  0  0
 14 17  1  0  0  0  0
 11 12  1  0  0  0  0
 11 13  1  0  0  0  0
 11 14  1  0  0  0  0
  8  9  1  0  0  0  0
  8 10  1  0  0  0  0
  8 11  1  0  0  0  0
  7  8  1  0  0  0  0
  7 17  1  0  0  0  0
 23 24  1  0  0  0  0
 23 25  1  0  0  0  0
 23 26  1  0  0  0  0
 21 22  1  0  0  0  0
 21 23  1  0  0  0  0
M  END
$$$$
default_name
  -OEChem-11182114113D

 26 26  0     1  0  0  0  0  0999 V2000
   -1.8446   -3.5060   -0.3010 H   0  0  0  0  0  0  0  0  0  0  0  0
   -2.0746   -2.4490   -0.4240 C   0  0  0  0  0  0  0  0  0  0  0  0
   -2.6906   -2.1160    0.4090 H   0  0  0  0  0  0  0  0  0  0  0  0
   -2.5986   -2.2980   -1.3650 H   0  0  0  0  0  0  0  0  0  0  0  0
   -0.7756   -1.6630   -0.4350 C   0  0  0  0  0  0  0  0  0  0  0  0
    0.2844   -2.2800   -0.4550 O   0  0  0  0  0  0  0  0  0  0  0  0
   -0.8246   -0.3180   -0.4350 N   0  0  0  0  0  0  0  0  0  0  0  0
   -2.0106    0.5080   -0.5910 C   0  0  0  0  0  0  0  0  0  0  0  0
   -2.2435    1.2322    0.1914 H   0  0  0  0  0  0  0  0  0  0  0  0
   -2.9272    0.1097   -1.0248 H   0  0  0  0  0  0  0  0  0  0  0  0
   -1.1641    1.1681   -1.6773 C   0  0  0  0  0  0  0  0  0  0  0  0
   -1.6737    2.1326   -1.7002 H   0  0  0  0  0  0  0  0  0  0  0  0
   -1.4895    0.5381   -2.5058 H   0  0  0  0  0  0  0  0  0  0  0  0
    0.3561    1.3246   -1.7120 C   0  0  0  0  0  0  0  0  0  0  0  0
    0.7406    2.3330   -1.5465 H   0  0  0  0  0  0  0  0  0  0  0  0
    0.9278    0.8278   -2.4957 H   0  0  0  0  0  0  0  0  0  0  0  0
    0.3724    0.5200   -0.4020 C   0  0  1  0  0  0  0  0  0  0  0  0
    1.2472   -0.1306   -0.3978 H   0  0  0  0  0  0  0  0  0  0  0  0
    0.4071    1.4352    0.8334 C   0  0  0  0  0  0  0  0  0  0  0  0
    1.4282    1.5293    1.5114 O   0  0  0  0  0  0  0  0  0  0  0  0
   -0.7246    2.0783    1.1454 N   0  0  0  0  0  0  0  0  0  0  0  0
   -1.5003    1.9966    0.5077 H   0  0  0  0  0  0  0  0  0  0  0  0
   -0.8638    2.9772    2.2887 C   0  0  0  0  0  0  0  0  0  0  0  0
   -0.2176    3.8465    2.1494 H   0  0  0  0  0  0  0  0  0  0  0  0
   -1.8982    3.3081    2.3867 H   0  0  0  0  0  0  0  0  0  0  0  0
   -0.5597    2.4624    3.2028 H   0  0  0  0  0  0  0  0  0  0  0  0
  5  6  2  0  0  0  0
  5  7  1  0  0  0  0
  2  3  1  0  0  0  0
  2  4  1  0  0  0  0
  2  5  1  0  0  0  0
  1  2  1  0  0  0  0
 19 20  2  0  0  0  0
 19 21  1  0  0  0  0
 17 18  1  0  0  0  0
 17 19  1  0  0  0  0
 14 15  1  0  0  0  0
 14 16  1  0  0  0  0
 14 17  1  0  0  0  0
 11 12  1  0  0  0  0
 11 13  1  0  0  0  0
 11 14  1  0  0  0  0
  8  9  1  0  0  0  0
  8 10  1  0  0  0  0
  8 11  1  0  0  0  0
  7  8  1  0  0  0  0
  7 17  1  0  0  0  0
 23 24  1  0  0  0  0
 23 25  1  0  0  0  0
 23 26  1  0  0  0  0
 21 22  1  0  0  0  0
 21 23  1  0  0  0  0
M  END
$$$$
default_name
  -OEChem-11182114113D

 26 26  0     1  0  0  0  0  0999 V2000
   -1.8446   -3.5060   -0.3010 H   0  0  0  0  0  0  0  0  0  0  0  0
   -2.0746   -2.4490   -0.4240 C   0  0  0  0  0  0  0  0  0  0  0  0
   -2.6906   -2.1160    0.4090 H   0  0  0  0  0  0  0  0  0  0  0  0
   -2.5986   -2.2980   -1.3650 H   0  0  0  0  0  0  0  0  0  0  0  0
   -0.7756   -1.6630   -0.4350 C   0  0  0  0  0  0  0  0  0  0  0  0
    0.2844   -2.2800   -0.4550 O   0  0  0  0  0  0  0  0  0  0  0  0
   -0.8246   -0.3180   -0.4350 N   0  0  0  0  0  0  0  0  0  0  0  0
   -2.0106    0.5080   -0.5910 C   0  0  0  0  0  0  0  0  0  0  0  0
   -2.2435    1.2322    0.1914 H   0  0  0  0  0  0  0  0  0  0  0  0
   -2.9272    0.1097   -1.0248 H   0  0  0  0  0  0  0  0  0  0  0  0
   -1.1641    1.1681   -1.6773 C   0  0  0  0  0  0  0  0  0  0  0  0
   -1.6737    2.1326   -1.7002 H   0  0  0  0  0  0  0  0  0  0  0  0
   -1.4895    0.5381   -2.5058 H   0  0  0  0  0  0  0  0  0  0  0  0
    0.3561    1.3246   -1.7120 C   0  0  0  0  0  0  0  0  0  0  0  0
    0.7406    2.3330   -1.5465 H   0  0  0  0  0  0  0  0  0  0  0  0
    0.9278    0.8278   -2.4957 H   0  0  0  0  0  0  0  0  0  0  0  0
    0.3724    0.5200   -0.4020 C   0  0  1  0  0  0  0  0  0  0  0  0
    1.2472   -0.1306   -0.3978 H   0  0  0  0  0  0  0  0  0  0  0  0
    0.4071    1.4352    0.8334 C   0  0  0  0  0  0  0  0  0  0  0  0
    1.4788    1.7471    1.3486 O   0  0  0  0  0  0  0  0  0  0  0  0
   -0.7713    1.8316    1.3295 N   0  0  0  0  0  0  0  0  0  0  0  0
   -1.6021    1.5834    0.8167 H   0  0  0  0  0  0  0  0  0  0  0  0
   -0.9153    2.6936    2.5002 C   0  0  0  0  0  0  0  0  0  0  0  0
   -0.4930    3.6770    2.2826 H   0  0  0  0  0  0  0  0  0  0  0  0
   -1.9680    2.8028    2.7630 H   0  0  0  0  0  0  0  0  0  0  0  0
   -0.3734    2.2632    3.3451 H   0  0  0  0  0  0  0  0  0  0  0  0
  5  6  2  0  0  0  0
  5  7  1  0  0  0  0
  2  3  1  0  0  0  0
  2  4  1  0  0  0  0
  2  5  1  0  0  0  0
  1  2  1  0  0  0  0
 19 20  2  0  0  0  0
 19 21  1  0  0  0  0
 17 18  1  0  0  0  0
 17 19  1  0  0  0  0
 14 15  1  0  0  0  0
 14 16  1  0  0  0  0
 14 17  1  0  0  0  0
 11 12  1  0  0  0  0
 11 13  1  0  0  0  0
 11 14  1  0  0  0  0
  8  9  1  0  0  0  0
  8 10  1  0  0  0  0
  8 11  1  0  0  0  0
  7  8  1  0  0  0  0
  7 17  1  0  0  0  0
 23 24  1  0  0  0  0
 23 25  1  0  0  0  0
 23 26  1  0  0  0  0
 21 22  1  0  0  0  0
 21 23  1  0  0  0  0
M  END
$$$$
default_name
  -OEChem-11182114113D

 26 26  0     1  0  0  0  0  0999 V2000
   -1.8446   -3.5060   -0.3010 H   0  0  0  0  0  0  0  0  0  0  0  0
   -2.0746   -2.4490   -0.4240 C   0  0  0  0  0  0  0  0  0  0  0  0
   -2.6906   -2.1160    0.4090 H   0  0  0  0  0  0  0  0  0  0  0  0
   -2.5986   -2.2980   -1.3650 H   0  0  0  0  0  0  0  0  0  0  0  0
   -0.7756   -1.6630   -0.4350 C   0  0  0  0  0  0  0  0  0  0  0  0
    0.2844   -2.2800   -0.4550 O   0  0  0  0  0  0  0  0  0  0  0  0
   -0.8246   -0.3180   -0.4350 N   0  0  0  0  0  0  0  0  0  0  0  0
   -2.0106    0.5080   -0.5910 C   0  0  0  0  0  0  0  0  0  0  0  0
   -2.2435    1.2322    0.1914 H   0  0  0  0  0  0  0  0  0  0  0  0
   -2.9272    0.1097   -1.0248 H   0  0  0  0  0  0  0  0  0  0  0  0
   -1.1641    1.1681   -1.6773 C   0  0  0  0  0  0  0  0  0  0  0  0
   -1.6737    2.1326   -1.7002 H   0  0  0  0  0  0  0  0  0  0  0  0
   -1.4895    0.5381   -2.5058 H   0  0  0  0  0  0  0  0  0  0  0  0
    0.3561    1.3246   -1.7120 C   0  0  0  0  0  0  0  0  0  0  0  0
    0.7406    2.3330   -1.5465 H   0  0  0  0  0  0  0  0  0  0  0  0
    0.9278    0.8278   -2.4957 H   0  0  0  0  0  0  0  0  0  0  0  0
    0.3724    0.5200   -0.4020 C   0  0  1  0  0  0  0  0  0  0  0  0
    1.2472   -0.1306   -0.3978 H   0  0  0  0  0  0  0  0  0  0  0  0
    0.4071    1.4352    0.8334 C   0  0  0  0  0  0  0  0  0  0  0  0
    1.4573    1.9689    1.1849 O   0  0  0  0  0  0  0  0  0  0  0  0
   -0.7366    1.5825    1.5130 N   0  0  0  0  0  0  0  0  0  0  0  0
   -1.5670    1.1613    1.1284 H   0  0  0  0  0  0  0  0  0  0  0  0
   -0.8736    2.4078    2.7108 C   0  0  0  0  0  0  0  0  0  0  0  0
   -0.7033    3.4553    2.4528 H   0  0  0  0  0  0  0  0  0  0  0  0
   -1.8724    2.2980    3.1343 H   0  0  0  0  0  0  0  0  0  0  0  0
   -0.1302    2.1086    3.4528 H   0  0  0  0  0  0  0  0  0  0  0  0
  5  6  2  0  0  0  0
  5  7  1  0  0  0  0
  2  3  1  0  0  0  0
  2  4  1  0  0  0  0
  2  5  1  0  0  0  0
  1  2  1  0  0  0  0
 19 20  2  0  0  0  0
 19 21  1  0  0  0  0
 17 18  1  0  0  0  0
 17 19  1  0  0  0  0
 14 15  1  0  0  0  0
 14 16  1  0  0  0  0
 14 17  1  0  0  0  0
 11 12  1  0  0  0  0
 11 13  1  0  0  0  0
 11 14  1  0  0  0  0
  8  9  1  0  0  0  0
  8 10  1  0  0  0  0
  8 11  1  0  0  0  0
  7  8  1  0  0  0  0
  7 17  1  0  0  0  0
 23 24  1  0  0  0  0
 23 25  1  0  0  0  0
 23 26  1  0  0  0  0
 21 22  1  0  0  0  0
 21 23  1  0  0  0  0
M  END
$$$$
default_name
  -OEChem-11182114113D

 26 26  0     1  0  0  0  0  0999 V2000
   -1.8446   -3.5060   -0.3010 H   0  0  0  0  0  0  0  0  0  0  0  0
   -2.0746   -2.4490   -0.4240 C   0  0  0  0  0  0  0  0  0  0  0  0
   -2.6906   -2.1160    0.4090 H   0  0  0  0  0  0  0  0  0  0  0  0
   -2.5986   -2.2980   -1.3650 H   0  0  0  0  0  0  0  0  0  0  0  0
   -0.7756   -1.6630   -0.4350 C   0  0  0  0  0  0  0  0  0  0  0  0
    0.2844   -2.2800   -0.4550 O   0  0  0  0  0  0  0  0  0  0  0  0
   -0.8246   -0.3180   -0.4350 N   0  0  0  0  0  0  0  0  0  0  0  0
   -2.0106    0.5080   -0.5910 C   0  0  0  0  0  0  0  0  0  0  0  0
   -2.2435    1.2322    0.1914 H   0  0  0  0  0  0  0  0  0  0  0  0
   -2.9272    0.1097   -1.0248 H   0  0  0  0  0  0  0  0  0  0  0  0
   -1.1641    1.1681   -1.6773 C   0  0  0  0  0  0  0  0  0  0  0  0
   -1.6737    2.1326   -1.7002 H   0  0  0  0  0  0  0  0  0  0  0  0
   -1.4895    0.5381   -2.5058 H   0  0  0  0  0  0  0  0  0  0  0  0
    0.3561    1.3246   -1.7120 C   0  0  0  0  0  0  0  0  0  0  0  0
    0.7406    2.3330   -1.5465 H   0  0  0  0  0  0  0  0  0  0  0  0
    0.9278    0.8278   -2.4957 H   0  0  0  0  0  0  0  0  0  0  0  0
    0.3724    0.5200   -0.4020 C   0  0  1  0  0  0  0  0  0  0  0  0
    1.2472   -0.1306   -0.3978 H   0  0  0  0  0  0  0  0  0  0  0  0
    0.4071    1.4352    0.8334 C   0  0  0  0  0  0  0  0  0  0  0  0
    1.3651    2.1797    1.0313 O   0  0  0  0  0  0  0  0  0  0  0  0
   -0.6232    1.3481    1.6835 N   0  0  0  0  0  0  0  0  0  0  0  0
   -1.3974    0.7590    1.4216 H   0  0  0  0  0  0  0  0  0  0  0  0
   -0.7414    2.1392    2.9061 C   0  0  0  0  0  0  0  0  0  0  0  0
   -0.8342    3.1964    2.6482 H   0  0  0  0  0  0  0  0  0  0  0  0
   -1.6180    1.8281    3.4753 H   0  0  0  0  0  0  0  0  0  0  0  0
    0.1535    2.0092    3.5185 H   0  0  0  0  0  0  0  0  0  0  0  0
  5  6  2  0  0  0  0
  5  7  1  0  0  0  0
  2  3  1  0  0  0  0
  2  4  1  0  0  0  0
  2  5  1  0  0  0  0
  1  2  1  0  0  0  0
 19 20  2  0  0  0  0
 19 21  1  0  0  0  0
 17 18  1  0  0  0  0
 17 19  1  0  0  0  0
 14 15  1  0  0  0  0
 14 16  1  0  0  0  0
 14 17  1  0  0  0  0
 11 12  1  0  0  0  0
 11 13  1  0  0  0  0
 11 14  1  0  0  0  0
  8  9  1  0  0  0  0
  8 10  1  0  0  0  0
  8 11  1  0  0  0  0
  7  8  1  0  0  0  0
  7 17  1  0  0  0  0
 23 24  1  0  0  0  0
 23 25  1  0  0  0  0
 23 26  1  0  0  0  0
 21 22  1  0  0  0  0
 21 23  1  0  0  0  0
M  END
$$$$
default_name
  -OEChem-11182114113D

 26 26  0     1  0  0  0  0  0999 V2000
   -1.8446   -3.5060   -0.3010 H   0  0  0  0  0  0  0  0  0  0  0  0
   -2.0746   -2.4490   -0.4240 C   0  0  0  0  0  0  0  0  0  0  0  0
   -2.6906   -2.1160    0.4090 H   0  0  0  0  0  0  0  0  0  0  0  0
   -2.5986   -2.2980   -1.3650 H   0  0  0  0  0  0  0  0  0  0  0  0
   -0.7756   -1.6630   -0.4350 C   0  0  0  0  0  0  0  0  0  0  0  0
    0.2844   -2.2800   -0.4550 O   0  0  0  0  0  0  0  0  0  0  0  0
   -0.8246   -0.3180   -0.4350 N   0  0  0  0  0  0  0  0  0  0  0  0
   -2.0106    0.5080   -0.5910 C   0  0  0  0  0  0  0  0  0  0  0  0
   -2.2435    1.2322    0.1914 H   0  0  0  0  0  0  0  0  0  0  0  0
   -2.9272    0.1097   -1.0248 H   0  0  0  0  0  0  0  0  0  0  0  0
   -1.1641    1.1681   -1.6773 C   0  0  0  0  0  0  0  0  0  0  0  0
   -1.6737    2.1326   -1.7002 H   0  0  0  0  0  0  0  0  0  0  0  0
   -1.4895    0.5381   -2.5058 H   0  0  0  0  0  0  0  0  0  0  0  0
    0.3561    1.3246   -1.7120 C   0  0  0  0  0  0  0  0  0  0  0  0
    0.7406    2.3330   -1.5465 H   0  0  0  0  0  0  0  0  0  0  0  0
    0.9278    0.8278   -2.4957 H   0  0  0  0  0  0  0  0  0  0  0  0
    0.3724    0.5200   -0.4020 C   0  0  1  0  0  0  0  0  0  0  0  0
    1.2472   -0.1306   -0.3978 H   0  0  0  0  0  0  0  0  0  0  0  0
    0.4071    1.4352    0.8334 C   0  0  0  0  0  0  0  0  0  0  0  0
    1.2087    2.3650    0.8984 O   0  0  0  0  0  0  0  0  0  0  0  0
   -0.4385    1.1442    1.8294 N   0  0  0  0  0  0  0  0  0  0  0  0
   -1.1047    0.4041    1.6764 H   0  0  0  0  0  0  0  0  0  0  0  0
   -0.5279    1.9061    3.0728 C   0  0  0  0  0  0  0  0  0  0  0  0
   -0.8766    2.9180    2.8557 H   0  0  0  0  0  0  0  0  0  0  0  0
   -1.2220    1.4251    3.7627 H   0  0  0  0  0  0  0  0  0  0  0  0
    0.4583    1.9719    3.5376 H   0  0  0  0  0  0  0  0  0  0  0  0
  5  6  2  0  0  0  0
  5  7  1  0  0  0  0
  2  3  1  0  0  0  0
  2  4  1  0  0  0  0
  2  5  1  0  0  0  0
  1  2  1  0  0  0  0
 19 20  2  0  0  0  0
 19 21  1  0  0  0  0
 17 18  1  0  0  0  0
 17 19  1  0  0  0  0
 14 15  1  0  0  0  0
 14 16  1  0  0  0  0
 14 17  1  0  0  0  0
 11 12  1  0  0  0  0
 11 13  1  0  0  0  0
 11 14  1  0  0  0  0
  8  9  1  0  0  0  0
  8 10  1  0  0  0  0
  8 11  1  0  0  0  0
  7  8  1  0  0  0  0
  7 17  1  0  0  0  0
 23 24  1  0  0  0  0
 23 25  1  0  0  0  0
 23 26  1  0  0  0  0
 21 22  1  0  0  0  0
 21 23  1  0  0  0  0
M  END
$$$$
default_name
  -OEChem-11182114113D

 26 26  0     1  0  0  0  0  0999 V2000
   -1.8446   -3.5060   -0.3010 H   0  0  0  0  0  0  0  0  0  0  0  0
   -2.0746   -2.4490   -0.4240 C   0  0  0  0  0  0  0  0  0  0  0  0
   -2.6906   -2.1160    0.4090 H   0  0  0  0  0  0  0  0  0  0  0  0
   -2.5986   -2.2980   -1.3650 H   0  0  0  0  0  0  0  0  0  0  0  0
   -0.7756   -1.6630   -0.4350 C   0  0  0  0  0  0  0  0  0  0  0  0
    0.2844   -2.2800   -0.4550 O   0  0  0  0  0  0  0  0  0  0  0  0
   -0.8246   -0.3180   -0.4350 N   0  0  0  0  0  0  0  0  0  0  0  0
   -2.0106    0.5080   -0.5910 C   0  0  0  0  0  0  0  0  0  0  0  0
   -2.2435    1.2322    0.1914 H   0  0  0  0  0  0  0  0  0  0  0  0
   -2.9272    0.1097   -1.0248 H   0  0  0  0  0  0  0  0  0  0  0  0
   -1.1641    1.1681   -1.6773 C   0  0  0  0  0  0  0  0  0  0  0  0
   -1.6737    2.1326   -1.7002 H   0  0  0  0  0  0  0  0  0  0  0  0
   -1.4895    0.5381   -2.5058 H   0  0  0  0  0  0  0  0  0  0  0  0
    0.3561    1.3246   -1.7120 C   0  0  0  0  0  0  0  0  0  0  0  0
    0.7406    2.3330   -1.5465 H   0  0  0  0  0  0  0  0  0  0  0  0
    0.9278    0.8278   -2.4957 H   0  0  0  0  0  0  0  0  0  0  0  0
    0.3724    0.5200   -0.4020 C   0  0  1  0  0  0  0  0  0  0  0  0
    1.2472   -0.1306   -0.3978 H   0  0  0  0  0  0  0  0  0  0  0  0
    0.4071    1.4352    0.8334 C   0  0  0  0  0  0  0  0  0  0  0  0
    0.9985    2.5123    0.7952 O   0  0  0  0  0  0  0  0  0  0  0  0
   -0.1953    0.9848    1.9406 N   0  0  0  0  0  0  0  0  0  0  0  0
   -0.7089    0.1206    1.8753 H   0  0  0  0  0  0  0  0  0  0  0  0
   -0.2474    1.7243    3.1996 C   0  0  0  0  0  0  0  0  0  0  0  0
   -0.8278    2.6390    3.0610 H   0  0  0  0  0  0  0  0  0  0  0  0
   -0.7114    1.1166    3.9770 H   0  0  0  0  0  0  0  0  0  0  0  0
    0.7634    1.9990    3.5090 H   0  0  0  0  0  0  0  0  0  0  0  0
  5  6  2  0  0  0  0
  5  7  1  0  0  0  0
  2  3  1  0  0  0  0
  2  4  1  0  0  0  0
  2  5  1  0  0  0  0
  1  2  1  0  0  0  0
 19 20  2  0  0  0  0
 19 21  1  0  0  0  0
 17 18  1  0  0  0  0
 17 19  1  0  0  0  0
 14 15  1  0  0  0  0
 14 16  1  0  0  0  0
 14 17  1  0  0  0  0
 11 12  1  0  0  0  0
 11 13  1  0  0  0  0
 11 14  1  0  0  0  0
  8  9  1  0  0  0  0
  8 10  1  0  0  0  0
  8 11  1  0  0  0  0
  7  8  1  0  0  0  0
  7 17  1  0  0  0  0
 23 24  1  0  0  0  0
 23 25  1  0  0  0  0
 23 26  1  0  0  0  0
 21 22  1  0  0  0  0
 21 23  1  0  0  0  0
M  END
$$$$
default_name
  -OEChem-11182114113D

 26 26  0     1  0  0  0  0  0999 V2000
   -1.8446   -3.5060   -0.3010 H   0  0  0  0  0  0  0  0  0  0  0  0
   -2.0746   -2.4490   -0.4240 C   0  0  0  0  0  0  0  0  0  0  0  0
   -2.6906   -2.1160    0.4090 H   0  0  0  0  0  0  0  0  0  0  0  0
   -2.5986   -2.2980   -1.3650 H   0  0  0  0  0  0  0  0  0  0  0  0
   -0.7756   -1.6630   -0.4350 C   0  0  0  0  0  0  0  0  0  0  0  0
    0.2844   -2.2800   -0.4550 O   0  0  0  0  0  0  0  0  0  0  0  0
   -0.8246   -0.3180   -0.4350 N   0  0  0  0  0  0  0  0  0  0  0  0
   -2.0106    0.5080   -0.5910 C   0  0  0  0  0  0  0  0  0  0  0  0
   -2.2435    1.2322    0.1914 H   0  0  0  0  0  0  0  0  0  0  0  0
   -2.9272    0.1097   -1.0248 H   0  0  0  0  0  0  0  0  0  0  0  0
   -1.1641    1.1681   -1.6773 C   0  0  0  0  0  0  0  0  0  0  0  0
   -1.6737    2.1326   -1.7002 H   0  0  0  0  0  0  0  0  0  0  0  0
   -1.4895    0.5381   -2.5058 H   0  0  0  0  0  0  0  0  0  0  0  0
    0.3561    1.3246   -1.7120 C   0  0  0  0  0  0  0  0  0  0  0  0
    0.7406    2.3330   -1.5465 H   0  0  0  0  0  0  0  0  0  0  0  0
    0.9278    0.8278   -2.4957 H   0  0  0  0  0  0  0  0  0  0  0  0
    0.3724    0.5200   -0.4020 C   0  0  1  0  0  0  0  0  0  0  0  0
    1.2472   -0.1306   -0.3978 H   0  0  0  0  0  0  0  0  0  0  0  0
    0.4071    1.4352    0.8334 C   0  0  0  0  0  0  0  0  0  0  0  0
    0.7490    2.6114    0.7288 O   0  0  0  0  0  0  0  0  0  0  0  0
    0.0898    0.8808    2.0097 N   0  0  0  0  0  0  0  0  0  0  0  0
   -0.2370   -0.0721    2.0049 H   0  0  0  0  0  0  0  0  0  0  0  0
    0.0808    1.6064    3.2778 C   0  0  0  0  0  0  0  0  0  0  0  0
   -0.6910    2.3785    3.2501 H   0  0  0  0  0  0  0  0  0  0  0  0
   -0.1211    0.9234    4.1035 H   0  0  0  0  0  0  0  0  0  0  0  0
    1.0481    2.0888    3.4344 H   0  0  0  0  0  0  0  0  0  0  0  0
  5  6  2  0  0  0  0
  5  7  1  0  0  0  0
  2  3  1  0  0  0  0
  2  4  1  0  0  0  0
  2  5  1  0  0  0  0
  1  2  1  0  0  0  0
 19 20  2  0  0  0  0
 19 21  1  0  0  0  0
 17 18  1  0  0  0  0
 17 19  1  0  0  0  0
 14 15  1  0  0  0  0
 14 16  1  0  0  0  0
 14 17  1  0  0  0  0
 11 12  1  0  0  0  0
 11 13  1  0  0  0  0
 11 14  1  0  0  0  0
  8  9  1  0  0  0  0
  8 10  1  0  0  0  0
  8 11  1  0  0  0  0
  7  8  1  0  0  0  0
  7 17  1  0  0  0  0
 23 24  1  0  0  0  0
 23 25  1  0  0  0  0
 23 26  1  0  0  0  0
 21 22  1  0  0  0  0
 21 23  1  0  0  0  0
M  END
$$$$
default_name
  -OEChem-11182114113D

 26 26  0     1  0  0  0  0  0999 V2000
   -1.8446   -3.5060   -0.3010 H   0  0  0  0  0  0  0  0  0  0  0  0
   -2.0746   -2.4490   -0.4240 C   0  0  0  0  0  0  0  0  0  0  0  0
   -2.6906   -2.1160    0.4090 H   0  0  0  0  0  0  0  0  0  0  0  0
   -2.5986   -2.2980   -1.3650 H   0  0  0  0  0  0  0  0  0  0  0  0
   -0.7756   -1.6630   -0.4350 C   0  0  0  0  0  0  0  0  0  0  0  0
    0.2844   -2.2800   -0.4550 O   0  0  0  0  0  0  0  0  0  0  0  0
   -0.8246   -0.3180   -0.4350 N   0  0  0  0  0  0  0  0  0  0  0  0
   -2.0106    0.5080   -0.5910 C   0  0  0  0  0  0  0  0  0  0  0  0
   -2.2435    1.2322    0.1914 H   0  0  0  0  0  0  0  0  0  0  0  0
   -2.9272    0.1097   -1.0248 H   0  0  0  0  0  0  0  0  0  0  0  0
   -1.1641    1.1681   -1.6773 C   0  0  0  0  0  0  0  0  0  0  0  0
   -1.6737    2.1326   -1.7002 H   0  0  0  0  0  0  0  0  0  0  0  0
   -1.4895    0.5381   -2.5058 H   0  0  0  0  0  0  0  0  0  0  0  0
    0.3561    1.3246   -1.7120 C   0  0  0  0  0  0  0  0  0  0  0  0
    0.7406    2.3330   -1.5465 H   0  0  0  0  0  0  0  0  0  0  0  0
    0.9278    0.8278   -2.4957 H   0  0  0  0  0  0  0  0  0  0  0  0
    0.3724    0.5200   -0.4020 C   0  0  1  0  0  0  0  0  0  0  0  0
    1.2472   -0.1306   -0.3978 H   0  0  0  0  0  0  0  0  0  0  0  0
    0.4071    1.4352    0.8334 C   0  0  0  0  0  0  0  0  0  0  0  0
    0.4772    2.6557    0.7036 O   0  0  0  0  0  0  0  0  0  0  0  0
    0.3976    0.8392    2.0319 N   0  0  0  0  0  0  0  0  0  0  0  0
    0.2788   -0.1609    2.0562 H   0  0  0  0  0  0  0  0  0  0  0  0
    0.4344    1.5602    3.3021 C   0  0  0  0  0  0  0  0  0  0  0  0
   -0.4756    2.1543    3.4102 H   0  0  0  0  0  0  0  0  0  0  0  0
    0.5088    0.8589    4.1337 H   0  0  0  0  0  0  0  0  0  0  0  0
    1.2929    2.2352    3.3191 H   0  0  0  0  0  0  0  0  0  0  0  0
  5  6  2  0  0  0  0
  5  7  1  0  0  0  0
  2  3  1  0  0  0  0
  2  4  1  0  0  0  0
  2  5  1  0  0  0  0
  1  2  1  0  0  0  0
 19 20  2  0  0  0  0
 19 21  1  0  0  0  0
 17 18  1  0  0  0  0
 17 19  1  0  0  0  0
 14 15  1  0  0  0  0
 14 16  1  0  0  0  0
 14 17  1  0  0  0  0
 11 12  1  0  0  0  0
 11 13  1  0  0  0  0
 11 14  1  0  0  0  0
  8  9  1  0  0  0  0
  8 10  1  0  0  0  0
  8 11  1  0  0  0  0
  7  8  1  0  0  0  0
  7 17  1  0  0  0  0
 23 24  1  0  0  0  0
 23 25  1  0  0  0  0
 23 26  1  0  0  0  0
 21 22  1  0  0  0  0
 21 23  1  0  0  0  0
M  END
$$$$
default_name
  -OEChem-11182114113D

 26 26  0     1  0  0  0  0  0999 V2000
   -1.8446   -3.5060   -0.3010 H   0  0  0  0  0  0  0  0  0  0  0  0
   -2.0746   -2.4490   -0.4240 C   0  0  0  0  0  0  0  0  0  0  0  0
   -2.6906   -2.1160    0.4090 H   0  0  0  0  0  0  0  0  0  0  0  0
   -2.5986   -2.2980   -1.3650 H   0  0  0  0  0  0  0  0  0  0  0  0
   -0.7756   -1.6630   -0.4350 C   0  0  0  0  0  0  0  0  0  0  0  0
    0.2844   -2.2800   -0.4550 O   0  0  0  0  0  0  0  0  0  0  0  0
   -0.8246   -0.3180   -0.4350 N   0  0  0  0  0  0  0  0  0  0  0  0
   -2.0106    0.5080   -0.5910 C   0  0  0  0  0  0  0  0  0  0  0  0
   -2.2435    1.2322    0.1914 H   0  0  0  0  0  0  0  0  0  0  0  0
   -2.9272    0.1097   -1.0248 H   0  0  0  0  0  0  0  0  0  0  0  0
   -1.1641    1.1681   -1.6773 C   0  0  0  0  0  0  0  0  0  0  0  0
   -1.6737    2.1326   -1.7002 H   0  0  0  0  0  0  0  0  0  0  0  0
   -1.4895    0.5381   -2.5058 H   0  0  0  0  0  0  0  0  0  0  0  0
    0.3561    1.3246   -1.7120 C   0  0  0  0  0  0  0  0  0  0  0  0
    0.7406    2.3330   -1.5465 H   0  0  0  0  0  0  0  0  0  0  0  0
    0.9278    0.8278   -2.4957 H   0  0  0  0  0  0  0  0  0  0  0  0
    0.3724    0.5200   -0.4020 C   0  0  1  0  0  0  0  0  0  0  0  0
    1.2472   -0.1306   -0.3978 H   0  0  0  0  0  0  0  0  0  0  0  0
    0.4071    1.4352    0.8334 C   0  0  0  0  0  0  0  0  0  0  0  0
    0.2015    2.6421    0.7214 O   0  0  0  0  0  0  0  0  0  0  0  0
    0.7069    0.8629    2.0057 N   0  0  0  0  0  0  0  0  0  0  0  0
    0.8033   -0.1397    2.0258 H   0  0  0  0  0  0  0  0  0  0  0  0
    0.7893    1.5890    3.2708 C   0  0  0  0  0  0  0  0  0  0  0  0
   -0.1962    1.9815    3.5304 H   0  0  0  0  0  0  0  0  0  0  0  0
    1.1353    0.9273    4.0655 H   0  0  0  0  0  0  0  0  0  0  0  0
    1.4811    2.4282    3.1709 H   0  0  0  0  0  0  0  0  0  0  0  0
  5  6  2  0  0  0  0
  5  7  1  0  0  0  0
  2  3  1  0  0  0  0
  2  4  1  0  0  0  0
  2  5  1  0  0  0  0
  1  2  1  0  0  0  0
 19 20  2  0  0  0  0
 19 21  1  0  0  0  0
 17 18  1  0  0  0  0
 17 19  1  0  0  0  0
 14 15  1  0  0  0  0
 14 16  1  0  0  0  0
 14 17  1  0  0  0  0
 11 12  1  0  0  0  0
 11 13  1  0  0  0  0
 11 14  1  0  0  0  0
  8  9  1  0  0  0  0
  8 10  1  0  0  0  0
  8 11  1  0  0  0  0
  7  8  1  0  0  0  0
  7 17  1  0  0  0  0
 23 24  1  0  0  0  0
 23 25  1  0  0  0  0
 23 26  1  0  0  0  0
 21 22  1  0  0  0  0
 21 23  1  0  0  0  0
M  END
$$$$
default_name
  -OEChem-11182114113D

 26 26  0     1  0  0  0  0  0999 V2000
   -1.8446   -3.5060   -0.3010 H   0  0  0  0  0  0  0  0  0  0  0  0
   -2.0746   -2.4490   -0.4240 C   0  0  0  0  0  0  0  0  0  0  0  0
   -2.6906   -2.1160    0.4090 H   0  0  0  0  0  0  0  0  0  0  0  0
   -2.5986   -2.2980   -1.3650 H   0  0  0  0  0  0  0  0  0  0  0  0
   -0.7756   -1.6630   -0.4350 C   0  0  0  0  0  0  0  0  0  0  0  0
    0.2844   -2.2800   -0.4550 O   0  0  0  0  0  0  0  0  0  0  0  0
   -0.8246   -0.3180   -0.4350 N   0  0  0  0  0  0  0  0  0  0  0  0
   -2.0106    0.5080   -0.5910 C   0  0  0  0  0  0  0  0  0  0  0  0
   -2.2435    1.2322    0.1914 H   0  0  0  0  0  0  0  0  0  0  0  0
   -2.9272    0.1097   -1.0248 H   0  0  0  0  0  0  0  0  0  0  0  0
   -1.1641    1.1681   -1.6773 C   0  0  0  0  0  0  0  0  0  0  0  0
   -1.6737    2.1326   -1.7002 H   0  0  0  0  0  0  0  0  0  0  0  0
   -1.4895    0.5381   -2.5058 H   0  0  0  0  0  0  0  0  0  0  0  0
    0.3561    1.3246   -1.7120 C   0  0  0  0  0  0  0  0  0  0  0  0
    0.7406    2.3330   -1.5465 H   0  0  0  0  0  0  0  0  0  0  0  0
    0.9278    0.8278   -2.4957 H   0  0  0  0  0  0  0  0  0  0  0  0
    0.3724    0.5200   -0.4020 C   0  0  1  0  0  0  0  0  0  0  0  0
    1.2472   -0.1306   -0.3978 H   0  0  0  0  0  0  0  0  0  0  0  0
    0.4071    1.4352    0.8334 C   0  0  0  0  0  0  0  0  0  0  0  0
   -0.0592    2.5715    0.7810 O   0  0  0  0  0  0  0  0  0  0  0  0
    0.9967    0.9502    1.9328 N   0  0  0  0  0  0  0  0  0  0  0  0
    1.3010   -0.0100    1.9157 H   0  0  0  0  0  0  0  0  0  0  0  0
    1.1213    1.6907    3.1861 C   0  0  0  0  0  0  0  0  0  0  0  0
    0.1281    1.8720    3.6024 H   0  0  0  0  0  0  0  0  0  0  0  0
    1.7157    1.1240    3.9035 H   0  0  0  0  0  0  0  0  0  0  0  0
    1.6000    2.6546    2.9998 H   0  0  0  0  0  0  0  0  0  0  0  0
  5  6  2  0  0  0  0
  5  7  1  0  0  0  0
  2  3  1  0  0  0  0
  2  4  1  0  0  0  0
  2  5  1  0  0  0  0
  1  2  1  0  0  0  0
 19 20  2  0  0  0  0
 19 21  1  0  0  0  0
 17 18  1  0  0  0  0
 17 19  1  0  0  0  0
 14 15  1  0  0  0  0
 14 16  1  0  0  0  0
 14 17  1  0  0  0  0
 11 12  1  0  0  0  0
 11 13  1  0  0  0  0
 11 14  1  0  0  0  0
  8  9  1  0  0  0  0
  8 10  1  0  0  0  0
  8 11  1  0  0  0  0
  7  8  1  0  0  0  0
  7 17  1  0  0  0  0
 23 24  1  0  0  0  0
 23 25  1  0  0  0  0
 23 26  1  0  0  0  0
 21 22  1  0  0  0  0
 21 23  1  0  0  0  0
M  END
$$$$
default_name
  -OEChem-11182114113D

 26 26  0     1  0  0  0  0  0999 V2000
   -1.8446   -3.5060   -0.3010 H   0  0  0  0  0  0  0  0  0  0  0  0
   -2.0746   -2.4490   -0.4240 C   0  0  0  0  0  0  0  0  0  0  0  0
   -2.6906   -2.1160    0.4090 H   0  0  0  0  0  0  0  0  0  0  0  0
   -2.5986   -2.2980   -1.3650 H   0  0  0  0  0  0  0  0  0  0  0  0
   -0.7756   -1.6630   -0.4350 C   0  0  0  0  0  0  0  0  0  0  0  0
    0.2844   -2.2800   -0.4550 O   0  0  0  0  0  0  0  0  0  0  0  0
   -0.8246   -0.3180   -0.4350 N   0  0  0  0  0  0  0  0  0  0  0  0
   -2.0106    0.5080   -0.5910 C   0  0  0  0  0  0  0  0  0  0  0  0
   -2.2435    1.2322    0.1914 H   0  0  0  0  0  0  0  0  0  0  0  0
   -2.9272    0.1097   -1.0248 H   0  0  0  0  0  0  0  0  0  0  0  0
   -1.1641    1.1681   -1.6773 C   0  0  0  0  0  0  0  0  0  0  0  0
   -1.6737    2.1326   -1.7002 H   0  0  0  0  0  0  0  0  0  0  0  0
   -1.4895    0.5381   -2.5058 H   0  0  0  0  0  0  0  0  0  0  0  0
    0.3561    1.3246   -1.7120 C   0  0  0  0  0  0  0  0  0  0  0  0
    0.7406    2.3330   -1.5465 H   0  0  0  0  0  0  0  0  0  0  0  0
    0.9278    0.8278   -2.4957 H   0  0  0  0  0  0  0  0  0  0  0  0
    0.3724    0.5200   -0.4020 C   0  0  1  0  0  0  0  0  0  0  0  0
    1.2472   -0.1306   -0.3978 H   0  0  0  0  0  0  0  0  0  0  0  0
    0.4071    1.4352    0.8334 C   0  0  0  0  0  0  0  0  0  0  0  0
   -0.2872    2.4488    0.8783 O   0  0  0  0  0  0  0  0  0  0  0  0
    1.2472    1.0953    1.8184 N   0  0  0  0  0  0  0  0  0  0  0  0
    1.7377    0.2194    1.7336 H   0  0  0  0  0  0  0  0  0  0  0  0
    1.4078    1.8586    3.0537 C   0  0  0  0  0  0  0  0  0  0  0  0
    0.4752    1.8332    3.6214 H   0  0  0  0  0  0  0  0  0  0  0  0
    2.2105    1.4356    3.6587 H   0  0  0  0  0  0  0  0  0  0  0  0
    1.6414    2.8990    2.8176 H   0  0  0  0  0  0  0  0  0  0  0  0
  5  6  2  0  0  0  0
  5  7  1  0  0  0  0
  2  3  1  0  0  0  0
  2  4  1  0  0  0  0
  2  5  1  0  0  0  0
  1  2  1  0  0  0  0
 19 20  2  0  0  0  0
 19 21  1  0  0  0  0
 17 18  1  0  0  0  0
 17 19  1  0  0  0  0
 14 15  1  0  0  0  0
 14 16  1  0  0  0  0
 14 17  1  0  0  0  0
 11 12  1  0  0  0  0
 11 13  1  0  0  0  0
 11 14  1  0  0  0  0
  8  9  1  0  0  0  0
  8 10  1  0  0  0  0
  8 11  1  0  0  0  0
  7  8  1  0  0  0  0
  7 17  1  0  0  0  0
 23 24  1  0  0  0  0
 23 25  1  0  0  0  0
 23 26  1  0  0  0  0
 21 22  1  0  0  0  0
 21 23  1  0  0  0  0
M  END
$$$$
default_name
  -OEChem-11182114113D

 26 26  0     1  0  0  0  0  0999 V2000
   -1.8446   -3.5060   -0.3010 H   0  0  0  0  0  0  0  0  0  0  0  0
   -2.0746   -2.4490   -0.4240 C   0  0  0  0  0  0  0  0  0  0  0  0
   -2.6906   -2.1160    0.4090 H   0  0  0  0  0  0  0  0  0  0  0  0
   -2.5986   -2.2980   -1.3650 H   0  0  0  0  0  0  0  0  0  0  0  0
   -0.7756   -1.6630   -0.4350 C   0  0  0  0  0  0  0  0  0  0  0  0
    0.2844   -2.2800   -0.4550 O   0  0  0  0  0  0  0  0  0  0  0  0
   -0.8246   -0.3180   -0.4350 N   0  0  0  0  0  0  0  0  0  0  0  0
   -2.0106    0.5080   -0.5910 C   0  0  0  0  0  0  0  0  0  0  0  0
   -2.2435    1.2322    0.1914 H   0  0  0  0  0  0  0  0  0  0  0  0
   -2.9272    0.1097   -1.0248 H   0  0  0  0  0  0  0  0  0  0  0  0
   -1.1641    1.1681   -1.6773 C   0  0  0  0  0  0  0  0  0  0  0  0
   -1.6737    2.1326   -1.7002 H   0  0  0  0  0  0  0  0  0  0  0  0
   -1.4895    0.5381   -2.5058 H   0  0  0  0  0  0  0  0  0  0  0  0
    0.3561    1.3246   -1.7120 C   0  0  0  0  0  0  0  0  0  0  0  0
    0.7406    2.3330   -1.5465 H   0  0  0  0  0  0  0  0  0  0  0  0
    0.9278    0.8278   -2.4957 H   0  0  0  0  0  0  0  0  0  0  0  0
    0.3724    0.5200   -0.4020 C   0  0  1  0  0  0  0  0  0  0  0  0
    1.2472   -0.1306   -0.3978 H   0  0  0  0  0  0  0  0  0  0  0  0
    0.4071    1.4352    0.8334 C   0  0  0  0  0  0  0  0  0  0  0  0
   -0.4669    2.2823    1.0066 O   0  0  0  0  0  0  0  0  0  0  0  0
    1.4415    1.2881    1.6701 N   0  0  0  0  0  0  0  0  0  0  0  0
    2.0838    0.5328    1.4916 H   0  0  0  0  0  0  0  0  0  0  0  0
    1.6293    2.0810    2.8827 C   0  0  0  0  0  0  0  0  0  0  0  0
    0.8215    1.8678    3.5861 H   0  0  0  0  0  0  0  0  0  0  0  0
    2.5859    1.8410    3.3479 H   0  0  0  0  0  0  0  0  0  0  0  0
    1.6026    3.1448    2.6366 H   0  0  0  0  0  0  0  0  0  0  0  0
  5  6  2  0  0  0  0
  5  7  1  0  0  0  0
  2  3  1  0  0  0  0
  2  4  1  0  0  0  0
  2  5  1  0  0  0  0
  1  2  1  0  0  0  0
 19 20  2  0  0  0  0
 19 21  1  0  0  0  0
 17 18  1  0  0  0  0
 17 19  1  0  0  0  0
 14 15  1  0  0  0  0
 14 16  1  0  0  0  0
 14 17  1  0  0  0  0
 11 12  1  0  0  0  0
 11 13  1  0  0  0  0
 11 14  1  0  0  0  0
  8  9  1  0  0  0  0
  8 10  1  0  0  0  0
  8 11  1  0  0  0  0
  7  8  1  0  0  0  0
  7 17  1  0  0  0  0
 23 24  1  0  0  0  0
 23 25  1  0  0  0  0
 23 26  1  0  0  0  0
 21 22  1  0  0  0  0
 21 23  1  0  0  0  0
M  END
$$$$
default_name
  -OEChem-11182114113D

 26 26  0     1  0  0  0  0  0999 V2000
   -1.8446   -3.5060   -0.3010 H   0  0  0  0  0  0  0  0  0  0  0  0
   -2.0746   -2.4490   -0.4240 C   0  0  0  0  0  0  0  0  0  0  0  0
   -2.6906   -2.1160    0.4090 H   0  0  0  0  0  0  0  0  0  0  0  0
   -2.5986   -2.2980   -1.3650 H   0  0  0  0  0  0  0  0  0  0  0  0
   -0.7756   -1.6630   -0.4350 C   0  0  0  0  0  0  0  0  0  0  0  0
    0.2844   -2.2800   -0.4550 O   0  0  0  0  0  0  0  0  0  0  0  0
   -0.8246   -0.3180   -0.4350 N   0  0  0  0  0  0  0  0  0  0  0  0
   -2.0106    0.5080   -0.5910 C   0  0  0  0  0  0  0  0  0  0  0  0
   -2.2435    1.2322    0.1914 H   0  0  0  0  0  0  0  0  0  0  0  0
   -2.9272    0.1097   -1.0248 H   0  0  0  0  0  0  0  0  0  0  0  0
   -1.1641    1.1681   -1.6773 C   0  0  0  0  0  0  0  0  0  0  0  0
   -1.6737    2.1326   -1.7002 H   0  0  0  0  0  0  0  0  0  0  0  0
   -1.4895    0.5381   -2.5058 H   0  0  0  0  0  0  0  0  0  0  0  0
    0.3561    1.3246   -1.7120 C   0  0  0  0  0  0  0  0  0  0  0  0
    0.7406    2.3330   -1.5465 H   0  0  0  0  0  0  0  0  0  0  0  0
    0.9278    0.8278   -2.4957 H   0  0  0  0  0  0  0  0  0  0  0  0
    0.3724    0.5200   -0.4020 C   0  0  1  0  0  0  0  0  0  0  0  0
    1.2472   -0.1306   -0.3978 H   0  0  0  0  0  0  0  0  0  0  0  0
    0.4071    1.4352    0.8334 C   0  0  0  0  0  0  0  0  0  0  0  0
   -0.5861    2.0834    1.1574 O   0  0  0  0  0  0  0  0  0  0  0  0
    1.5661    1.5156    1.4980 N   0  0  0  0  0  0  0  0  0  0  0  0
    2.3157    0.9090    1.2065 H   0  0  0  0  0  0  0  0  0  0  0  0
    1.7706    2.3429    2.6847 C   0  0  0  0  0  0  0  0  0  0  0  0
    1.1433    1.9734    3.4988 H   0  0  0  0  0  0  0  0  0  0  0  0
    2.8163    2.3124    2.9922 H   0  0  0  0  0  0  0  0  0  0  0  0
    1.4860    3.3751    2.4692 H   0  0  0  0  0  0  0  0  0  0  0  0
  5  6  2  0  0  0  0
  5  7  1  0  0  0  0
  2  3  1  0  0  0  0
  2  4  1  0  0  0  0
  2  5  1  0  0  0  0
  1  2  1  0  0  0  0
 19 20  2  0  0  0  0
 19 21  1  0  0  0  0
 17 18  1  0  0  0  0
 17 19  1  0  0  0  0
 14 15  1  0  0  0  0
 14 16  1  0  0  0  0
 14 17  1  0  0  0  0
 11 12  1  0  0  0  0
 11 13  1  0  0  0  0
 11 14  1  0  0  0  0
  8  9  1  0  0  0  0
  8 10  1  0  0  0  0
  8 11  1  0  0  0  0
  7  8  1  0  0  0  0
  7 17  1  0  0  0  0
 23 24  1  0  0  0  0
 23 25  1  0  0  0  0
 23 26  1  0  0  0  0
 21 22  1  0  0  0  0
 21 23  1  0  0  0  0
M  END
$$$$
default_name
  -OEChem-11182114113D

 26 26  0     1  0  0  0  0  0999 V2000
   -1.8446   -3.5060   -0.3010 H   0  0  0  0  0  0  0  0  0  0  0  0
   -2.0746   -2.4490   -0.4240 C   0  0  0  0  0  0  0  0  0  0  0  0
   -2.6906   -2.1160    0.4090 H   0  0  0  0  0  0  0  0  0  0  0  0
   -2.5986   -2.2980   -1.3650 H   0  0  0  0  0  0  0  0  0  0  0  0
   -0.7756   -1.6630   -0.4350 C   0  0  0  0  0  0  0  0  0  0  0  0
    0.2844   -2.2800   -0.4550 O   0  0  0  0  0  0  0  0  0  0  0  0
   -0.8246   -0.3180   -0.4350 N   0  0  0  0  0  0  0  0  0  0  0  0
   -2.0106    0.5080   -0.5910 C   0  0  0  0  0  0  0  0  0  0  0  0
   -2.2435    1.2322    0.1914 H   0  0  0  0  0  0  0  0  0  0  0  0
   -2.9272    0.1097   -1.0248 H   0  0  0  0  0  0  0  0  0  0  0  0
   -1.1641    1.1681   -1.6773 C   0  0  0  0  0  0  0  0  0  0  0  0
   -1.6737    2.1326   -1.7002 H   0  0  0  0  0  0  0  0  0  0  0  0
   -1.4895    0.5381   -2.5058 H   0  0  0  0  0  0  0  0  0  0  0  0
    0.3561    1.3246   -1.7120 C   0  0  0  0  0  0  0  0  0  0  0  0
    0.7406    2.3330   -1.5465 H   0  0  0  0  0  0  0  0  0  0  0  0
    0.9278    0.8278   -2.4957 H   0  0  0  0  0  0  0  0  0  0  0  0
    0.3724    0.5200   -0.4020 C   0  0  1  0  0  0  0  0  0  0  0  0
    1.2472   -0.1306   -0.3978 H   0  0  0  0  0  0  0  0  0  0  0  0
    0.4071    1.4352    0.8334 C   0  0  0  0  0  0  0  0  0  0  0  0
   -0.6366    1.8656    1.3201 O   0  0  0  0  0  0  0  0  0  0  0  0
    1.6128    1.7623    1.3139 N   0  0  0  0  0  0  0  0  0  0  0  0
    2.4176    1.3222    0.8975 H   0  0  0  0  0  0  0  0  0  0  0  0
    1.8221    2.6264    2.4733 C   0  0  0  0  0  0  0  0  0  0  0  0
    1.4187    2.1429    3.3655 H   0  0  0  0  0  0  0  0  0  0  0  0
    2.8862    2.8177    2.6159 H   0  0  0  0  0  0  0  0  0  0  0  0
    1.2998    3.5744    2.3269 H   0  0  0  0  0  0  0  0  0  0  0  0
  5  6  2  0  0  0  0
  5  7  1  0  0  0  0
  2  3  1  0  0  0  0
  2  4  1  0  0  0  0
  2  5  1  0  0  0  0
  1  2  1  0  0  0  0
 19 20  2  0  0  0  0
 19 21  1  0  0  0  0
 17 18  1  0  0  0  0
 17 19  1  0  0  0  0
 14 15  1  0  0  0  0
 14 16  1  0  0  0  0
 14 17  1  0  0  0  0
 11 12  1  0  0  0  0
 11 13  1  0  0  0  0
 11 14  1  0  0  0  0
  8  9  1  0  0  0  0
  8 10  1  0  0  0  0
  8 11  1  0  0  0  0
  7  8  1  0  0  0  0
  7 17  1  0  0  0  0
 23 24  1  0  0  0  0
 23 25  1  0  0  0  0
 23 26  1  0  0  0  0
 21 22  1  0  0  0  0
 21 23  1  0  0  0  0
M  END
$$$$
default_name
  -OEChem-11182114113D

 26 26  0     1  0  0  0  0  0999 V2000
   -1.8446   -3.5060   -0.3010 H   0  0  0  0  0  0  0  0  0  0  0  0
   -2.0746   -2.4490   -0.4240 C   0  0  0  0  0  0  0  0  0  0  0  0
   -2.6906   -2.1160    0.4090 H   0  0  0  0  0  0  0  0  0  0  0  0
   -2.5986   -2.2980   -1.3650 H   0  0  0  0  0  0  0  0  0  0  0  0
   -0.7756   -1.6630   -0.4350 C   0  0  0  0  0  0  0  0  0  0  0  0
    0.2844   -2.2800   -0.4550 O   0  0  0  0  0  0  0  0  0  0  0  0
   -0.8246   -0.3180   -0.4350 N   0  0  0  0  0  0  0  0  0  0  0  0
   -2.0106    0.5080   -0.5910 C   0  0  0  0  0  0  0  0  0  0  0  0
   -2.2435    1.2322    0.1914 H   0  0  0  0  0  0  0  0  0  0  0  0
   -2.9272    0.1097   -1.0248 H   0  0  0  0  0  0  0  0  0  0  0  0
   -1.1641    1.1681   -1.6773 C   0  0  0  0  0  0  0  0  0  0  0  0
   -1.6737    2.1326   -1.7002 H   0  0  0  0  0  0  0  0  0  0  0  0
   -1.4895    0.5381   -2.5058 H   0  0  0  0  0  0  0  0  0  0  0  0
    0.3561    1.3246   -1.7120 C   0  0  0  0  0  0  0  0  0  0  0  0
    0.7406    2.3330   -1.5465 H   0  0  0  0  0  0  0  0  0  0  0  0
    0.9278    0.8278   -2.4957 H   0  0  0  0  0  0  0  0  0  0  0  0
    0.3724    0.5200   -0.4020 C   0  0  1  0  0  0  0  0  0  0  0  0
    1.2472   -0.1306   -0.3978 H   0  0  0  0  0  0  0  0  0  0  0  0
    0.4071    1.4352    0.8334 C   0  0  0  0  0  0  0  0  0  0  0  0
   -0.6151    1.6437    1.4839 O   0  0  0  0  0  0  0  0  0  0  0  0
    1.5781    2.0114    1.1304 N   0  0  0  0  0  0  0  0  0  0  0  0
    2.3825    1.7443    0.5858 H   0  0  0  0  0  0  0  0  0  0  0  0
    1.7804    2.9122    2.2627 C   0  0  0  0  0  0  0  0  0  0  0  0
    1.6291    2.3646    3.1954 H   0  0  0  0  0  0  0  0  0  0  0  0
    2.7906    3.3225    2.2446 H   0  0  0  0  0  0  0  0  0  0  0  0
    1.0566    3.7290    2.2192 H   0  0  0  0  0  0  0  0  0  0  0  0
  5  6  2  0  0  0  0
  5  7  1  0  0  0  0
  2  3  1  0  0  0  0
  2  4  1  0  0  0  0
  2  5  1  0  0  0  0
  1  2  1  0  0  0  0
 19 20  2  0  0  0  0
 19 21  1  0  0  0  0
 17 18  1  0  0  0  0
 17 19  1  0  0  0  0
 14 15  1  0  0  0  0
 14 16  1  0  0  0  0
 14 17  1  0  0  0  0
 11 12  1  0  0  0  0
 11 13  1  0  0  0  0
 11 14  1  0  0  0  0
  8  9  1  0  0  0  0
  8 10  1  0  0  0  0
  8 11  1  0  0  0  0
  7  8  1  0  0  0  0
  7 17  1  0  0  0  0
 23 24  1  0  0  0  0
 23 25  1  0  0  0  0
 23 26  1  0  0  0  0
 21 22  1  0  0  0  0
 21 23  1  0  0  0  0
M  END
$$$$
default_name
  -OEChem-11182114113D

 26 26  0     1  0  0  0  0  0999 V2000
   -1.8446   -3.5060   -0.3010 H   0  0  0  0  0  0  0  0  0  0  0  0
   -2.0746   -2.4490   -0.4240 C   0  0  0  0  0  0  0  0  0  0  0  0
   -2.6906   -2.1160    0.4090 H   0  0  0  0  0  0  0  0  0  0  0  0
   -2.5986   -2.2980   -1.3650 H   0  0  0  0  0  0  0  0  0  0  0  0
   -0.7756   -1.6630   -0.4350 C   0  0  0  0  0  0  0  0  0  0  0  0
    0.2844   -2.2800   -0.4550 O   0  0  0  0  0  0  0  0  0  0  0  0
   -0.8246   -0.3180   -0.4350 N   0  0  0  0  0  0  0  0  0  0  0  0
   -2.0106    0.5080   -0.5910 C   0  0  0  0  0  0  0  0  0  0  0  0
   -2.3521    0.9488    0.3470 H   0  0  0  0  0  0  0  0  0  0  0  0
   -2.8454    0.0526   -1.1226 H   0  0  0  0  0  0  0  0  0  0  0  0
   -1.3591    1.5787   -1.4637 C   0  0  0  0  0  0  0  0  0  0  0  0
   -1.7619    2.5210   -1.0891 H   0  0  0  0  0  0  0  0  0  0  0  0
   -1.7476    1.3593   -2.4587 H   0  0  0  0  0  0  0  0  0  0  0  0
    0.1692    1.5830   -1.4940 C   0  0  0  0  0  0  0  0  0  0  0  0
    0.5844    2.5417   -1.1768 H   0  0  0  0  0  0  0  0  0  0  0  0
    0.6127    1.2758   -2.4411 H   0  0  0  0  0  0  0  0  0  0  0  0
    0.3724    0.5200   -0.4020 C   0  0  1  0  0  0  0  0  0  0  0  0
    1.2314   -0.0975   -0.6654 H   0  0  0  0  0  0  0  0  0  0  0  0
    0.6001    1.1537    0.9806 C   0  0  0  0  0  0  0  0  0  0  0  0
   -0.1997    0.9611    1.8942 O   0  0  0  0  0  0  0  0  0  0  0  0
    1.6729    1.9422    1.1187 N   0  0  0  0  0  0  0  0  0  0  0  0
    2.3122    2.0026    0.3425 H   0  0  0  0  0  0  0  0  0  0  0  0
    2.0290    2.6255    2.3600 C   0  0  0  0  0  0  0  0  0  0  0  0
    2.2727    1.8861    3.1259 H   0  0  0  0  0  0  0  0  0  0  0  0
    2.8887    3.2771    2.2005 H   0  0  0  0  0  0  0  0  0  0  0  0
    1.1828    3.2208    2.7100 H   0  0  0  0  0  0  0  0  0  0  0  0
  5  6  2  0  0  0  0
  5  7  1  0  0  0  0
  2  3  1  0  0  0  0
  2  4  1  0  0  0  0
  2  5  1  0  0  0  0
  1  2  1  0  0  0  0
 19 20  2  0  0  0  0
 19 21  1  0  0  0  0
 17 18  1  0  0  0  0
 17 19  1  0  0  0  0
 14 15  1  0  0  0  0
 14 16  1  0  0  0  0
 14 17  1  0  0  0  0
 11 12  1  0  0  0  0
 11 13  1  0  0  0  0
 11 14  1  0  0  0  0
  8  9  1  0  0  0  0
  8 10  1  0  0  0  0
  8 11  1  0  0  0  0
  7  8  1  0  0  0  0
  7 17  1  0  0  0  0
 23 24  1  0  0  0  0
 23 25  1  0  0  0  0
 23 26  1  0  0  0  0
 21 22  1  0  0  0  0
 21 23  1  0  0  0  0
M  END
$$$$
default_name
  -OEChem-11182114113D

 26 26  0     1  0  0  0  0  0999 V2000
   -1.8446   -3.5060   -0.3010 H   0  0  0  0  0  0  0  0  0  0  0  0
   -2.0746   -2.4490   -0.4240 C   0  0  0  0  0  0  0  0  0  0  0  0
   -2.6906   -2.1160    0.4090 H   0  0  0  0  0  0  0  0  0  0  0  0
   -2.5986   -2.2980   -1.3650 H   0  0  0  0  0  0  0  0  0  0  0  0
   -0.7756   -1.6630   -0.4350 C   0  0  0  0  0  0  0  0  0  0  0  0
    0.2844   -2.2800   -0.4550 O   0  0  0  0  0  0  0  0  0  0  0  0
   -0.8246   -0.3180   -0.4350 N   0  0  0  0  0  0  0  0  0  0  0  0
   -2.0106    0.5080   -0.5910 C   0  0  0  0  0  0  0  0  0  0  0  0
   -2.3521    0.9488    0.3470 H   0  0  0  0  0  0  0  0  0  0  0  0
   -2.8454    0.0526   -1.1226 H   0  0  0  0  0  0  0  0  0  0  0  0
   -1.3591    1.5787   -1.4637 C   0  0  0  0  0  0  0  0  0  0  0  0
   -1.7619    2.5210   -1.0891 H   0  0  0  0  0  0  0  0  0  0  0  0
   -1.7476    1.3593   -2.4587 H   0  0  0  0  0  0  0  0  0  0  0  0
    0.1692    1.5830   -1.4940 C   0  0  0  0  0  0  0  0  0  0  0  0
    0.5844    2.5417   -1.1768 H   0  0  0  0  0  0  0  0  0  0  0  0
    0.6127    1.2758   -2.4411 H   0  0  0  0  0  0  0  0  0  0  0  0
    0.3724    0.5200   -0.4020 C   0  0  1  0  0  0  0  0  0  0  0  0
    1.2314   -0.0975   -0.6654 H   0  0  0  0  0  0  0  0  0  0  0  0
    0.6001    1.1537    0.9806 C   0  0  0  0  0  0  0  0  0  0  0  0
   -0.0270    0.7554    1.9601 O   0  0  0  0  0  0  0  0  0  0  0  0
    1.4706    2.1682    1.0484 N   0  0  0  0  0  0  0  0  0  0  0  0
    1.9884    2.3969    0.2150 H   0  0  0  0  0  0  0  0  0  0  0  0
    1.7953    2.8839    2.2800 C   0  0  0  0  0  0  0  0  0  0  0  0
    2.2866    2.2029    2.9783 H   0  0  0  0  0  0  0  0  0  0  0  0
    2.4584    3.7230    2.0670 H   0  0  0  0  0  0  0  0  0  0  0  0
    0.8790    3.2548    2.7445 H   0  0  0  0  0  0  0  0  0  0  0  0
  5  6  2  0  0  0  0
  5  7  1  0  0  0  0
  2  3  1  0  0  0  0
  2  4  1  0  0  0  0
  2  5  1  0  0  0  0
  1  2  1  0  0  0  0
 19 20  2  0  0  0  0
 19 21  1  0  0  0  0
 17 18  1  0  0  0  0
 17 19  1  0  0  0  0
 14 15  1  0  0  0  0
 14 16  1  0  0  0  0
 14 17  1  0  0  0  0
 11 12  1  0  0  0  0
 11 13  1  0  0  0  0
 11 14  1  0  0  0  0
  8  9  1  0  0  0  0
  8 10  1  0  0  0  0
  8 11  1  0  0  0  0
  7  8  1  0  0  0  0
  7 17  1  0  0  0  0
 23 24  1  0  0  0  0
 23 25  1  0  0  0  0
 23 26  1  0  0  0  0
 21 22  1  0  0  0  0
 21 23  1  0  0  0  0
M  END
$$$$
default_name
  -OEChem-11182114113D

 26 26  0     1  0  0  0  0  0999 V2000
   -1.8446   -3.5060   -0.3010 H   0  0  0  0  0  0  0  0  0  0  0  0
   -2.0746   -2.4490   -0.4240 C   0  0  0  0  0  0  0  0  0  0  0  0
   -2.6906   -2.1160    0.4090 H   0  0  0  0  0  0  0  0  0  0  0  0
   -2.5986   -2.2980   -1.3650 H   0  0  0  0  0  0  0  0  0  0  0  0
   -0.7756   -1.6630   -0.4350 C   0  0  0  0  0  0  0  0  0  0  0  0
    0.2844   -2.2800   -0.4550 O   0  0  0  0  0  0  0  0  0  0  0  0
   -0.8246   -0.3180   -0.4350 N   0  0  0  0  0  0  0  0  0  0  0  0
   -2.0106    0.5080   -0.5910 C   0  0  0  0  0  0  0  0  0  0  0  0
   -2.3521    0.9488    0.3470 H   0  0  0  0  0  0  0  0  0  0  0  0
   -2.8454    0.0526   -1.1226 H   0  0  0  0  0  0  0  0  0  0  0  0
   -1.3591    1.5787   -1.4637 C   0  0  0  0  0  0  0  0  0  0  0  0
   -1.7619    2.5210   -1.0891 H   0  0  0  0  0  0  0  0  0  0  0  0
   -1.7476    1.3593   -2.4587 H   0  0  0  0  0  0  0  0  0  0  0  0
    0.1692    1.5830   -1.4940 C   0  0  0  0  0  0  0  0  0  0  0  0
    0.5844    2.5417   -1.1768 H   0  0  0  0  0  0  0  0  0  0  0  0
    0.6127    1.2758   -2.4411 H   0  0  0  0  0  0  0  0  0  0  0  0
    0.3724    0.5200   -0.4020 C   0  0  1  0  0  0  0  0  0  0  0  0
    1.2314   -0.0975   -0.6654 H   0  0  0  0  0  0  0  0  0  0  0  0
    0.6001    1.1537    0.9806 C   0  0  0  0  0  0  0  0  0  0  0  0
    0.1946    0.5942    1.9975 O   0  0  0  0  0  0  0  0  0  0  0  0
    1.2152    2.3421    1.0107 N   0  0  0  0  0  0  0  0  0  0  0  0
    1.5703    2.7073    0.1416 H   0  0  0  0  0  0  0  0  0  0  0  0
    1.5009    3.0822    2.2376 C   0  0  0  0  0  0  0  0  0  0  0  0
    2.2105    2.5179    2.8465 H   0  0  0  0  0  0  0  0  0  0  0  0
    1.9248    4.0586    2.0010 H   0  0  0  0  0  0  0  0  0  0  0  0
    0.5813    3.2155    2.8115 H   0  0  0  0  0  0  0  0  0  0  0  0
  5  6  2  0  0  0  0
  5  7  1  0  0  0  0
  2  3  1  0  0  0  0
  2  4  1  0  0  0  0
  2  5  1  0  0  0  0
  1  2  1  0  0  0  0
 19 20  2  0  0  0  0
 19 21  1  0  0  0  0
 17 18  1  0  0  0  0
 17 19  1  0  0  0  0
 14 15  1  0  0  0  0
 14 16  1  0  0  0  0
 14 17  1  0  0  0  0
 11 12  1  0  0  0  0
 11 13  1  0  0  0  0
 11 14  1  0  0  0  0
  8  9  1  0  0  0  0
  8 10  1  0  0  0  0
  8 11  1  0  0  0  0
  7  8  1  0  0  0  0
  7 17  1  0  0  0  0
 23 24  1  0  0  0  0
 23 25  1  0  0  0  0
 23 26  1  0  0  0  0
 21 22  1  0  0  0  0
 21 23  1  0  0  0  0
M  END
$$$$
default_name
  -OEChem-11182114113D

 26 26  0     1  0  0  0  0  0999 V2000
   -1.8446   -3.5060   -0.3010 H   0  0  0  0  0  0  0  0  0  0  0  0
   -2.0746   -2.4490   -0.4240 C   0  0  0  0  0  0  0  0  0  0  0  0
   -2.6906   -2.1160    0.4090 H   0  0  0  0  0  0  0  0  0  0  0  0
   -2.5986   -2.2980   -1.3650 H   0  0  0  0  0  0  0  0  0  0  0  0
   -0.7756   -1.6630   -0.4350 C   0  0  0  0  0  0  0  0  0  0  0  0
    0.2844   -2.2800   -0.4550 O   0  0  0  0  0  0  0  0  0  0  0  0
   -0.8246   -0.3180   -0.4350 N   0  0  0  0  0  0  0  0  0  0  0  0
   -2.0106    0.5080   -0.5910 C   0  0  0  0  0  0  0  0  0  0  0  0
   -2.3521    0.9488    0.3470 H   0  0  0  0  0  0  0  0  0  0  0  0
   -2.8454    0.0526   -1.1226 H   0  0  0  0  0  0  0  0  0  0  0  0
   -1.3591    1.5787   -1.4637 C   0  0  0  0  0  0  0  0  0  0  0  0
   -1.7619    2.5210   -1.0891 H   0  0  0  0  0  0  0  0  0  0  0  0
   -1.7476    1.3593   -2.4587 H   0  0  0  0  0  0  0  0  0  0  0  0
    0.1692    1.5830   -1.4940 C   0  0  0  0  0  0  0  0  0  0  0  0
    0.5844    2.5417   -1.1768 H   0  0  0  0  0  0  0  0  0  0  0  0
    0.6127    1.2758   -2.4411 H   0  0  0  0  0  0  0  0  0  0  0  0
    0.3724    0.5200   -0.4020 C   0  0  1  0  0  0  0  0  0  0  0  0
    1.2314   -0.0975   -0.6654 H   0  0  0  0  0  0  0  0  0  0  0  0
    0.6001    1.1537    0.9806 C   0  0  0  0  0  0  0  0  0  0  0  0
    0.4502    0.4888    2.0037 O   0  0  0  0  0  0  0  0  0  0  0  0
    0.9240    2.4521    1.0083 N   0  0  0  0  0  0  0  0  0  0  0  0
    1.0864    2.9127    0.1271 H   0  0  0  0  0  0  0  0  0  0  0  0
    1.1659    3.2068    2.2356 C   0  0  0  0  0  0  0  0  0  0  0  0
    2.0497    2.8094    2.7394 H   0  0  0  0  0  0  0  0  0  0  0  0
    1.3241    4.2613    2.0070 H   0  0  0  0  0  0  0  0  0  0  0  0
    0.3100    3.1057    2.9065 H   0  0  0  0  0  0  0  0  0  0  0  0
  5  6  2  0  0  0  0
  5  7  1  0  0  0  0
  2  3  1  0  0  0  0
  2  4  1  0  0  0  0
  2  5  1  0  0  0  0
  1  2  1  0  0  0  0
 19 20  2  0  0  0  0
 19 21  1  0  0  0  0
 17 18  1  0  0  0  0
 17 19  1  0  0  0  0
 14 15  1  0  0  0  0
 14 16  1  0  0  0  0
 14 17  1  0  0  0  0
 11 12  1  0  0  0  0
 11 13  1  0  0  0  0
 11 14  1  0  0  0  0
  8  9  1  0  0  0  0
  8 10  1  0  0  0  0
  8 11  1  0  0  0  0
  7  8  1  0  0  0  0
  7 17  1  0  0  0  0
 23 24  1  0  0  0  0
 23 25  1  0  0  0  0
 23 26  1  0  0  0  0
 21 22  1  0  0  0  0
 21 23  1  0  0  0  0
M  END
$$$$
default_name
  -OEChem-11182114113D

 26 26  0     1  0  0  0  0  0999 V2000
   -1.8446   -3.5060   -0.3010 H   0  0  0  0  0  0  0  0  0  0  0  0
   -2.0746   -2.4490   -0.4240 C   0  0  0  0  0  0  0  0  0  0  0  0
   -2.6906   -2.1160    0.4090 H   0  0  0  0  0  0  0  0  0  0  0  0
   -2.5986   -2.2980   -1.3650 H   0  0  0  0  0  0  0  0  0  0  0  0
   -0.7756   -1.6630   -0.4350 C   0  0  0  0  0  0  0  0  0  0  0  0
    0.2844   -2.2800   -0.4550 O   0  0  0  0  0  0  0  0  0  0  0  0
   -0.8246   -0.3180   -0.4350 N   0  0  0  0  0  0  0  0  0  0  0  0
   -2.0106    0.5080   -0.5910 C   0  0  0  0  0  0  0  0  0  0  0  0
   -2.3521    0.9488    0.3470 H   0  0  0  0  0  0  0  0  0  0  0  0
   -2.8454    0.0526   -1.1226 H   0  0  0  0  0  0  0  0  0  0  0  0
   -1.3591    1.5787   -1.4637 C   0  0  0  0  0  0  0  0  0  0  0  0
   -1.7619    2.5210   -1.0891 H   0  0  0  0  0  0  0  0  0  0  0  0
   -1.7476    1.3593   -2.4587 H   0  0  0  0  0  0  0  0  0  0  0  0
    0.1692    1.5830   -1.4940 C   0  0  0  0  0  0  0  0  0  0  0  0
    0.5844    2.5417   -1.1768 H   0  0  0  0  0  0  0  0  0  0  0  0
    0.6127    1.2758   -2.4411 H   0  0  0  0  0  0  0  0  0  0  0  0
    0.3724    0.5200   -0.4020 C   0  0  1  0  0  0  0  0  0  0  0  0
    1.2314   -0.0975   -0.6654 H   0  0  0  0  0  0  0  0  0  0  0  0
    0.6001    1.1537    0.9806 C   0  0  0  0  0  0  0  0  0  0  0  0
    0.7223    0.4461    1.9785 O   0  0  0  0  0  0  0  0  0  0  0  0
    0.6169    2.4907    1.0411 N   0  0  0  0  0  0  0  0  0  0  0  0
    0.5697    2.9991    0.1726 H   0  0  0  0  0  0  0  0  0  0  0  0
    0.8132    3.2494    2.2742 C   0  0  0  0  0  0  0  0  0  0  0  0
    1.8151    3.0577    2.6642 H   0  0  0  0  0  0  0  0  0  0  0  0
    0.6975    4.3170    2.0846 H   0  0  0  0  0  0  0  0  0  0  0  0
    0.0837    2.9329    3.0230 H   0  0  0  0  0  0  0  0  0  0  0  0
  5  6  2  0  0  0  0
  5  7  1  0  0  0  0
  2  3  1  0  0  0  0
  2  4  1  0  0  0  0
  2  5  1  0  0  0  0
  1  2  1  0  0  0  0
 19 20  2  0  0  0  0
 19 21  1  0  0  0  0
 17 18  1  0  0  0  0
 17 19  1  0  0  0  0
 14 15  1  0  0  0  0
 14 16  1  0  0  0  0
 14 17  1  0  0  0  0
 11 12  1  0  0  0  0
 11 13  1  0  0  0  0
 11 14  1  0  0  0  0
  8  9  1  0  0  0  0
  8 10  1  0  0  0  0
  8 11  1  0  0  0  0
  7  8  1  0  0  0  0
  7 17  1  0  0  0  0
 23 24  1  0  0  0  0
 23 25  1  0  0  0  0
 23 26  1  0  0  0  0
 21 22  1  0  0  0  0
 21 23  1  0  0  0  0
M  END
$$$$
default_name
  -OEChem-11182114113D

 26 26  0     1  0  0  0  0  0999 V2000
   -1.8446   -3.5060   -0.3010 H   0  0  0  0  0  0  0  0  0  0  0  0
   -2.0746   -2.4490   -0.4240 C   0  0  0  0  0  0  0  0  0  0  0  0
   -2.6906   -2.1160    0.4090 H   0  0  0  0  0  0  0  0  0  0  0  0
   -2.5986   -2.2980   -1.3650 H   0  0  0  0  0  0  0  0  0  0  0  0
   -0.7756   -1.6630   -0.4350 C   0  0  0  0  0  0  0  0  0  0  0  0
    0.2844   -2.2800   -0.4550 O   0  0  0  0  0  0  0  0  0  0  0  0
   -0.8246   -0.3180   -0.4350 N   0  0  0  0  0  0  0  0  0  0  0  0
   -2.0106    0.5080   -0.5910 C   0  0  0  0  0  0  0  0  0  0  0  0
   -2.3521    0.9488    0.3470 H   0  0  0  0  0  0  0  0  0  0  0  0
   -2.8454    0.0526   -1.1226 H   0  0  0  0  0  0  0  0  0  0  0  0
   -1.3591    1.5787   -1.4637 C   0  0  0  0  0  0  0  0  0  0  0  0
   -1.7619    2.5210   -1.0891 H   0  0  0  0  0  0  0  0  0  0  0  0
   -1.7476    1.3593   -2.4587 H   0  0  0  0  0  0  0  0  0  0  0  0
    0.1692    1.5830   -1.4940 C   0  0  0  0  0  0  0  0  0  0  0  0
    0.5844    2.5417   -1.1768 H   0  0  0  0  0  0  0  0  0  0  0  0
    0.6127    1.2758   -2.4411 H   0  0  0  0  0  0  0  0  0  0  0  0
    0.3724    0.5200   -0.4020 C   0  0  1  0  0  0  0  0  0  0  0  0
    1.2314   -0.0975   -0.6654 H   0  0  0  0  0  0  0  0  0  0  0  0
    0.6001    1.1537    0.9806 C   0  0  0  0  0  0  0  0  0  0  0  0
    0.9924    0.4692    1.9234 O   0  0  0  0  0  0  0  0  0  0  0  0
    0.3147    2.4553    1.1071 N   0  0  0  0  0  0  0  0  0  0  0  0
    0.0553    2.9605    0.2750 H   0  0  0  0  0  0  0  0  0  0  0  0
    0.4666    3.2069    2.3507 C   0  0  0  0  0  0  0  0  0  0  0  0
    1.5227    3.2459    2.6261 H   0  0  0  0  0  0  0  0  0  0  0  0
    0.0875    4.2220    2.2286 H   0  0  0  0  0  0  0  0  0  0  0  0
   -0.0824    2.7089    3.1530 H   0  0  0  0  0  0  0  0  0  0  0  0
  5  6  2  0  0  0  0
  5  7  1  0  0  0  0
  2  3  1  0  0  0  0
  2  4  1  0  0  0  0
  2  5  1  0  0  0  0
  1  2  1  0  0  0  0
 19 20  2  0  0  0  0
 19 21  1  0  0  0  0
 17 18  1  0  0  0  0
 17 19  1  0  0  0  0
 14 15  1  0  0  0  0
 14 16  1  0  0  0  0
 14 17  1  0  0  0  0
 11 12  1  0  0  0  0
 11 13  1  0  0  0  0
 11 14  1  0  0  0  0
  8  9  1  0  0  0  0
  8 10  1  0  0  0  0
  8 11  1  0  0  0  0
  7  8  1  0  0  0  0
  7 17  1  0  0  0  0
 23 24  1  0  0  0  0
 23 25  1  0  0  0  0
 23 26  1  0  0  0  0
 21 22  1  0  0  0  0
 21 23  1  0  0  0  0
M  END
$$$$
default_name
  -OEChem-11182114113D

 26 26  0     1  0  0  0  0  0999 V2000
   -1.8446   -3.5060   -0.3010 H   0  0  0  0  0  0  0  0  0  0  0  0
   -2.0746   -2.4490   -0.4240 C   0  0  0  0  0  0  0  0  0  0  0  0
   -2.6906   -2.1160    0.4090 H   0  0  0  0  0  0  0  0  0  0  0  0
   -2.5986   -2.2980   -1.3650 H   0  0  0  0  0  0  0  0  0  0  0  0
   -0.7756   -1.6630   -0.4350 C   0  0  0  0  0  0  0  0  0  0  0  0
    0.2844   -2.2800   -0.4550 O   0  0  0  0  0  0  0  0  0  0  0  0
   -0.8246   -0.3180   -0.4350 N   0  0  0  0  0  0  0  0  0  0  0  0
   -2.0106    0.5080   -0.5910 C   0  0  0  0  0  0  0  0  0  0  0  0
   -2.3521    0.9488    0.3470 H   0  0  0  0  0  0  0  0  0  0  0  0
   -2.8454    0.0526   -1.1226 H   0  0  0  0  0  0  0  0  0  0  0  0
   -1.3591    1.5787   -1.4637 C   0  0  0  0  0  0  0  0  0  0  0  0
   -1.7619    2.5210   -1.0891 H   0  0  0  0  0  0  0  0  0  0  0  0
   -1.7476    1.3593   -2.4587 H   0  0  0  0  0  0  0  0  0  0  0  0
    0.1692    1.5830   -1.4940 C   0  0  0  0  0  0  0  0  0  0  0  0
    0.5844    2.5417   -1.1768 H   0  0  0  0  0  0  0  0  0  0  0  0
    0.6127    1.2758   -2.4411 H   0  0  0  0  0  0  0  0  0  0  0  0
    0.3724    0.5200   -0.4020 C   0  0  1  0  0  0  0  0  0  0  0  0
    1.2314   -0.0975   -0.6654 H   0  0  0  0  0  0  0  0  0  0  0  0
    0.6001    1.1537    0.9806 C   0  0  0  0  0  0  0  0  0  0  0  0
    1.2420    0.5564    1.8423 O   0  0  0  0  0  0  0  0  0  0  0  0
    0.0381    2.3482    1.2017 N   0  0  0  0  0  0  0  0  0  0  0  0
   -0.4217    2.7996    0.4273 H   0  0  0  0  0  0  0  0  0  0  0  0
    0.1499    3.0823    2.4600 C   0  0  0  0  0  0  0  0  0  0  0  0
    1.1924    3.3610    2.6277 H   0  0  0  0  0  0  0  0  0  0  0  0
   -0.4642    3.9828    2.4291 H   0  0  0  0  0  0  0  0  0  0  0  0
   -0.1767    2.4489    3.2877 H   0  0  0  0  0  0  0  0  0  0  0  0
  5  6  2  0  0  0  0
  5  7  1  0  0  0  0
  2  3  1  0  0  0  0
  2  4  1  0  0  0  0
  2  5  1  0  0  0  0
  1  2  1  0  0  0  0
 19 20  2  0  0  0  0
 19 21  1  0  0  0  0
 17 18  1  0  0  0  0
 17 19  1  0  0  0  0
 14 15  1  0  0  0  0
 14 16  1  0  0  0  0
 14 17  1  0  0  0  0
 11 12  1  0  0  0  0
 11 13  1  0  0  0  0
 11 14  1  0  0  0  0
  8  9  1  0  0  0  0
  8 10  1  0  0  0  0
  8 11  1  0  0  0  0
  7  8  1  0  0  0  0
  7 17  1  0  0  0  0
 23 24  1  0  0  0  0
 23 25  1  0  0  0  0
 23 26  1  0  0  0  0
 21 22  1  0  0  0  0
 21 23  1  0  0  0  0
M  END
$$$$
default_name
  -OEChem-11182114113D

 26 26  0     1  0  0  0  0  0999 V2000
   -1.8446   -3.5060   -0.3010 H   0  0  0  0  0  0  0  0  0  0  0  0
   -2.0746   -2.4490   -0.4240 C   0  0  0  0  0  0  0  0  0  0  0  0
   -2.6906   -2.1160    0.4090 H   0  0  0  0  0  0  0  0  0  0  0  0
   -2.5986   -2.2980   -1.3650 H   0  0  0  0  0  0  0  0  0  0  0  0
   -0.7756   -1.6630   -0.4350 C   0  0  0  0  0  0  0  0  0  0  0  0
    0.2844   -2.2800   -0.4550 O   0  0  0  0  0  0  0  0  0  0  0  0
   -0.8246   -0.3180   -0.4350 N   0  0  0  0  0  0  0  0  0  0  0  0
   -2.0106    0.5080   -0.5910 C   0  0  0  0  0  0  0  0  0  0  0  0
   -2.3521    0.9488    0.3470 H   0  0  0  0  0  0  0  0  0  0  0  0
   -2.8454    0.0526   -1.1226 H   0  0  0  0  0  0  0  0  0  0  0  0
   -1.3591    1.5787   -1.4637 C   0  0  0  0  0  0  0  0  0  0  0  0
   -1.7619    2.5210   -1.0891 H   0  0  0  0  0  0  0  0  0  0  0  0
   -1.7476    1.3593   -2.4587 H   0  0  0  0  0  0  0  0  0  0  0  0
    0.1692    1.5830   -1.4940 C   0  0  0  0  0  0  0  0  0  0  0  0
    0.5844    2.5417   -1.1768 H   0  0  0  0  0  0  0  0  0  0  0  0
    0.6127    1.2758   -2.4411 H   0  0  0  0  0  0  0  0  0  0  0  0
    0.3724    0.5200   -0.4020 C   0  0  1  0  0  0  0  0  0  0  0  0
    1.2314   -0.0975   -0.6654 H   0  0  0  0  0  0  0  0  0  0  0  0
    0.6001    1.1537    0.9806 C   0  0  0  0  0  0  0  0  0  0  0  0
    1.4541    0.7019    1.7407 O   0  0  0  0  0  0  0  0  0  0  0  0
   -0.1941    2.1768    1.3185 N   0  0  0  0  0  0  0  0  0  0  0  0
   -0.8287    2.5274    0.6191 H   0  0  0  0  0  0  0  0  0  0  0  0
   -0.1153    2.8840    2.5945 C   0  0  0  0  0  0  0  0  0  0  0  0
    0.8468    3.3954    2.6688 H   0  0  0  0  0  0  0  0  0  0  0  0
   -0.9201    3.6157    2.6724 H   0  0  0  0  0  0  0  0  0  0  0  0
   -0.1930    2.1706    3.4179 H   0  0  0  0  0  0  0  0  0  0  0  0
  5  6  2  0  0  0  0
  5  7  1  0  0  0  0
  2  3  1  0  0  0  0
  2  4  1  0  0  0  0
  2  5  1  0  0  0  0
  1  2  1  0  0  0  0
 19 20  2  0  0  0  0
 19 21  1  0  0  0  0
 17 18  1  0  0  0  0
 17 19  1  0  0  0  0
 14 15  1  0  0  0  0
 14 16  1  0  0  0  0
 14 17  1  0  0  0  0
 11 12  1  0  0  0  0
 11 13  1  0  0  0  0
 11 14  1  0  0  0  0
  8  9  1  0  0  0  0
  8 10  1  0  0  0  0
  8 11  1  0  0  0  0
  7  8  1  0  0  0  0
  7 17  1  0  0  0  0
 23 24  1  0  0  0  0
 23 25  1  0  0  0  0
 23 26  1  0  0  0  0
 21 22  1  0  0  0  0
 21 23  1  0  0  0  0
M  END
$$$$
default_name
  -OEChem-11182114113D

 26 26  0     1  0  0  0  0  0999 V2000
   -1.8446   -3.5060   -0.3010 H   0  0  0  0  0  0  0  0  0  0  0  0
   -2.0746   -2.4490   -0.4240 C   0  0  0  0  0  0  0  0  0  0  0  0
   -2.6906   -2.1160    0.4090 H   0  0  0  0  0  0  0  0  0  0  0  0
   -2.5986   -2.2980   -1.3650 H   0  0  0  0  0  0  0  0  0  0  0  0
   -0.7756   -1.6630   -0.4350 C   0  0  0  0  0  0  0  0  0  0  0  0
    0.2844   -2.2800   -0.4550 O   0  0  0  0  0  0  0  0  0  0  0  0
   -0.8246   -0.3180   -0.4350 N   0  0  0  0  0  0  0  0  0  0  0  0
   -2.0106    0.5080   -0.5910 C   0  0  0  0  0  0  0  0  0  0  0  0
   -2.3521    0.9488    0.3470 H   0  0  0  0  0  0  0  0  0  0  0  0
   -2.8454    0.0526   -1.1226 H   0  0  0  0  0  0  0  0  0  0  0  0
   -1.3591    1.5787   -1.4637 C   0  0  0  0  0  0  0  0  0  0  0  0
   -1.7619    2.5210   -1.0891 H   0  0  0  0  0  0  0  0  0  0  0  0
   -1.7476    1.3593   -2.4587 H   0  0  0  0  0  0  0  0  0  0  0  0
    0.1692    1.5830   -1.4940 C   0  0  0  0  0  0  0  0  0  0  0  0
    0.5844    2.5417   -1.1768 H   0  0  0  0  0  0  0  0  0  0  0  0
    0.6127    1.2758   -2.4411 H   0  0  0  0  0  0  0  0  0  0  0  0
    0.3724    0.5200   -0.4020 C   0  0  1  0  0  0  0  0  0  0  0  0
    1.2314   -0.0975   -0.6654 H   0  0  0  0  0  0  0  0  0  0  0  0
    0.6001    1.1537    0.9806 C   0  0  0  0  0  0  0  0  0  0  0  0
    1.6144    0.8957    1.6255 O   0  0  0  0  0  0  0  0  0  0  0  0
   -0.3660    1.9528    1.4495 N   0  0  0  0  0  0  0  0  0  0  0  0
   -1.1381    2.1624    0.8373 H   0  0  0  0  0  0  0  0  0  0  0  0
   -0.3111    2.6257    2.7452 C   0  0  0  0  0  0  0  0  0  0  0  0
    0.5093    3.3465    2.7468 H   0  0  0  0  0  0  0  0  0  0  0  0
   -1.2491    3.1457    2.9420 H   0  0  0  0  0  0  0  0  0  0  0  0
   -0.1301    1.8931    3.5348 H   0  0  0  0  0  0  0  0  0  0  0  0
  5  6  2  0  0  0  0
  5  7  1  0  0  0  0
  2  3  1  0  0  0  0
  2  4  1  0  0  0  0
  2  5  1  0  0  0  0
  1  2  1  0  0  0  0
 19 20  2  0  0  0  0
 19 21  1  0  0  0  0
 17 18  1  0  0  0  0
 17 19  1  0  0  0  0
 14 15  1  0  0  0  0
 14 16  1  0  0  0  0
 14 17  1  0  0  0  0
 11 12  1  0  0  0  0
 11 13  1  0  0  0  0
 11 14  1  0  0  0  0
  8  9  1  0  0  0  0
  8 10  1  0  0  0  0
  8 11  1  0  0  0  0
  7  8  1  0  0  0  0
  7 17  1  0  0  0  0
 23 24  1  0  0  0  0
 23 25  1  0  0  0  0
 23 26  1  0  0  0  0
 21 22  1  0  0  0  0
 21 23  1  0  0  0  0
M  END
$$$$
default_name
  -OEChem-11182114113D

 26 26  0     1  0  0  0  0  0999 V2000
   -1.8446   -3.5060   -0.3010 H   0  0  0  0  0  0  0  0  0  0  0  0
   -2.0746   -2.4490   -0.4240 C   0  0  0  0  0  0  0  0  0  0  0  0
   -2.6906   -2.1160    0.4090 H   0  0  0  0  0  0  0  0  0  0  0  0
   -2.5986   -2.2980   -1.3650 H   0  0  0  0  0  0  0  0  0  0  0  0
   -0.7756   -1.6630   -0.4350 C   0  0  0  0  0  0  0  0  0  0  0  0
    0.2844   -2.2800   -0.4550 O   0  0  0  0  0  0  0  0  0  0  0  0
   -0.8246   -0.3180   -0.4350 N   0  0  0  0  0  0  0  0  0  0  0  0
   -2.0106    0.5080   -0.5910 C   0  0  0  0  0  0  0  0  0  0  0  0
   -2.3521    0.9488    0.3470 H   0  0  0  0  0  0  0  0  0  0  0  0
   -2.8454    0.0526   -1.1226 H   0  0  0  0  0  0  0  0  0  0  0  0
   -1.3591    1.5787   -1.4637 C   0  0  0  0  0  0  0  0  0  0  0  0
   -1.7619    2.5210   -1.0891 H   0  0  0  0  0  0  0  0  0  0  0  0
   -1.7476    1.3593   -2.4587 H   0  0  0  0  0  0  0  0  0  0  0  0
    0.1692    1.5830   -1.4940 C   0  0  0  0  0  0  0  0  0  0  0  0
    0.5844    2.5417   -1.1768 H   0  0  0  0  0  0  0  0  0  0  0  0
    0.6127    1.2758   -2.4411 H   0  0  0  0  0  0  0  0  0  0  0  0
    0.3724    0.5200   -0.4020 C   0  0  1  0  0  0  0  0  0  0  0  0
    1.2314   -0.0975   -0.6654 H   0  0  0  0  0  0  0  0  0  0  0  0
    0.6001    1.1537    0.9806 C   0  0  0  0  0  0  0  0  0  0  0  0
    1.7118    1.1245    1.5046 O   0  0  0  0  0  0  0  0  0  0  0  0
   -0.4659    1.6913    1.5858 N   0  0  0  0  0  0  0  0  0  0  0  0
   -1.3287    1.7294    1.0671 H   0  0  0  0  0  0  0  0  0  0  0  0
   -0.4240    2.3248    2.9017 C   0  0  0  0  0  0  0  0  0  0  0  0
    0.2031    3.2178    2.8562 H   0  0  0  0  0  0  0  0  0  0  0  0
   -1.4288    2.6049    3.2195 H   0  0  0  0  0  0  0  0  0  0  0  0
    0.0077    1.6351    3.6303 H   0  0  0  0  0  0  0  0  0  0  0  0
  5  6  2  0  0  0  0
  5  7  1  0  0  0  0
  2  3  1  0  0  0  0
  2  4  1  0  0  0  0
  2  5  1  0  0  0  0
  1  2  1  0  0  0  0
 19 20  2  0  0  0  0
 19 21  1  0  0  0  0
 17 18  1  0  0  0  0
 17 19  1  0  0  0  0
 14 15  1  0  0  0  0
 14 16  1  0  0  0  0
 14 17  1  0  0  0  0
 11 12  1  0  0  0  0
 11 13  1  0  0  0  0
 11 14  1  0  0  0  0
  8  9  1  0  0  0  0
  8 10  1  0  0  0  0
  8 11  1  0  0  0  0
  7  8  1  0  0  0  0
  7 17  1  0  0  0  0
 23 24  1  0  0  0  0
 23 25  1  0  0  0  0
 23 26  1  0  0  0  0
 21 22  1  0  0  0  0
 21 23  1  0  0  0  0
M  END
$$$$
default_name
  -OEChem-11182114113D

 26 26  0     1  0  0  0  0  0999 V2000
   -1.8446   -3.5060   -0.3010 H   0  0  0  0  0  0  0  0  0  0  0  0
   -2.0746   -2.4490   -0.4240 C   0  0  0  0  0  0  0  0  0  0  0  0
   -2.6906   -2.1160    0.4090 H   0  0  0  0  0  0  0  0  0  0  0  0
   -2.5986   -2.2980   -1.3650 H   0  0  0  0  0  0  0  0  0  0  0  0
   -0.7756   -1.6630   -0.4350 C   0  0  0  0  0  0  0  0  0  0  0  0
    0.2844   -2.2800   -0.4550 O   0  0  0  0  0  0  0  0  0  0  0  0
   -0.8246   -0.3180   -0.4350 N   0  0  0  0  0  0  0  0  0  0  0  0
   -2.0106    0.5080   -0.5910 C   0  0  0  0  0  0  0  0  0  0  0  0
   -2.3521    0.9488    0.3470 H   0  0  0  0  0  0  0  0  0  0  0  0
   -2.8454    0.0526   -1.1226 H   0  0  0  0  0  0  0  0  0  0  0  0
   -1.3591    1.5787   -1.4637 C   0  0  0  0  0  0  0  0  0  0  0  0
   -1.7619    2.5210   -1.0891 H   0  0  0  0  0  0  0  0  0  0  0  0
   -1.7476    1.3593   -2.4587 H   0  0  0  0  0  0  0  0  0  0  0  0
    0.1692    1.5830   -1.4940 C   0  0  0  0  0  0  0  0  0  0  0  0
    0.5844    2.5417   -1.1768 H   0  0  0  0  0  0  0  0  0  0  0  0
    0.6127    1.2758   -2.4411 H   0  0  0  0  0  0  0  0  0  0  0  0
    0.3724    0.5200   -0.4020 C   0  0  1  0  0  0  0  0  0  0  0  0
    1.2314   -0.0975   -0.6654 H   0  0  0  0  0  0  0  0  0  0  0  0
    0.6001    1.1537    0.9806 C   0  0  0  0  0  0  0  0  0  0  0  0
    1.7397    1.3729    1.3862 O   0  0  0  0  0  0  0  0  0  0  0  0
   -0.4871    1.4103    1.7181 N   0  0  0  0  0  0  0  0  0  0  0  0
   -1.3876    1.2581    1.2928 H   0  0  0  0  0  0  0  0  0  0  0  0
   -0.4463    2.0019    3.0534 C   0  0  0  0  0  0  0  0  0  0  0  0
   -0.0512    3.0180    2.9897 H   0  0  0  0  0  0  0  0  0  0  0  0
   -1.4469    2.0300    3.4860 H   0  0  0  0  0  0  0  0  0  0  0  0
    0.2111    1.4144    3.6980 H   0  0  0  0  0  0  0  0  0  0  0  0
  5  6  2  0  0  0  0
  5  7  1  0  0  0  0
  2  3  1  0  0  0  0
  2  4  1  0  0  0  0
  2  5  1  0  0  0  0
  1  2  1  0  0  0  0
 19 20  2  0  0  0  0
 19 21  1  0  0  0  0
 17 18  1  0  0  0  0
 17 19  1  0  0  0  0
 14 15  1  0  0  0  0
 14 16  1  0  0  0  0
 14 17  1  0  0  0  0
 11 12  1  0  0  0  0
 11 13  1  0  0  0  0
 11 14  1  0  0  0  0
  8  9  1  0  0  0  0
  8 10  1  0  0  0  0
  8 11  1  0  0  0  0
  7  8  1  0  0  0  0
  7 17  1  0  0  0  0
 23 24  1  0  0  0  0
 23 25  1  0  0  0  0
 23 26  1  0  0  0  0
 21 22  1  0  0  0  0
 21 23  1  0  0  0  0
M  END
$$$$
default_name
  -OEChem-11182114113D

 26 26  0     1  0  0  0  0  0999 V2000
   -1.8446   -3.5060   -0.3010 H   0  0  0  0  0  0  0  0  0  0  0  0
   -2.0746   -2.4490   -0.4240 C   0  0  0  0  0  0  0  0  0  0  0  0
   -2.6906   -2.1160    0.4090 H   0  0  0  0  0  0  0  0  0  0  0  0
   -2.5986   -2.2980   -1.3650 H   0  0  0  0  0  0  0  0  0  0  0  0
   -0.7756   -1.6630   -0.4350 C   0  0  0  0  0  0  0  0  0  0  0  0
    0.2844   -2.2800   -0.4550 O   0  0  0  0  0  0  0  0  0  0  0  0
   -0.8246   -0.3180   -0.4350 N   0  0  0  0  0  0  0  0  0  0  0  0
   -2.0106    0.5080   -0.5910 C   0  0  0  0  0  0  0  0  0  0  0  0
   -2.3521    0.9488    0.3470 H   0  0  0  0  0  0  0  0  0  0  0  0
   -2.8454    0.0526   -1.1226 H   0  0  0  0  0  0  0  0  0  0  0  0
   -1.3591    1.5787   -1.4637 C   0  0  0  0  0  0  0  0  0  0  0  0
   -1.7619    2.5210   -1.0891 H   0  0  0  0  0  0  0  0  0  0  0  0
   -1.7476    1.3593   -2.4587 H   0  0  0  0  0  0  0  0  0  0  0  0
    0.1692    1.5830   -1.4940 C   0  0  0  0  0  0  0  0  0  0  0  0
    0.5844    2.5417   -1.1768 H   0  0  0  0  0  0  0  0  0  0  0  0
    0.6127    1.2758   -2.4411 H   0  0  0  0  0  0  0  0  0  0  0  0
    0.3724    0.5200   -0.4020 C   0  0  1  0  0  0  0  0  0  0  0  0
    1.2314   -0.0975   -0.6654 H   0  0  0  0  0  0  0  0  0  0  0  0
    0.6001    1.1537    0.9806 C   0  0  0  0  0  0  0  0  0  0  0  0
    1.6963    1.6238    1.2783 O   0  0  0  0  0  0  0  0  0  0  0  0
   -0.4280    1.1289    1.8374 N   0  0  0  0  0  0  0  0  0  0  0  0
   -1.3107    0.7805    1.4991 H   0  0  0  0  0  0  0  0  0  0  0  0
   -0.3766    1.6790    3.1899 C   0  0  0  0  0  0  0  0  0  0  0  0
   -0.2360    2.7608    3.1380 H   0  0  0  0  0  0  0  0  0  0  0  0
   -1.3022    1.4603    3.7233 H   0  0  0  0  0  0  0  0  0  0  0  0
    0.4661    1.2459    3.7333 H   0  0  0  0  0  0  0  0  0  0  0  0
  5  6  2  0  0  0  0
  5  7  1  0  0  0  0
  2  3  1  0  0  0  0
  2  4  1  0  0  0  0
  2  5  1  0  0  0  0
  1  2  1  0  0  0  0
 19 20  2  0  0  0  0
 19 21  1  0  0  0  0
 17 18  1  0  0  0  0
 17 19  1  0  0  0  0
 14 15  1  0  0  0  0
 14 16  1  0  0  0  0
 14 17  1  0  0  0  0
 11 12  1  0  0  0  0
 11 13  1  0  0  0  0
 11 14  1  0  0  0  0
  8  9  1  0  0  0  0
  8 10  1  0  0  0  0
  8 11  1  0  0  0  0
  7  8  1  0  0  0  0
  7 17  1  0  0  0  0
 23 24  1  0  0  0  0
 23 25  1  0  0  0  0
 23 26  1  0  0  0  0
 21 22  1  0  0  0  0
 21 23  1  0  0  0  0
M  END
$$$$
default_name
  -OEChem-11182114113D

 26 26  0     1  0  0  0  0  0999 V2000
   -1.8446   -3.5060   -0.3010 H   0  0  0  0  0  0  0  0  0  0  0  0
   -2.0746   -2.4490   -0.4240 C   0  0  0  0  0  0  0  0  0  0  0  0
   -2.6906   -2.1160    0.4090 H   0  0  0  0  0  0  0  0  0  0  0  0
   -2.5986   -2.2980   -1.3650 H   0  0  0  0  0  0  0  0  0  0  0  0
   -0.7756   -1.6630   -0.4350 C   0  0  0  0  0  0  0  0  0  0  0  0
    0.2844   -2.2800   -0.4550 O   0  0  0  0  0  0  0  0  0  0  0  0
   -0.8246   -0.3180   -0.4350 N   0  0  0  0  0  0  0  0  0  0  0  0
   -2.0106    0.5080   -0.5910 C   0  0  0  0  0  0  0  0  0  0  0  0
   -2.3521    0.9488    0.3470 H   0  0  0  0  0  0  0  0  0  0  0  0
   -2.8454    0.0526   -1.1226 H   0  0  0  0  0  0  0  0  0  0  0  0
   -1.3591    1.5787   -1.4637 C   0  0  0  0  0  0  0  0  0  0  0  0
   -1.7619    2.5210   -1.0891 H   0  0  0  0  0  0  0  0  0  0  0  0
   -1.7476    1.3593   -2.4587 H   0  0  0  0  0  0  0  0  0  0  0  0
    0.1692    1.5830   -1.4940 C   0  0  0  0  0  0  0  0  0  0  0  0
    0.5844    2.5417   -1.1768 H   0  0  0  0  0  0  0  0  0  0  0  0
    0.6127    1.2758   -2.4411 H   0  0  0  0  0  0  0  0  0  0  0  0
    0.3724    0.5200   -0.4020 C   0  0  1  0  0  0  0  0  0  0  0  0
    1.2314   -0.0975   -0.6654 H   0  0  0  0  0  0  0  0  0  0  0  0
    0.6001    1.1537    0.9806 C   0  0  0  0  0  0  0  0  0  0  0  0
    1.5845    1.8602    1.1883 O   0  0  0  0  0  0  0  0  0  0  0  0
   -0.2928    0.8662    1.9355 N   0  0  0  0  0  0  0  0  0  0  0  0
   -1.1033    0.3292    1.6718 H   0  0  0  0  0  0  0  0  0  0  0  0
   -0.2195    1.3781    3.3019 C   0  0  0  0  0  0  0  0  0  0  0  0
   -0.3389    2.4636    3.2911 H   0  0  0  0  0  0  0  0  0  0  0  0
   -1.0045    0.9346    3.9152 H   0  0  0  0  0  0  0  0  0  0  0  0
    0.7553    1.1411    3.7337 H   0  0  0  0  0  0  0  0  0  0  0  0
  5  6  2  0  0  0  0
  5  7  1  0  0  0  0
  2  3  1  0  0  0  0
  2  4  1  0  0  0  0
  2  5  1  0  0  0  0
  1  2  1  0  0  0  0
 19 20  2  0  0  0  0
 19 21  1  0  0  0  0
 17 18  1  0  0  0  0
 17 19  1  0  0  0  0
 14 15  1  0  0  0  0
 14 16  1  0  0  0  0
 14 17  1  0  0  0  0
 11 12  1  0  0  0  0
 11 13  1  0  0  0  0
 11 14  1  0  0  0  0
  8  9  1  0  0  0  0
  8 10  1  0  0  0  0
  8 11  1  0  0  0  0
  7  8  1  0  0  0  0
  7 17  1  0  0  0  0
 23 24  1  0  0  0  0
 23 25  1  0  0  0  0
 23 26  1  0  0  0  0
 21 22  1  0  0  0  0
 21 23  1  0  0  0  0
M  END
$$$$
default_name
  -OEChem-11182114113D

 26 26  0     1  0  0  0  0  0999 V2000
   -1.8446   -3.5060   -0.3010 H   0  0  0  0  0  0  0  0  0  0  0  0
   -2.0746   -2.4490   -0.4240 C   0  0  0  0  0  0  0  0  0  0  0  0
   -2.6906   -2.1160    0.4090 H   0  0  0  0  0  0  0  0  0  0  0  0
   -2.5986   -2.2980   -1.3650 H   0  0  0  0  0  0  0  0  0  0  0  0
   -0.7756   -1.6630   -0.4350 C   0  0  0  0  0  0  0  0  0  0  0  0
    0.2844   -2.2800   -0.4550 O   0  0  0  0  0  0  0  0  0  0  0  0
   -0.8246   -0.3180   -0.4350 N   0  0  0  0  0  0  0  0  0  0  0  0
   -2.0106    0.5080   -0.5910 C   0  0  0  0  0  0  0  0  0  0  0  0
   -2.3521    0.9488    0.3470 H   0  0  0  0  0  0  0  0  0  0  0  0
   -2.8454    0.0526   -1.1226 H   0  0  0  0  0  0  0  0  0  0  0  0
   -1.3591    1.5787   -1.4637 C   0  0  0  0  0  0  0  0  0  0  0  0
   -1.7619    2.5210   -1.0891 H   0  0  0  0  0  0  0  0  0  0  0  0
   -1.7476    1.3593   -2.4587 H   0  0  0  0  0  0  0  0  0  0  0  0
    0.1692    1.5830   -1.4940 C   0  0  0  0  0  0  0  0  0  0  0  0
    0.5844    2.5417   -1.1768 H   0  0  0  0  0  0  0  0  0  0  0  0
    0.6127    1.2758   -2.4411 H   0  0  0  0  0  0  0  0  0  0  0  0
    0.3724    0.5200   -0.4020 C   0  0  1  0  0  0  0  0  0  0  0  0
    1.2314   -0.0975   -0.6654 H   0  0  0  0  0  0  0  0  0  0  0  0
    0.6001    1.1537    0.9806 C   0  0  0  0  0  0  0  0  0  0  0  0
    1.4118    2.0660    1.1225 O   0  0  0  0  0  0  0  0  0  0  0  0
   -0.0906    0.6402    2.0058 N   0  0  0  0  0  0  0  0  0  0  0  0
   -0.7795   -0.0652    1.7993 H   0  0  0  0  0  0  0  0  0  0  0  0
    0.0142    1.1197    3.3819 C   0  0  0  0  0  0  0  0  0  0  0  0
   -0.3528    2.1468    3.4386 H   0  0  0  0  0  0  0  0  0  0  0  0
   -0.5742    0.4887    4.0487 H   0  0  0  0  0  0  0  0  0  0  0  0
    1.0592    1.1072    3.6992 H   0  0  0  0  0  0  0  0  0  0  0  0
  5  6  2  0  0  0  0
  5  7  1  0  0  0  0
  2  3  1  0  0  0  0
  2  4  1  0  0  0  0
  2  5  1  0  0  0  0
  1  2  1  0  0  0  0
 19 20  2  0  0  0  0
 19 21  1  0  0  0  0
 17 18  1  0  0  0  0
 17 19  1  0  0  0  0
 14 15  1  0  0  0  0
 14 16  1  0  0  0  0
 14 17  1  0  0  0  0
 11 12  1  0  0  0  0
 11 13  1  0  0  0  0
 11 14  1  0  0  0  0
  8  9  1  0  0  0  0
  8 10  1  0  0  0  0
  8 11  1  0  0  0  0
  7  8  1  0  0  0  0
  7 17  1  0  0  0  0
 23 24  1  0  0  0  0
 23 25  1  0  0  0  0
 23 26  1  0  0  0  0
 21 22  1  0  0  0  0
 21 23  1  0  0  0  0
M  END
$$$$
default_name
  -OEChem-11182114113D

 26 26  0     1  0  0  0  0  0999 V2000
   -1.8446   -3.5060   -0.3010 H   0  0  0  0  0  0  0  0  0  0  0  0
   -2.0746   -2.4490   -0.4240 C   0  0  0  0  0  0  0  0  0  0  0  0
   -2.6906   -2.1160    0.4090 H   0  0  0  0  0  0  0  0  0  0  0  0
   -2.5986   -2.2980   -1.3650 H   0  0  0  0  0  0  0  0  0  0  0  0
   -0.7756   -1.6630   -0.4350 C   0  0  0  0  0  0  0  0  0  0  0  0
    0.2844   -2.2800   -0.4550 O   0  0  0  0  0  0  0  0  0  0  0  0
   -0.8246   -0.3180   -0.4350 N   0  0  0  0  0  0  0  0  0  0  0  0
   -2.0106    0.5080   -0.5910 C   0  0  0  0  0  0  0  0  0  0  0  0
   -2.3521    0.9488    0.3470 H   0  0  0  0  0  0  0  0  0  0  0  0
   -2.8454    0.0526   -1.1226 H   0  0  0  0  0  0  0  0  0  0  0  0
   -1.3591    1.5787   -1.4637 C   0  0  0  0  0  0  0  0  0  0  0  0
   -1.7619    2.5210   -1.0891 H   0  0  0  0  0  0  0  0  0  0  0  0
   -1.7476    1.3593   -2.4587 H   0  0  0  0  0  0  0  0  0  0  0  0
    0.1692    1.5830   -1.4940 C   0  0  0  0  0  0  0  0  0  0  0  0
    0.5844    2.5417   -1.1768 H   0  0  0  0  0  0  0  0  0  0  0  0
    0.6127    1.2758   -2.4411 H   0  0  0  0  0  0  0  0  0  0  0  0
    0.3724    0.5200   -0.4020 C   0  0  1  0  0  0  0  0  0  0  0  0
    1.2314   -0.0975   -0.6654 H   0  0  0  0  0  0  0  0  0  0  0  0
    0.6001    1.1537    0.9806 C   0  0  0  0  0  0  0  0  0  0  0  0
    1.1901    2.2271    1.0851 O   0  0  0  0  0  0  0  0  0  0  0  0
    0.1649    0.4663    2.0435 N   0  0  0  0  0  0  0  0  0  0  0  0
   -0.3614   -0.3756    1.8727 H   0  0  0  0  0  0  0  0  0  0  0  0
    0.3085    0.9214    3.4243 C   0  0  0  0  0  0  0  0  0  0  0  0
   -0.2767    1.8318    3.5705 H   0  0  0  0  0  0  0  0  0  0  0  0
   -0.0406    0.1530    4.1147 H   0  0  0  0  0  0  0  0  0  0  0  0
    1.3569    1.1464    3.6322 H   0  0  0  0  0  0  0  0  0  0  0  0
  5  6  2  0  0  0  0
  5  7  1  0  0  0  0
  2  3  1  0  0  0  0
  2  4  1  0  0  0  0
  2  5  1  0  0  0  0
  1  2  1  0  0  0  0
 19 20  2  0  0  0  0
 19 21  1  0  0  0  0
 17 18  1  0  0  0  0
 17 19  1  0  0  0  0
 14 15  1  0  0  0  0
 14 16  1  0  0  0  0
 14 17  1  0  0  0  0
 11 12  1  0  0  0  0
 11 13  1  0  0  0  0
 11 14  1  0  0  0  0
  8  9  1  0  0  0  0
  8 10  1  0  0  0  0
  8 11  1  0  0  0  0
  7  8  1  0  0  0  0
  7 17  1  0  0  0  0
 23 24  1  0  0  0  0
 23 25  1  0  0  0  0
 23 26  1  0  0  0  0
 21 22  1  0  0  0  0
 21 23  1  0  0  0  0
M  END
$$$$
default_name
  -OEChem-11182114113D

 26 26  0     1  0  0  0  0  0999 V2000
   -1.8446   -3.5060   -0.3010 H   0  0  0  0  0  0  0  0  0  0  0  0
   -2.0746   -2.4490   -0.4240 C   0  0  0  0  0  0  0  0  0  0  0  0
   -2.6906   -2.1160    0.4090 H   0  0  0  0  0  0  0  0  0  0  0  0
   -2.5986   -2.2980   -1.3650 H   0  0  0  0  0  0  0  0  0  0  0  0
   -0.7756   -1.6630   -0.4350 C   0  0  0  0  0  0  0  0  0  0  0  0
    0.2844   -2.2800   -0.4550 O   0  0  0  0  0  0  0  0  0  0  0  0
   -0.8246   -0.3180   -0.4350 N   0  0  0  0  0  0  0  0  0  0  0  0
   -2.0106    0.5080   -0.5910 C   0  0  0  0  0  0  0  0  0  0  0  0
   -2.3521    0.9488    0.3470 H   0  0  0  0  0  0  0  0  0  0  0  0
   -2.8454    0.0526   -1.1226 H   0  0  0  0  0  0  0  0  0  0  0  0
   -1.3591    1.5787   -1.4637 C   0  0  0  0  0  0  0  0  0  0  0  0
   -1.7619    2.5210   -1.0891 H   0  0  0  0  0  0  0  0  0  0  0  0
   -1.7476    1.3593   -2.4587 H   0  0  0  0  0  0  0  0  0  0  0  0
    0.1692    1.5830   -1.4940 C   0  0  0  0  0  0  0  0  0  0  0  0
    0.5844    2.5417   -1.1768 H   0  0  0  0  0  0  0  0  0  0  0  0
    0.6127    1.2758   -2.4411 H   0  0  0  0  0  0  0  0  0  0  0  0
    0.3724    0.5200   -0.4020 C   0  0  1  0  0  0  0  0  0  0  0  0
    1.2314   -0.0975   -0.6654 H   0  0  0  0  0  0  0  0  0  0  0  0
    0.6001    1.1537    0.9806 C   0  0  0  0  0  0  0  0  0  0  0  0
    0.9345    2.3326    1.0788 O   0  0  0  0  0  0  0  0  0  0  0  0
    0.4561    0.3562    2.0460 N   0  0  0  0  0  0  0  0  0  0  0  0
    0.1225   -0.5810    1.8872 H   0  0  0  0  0  0  0  0  0  0  0  0
    0.6435    0.7968    3.4263 C   0  0  0  0  0  0  0  0  0  0  0  0
   -0.1159    1.5403    3.6776 H   0  0  0  0  0  0  0  0  0  0  0  0
    0.5600   -0.0496    4.1087 H   0  0  0  0  0  0  0  0  0  0  0  0
    1.6281    1.2562    3.5372 H   0  0  0  0  0  0  0  0  0  0  0  0
  5  6  2  0  0  0  0
  5  7  1  0  0  0  0
  2  3  1  0  0  0  0
  2  4  1  0  0  0  0
  2  5  1  0  0  0  0
  1  2  1  0  0  0  0
 19 20  2  0  0  0  0
 19 21  1  0  0  0  0
 17 18  1  0  0  0  0
 17 19  1  0  0  0  0
 14 15  1  0  0  0  0
 14 16  1  0  0  0  0
 14 17  1  0  0  0  0
 11 12  1  0  0  0  0
 11 13  1  0  0  0  0
 11 14  1  0  0  0  0
  8  9  1  0  0  0  0
  8 10  1  0  0  0  0
  8 11  1  0  0  0  0
  7  8  1  0  0  0  0
  7 17  1  0  0  0  0
 23 24  1  0  0  0  0
 23 25  1  0  0  0  0
 23 26  1  0  0  0  0
 21 22  1  0  0  0  0
 21 23  1  0  0  0  0
M  END
$$$$
default_name
  -OEChem-11182114113D

 26 26  0     1  0  0  0  0  0999 V2000
   -1.8446   -3.5060   -0.3010 H   0  0  0  0  0  0  0  0  0  0  0  0
   -2.0746   -2.4490   -0.4240 C   0  0  0  0  0  0  0  0  0  0  0  0
   -2.6906   -2.1160    0.4090 H   0  0  0  0  0  0  0  0  0  0  0  0
   -2.5986   -2.2980   -1.3650 H   0  0  0  0  0  0  0  0  0  0  0  0
   -0.7756   -1.6630   -0.4350 C   0  0  0  0  0  0  0  0  0  0  0  0
    0.2844   -2.2800   -0.4550 O   0  0  0  0  0  0  0  0  0  0  0  0
   -0.8246   -0.3180   -0.4350 N   0  0  0  0  0  0  0  0  0  0  0  0
   -2.0106    0.5080   -0.5910 C   0  0  0  0  0  0  0  0  0  0  0  0
   -2.3521    0.9488    0.3470 H   0  0  0  0  0  0  0  0  0  0  0  0
   -2.8454    0.0526   -1.1226 H   0  0  0  0  0  0  0  0  0  0  0  0
   -1.3591    1.5787   -1.4637 C   0  0  0  0  0  0  0  0  0  0  0  0
   -1.7619    2.5210   -1.0891 H   0  0  0  0  0  0  0  0  0  0  0  0
   -1.7476    1.3593   -2.4587 H   0  0  0  0  0  0  0  0  0  0  0  0
    0.1692    1.5830   -1.4940 C   0  0  0  0  0  0  0  0  0  0  0  0
    0.5844    2.5417   -1.1768 H   0  0  0  0  0  0  0  0  0  0  0  0
    0.6127    1.2758   -2.4411 H   0  0  0  0  0  0  0  0  0  0  0  0
    0.3724    0.5200   -0.4020 C   0  0  1  0  0  0  0  0  0  0  0  0
    1.2314   -0.0975   -0.6654 H   0  0  0  0  0  0  0  0  0  0  0  0
    0.6001    1.1537    0.9806 C   0  0  0  0  0  0  0  0  0  0  0  0
    0.6624    2.3753    1.1041 O   0  0  0  0  0  0  0  0  0  0  0  0
    0.7632    0.3176    2.0131 N   0  0  0  0  0  0  0  0  0  0  0  0
    0.6392   -0.6673    1.8417 H   0  0  0  0  0  0  0  0  0  0  0  0
    0.9963    0.7543    3.3877 C   0  0  0  0  0  0  0  0  0  0  0  0
    0.1187    1.2920    3.7528 H   0  0  0  0  0  0  0  0  0  0  0  0
    1.1867   -0.1053    4.0311 H   0  0  0  0  0  0  0  0  0  0  0  0
    1.8545    1.4290    3.4207 H   0  0  0  0  0  0  0  0  0  0  0  0
  5  6  2  0  0  0  0
  5  7  1  0  0  0  0
  2  3  1  0  0  0  0
  2  4  1  0  0  0  0
  2  5  1  0  0  0  0
  1  2  1  0  0  0  0
 19 20  2  0  0  0  0
 19 21  1  0  0  0  0
 17 18  1  0  0  0  0
 17 19  1  0  0  0  0
 14 15  1  0  0  0  0
 14 16  1  0  0  0  0
 14 17  1  0  0  0  0
 11 12  1  0  0  0  0
 11 13  1  0  0  0  0
 11 14  1  0  0  0  0
  8  9  1  0  0  0  0
  8 10  1  0  0  0  0
  8 11  1  0  0  0  0
  7  8  1  0  0  0  0
  7 17  1  0  0  0  0
 23 24  1  0  0  0  0
 23 25  1  0  0  0  0
 23 26  1  0  0  0  0
 21 22  1  0  0  0  0
 21 23  1  0  0  0  0
M  END
$$$$
default_name
  -OEChem-11182114113D

 26 26  0     1  0  0  0  0  0999 V2000
   -1.8446   -3.5060   -0.3010 H   0  0  0  0  0  0  0  0  0  0  0  0
   -2.0746   -2.4490   -0.4240 C   0  0  0  0  0  0  0  0  0  0  0  0
   -2.6906   -2.1160    0.4090 H   0  0  0  0  0  0  0  0  0  0  0  0
   -2.5986   -2.2980   -1.3650 H   0  0  0  0  0  0  0  0  0  0  0  0
   -0.7756   -1.6630   -0.4350 C   0  0  0  0  0  0  0  0  0  0  0  0
    0.2844   -2.2800   -0.4550 O   0  0  0  0  0  0  0  0  0  0  0  0
   -0.8246   -0.3180   -0.4350 N   0  0  0  0  0  0  0  0  0  0  0  0
   -2.0106    0.5080   -0.5910 C   0  0  0  0  0  0  0  0  0  0  0  0
   -2.3521    0.9488    0.3470 H   0  0  0  0  0  0  0  0  0  0  0  0
   -2.8454    0.0526   -1.1226 H   0  0  0  0  0  0  0  0  0  0  0  0
   -1.3591    1.5787   -1.4637 C   0  0  0  0  0  0  0  0  0  0  0  0
   -1.7619    2.5210   -1.0891 H   0  0  0  0  0  0  0  0  0  0  0  0
   -1.7476    1.3593   -2.4587 H   0  0  0  0  0  0  0  0  0  0  0  0
    0.1692    1.5830   -1.4940 C   0  0  0  0  0  0  0  0  0  0  0  0
    0.5844    2.5417   -1.1768 H   0  0  0  0  0  0  0  0  0  0  0  0
    0.6127    1.2758   -2.4411 H   0  0  0  0  0  0  0  0  0  0  0  0
    0.3724    0.5200   -0.4020 C   0  0  1  0  0  0  0  0  0  0  0  0
    1.2314   -0.0975   -0.6654 H   0  0  0  0  0  0  0  0  0  0  0  0
    0.6001    1.1537    0.9806 C   0  0  0  0  0  0  0  0  0  0  0  0
    0.3924    2.3522    1.1591 O   0  0  0  0  0  0  0  0  0  0  0  0
    1.0654    0.3531    1.9471 N   0  0  0  0  0  0  0  0  0  0  0  0
    1.1536   -0.6287    1.7393 H   0  0  0  0  0  0  0  0  0  0  0  0
    1.3428    0.7967    3.3112 C   0  0  0  0  0  0  0  0  0  0  0  0
    0.4111    1.1038    3.7909 H   0  0  0  0  0  0  0  0  0  0  0  0
    1.7966   -0.0104    3.8871 H   0  0  0  0  0  0  0  0  0  0  0  0
    2.0205    1.6530    3.2907 H   0  0  0  0  0  0  0  0  0  0  0  0
  5  6  2  0  0  0  0
  5  7  1  0  0  0  0
  2  3  1  0  0  0  0
  2  4  1  0  0  0  0
  2  5  1  0  0  0  0
  1  2  1  0  0  0  0
 19 20  2  0  0  0  0
 19 21  1  0  0  0  0
 17 18  1  0  0  0  0
 17 19  1  0  0  0  0
 14 15  1  0  0  0  0
 14 16  1  0  0  0  0
 14 17  1  0  0  0  0
 11 12  1  0  0  0  0
 11 13  1  0  0  0  0
 11 14  1  0  0  0  0
  8  9  1  0  0  0  0
  8 10  1  0  0  0  0
  8 11  1  0  0  0  0
  7  8  1  0  0  0  0
  7 17  1  0  0  0  0
 23 24  1  0  0  0  0
 23 25  1  0  0  0  0
 23 26  1  0  0  0  0
 21 22  1  0  0  0  0
 21 23  1  0  0  0  0
M  END
$$$$
default_name
  -OEChem-11182114113D

 26 26  0     1  0  0  0  0  0999 V2000
   -1.8446   -3.5060   -0.3010 H   0  0  0  0  0  0  0  0  0  0  0  0
   -2.0746   -2.4490   -0.4240 C   0  0  0  0  0  0  0  0  0  0  0  0
   -2.6906   -2.1160    0.4090 H   0  0  0  0  0  0  0  0  0  0  0  0
   -2.5986   -2.2980   -1.3650 H   0  0  0  0  0  0  0  0  0  0  0  0
   -0.7756   -1.6630   -0.4350 C   0  0  0  0  0  0  0  0  0  0  0  0
    0.2844   -2.2800   -0.4550 O   0  0  0  0  0  0  0  0  0  0  0  0
   -0.8246   -0.3180   -0.4350 N   0  0  0  0  0  0  0  0  0  0  0  0
   -2.0106    0.5080   -0.5910 C   0  0  0  0  0  0  0  0  0  0  0  0
   -2.3521    0.9488    0.3470 H   0  0  0  0  0  0  0  0  0  0  0  0
   -2.8454    0.0526   -1.1226 H   0  0  0  0  0  0  0  0  0  0  0  0
   -1.3591    1.5787   -1.4637 C   0  0  0  0  0  0  0  0  0  0  0  0
   -1.7619    2.5210   -1.0891 H   0  0  0  0  0  0  0  0  0  0  0  0
   -1.7476    1.3593   -2.4587 H   0  0  0  0  0  0  0  0  0  0  0  0
    0.1692    1.5830   -1.4940 C   0  0  0  0  0  0  0  0  0  0  0  0
    0.5844    2.5417   -1.1768 H   0  0  0  0  0  0  0  0  0  0  0  0
    0.6127    1.2758   -2.4411 H   0  0  0  0  0  0  0  0  0  0  0  0
    0.3724    0.5200   -0.4020 C   0  0  1  0  0  0  0  0  0  0  0  0
    1.2314   -0.0975   -0.6654 H   0  0  0  0  0  0  0  0  0  0  0  0
    0.6001    1.1537    0.9806 C   0  0  0  0  0  0  0  0  0  0  0  0
    0.1428    2.2649    1.2402 O   0  0  0  0  0  0  0  0  0  0  0  0
    1.3420    0.4601    1.8525 N   0  0  0  0  0  0  0  0  0  0  0  0
    1.6306   -0.4679    1.5870 H   0  0  0  0  0  0  0  0  0  0  0  0
    1.6595    0.9213    3.2019 C   0  0  0  0  0  0  0  0  0  0  0  0
    0.7413    0.9887    3.7893 H   0  0  0  0  0  0  0  0  0  0  0  0
    2.3484    0.2288    3.6866 H   0  0  0  0  0  0  0  0  0  0  0  0
    2.1149    1.9130    3.1560 H   0  0  0  0  0  0  0  0  0  0  0  0
  5  6  2  0  0  0  0
  5  7  1  0  0  0  0
  2  3  1  0  0  0  0
  2  4  1  0  0  0  0
  2  5  1  0  0  0  0
  1  2  1  0  0  0  0
 19 20  2  0  0  0  0
 19 21  1  0  0  0  0
 17 18  1  0  0  0  0
 17 19  1  0  0  0  0
 14 15  1  0  0  0  0
 14 16  1  0  0  0  0
 14 17  1  0  0  0  0
 11 12  1  0  0  0  0
 11 13  1  0  0  0  0
 11 14  1  0  0  0  0
  8  9  1  0  0  0  0
  8 10  1  0  0  0  0
  8 11  1  0  0  0  0
  7  8  1  0  0  0  0
  7 17  1  0  0  0  0
 23 24  1  0  0  0  0
 23 25  1  0  0  0  0
 23 26  1  0  0  0  0
 21 22  1  0  0  0  0
 21 23  1  0  0  0  0
M  END
$$$$
default_name
  -OEChem-11182114113D

 26 26  0     1  0  0  0  0  0999 V2000
   -1.8446   -3.5060   -0.3010 H   0  0  0  0  0  0  0  0  0  0  0  0
   -2.0746   -2.4490   -0.4240 C   0  0  0  0  0  0  0  0  0  0  0  0
   -2.6906   -2.1160    0.4090 H   0  0  0  0  0  0  0  0  0  0  0  0
   -2.5986   -2.2980   -1.3650 H   0  0  0  0  0  0  0  0  0  0  0  0
   -0.7756   -1.6630   -0.4350 C   0  0  0  0  0  0  0  0  0  0  0  0
    0.2844   -2.2800   -0.4550 O   0  0  0  0  0  0  0  0  0  0  0  0
   -0.8246   -0.3180   -0.4350 N   0  0  0  0  0  0  0  0  0  0  0  0
   -2.0106    0.5080   -0.5910 C   0  0  0  0  0  0  0  0  0  0  0  0
   -2.3521    0.9488    0.3470 H   0  0  0  0  0  0  0  0  0  0  0  0
   -2.8454    0.0526   -1.1226 H   0  0  0  0  0  0  0  0  0  0  0  0
   -1.3591    1.5787   -1.4637 C   0  0  0  0  0  0  0  0  0  0  0  0
   -1.7619    2.5210   -1.0891 H   0  0  0  0  0  0  0  0  0  0  0  0
   -1.7476    1.3593   -2.4587 H   0  0  0  0  0  0  0  0  0  0  0  0
    0.1692    1.5830   -1.4940 C   0  0  0  0  0  0  0  0  0  0  0  0
    0.5844    2.5417   -1.1768 H   0  0  0  0  0  0  0  0  0  0  0  0
    0.6127    1.2758   -2.4411 H   0  0  0  0  0  0  0  0  0  0  0  0
    0.3724    0.5200   -0.4020 C   0  0  1  0  0  0  0  0  0  0  0  0
    1.2314   -0.0975   -0.6654 H   0  0  0  0  0  0  0  0  0  0  0  0
    0.6001    1.1537    0.9806 C   0  0  0  0  0  0  0  0  0  0  0  0
   -0.0694    2.1195    1.3418 O   0  0  0  0  0  0  0  0  0  0  0  0
    1.5742    0.6315    1.7357 N   0  0  0  0  0  0  0  0  0  0  0  0
    2.0376   -0.1956    1.3952 H   0  0  0  0  0  0  0  0  0  0  0  0
    1.9248    1.1196    3.0674 C   0  0  0  0  0  0  0  0  0  0  0  0
    1.0870    0.9543    3.7481 H   0  0  0  0  0  0  0  0  0  0  0  0
    2.8043    0.5959    3.4433 H   0  0  0  0  0  0  0  0  0  0  0  0
    2.1312    2.1913    3.0258 H   0  0  0  0  0  0  0  0  0  0  0  0
  5  6  2  0  0  0  0
  5  7  1  0  0  0  0
  2  3  1  0  0  0  0
  2  4  1  0  0  0  0
  2  5  1  0  0  0  0
  1  2  1  0  0  0  0
 19 20  2  0  0  0  0
 19 21  1  0  0  0  0
 17 18  1  0  0  0  0
 17 19  1  0  0  0  0
 14 15  1  0  0  0  0
 14 16  1  0  0  0  0
 14 17  1  0  0  0  0
 11 12  1  0  0  0  0
 11 13  1  0  0  0  0
 11 14  1  0  0  0  0
  8  9  1  0  0  0  0
  8 10  1  0  0  0  0
  8 11  1  0  0  0  0
  7  8  1  0  0  0  0
  7 17  1  0  0  0  0
 23 24  1  0  0  0  0
 23 25  1  0  0  0  0
 23 26  1  0  0  0  0
 21 22  1  0  0  0  0
 21 23  1  0  0  0  0
M  END
$$$$
default_name
  -OEChem-11182114113D

 26 26  0     1  0  0  0  0  0999 V2000
   -1.8446   -3.5060   -0.3010 H   0  0  0  0  0  0  0  0  0  0  0  0
   -2.0746   -2.4490   -0.4240 C   0  0  0  0  0  0  0  0  0  0  0  0
   -2.6906   -2.1160    0.4090 H   0  0  0  0  0  0  0  0  0  0  0  0
   -2.5986   -2.2980   -1.3650 H   0  0  0  0  0  0  0  0  0  0  0  0
   -0.7756   -1.6630   -0.4350 C   0  0  0  0  0  0  0  0  0  0  0  0
    0.2844   -2.2800   -0.4550 O   0  0  0  0  0  0  0  0  0  0  0  0
   -0.8246   -0.3180   -0.4350 N   0  0  0  0  0  0  0  0  0  0  0  0
   -2.0106    0.5080   -0.5910 C   0  0  0  0  0  0  0  0  0  0  0  0
   -2.3521    0.9488    0.3470 H   0  0  0  0  0  0  0  0  0  0  0  0
   -2.8454    0.0526   -1.1226 H   0  0  0  0  0  0  0  0  0  0  0  0
   -1.3591    1.5787   -1.4637 C   0  0  0  0  0  0  0  0  0  0  0  0
   -1.7619    2.5210   -1.0891 H   0  0  0  0  0  0  0  0  0  0  0  0
   -1.7476    1.3593   -2.4587 H   0  0  0  0  0  0  0  0  0  0  0  0
    0.1692    1.5830   -1.4940 C   0  0  0  0  0  0  0  0  0  0  0  0
    0.5844    2.5417   -1.1768 H   0  0  0  0  0  0  0  0  0  0  0  0
    0.6127    1.2758   -2.4411 H   0  0  0  0  0  0  0  0  0  0  0  0
    0.3724    0.5200   -0.4020 C   0  0  1  0  0  0  0  0  0  0  0  0
    1.2314   -0.0975   -0.6654 H   0  0  0  0  0  0  0  0  0  0  0  0
    0.6001    1.1537    0.9806 C   0  0  0  0  0  0  0  0  0  0  0  0
   -0.2296    1.9257    1.4570 O   0  0  0  0  0  0  0  0  0  0  0  0
    1.7461    0.8556    1.6047 N   0  0  0  0  0  0  0  0  0  0  0  0
    2.3470    0.1694    1.1770 H   0  0  0  0  0  0  0  0  0  0  0  0
    2.1205    1.3780    2.9167 C   0  0  0  0  0  0  0  0  0  0  0  0
    1.4244    1.0032    3.6702 H   0  0  0  0  0  0  0  0  0  0  0  0
    3.1333    1.0659    3.1737 H   0  0  0  0  0  0  0  0  0  0  0  0
    2.0683    2.4689    2.9089 H   0  0  0  0  0  0  0  0  0  0  0  0
  5  6  2  0  0  0  0
  5  7  1  0  0  0  0
  2  3  1  0  0  0  0
  2  4  1  0  0  0  0
  2  5  1  0  0  0  0
  1  2  1  0  0  0  0
 19 20  2  0  0  0  0
 19 21  1  0  0  0  0
 17 18  1  0  0  0  0
 17 19  1  0  0  0  0
 14 15  1  0  0  0  0
 14 16  1  0  0  0  0
 14 17  1  0  0  0  0
 11 12  1  0  0  0  0
 11 13  1  0  0  0  0
 11 14  1  0  0  0  0
  8  9  1  0  0  0  0
  8 10  1  0  0  0  0
  8 11  1  0  0  0  0
  7  8  1  0  0  0  0
  7 17  1  0  0  0  0
 23 24  1  0  0  0  0
 23 25  1  0  0  0  0
 23 26  1  0  0  0  0
 21 22  1  0  0  0  0
 21 23  1  0  0  0  0
M  END
$$$$
default_name
  -OEChem-11182114113D

 26 26  0     1  0  0  0  0  0999 V2000
   -1.8446   -3.5060   -0.3010 H   0  0  0  0  0  0  0  0  0  0  0  0
   -2.0746   -2.4490   -0.4240 C   0  0  0  0  0  0  0  0  0  0  0  0
   -2.6906   -2.1160    0.4090 H   0  0  0  0  0  0  0  0  0  0  0  0
   -2.5986   -2.2980   -1.3650 H   0  0  0  0  0  0  0  0  0  0  0  0
   -0.7756   -1.6630   -0.4350 C   0  0  0  0  0  0  0  0  0  0  0  0
    0.2844   -2.2800   -0.4550 O   0  0  0  0  0  0  0  0  0  0  0  0
   -0.8246   -0.3180   -0.4350 N   0  0  0  0  0  0  0  0  0  0  0  0
   -2.0106    0.5080   -0.5910 C   0  0  0  0  0  0  0  0  0  0  0  0
   -2.3521    0.9488    0.3470 H   0  0  0  0  0  0  0  0  0  0  0  0
   -2.8454    0.0526   -1.1226 H   0  0  0  0  0  0  0  0  0  0  0  0
   -1.3591    1.5787   -1.4637 C   0  0  0  0  0  0  0  0  0  0  0  0
   -1.7619    2.5210   -1.0891 H   0  0  0  0  0  0  0  0  0  0  0  0
   -1.7476    1.3593   -2.4587 H   0  0  0  0  0  0  0  0  0  0  0  0
    0.1692    1.5830   -1.4940 C   0  0  0  0  0  0  0  0  0  0  0  0
    0.5844    2.5417   -1.1768 H   0  0  0  0  0  0  0  0  0  0  0  0
    0.6127    1.2758   -2.4411 H   0  0  0  0  0  0  0  0  0  0  0  0
    0.3724    0.5200   -0.4020 C   0  0  1  0  0  0  0  0  0  0  0  0
    1.2314   -0.0975   -0.6654 H   0  0  0  0  0  0  0  0  0  0  0  0
    0.6001    1.1537    0.9806 C   0  0  0  0  0  0  0  0  0  0  0  0
   -0.3270    1.6969    1.5780 O   0  0  0  0  0  0  0  0  0  0  0  0
    1.8460    1.1170    1.4684 N   0  0  0  0  0  0  0  0  0  0  0  0
    2.5376    0.6023    0.9472 H   0  0  0  0  0  0  0  0  0  0  0  0
    2.2334    1.6788    2.7602 C   0  0  0  0  0  0  0  0  0  0  0  0
    1.7307    1.1319    3.5608 H   0  0  0  0  0  0  0  0  0  0  0  0
    3.3130    1.6068    2.8962 H   0  0  0  0  0  0  0  0  0  0  0  0
    1.9304    2.7268    2.8134 H   0  0  0  0  0  0  0  0  0  0  0  0
  5  6  2  0  0  0  0
  5  7  1  0  0  0  0
  2  3  1  0  0  0  0
  2  4  1  0  0  0  0
  2  5  1  0  0  0  0
  1  2  1  0  0  0  0
 19 20  2  0  0  0  0
 19 21  1  0  0  0  0
 17 18  1  0  0  0  0
 17 19  1  0  0  0  0
 14 15  1  0  0  0  0
 14 16  1  0  0  0  0
 14 17  1  0  0  0  0
 11 12  1  0  0  0  0
 11 13  1  0  0  0  0
 11 14  1  0  0  0  0
  8  9  1  0  0  0  0
  8 10  1  0  0  0  0
  8 11  1  0  0  0  0
  7  8  1  0  0  0  0
  7 17  1  0  0  0  0
 23 24  1  0  0  0  0
 23 25  1  0  0  0  0
 23 26  1  0  0  0  0
 21 22  1  0  0  0  0
 21 23  1  0  0  0  0
M  END
$$$$
default_name
  -OEChem-11182114113D

 26 26  0     1  0  0  0  0  0999 V2000
   -1.8446   -3.5060   -0.3010 H   0  0  0  0  0  0  0  0  0  0  0  0
   -2.0746   -2.4490   -0.4240 C   0  0  0  0  0  0  0  0  0  0  0  0
   -2.6906   -2.1160    0.4090 H   0  0  0  0  0  0  0  0  0  0  0  0
   -2.5986   -2.2980   -1.3650 H   0  0  0  0  0  0  0  0  0  0  0  0
   -0.7756   -1.6630   -0.4350 C   0  0  0  0  0  0  0  0  0  0  0  0
    0.2844   -2.2800   -0.4550 O   0  0  0  0  0  0  0  0  0  0  0  0
   -0.8246   -0.3180   -0.4350 N   0  0  0  0  0  0  0  0  0  0  0  0
   -2.0106    0.5080   -0.5910 C   0  0  0  0  0  0  0  0  0  0  0  0
   -2.3521    0.9488    0.3470 H   0  0  0  0  0  0  0  0  0  0  0  0
   -2.8454    0.0526   -1.1226 H   0  0  0  0  0  0  0  0  0  0  0  0
   -1.3591    1.5787   -1.4637 C   0  0  0  0  0  0  0  0  0  0  0  0
   -1.7619    2.5210   -1.0891 H   0  0  0  0  0  0  0  0  0  0  0  0
   -1.7476    1.3593   -2.4587 H   0  0  0  0  0  0  0  0  0  0  0  0
    0.1692    1.5830   -1.4940 C   0  0  0  0  0  0  0  0  0  0  0  0
    0.5844    2.5417   -1.1768 H   0  0  0  0  0  0  0  0  0  0  0  0
    0.6127    1.2758   -2.4411 H   0  0  0  0  0  0  0  0  0  0  0  0
    0.3724    0.5200   -0.4020 C   0  0  1  0  0  0  0  0  0  0  0  0
    1.2314   -0.0975   -0.6654 H   0  0  0  0  0  0  0  0  0  0  0  0
    0.6001    1.1537    0.9806 C   0  0  0  0  0  0  0  0  0  0  0  0
   -0.3550    1.4485    1.6964 O   0  0  0  0  0  0  0  0  0  0  0  0
    1.8672    1.3981    1.3361 N   0  0  0  0  0  0  0  0  0  0  0  0
    2.5964    1.0736    0.7215 H   0  0  0  0  0  0  0  0  0  0  0  0
    2.2558    2.0017    2.6085 C   0  0  0  0  0  0  0  0  0  0  0  0
    1.9849    1.3317    3.4273 H   0  0  0  0  0  0  0  0  0  0  0  0
    3.3311    2.1816    2.6298 H   0  0  0  0  0  0  0  0  0  0  0  0
    1.7271    2.9476    2.7457 H   0  0  0  0  0  0  0  0  0  0  0  0
  5  6  2  0  0  0  0
  5  7  1  0  0  0  0
  2  3  1  0  0  0  0
  2  4  1  0  0  0  0
  2  5  1  0  0  0  0
  1  2  1  0  0  0  0
 19 20  2  0  0  0  0
 19 21  1  0  0  0  0
 17 18  1  0  0  0  0
 17 19  1  0  0  0  0
 14 15  1  0  0  0  0
 14 16  1  0  0  0  0
 14 17  1  0  0  0  0
 11 12  1  0  0  0  0
 11 13  1  0  0  0  0
 11 14  1  0  0  0  0
  8  9  1  0  0  0  0
  8 10  1  0  0  0  0
  8 11  1  0  0  0  0
  7  8  1  0  0  0  0
  7 17  1  0  0  0  0
 23 24  1  0  0  0  0
 23 25  1  0  0  0  0
 23 26  1  0  0  0  0
 21 22  1  0  0  0  0
 21 23  1  0  0  0  0
M  END
$$$$
default_name
  -OEChem-11182114113D

 26 26  0     1  0  0  0  0  0999 V2000
   -1.8446   -3.5060   -0.3010 H   0  0  0  0  0  0  0  0  0  0  0  0
   -2.0746   -2.4490   -0.4240 C   0  0  0  0  0  0  0  0  0  0  0  0
   -2.6906   -2.1160    0.4090 H   0  0  0  0  0  0  0  0  0  0  0  0
   -2.5986   -2.2980   -1.3650 H   0  0  0  0  0  0  0  0  0  0  0  0
   -0.7756   -1.6630   -0.4350 C   0  0  0  0  0  0  0  0  0  0  0  0
    0.2844   -2.2800   -0.4550 O   0  0  0  0  0  0  0  0  0  0  0  0
   -0.8246   -0.3180   -0.4350 N   0  0  0  0  0  0  0  0  0  0  0  0
   -2.0106    0.5080   -0.5910 C   0  0  0  0  0  0  0  0  0  0  0  0
   -2.3521    0.9488    0.3470 H   0  0  0  0  0  0  0  0  0  0  0  0
   -2.8454    0.0526   -1.1226 H   0  0  0  0  0  0  0  0  0  0  0  0
   -1.3591    1.5787   -1.4637 C   0  0  0  0  0  0  0  0  0  0  0  0
   -1.7619    2.5210   -1.0891 H   0  0  0  0  0  0  0  0  0  0  0  0
   -1.7476    1.3593   -2.4587 H   0  0  0  0  0  0  0  0  0  0  0  0
    0.1692    1.5830   -1.4940 C   0  0  0  0  0  0  0  0  0  0  0  0
    0.5844    2.5417   -1.1768 H   0  0  0  0  0  0  0  0  0  0  0  0
    0.6127    1.2758   -2.4411 H   0  0  0  0  0  0  0  0  0  0  0  0
    0.3724    0.5200   -0.4020 C   0  0  1  0  0  0  0  0  0  0  0  0
    1.2314   -0.0975   -0.6654 H   0  0  0  0  0  0  0  0  0  0  0  0
    0.6001    1.1537    0.9806 C   0  0  0  0  0  0  0  0  0  0  0  0
   -0.3115    1.1976    1.8043 O   0  0  0  0  0  0  0  0  0  0  0  0
    1.8081    1.6795    1.2168 N   0  0  0  0  0  0  0  0  0  0  0  0
    2.5196    1.5512    0.5152 H   0  0  0  0  0  0  0  0  0  0  0  0
    2.1860    2.3246    2.4720 C   0  0  0  0  0  0  0  0  0  0  0  0
    2.1698    1.5889    3.2790 H   0  0  0  0  0  0  0  0  0  0  0  0
    3.1863    2.7513    2.3925 H   0  0  0  0  0  0  0  0  0  0  0  0
    1.4721    3.1161    2.7104 H   0  0  0  0  0  0  0  0  0  0  0  0
  5  6  2  0  0  0  0
  5  7  1  0  0  0  0
  2  3  1  0  0  0  0
  2  4  1  0  0  0  0
  2  5  1  0  0  0  0
  1  2  1  0  0  0  0
 19 20  2  0  0  0  0
 19 21  1  0  0  0  0
 17 18  1  0  0  0  0
 17 19  1  0  0  0  0
 14 15  1  0  0  0  0
 14 16  1  0  0  0  0
 14 17  1  0  0  0  0
 11 12  1  0  0  0  0
 11 13  1  0  0  0  0
 11 14  1  0  0  0  0
  8  9  1  0  0  0  0
  8 10  1  0  0  0  0
  8 11  1  0  0  0  0
  7  8  1  0  0  0  0
  7 17  1  0  0  0  0
 23 24  1  0  0  0  0
 23 25  1  0  0  0  0
 23 26  1  0  0  0  0
 21 22  1  0  0  0  0
 21 23  1  0  0  0  0
M  END
$$$$
default_name
  -OEChem-11182114113D

 26 26  0     1  0  0  0  0  0999 V2000
   -1.8446   -3.5060   -0.3010 H   0  0  0  0  0  0  0  0  0  0  0  0
   -2.0746   -2.4490   -0.4240 C   0  0  0  0  0  0  0  0  0  0  0  0
   -2.6906   -2.1160    0.4090 H   0  0  0  0  0  0  0  0  0  0  0  0
   -2.5986   -2.2980   -1.3650 H   0  0  0  0  0  0  0  0  0  0  0  0
   -0.7756   -1.6630   -0.4350 C   0  0  0  0  0  0  0  0  0  0  0  0
    0.2844   -2.2800   -0.4550 O   0  0  0  0  0  0  0  0  0  0  0  0
   -0.8246   -0.3180   -0.4350 N   0  0  0  0  0  0  0  0  0  0  0  0
   -2.0106    0.5080   -0.5910 C   0  0  0  0  0  0  0  0  0  0  0  0
   -2.5145    0.5946    0.3731 H   0  0  0  0  0  0  0  0  0  0  0  0
   -2.6910    0.1047   -1.3402 H   0  0  0  0  0  0  0  0  0  0  0  0
   -1.4974    1.8759   -1.0359 C   0  0  0  0  0  0  0  0  0  0  0  0
   -1.7825    2.6197   -0.2903 H   0  0  0  0  0  0  0  0  0  0  0  0
   -1.9613    2.0944   -1.9983 H   0  0  0  0  0  0  0  0  0  0  0  0
    0.0196    1.7852   -1.2010 C   0  0  0  0  0  0  0  0  0  0  0  0
    0.4870    2.6640   -0.7523 H   0  0  0  0  0  0  0  0  0  0  0  0
    0.3138    1.6951   -2.2466 H   0  0  0  0  0  0  0  0  0  0  0  0
    0.3724    0.5200   -0.4020 C   0  0  1  0  0  0  0  0  0  0  0  0
    1.1763   -0.0089   -0.9145 H   0  0  0  0  0  0  0  0  0  0  0  0
    0.8100    0.8517    1.0345 C   0  0  0  0  0  0  0  0  0  0  0  0
    0.1534    0.4528    1.9943 O   0  0  0  0  0  0  0  0  0  0  0  0
    1.8993    1.6164    1.1768 N   0  0  0  0  0  0  0  0  0  0  0  0
    2.4164    1.8536    0.3454 H   0  0  0  0  0  0  0  0  0  0  0  0
    2.4434    2.0293    2.4684 C   0  0  0  0  0  0  0  0  0  0  0  0
    2.7910    1.1501    3.0151 H   0  0  0  0  0  0  0  0  0  0  0  0
    3.2763    2.7185    2.3257 H   0  0  0  0  0  0  0  0  0  0  0  0
    1.6649    2.5185    3.0580 H   0  0  0  0  0  0  0  0  0  0  0  0
  5  6  2  0  0  0  0
  5  7  1  0  0  0  0
  2  3  1  0  0  0  0
  2  4  1  0  0  0  0
  2  5  1  0  0  0  0
  1  2  1  0  0  0  0
 19 20  2  0  0  0  0
 19 21  1  0  0  0  0
 17 18  1  0  0  0  0
 17 19  1  0  0  0  0
 14 15  1  0  0  0  0
 14 16  1  0  0  0  0
 14 17  1  0  0  0  0
 11 12  1  0  0  0  0
 11 13  1  0  0  0  0
 11 14  1  0  0  0  0
  8  9  1  0  0  0  0
  8 10  1  0  0  0  0
  8 11  1  0  0  0  0
  7  8  1  0  0  0  0
  7 17  1  0  0  0  0
 23 24  1  0  0  0  0
 23 25  1  0  0  0  0
 23 26  1  0  0  0  0
 21 22  1  0  0  0  0
 21 23  1  0  0  0  0
M  END
$$$$
default_name
  -OEChem-11182114113D

 26 26  0     1  0  0  0  0  0999 V2000
   -1.8446   -3.5060   -0.3010 H   0  0  0  0  0  0  0  0  0  0  0  0
   -2.0746   -2.4490   -0.4240 C   0  0  0  0  0  0  0  0  0  0  0  0
   -2.6906   -2.1160    0.4090 H   0  0  0  0  0  0  0  0  0  0  0  0
   -2.5986   -2.2980   -1.3650 H   0  0  0  0  0  0  0  0  0  0  0  0
   -0.7756   -1.6630   -0.4350 C   0  0  0  0  0  0  0  0  0  0  0  0
    0.2844   -2.2800   -0.4550 O   0  0  0  0  0  0  0  0  0  0  0  0
   -0.8246   -0.3180   -0.4350 N   0  0  0  0  0  0  0  0  0  0  0  0
   -2.0106    0.5080   -0.5910 C   0  0  0  0  0  0  0  0  0  0  0  0
   -2.5145    0.5946    0.3731 H   0  0  0  0  0  0  0  0  0  0  0  0
   -2.6910    0.1047   -1.3402 H   0  0  0  0  0  0  0  0  0  0  0  0
   -1.4974    1.8759   -1.0359 C   0  0  0  0  0  0  0  0  0  0  0  0
   -1.7825    2.6197   -0.2903 H   0  0  0  0  0  0  0  0  0  0  0  0
   -1.9613    2.0944   -1.9983 H   0  0  0  0  0  0  0  0  0  0  0  0
    0.0196    1.7852   -1.2010 C   0  0  0  0  0  0  0  0  0  0  0  0
    0.4870    2.6640   -0.7523 H   0  0  0  0  0  0  0  0  0  0  0  0
    0.3138    1.6951   -2.2466 H   0  0  0  0  0  0  0  0  0  0  0  0
    0.3724    0.5200   -0.4020 C   0  0  1  0  0  0  0  0  0  0  0  0
    1.1763   -0.0089   -0.9145 H   0  0  0  0  0  0  0  0  0  0  0  0
    0.8100    0.8517    1.0345 C   0  0  0  0  0  0  0  0  0  0  0  0
    0.3318    0.2416    1.9887 O   0  0  0  0  0  0  0  0  0  0  0  0
    1.6912    1.8477    1.1868 N   0  0  0  0  0  0  0  0  0  0  0  0
    2.0813    2.2587    0.3539 H   0  0  0  0  0  0  0  0  0  0  0  0
    2.2030    2.2936    2.4805 C   0  0  0  0  0  0  0  0  0  0  0  0
    2.7859    1.4912    2.9378 H   0  0  0  0  0  0  0  0  0  0  0  0
    2.8355    3.1730    2.3550 H   0  0  0  0  0  0  0  0  0  0  0  0
    1.3700    2.5377    3.1434 H   0  0  0  0  0  0  0  0  0  0  0  0
  5  6  2  0  0  0  0
  5  7  1  0  0  0  0
  2  3  1  0  0  0  0
  2  4  1  0  0  0  0
  2  5  1  0  0  0  0
  1  2  1  0  0  0  0
 19 20  2  0  0  0  0
 19 21  1  0  0  0  0
 17 18  1  0  0  0  0
 17 19  1  0  0  0  0
 14 15  1  0  0  0  0
 14 16  1  0  0  0  0
 14 17  1  0  0  0  0
 11 12  1  0  0  0  0
 11 13  1  0  0  0  0
 11 14  1  0  0  0  0
  8  9  1  0  0  0  0
  8 10  1  0  0  0  0
  8 11  1  0  0  0  0
  7  8  1  0  0  0  0
  7 17  1  0  0  0  0
 23 24  1  0  0  0  0
 23 25  1  0  0  0  0
 23 26  1  0  0  0  0
 21 22  1  0  0  0  0
 21 23  1  0  0  0  0
M  END
$$$$
default_name
  -OEChem-11182114113D

 26 26  0     1  0  0  0  0  0999 V2000
   -1.8446   -3.5060   -0.3010 H   0  0  0  0  0  0  0  0  0  0  0  0
   -2.0746   -2.4490   -0.4240 C   0  0  0  0  0  0  0  0  0  0  0  0
   -2.6906   -2.1160    0.4090 H   0  0  0  0  0  0  0  0  0  0  0  0
   -2.5986   -2.2980   -1.3650 H   0  0  0  0  0  0  0  0  0  0  0  0
   -0.7756   -1.6630   -0.4350 C   0  0  0  0  0  0  0  0  0  0  0  0
    0.2844   -2.2800   -0.4550 O   0  0  0  0  0  0  0  0  0  0  0  0
   -0.8246   -0.3180   -0.4350 N   0  0  0  0  0  0  0  0  0  0  0  0
   -2.0106    0.5080   -0.5910 C   0  0  0  0  0  0  0  0  0  0  0  0
   -2.5145    0.5946    0.3731 H   0  0  0  0  0  0  0  0  0  0  0  0
   -2.6910    0.1047   -1.3402 H   0  0  0  0  0  0  0  0  0  0  0  0
   -1.4974    1.8759   -1.0359 C   0  0  0  0  0  0  0  0  0  0  0  0
   -1.7825    2.6197   -0.2903 H   0  0  0  0  0  0  0  0  0  0  0  0
   -1.9613    2.0944   -1.9983 H   0  0  0  0  0  0  0  0  0  0  0  0
    0.0196    1.7852   -1.2010 C   0  0  0  0  0  0  0  0  0  0  0  0
    0.4870    2.6640   -0.7523 H   0  0  0  0  0  0  0  0  0  0  0  0
    0.3138    1.6951   -2.2466 H   0  0  0  0  0  0  0  0  0  0  0  0
    0.3724    0.5200   -0.4020 C   0  0  1  0  0  0  0  0  0  0  0  0
    1.1763   -0.0089   -0.9145 H   0  0  0  0  0  0  0  0  0  0  0  0
    0.8100    0.8517    1.0345 C   0  0  0  0  0  0  0  0  0  0  0  0
    0.5549    0.0811    1.9578 O   0  0  0  0  0  0  0  0  0  0  0  0
    1.4348    2.0200    1.2251 N   0  0  0  0  0  0  0  0  0  0  0  0
    1.6601    2.5685    0.4107 H   0  0  0  0  0  0  0  0  0  0  0  0
    1.9077    2.4899    2.5252 C   0  0  0  0  0  0  0  0  0  0  0  0
    2.6943    1.8252    2.8886 H   0  0  0  0  0  0  0  0  0  0  0  0
    2.3014    3.5033    2.4414 H   0  0  0  0  0  0  0  0  0  0  0  0
    1.0852    2.4787    3.2438 H   0  0  0  0  0  0  0  0  0  0  0  0
  5  6  2  0  0  0  0
  5  7  1  0  0  0  0
  2  3  1  0  0  0  0
  2  4  1  0  0  0  0
  2  5  1  0  0  0  0
  1  2  1  0  0  0  0
 19 20  2  0  0  0  0
 19 21  1  0  0  0  0
 17 18  1  0  0  0  0
 17 19  1  0  0  0  0
 14 15  1  0  0  0  0
 14 16  1  0  0  0  0
 14 17  1  0  0  0  0
 11 12  1  0  0  0  0
 11 13  1  0  0  0  0
 11 14  1  0  0  0  0
  8  9  1  0  0  0  0
  8 10  1  0  0  0  0
  8 11  1  0  0  0  0
  7  8  1  0  0  0  0
  7 17  1  0  0  0  0
 23 24  1  0  0  0  0
 23 25  1  0  0  0  0
 23 26  1  0  0  0  0
 21 22  1  0  0  0  0
 21 23  1  0  0  0  0
M  END
$$$$
default_name
  -OEChem-11182114113D

 26 26  0     1  0  0  0  0  0999 V2000
   -1.8446   -3.5060   -0.3010 H   0  0  0  0  0  0  0  0  0  0  0  0
   -2.0746   -2.4490   -0.4240 C   0  0  0  0  0  0  0  0  0  0  0  0
   -2.6906   -2.1160    0.4090 H   0  0  0  0  0  0  0  0  0  0  0  0
   -2.5986   -2.2980   -1.3650 H   0  0  0  0  0  0  0  0  0  0  0  0
   -0.7756   -1.6630   -0.4350 C   0  0  0  0  0  0  0  0  0  0  0  0
    0.2844   -2.2800   -0.4550 O   0  0  0  0  0  0  0  0  0  0  0  0
   -0.8246   -0.3180   -0.4350 N   0  0  0  0  0  0  0  0  0  0  0  0
   -2.0106    0.5080   -0.5910 C   0  0  0  0  0  0  0  0  0  0  0  0
   -2.5145    0.5946    0.3731 H   0  0  0  0  0  0  0  0  0  0  0  0
   -2.6910    0.1047   -1.3402 H   0  0  0  0  0  0  0  0  0  0  0  0
   -1.4974    1.8759   -1.0359 C   0  0  0  0  0  0  0  0  0  0  0  0
   -1.7825    2.6197   -0.2903 H   0  0  0  0  0  0  0  0  0  0  0  0
   -1.9613    2.0944   -1.9983 H   0  0  0  0  0  0  0  0  0  0  0  0
    0.0196    1.7852   -1.2010 C   0  0  0  0  0  0  0  0  0  0  0  0
    0.4870    2.6640   -0.7523 H   0  0  0  0  0  0  0  0  0  0  0  0
    0.3138    1.6951   -2.2466 H   0  0  0  0  0  0  0  0  0  0  0  0
    0.3724    0.5200   -0.4020 C   0  0  1  0  0  0  0  0  0  0  0  0
    1.1763   -0.0089   -0.9145 H   0  0  0  0  0  0  0  0  0  0  0  0
    0.8100    0.8517    1.0345 C   0  0  0  0  0  0  0  0  0  0  0  0
    0.8075   -0.0177    1.9037 O   0  0  0  0  0  0  0  0  0  0  0  0
    1.1476    2.1217    1.2891 N   0  0  0  0  0  0  0  0  0  0  0  0
    1.1815    2.7617    0.5118 H   0  0  0  0  0  0  0  0  0  0  0  0
    1.5774    2.6048    2.5992 C   0  0  0  0  0  0  0  0  0  0  0  0
    2.5223    2.1292    2.8708 H   0  0  0  0  0  0  0  0  0  0  0  0
    1.7105    3.6869    2.5790 H   0  0  0  0  0  0  0  0  0  0  0  0
    0.8300    2.3454    3.3523 H   0  0  0  0  0  0  0  0  0  0  0  0
  5  6  2  0  0  0  0
  5  7  1  0  0  0  0
  2  3  1  0  0  0  0
  2  4  1  0  0  0  0
  2  5  1  0  0  0  0
  1  2  1  0  0  0  0
 19 20  2  0  0  0  0
 19 21  1  0  0  0  0
 17 18  1  0  0  0  0
 17 19  1  0  0  0  0
 14 15  1  0  0  0  0
 14 16  1  0  0  0  0
 14 17  1  0  0  0  0
 11 12  1  0  0  0  0
 11 13  1  0  0  0  0
 11 14  1  0  0  0  0
  8  9  1  0  0  0  0
  8 10  1  0  0  0  0
  8 11  1  0  0  0  0
  7  8  1  0  0  0  0
  7 17  1  0  0  0  0
 23 24  1  0  0  0  0
 23 25  1  0  0  0  0
 23 26  1  0  0  0  0
 21 22  1  0  0  0  0
 21 23  1  0  0  0  0
M  END
$$$$
default_name
  -OEChem-11182114113D

 26 26  0     1  0  0  0  0  0999 V2000
   -1.8446   -3.5060   -0.3010 H   0  0  0  0  0  0  0  0  0  0  0  0
   -2.0746   -2.4490   -0.4240 C   0  0  0  0  0  0  0  0  0  0  0  0
   -2.6906   -2.1160    0.4090 H   0  0  0  0  0  0  0  0  0  0  0  0
   -2.5986   -2.2980   -1.3650 H   0  0  0  0  0  0  0  0  0  0  0  0
   -0.7756   -1.6630   -0.4350 C   0  0  0  0  0  0  0  0  0  0  0  0
    0.2844   -2.2800   -0.4550 O   0  0  0  0  0  0  0  0  0  0  0  0
   -0.8246   -0.3180   -0.4350 N   0  0  0  0  0  0  0  0  0  0  0  0
   -2.0106    0.5080   -0.5910 C   0  0  0  0  0  0  0  0  0  0  0  0
   -2.5145    0.5946    0.3731 H   0  0  0  0  0  0  0  0  0  0  0  0
   -2.6910    0.1047   -1.3402 H   0  0  0  0  0  0  0  0  0  0  0  0
   -1.4974    1.8759   -1.0359 C   0  0  0  0  0  0  0  0  0  0  0  0
   -1.7825    2.6197   -0.2903 H   0  0  0  0  0  0  0  0  0  0  0  0
   -1.9613    2.0944   -1.9983 H   0  0  0  0  0  0  0  0  0  0  0  0
    0.0196    1.7852   -1.2010 C   0  0  0  0  0  0  0  0  0  0  0  0
    0.4870    2.6640   -0.7523 H   0  0  0  0  0  0  0  0  0  0  0  0
    0.3138    1.6951   -2.2466 H   0  0  0  0  0  0  0  0  0  0  0  0
    0.3724    0.5200   -0.4020 C   0  0  1  0  0  0  0  0  0  0  0  0
    1.1763   -0.0089   -0.9145 H   0  0  0  0  0  0  0  0  0  0  0  0
    0.8100    0.8517    1.0345 C   0  0  0  0  0  0  0  0  0  0  0  0
    1.0724   -0.0481    1.8300 O   0  0  0  0  0  0  0  0  0  0  0  0
    0.8492    2.1458    1.3745 N   0  0  0  0  0  0  0  0  0  0  0  0
    0.6782    2.8251    0.6505 H   0  0  0  0  0  0  0  0  0  0  0  0
    1.2348    2.6305    2.6977 C   0  0  0  0  0  0  0  0  0  0  0  0
    2.2816    2.3826    2.8856 H   0  0  0  0  0  0  0  0  0  0  0  0
    1.1030    3.7112    2.7584 H   0  0  0  0  0  0  0  0  0  0  0  0
    0.6218    2.1470    3.4615 H   0  0  0  0  0  0  0  0  0  0  0  0
  5  6  2  0  0  0  0
  5  7  1  0  0  0  0
  2  3  1  0  0  0  0
  2  4  1  0  0  0  0
  2  5  1  0  0  0  0
  1  2  1  0  0  0  0
 19 20  2  0  0  0  0
 19 21  1  0  0  0  0
 17 18  1  0  0  0  0
 17 19  1  0  0  0  0
 14 15  1  0  0  0  0
 14 16  1  0  0  0  0
 14 17  1  0  0  0  0
 11 12  1  0  0  0  0
 11 13  1  0  0  0  0
 11 14  1  0  0  0  0
  8  9  1  0  0  0  0
  8 10  1  0  0  0  0
  8 11  1  0  0  0  0
  7  8  1  0  0  0  0
  7 17  1  0  0  0  0
 23 24  1  0  0  0  0
 23 25  1  0  0  0  0
 23 26  1  0  0  0  0
 21 22  1  0  0  0  0
 21 23  1  0  0  0  0
M  END
$$$$
default_name
  -OEChem-11182114113D

 26 26  0     1  0  0  0  0  0999 V2000
   -1.8446   -3.5060   -0.3010 H   0  0  0  0  0  0  0  0  0  0  0  0
   -2.0746   -2.4490   -0.4240 C   0  0  0  0  0  0  0  0  0  0  0  0
   -2.6906   -2.1160    0.4090 H   0  0  0  0  0  0  0  0  0  0  0  0
   -2.5986   -2.2980   -1.3650 H   0  0  0  0  0  0  0  0  0  0  0  0
   -0.7756   -1.6630   -0.4350 C   0  0  0  0  0  0  0  0  0  0  0  0
    0.2844   -2.2800   -0.4550 O   0  0  0  0  0  0  0  0  0  0  0  0
   -0.8246   -0.3180   -0.4350 N   0  0  0  0  0  0  0  0  0  0  0  0
   -2.0106    0.5080   -0.5910 C   0  0  0  0  0  0  0  0  0  0  0  0
   -2.5145    0.5946    0.3731 H   0  0  0  0  0  0  0  0  0  0  0  0
   -2.6910    0.1047   -1.3402 H   0  0  0  0  0  0  0  0  0  0  0  0
   -1.4974    1.8759   -1.0359 C   0  0  0  0  0  0  0  0  0  0  0  0
   -1.7825    2.6197   -0.2903 H   0  0  0  0  0  0  0  0  0  0  0  0
   -1.9613    2.0944   -1.9983 H   0  0  0  0  0  0  0  0  0  0  0  0
    0.0196    1.7852   -1.2010 C   0  0  0  0  0  0  0  0  0  0  0  0
    0.4870    2.6640   -0.7523 H   0  0  0  0  0  0  0  0  0  0  0  0
    0.3138    1.6951   -2.2466 H   0  0  0  0  0  0  0  0  0  0  0  0
    0.3724    0.5200   -0.4020 C   0  0  1  0  0  0  0  0  0  0  0  0
    1.1763   -0.0089   -0.9145 H   0  0  0  0  0  0  0  0  0  0  0  0
    0.8100    0.8517    1.0345 C   0  0  0  0  0  0  0  0  0  0  0  0
    1.3314   -0.0080    1.7418 O   0  0  0  0  0  0  0  0  0  0  0  0
    0.5599    2.0906    1.4753 N   0  0  0  0  0  0  0  0  0  0  0  0
    0.1845    2.7545    0.8172 H   0  0  0  0  0  0  0  0  0  0  0  0
    0.9031    2.5652    2.8138 C   0  0  0  0  0  0  0  0  0  0  0  0
    1.9888    2.5681    2.9320 H   0  0  0  0  0  0  0  0  0  0  0  0
    0.5203    3.5747    2.9675 H   0  0  0  0  0  0  0  0  0  0  0  0
    0.4748    1.8969    3.5641 H   0  0  0  0  0  0  0  0  0  0  0  0
  5  6  2  0  0  0  0
  5  7  1  0  0  0  0
  2  3  1  0  0  0  0
  2  4  1  0  0  0  0
  2  5  1  0  0  0  0
  1  2  1  0  0  0  0
 19 20  2  0  0  0  0
 19 21  1  0  0  0  0
 17 18  1  0  0  0  0
 17 19  1  0  0  0  0
 14 15  1  0  0  0  0
 14 16  1  0  0  0  0
 14 17  1  0  0  0  0
 11 12  1  0  0  0  0
 11 13  1  0  0  0  0
 11 14  1  0  0  0  0
  8  9  1  0  0  0  0
  8 10  1  0  0  0  0
  8 11  1  0  0  0  0
  7  8  1  0  0  0  0
  7 17  1  0  0  0  0
 23 24  1  0  0  0  0
 23 25  1  0  0  0  0
 23 26  1  0  0  0  0
 21 22  1  0  0  0  0
 21 23  1  0  0  0  0
M  END
$$$$
default_name
  -OEChem-11182114113D

 26 26  0     1  0  0  0  0  0999 V2000
   -1.8446   -3.5060   -0.3010 H   0  0  0  0  0  0  0  0  0  0  0  0
   -2.0746   -2.4490   -0.4240 C   0  0  0  0  0  0  0  0  0  0  0  0
   -2.6906   -2.1160    0.4090 H   0  0  0  0  0  0  0  0  0  0  0  0
   -2.5986   -2.2980   -1.3650 H   0  0  0  0  0  0  0  0  0  0  0  0
   -0.7756   -1.6630   -0.4350 C   0  0  0  0  0  0  0  0  0  0  0  0
    0.2844   -2.2800   -0.4550 O   0  0  0  0  0  0  0  0  0  0  0  0
   -0.8246   -0.3180   -0.4350 N   0  0  0  0  0  0  0  0  0  0  0  0
   -2.0106    0.5080   -0.5910 C   0  0  0  0  0  0  0  0  0  0  0  0
   -2.5145    0.5946    0.3731 H   0  0  0  0  0  0  0  0  0  0  0  0
   -2.6910    0.1047   -1.3402 H   0  0  0  0  0  0  0  0  0  0  0  0
   -1.4974    1.8759   -1.0359 C   0  0  0  0  0  0  0  0  0  0  0  0
   -1.7825    2.6197   -0.2903 H   0  0  0  0  0  0  0  0  0  0  0  0
   -1.9613    2.0944   -1.9983 H   0  0  0  0  0  0  0  0  0  0  0  0
    0.0196    1.7852   -1.2010 C   0  0  0  0  0  0  0  0  0  0  0  0
    0.4870    2.6640   -0.7523 H   0  0  0  0  0  0  0  0  0  0  0  0
    0.3138    1.6951   -2.2466 H   0  0  0  0  0  0  0  0  0  0  0  0
    0.3724    0.5200   -0.4020 C   0  0  1  0  0  0  0  0  0  0  0  0
    1.1763   -0.0089   -0.9145 H   0  0  0  0  0  0  0  0  0  0  0  0
    0.8100    0.8517    1.0345 C   0  0  0  0  0  0  0  0  0  0  0  0
    1.5671    0.0999    1.6452 O   0  0  0  0  0  0  0  0  0  0  0  0
    0.2994    1.9599    1.5849 N   0  0  0  0  0  0  0  0  0  0  0  0
   -0.2660    2.5547    1.0006 H   0  0  0  0  0  0  0  0  0  0  0  0
    0.6049    2.4134    2.9397 C   0  0  0  0  0  0  0  0  0  0  0  0
    1.6636    2.6731    3.0068 H   0  0  0  0  0  0  0  0  0  0  0  0
    0.0022    3.2865    3.1918 H   0  0  0  0  0  0  0  0  0  0  0  0
    0.3989    1.6123    3.6529 H   0  0  0  0  0  0  0  0  0  0  0  0
  5  6  2  0  0  0  0
  5  7  1  0  0  0  0
  2  3  1  0  0  0  0
  2  4  1  0  0  0  0
  2  5  1  0  0  0  0
  1  2  1  0  0  0  0
 19 20  2  0  0  0  0
 19 21  1  0  0  0  0
 17 18  1  0  0  0  0
 17 19  1  0  0  0  0
 14 15  1  0  0  0  0
 14 16  1  0  0  0  0
 14 17  1  0  0  0  0
 11 12  1  0  0  0  0
 11 13  1  0  0  0  0
 11 14  1  0  0  0  0
  8  9  1  0  0  0  0
  8 10  1  0  0  0  0
  8 11  1  0  0  0  0
  7  8  1  0  0  0  0
  7 17  1  0  0  0  0
 23 24  1  0  0  0  0
 23 25  1  0  0  0  0
 23 26  1  0  0  0  0
 21 22  1  0  0  0  0
 21 23  1  0  0  0  0
M  END
$$$$
default_name
  -OEChem-11182114113D

 26 26  0     1  0  0  0  0  0999 V2000
   -1.8446   -3.5060   -0.3010 H   0  0  0  0  0  0  0  0  0  0  0  0
   -2.0746   -2.4490   -0.4240 C   0  0  0  0  0  0  0  0  0  0  0  0
   -2.6906   -2.1160    0.4090 H   0  0  0  0  0  0  0  0  0  0  0  0
   -2.5986   -2.2980   -1.3650 H   0  0  0  0  0  0  0  0  0  0  0  0
   -0.7756   -1.6630   -0.4350 C   0  0  0  0  0  0  0  0  0  0  0  0
    0.2844   -2.2800   -0.4550 O   0  0  0  0  0  0  0  0  0  0  0  0
   -0.8246   -0.3180   -0.4350 N   0  0  0  0  0  0  0  0  0  0  0  0
   -2.0106    0.5080   -0.5910 C   0  0  0  0  0  0  0  0  0  0  0  0
   -2.5145    0.5946    0.3731 H   0  0  0  0  0  0  0  0  0  0  0  0
   -2.6910    0.1047   -1.3402 H   0  0  0  0  0  0  0  0  0  0  0  0
   -1.4974    1.8759   -1.0359 C   0  0  0  0  0  0  0  0  0  0  0  0
   -1.7825    2.6197   -0.2903 H   0  0  0  0  0  0  0  0  0  0  0  0
   -1.9613    2.0944   -1.9983 H   0  0  0  0  0  0  0  0  0  0  0  0
    0.0196    1.7852   -1.2010 C   0  0  0  0  0  0  0  0  0  0  0  0
    0.4870    2.6640   -0.7523 H   0  0  0  0  0  0  0  0  0  0  0  0
    0.3138    1.6951   -2.2466 H   0  0  0  0  0  0  0  0  0  0  0  0
    0.3724    0.5200   -0.4020 C   0  0  1  0  0  0  0  0  0  0  0  0
    1.1763   -0.0089   -0.9145 H   0  0  0  0  0  0  0  0  0  0  0  0
    0.8100    0.8517    1.0345 C   0  0  0  0  0  0  0  0  0  0  0  0
    1.7632    0.2681    1.5466 O   0  0  0  0  0  0  0  0  0  0  0  0
    0.0855    1.7626    1.6956 N   0  0  0  0  0  0  0  0  0  0  0  0
   -0.6427    2.2392    1.1882 H   0  0  0  0  0  0  0  0  0  0  0  0
    0.3607    2.1855    3.0667 C   0  0  0  0  0  0  0  0  0  0  0  0
    1.3283    2.6904    3.1049 H   0  0  0  0  0  0  0  0  0  0  0  0
   -0.4160    2.8664    3.4163 H   0  0  0  0  0  0  0  0  0  0  0  0
    0.3994    1.3125    3.7220 H   0  0  0  0  0  0  0  0  0  0  0  0
  5  6  2  0  0  0  0
  5  7  1  0  0  0  0
  2  3  1  0  0  0  0
  2  4  1  0  0  0  0
  2  5  1  0  0  0  0
  1  2  1  0  0  0  0
 19 20  2  0  0  0  0
 19 21  1  0  0  0  0
 17 18  1  0  0  0  0
 17 19  1  0  0  0  0
 14 15  1  0  0  0  0
 14 16  1  0  0  0  0
 14 17  1  0  0  0  0
 11 12  1  0  0  0  0
 11 13  1  0  0  0  0
 11 14  1  0  0  0  0
  8  9  1  0  0  0  0
  8 10  1  0  0  0  0
  8 11  1  0  0  0  0
  7  8  1  0  0  0  0
  7 17  1  0  0  0  0
 23 24  1  0  0  0  0
 23 25  1  0  0  0  0
 23 26  1  0  0  0  0
 21 22  1  0  0  0  0
 21 23  1  0  0  0  0
M  END
$$$$
default_name
  -OEChem-11182114113D

 26 26  0     1  0  0  0  0  0999 V2000
   -1.8446   -3.5060   -0.3010 H   0  0  0  0  0  0  0  0  0  0  0  0
   -2.0746   -2.4490   -0.4240 C   0  0  0  0  0  0  0  0  0  0  0  0
   -2.6906   -2.1160    0.4090 H   0  0  0  0  0  0  0  0  0  0  0  0
   -2.5986   -2.2980   -1.3650 H   0  0  0  0  0  0  0  0  0  0  0  0
   -0.7756   -1.6630   -0.4350 C   0  0  0  0  0  0  0  0  0  0  0  0
    0.2844   -2.2800   -0.4550 O   0  0  0  0  0  0  0  0  0  0  0  0
   -0.8246   -0.3180   -0.4350 N   0  0  0  0  0  0  0  0  0  0  0  0
   -2.0106    0.5080   -0.5910 C   0  0  0  0  0  0  0  0  0  0  0  0
   -2.5145    0.5946    0.3731 H   0  0  0  0  0  0  0  0  0  0  0  0
   -2.6910    0.1047   -1.3402 H   0  0  0  0  0  0  0  0  0  0  0  0
   -1.4974    1.8759   -1.0359 C   0  0  0  0  0  0  0  0  0  0  0  0
   -1.7825    2.6197   -0.2903 H   0  0  0  0  0  0  0  0  0  0  0  0
   -1.9613    2.0944   -1.9983 H   0  0  0  0  0  0  0  0  0  0  0  0
    0.0196    1.7852   -1.2010 C   0  0  0  0  0  0  0  0  0  0  0  0
    0.4870    2.6640   -0.7523 H   0  0  0  0  0  0  0  0  0  0  0  0
    0.3138    1.6951   -2.2466 H   0  0  0  0  0  0  0  0  0  0  0  0
    0.3724    0.5200   -0.4020 C   0  0  1  0  0  0  0  0  0  0  0  0
    1.1763   -0.0089   -0.9145 H   0  0  0  0  0  0  0  0  0  0  0  0
    0.8100    0.8517    1.0345 C   0  0  0  0  0  0  0  0  0  0  0  0
    1.9064    0.4853    1.4528 O   0  0  0  0  0  0  0  0  0  0  0  0
   -0.0672    1.5122    1.7999 N   0  0  0  0  0  0  0  0  0  0  0  0
   -0.9198    1.8297    1.3672 H   0  0  0  0  0  0  0  0  0  0  0  0
    0.1870    1.8969    3.1863 C   0  0  0  0  0  0  0  0  0  0  0  0
    1.0058    2.6188    3.2197 H   0  0  0  0  0  0  0  0  0  0  0  0
   -0.7059    2.3429    3.6255 H   0  0  0  0  0  0  0  0  0  0  0  0
    0.4762    1.0180    3.7666 H   0  0  0  0  0  0  0  0  0  0  0  0
  5  6  2  0  0  0  0
  5  7  1  0  0  0  0
  2  3  1  0  0  0  0
  2  4  1  0  0  0  0
  2  5  1  0  0  0  0
  1  2  1  0  0  0  0
 19 20  2  0  0  0  0
 19 21  1  0  0  0  0
 17 18  1  0  0  0  0
 17 19  1  0  0  0  0
 14 15  1  0  0  0  0
 14 16  1  0  0  0  0
 14 17  1  0  0  0  0
 11 12  1  0  0  0  0
 11 13  1  0  0  0  0
 11 14  1  0  0  0  0
  8  9  1  0  0  0  0
  8 10  1  0  0  0  0
  8 11  1  0  0  0  0
  7  8  1  0  0  0  0
  7 17  1  0  0  0  0
 23 24  1  0  0  0  0
 23 25  1  0  0  0  0
 23 26  1  0  0  0  0
 21 22  1  0  0  0  0
 21 23  1  0  0  0  0
M  END
$$$$
default_name
  -OEChem-11182114113D

 26 26  0     1  0  0  0  0  0999 V2000
   -1.8446   -3.5060   -0.3010 H   0  0  0  0  0  0  0  0  0  0  0  0
   -2.0746   -2.4490   -0.4240 C   0  0  0  0  0  0  0  0  0  0  0  0
   -2.6906   -2.1160    0.4090 H   0  0  0  0  0  0  0  0  0  0  0  0
   -2.5986   -2.2980   -1.3650 H   0  0  0  0  0  0  0  0  0  0  0  0
   -0.7756   -1.6630   -0.4350 C   0  0  0  0  0  0  0  0  0  0  0  0
    0.2844   -2.2800   -0.4550 O   0  0  0  0  0  0  0  0  0  0  0  0
   -0.8246   -0.3180   -0.4350 N   0  0  0  0  0  0  0  0  0  0  0  0
   -2.0106    0.5080   -0.5910 C   0  0  0  0  0  0  0  0  0  0  0  0
   -2.5145    0.5946    0.3731 H   0  0  0  0  0  0  0  0  0  0  0  0
   -2.6910    0.1047   -1.3402 H   0  0  0  0  0  0  0  0  0  0  0  0
   -1.4974    1.8759   -1.0359 C   0  0  0  0  0  0  0  0  0  0  0  0
   -1.7825    2.6197   -0.2903 H   0  0  0  0  0  0  0  0  0  0  0  0
   -1.9613    2.0944   -1.9983 H   0  0  0  0  0  0  0  0  0  0  0  0
    0.0196    1.7852   -1.2010 C   0  0  0  0  0  0  0  0  0  0  0  0
    0.4870    2.6640   -0.7523 H   0  0  0  0  0  0  0  0  0  0  0  0
    0.3138    1.6951   -2.2466 H   0  0  0  0  0  0  0  0  0  0  0  0
    0.3724    0.5200   -0.4020 C   0  0  1  0  0  0  0  0  0  0  0  0
    1.1763   -0.0089   -0.9145 H   0  0  0  0  0  0  0  0  0  0  0  0
    0.8100    0.8517    1.0345 C   0  0  0  0  0  0  0  0  0  0  0  0
    1.9870    0.7367    1.3702 O   0  0  0  0  0  0  0  0  0  0  0  0
   -0.1484    1.2258    1.8908 N   0  0  0  0  0  0  0  0  0  0  0  0
   -1.0784    1.3539    1.5254 H   0  0  0  0  0  0  0  0  0  0  0  0
    0.0956    1.5673    3.2902 C   0  0  0  0  0  0  0  0  0  0  0  0
    0.7179    2.4632    3.3433 H   0  0  0  0  0  0  0  0  0  0  0  0
   -0.8477    1.7518    3.8052 H   0  0  0  0  0  0  0  0  0  0  0  0
    0.6241    0.7487    3.7837 H   0  0  0  0  0  0  0  0  0  0  0  0
  5  6  2  0  0  0  0
  5  7  1  0  0  0  0
  2  3  1  0  0  0  0
  2  4  1  0  0  0  0
  2  5  1  0  0  0  0
  1  2  1  0  0  0  0
 19 20  2  0  0  0  0
 19 21  1  0  0  0  0
 17 18  1  0  0  0  0
 17 19  1  0  0  0  0
 14 15  1  0  0  0  0
 14 16  1  0  0  0  0
 14 17  1  0  0  0  0
 11 12  1  0  0  0  0
 11 13  1  0  0  0  0
 11 14  1  0  0  0  0
  8  9  1  0  0  0  0
  8 10  1  0  0  0  0
  8 11  1  0  0  0  0
  7  8  1  0  0  0  0
  7 17  1  0  0  0  0
 23 24  1  0  0  0  0
 23 25  1  0  0  0  0
 23 26  1  0  0  0  0
 21 22  1  0  0  0  0
 21 23  1  0  0  0  0
M  END
$$$$
default_name
  -OEChem-11182114113D

 26 26  0     1  0  0  0  0  0999 V2000
   -1.8446   -3.5060   -0.3010 H   0  0  0  0  0  0  0  0  0  0  0  0
   -2.0746   -2.4490   -0.4240 C   0  0  0  0  0  0  0  0  0  0  0  0
   -2.6906   -2.1160    0.4090 H   0  0  0  0  0  0  0  0  0  0  0  0
   -2.5986   -2.2980   -1.3650 H   0  0  0  0  0  0  0  0  0  0  0  0
   -0.7756   -1.6630   -0.4350 C   0  0  0  0  0  0  0  0  0  0  0  0
    0.2844   -2.2800   -0.4550 O   0  0  0  0  0  0  0  0  0  0  0  0
   -0.8246   -0.3180   -0.4350 N   0  0  0  0  0  0  0  0  0  0  0  0
   -2.0106    0.5080   -0.5910 C   0  0  0  0  0  0  0  0  0  0  0  0
   -2.5145    0.5946    0.3731 H   0  0  0  0  0  0  0  0  0  0  0  0
   -2.6910    0.1047   -1.3402 H   0  0  0  0  0  0  0  0  0  0  0  0
   -1.4974    1.8759   -1.0359 C   0  0  0  0  0  0  0  0  0  0  0  0
   -1.7825    2.6197   -0.2903 H   0  0  0  0  0  0  0  0  0  0  0  0
   -1.9613    2.0944   -1.9983 H   0  0  0  0  0  0  0  0  0  0  0  0
    0.0196    1.7852   -1.2010 C   0  0  0  0  0  0  0  0  0  0  0  0
    0.4870    2.6640   -0.7523 H   0  0  0  0  0  0  0  0  0  0  0  0
    0.3138    1.6951   -2.2466 H   0  0  0  0  0  0  0  0  0  0  0  0
    0.3724    0.5200   -0.4020 C   0  0  1  0  0  0  0  0  0  0  0  0
    1.1763   -0.0089   -0.9145 H   0  0  0  0  0  0  0  0  0  0  0  0
    0.8100    0.8517    1.0345 C   0  0  0  0  0  0  0  0  0  0  0  0
    1.9995    1.0050    1.3044 O   0  0  0  0  0  0  0  0  0  0  0  0
   -0.1524    0.9227    1.9620 N   0  0  0  0  0  0  0  0  0  0  0  0
   -1.1078    0.8443    1.6520 H   0  0  0  0  0  0  0  0  0  0  0  0
    0.0929    1.2192    3.3714 C   0  0  0  0  0  0  0  0  0  0  0  0
    0.4844    2.2342    3.4673 H   0  0  0  0  0  0  0  0  0  0  0  0
   -0.8317    1.1333    3.9431 H   0  0  0  0  0  0  0  0  0  0  0  0
    0.8330    0.5231    3.7722 H   0  0  0  0  0  0  0  0  0  0  0  0
  5  6  2  0  0  0  0
  5  7  1  0  0  0  0
  2  3  1  0  0  0  0
  2  4  1  0  0  0  0
  2  5  1  0  0  0  0
  1  2  1  0  0  0  0
 19 20  2  0  0  0  0
 19 21  1  0  0  0  0
 17 18  1  0  0  0  0
 17 19  1  0  0  0  0
 14 15  1  0  0  0  0
 14 16  1  0  0  0  0
 14 17  1  0  0  0  0
 11 12  1  0  0  0  0
 11 13  1  0  0  0  0
 11 14  1  0  0  0  0
  8  9  1  0  0  0  0
  8 10  1  0  0  0  0
  8 11  1  0  0  0  0
  7  8  1  0  0  0  0
  7 17  1  0  0  0  0
 23 24  1  0  0  0  0
 23 25  1  0  0  0  0
 23 26  1  0  0  0  0
 21 22  1  0  0  0  0
 21 23  1  0  0  0  0
M  END
$$$$
default_name
  -OEChem-11182114113D

 26 26  0     1  0  0  0  0  0999 V2000
   -1.8446   -3.5060   -0.3010 H   0  0  0  0  0  0  0  0  0  0  0  0
   -2.0746   -2.4490   -0.4240 C   0  0  0  0  0  0  0  0  0  0  0  0
   -2.6906   -2.1160    0.4090 H   0  0  0  0  0  0  0  0  0  0  0  0
   -2.5986   -2.2980   -1.3650 H   0  0  0  0  0  0  0  0  0  0  0  0
   -0.7756   -1.6630   -0.4350 C   0  0  0  0  0  0  0  0  0  0  0  0
    0.2844   -2.2800   -0.4550 O   0  0  0  0  0  0  0  0  0  0  0  0
   -0.8246   -0.3180   -0.4350 N   0  0  0  0  0  0  0  0  0  0  0  0
   -2.0106    0.5080   -0.5910 C   0  0  0  0  0  0  0  0  0  0  0  0
   -2.5145    0.5946    0.3731 H   0  0  0  0  0  0  0  0  0  0  0  0
   -2.6910    0.1047   -1.3402 H   0  0  0  0  0  0  0  0  0  0  0  0
   -1.4974    1.8759   -1.0359 C   0  0  0  0  0  0  0  0  0  0  0  0
   -1.7825    2.6197   -0.2903 H   0  0  0  0  0  0  0  0  0  0  0  0
   -1.9613    2.0944   -1.9983 H   0  0  0  0  0  0  0  0  0  0  0  0
    0.0196    1.7852   -1.2010 C   0  0  0  0  0  0  0  0  0  0  0  0
    0.4870    2.6640   -0.7523 H   0  0  0  0  0  0  0  0  0  0  0  0
    0.3138    1.6951   -2.2466 H   0  0  0  0  0  0  0  0  0  0  0  0
    0.3724    0.5200   -0.4020 C   0  0  1  0  0  0  0  0  0  0  0  0
    1.1763   -0.0089   -0.9145 H   0  0  0  0  0  0  0  0  0  0  0  0
    0.8100    0.8517    1.0345 C   0  0  0  0  0  0  0  0  0  0  0  0
    1.9431    1.2721    1.2599 O   0  0  0  0  0  0  0  0  0  0  0  0
   -0.0791    0.6238    2.0087 N   0  0  0  0  0  0  0  0  0  0  0  0
   -1.0059    0.3357    1.7384 H   0  0  0  0  0  0  0  0  0  0  0  0
    0.1789    0.8764    3.4244 C   0  0  0  0  0  0  0  0  0  0  0  0
    0.3211    1.9474    3.5833 H   0  0  0  0  0  0  0  0  0  0  0  0
   -0.6591    0.5296    4.0299 H   0  0  0  0  0  0  0  0  0  0  0  0
    1.0886    0.3566    3.7328 H   0  0  0  0  0  0  0  0  0  0  0  0
  5  6  2  0  0  0  0
  5  7  1  0  0  0  0
  2  3  1  0  0  0  0
  2  4  1  0  0  0  0
  2  5  1  0  0  0  0
  1  2  1  0  0  0  0
 19 20  2  0  0  0  0
 19 21  1  0  0  0  0
 17 18  1  0  0  0  0
 17 19  1  0  0  0  0
 14 15  1  0  0  0  0
 14 16  1  0  0  0  0
 14 17  1  0  0  0  0
 11 12  1  0  0  0  0
 11 13  1  0  0  0  0
 11 14  1  0  0  0  0
  8  9  1  0  0  0  0
  8 10  1  0  0  0  0
  8 11  1  0  0  0  0
  7  8  1  0  0  0  0
  7 17  1  0  0  0  0
 23 24  1  0  0  0  0
 23 25  1  0  0  0  0
 23 26  1  0  0  0  0
 21 22  1  0  0  0  0
 21 23  1  0  0  0  0
M  END
$$$$
default_name
  -OEChem-11182114113D

 26 26  0     1  0  0  0  0  0999 V2000
   -1.8446   -3.5060   -0.3010 H   0  0  0  0  0  0  0  0  0  0  0  0
   -2.0746   -2.4490   -0.4240 C   0  0  0  0  0  0  0  0  0  0  0  0
   -2.6906   -2.1160    0.4090 H   0  0  0  0  0  0  0  0  0  0  0  0
   -2.5986   -2.2980   -1.3650 H   0  0  0  0  0  0  0  0  0  0  0  0
   -0.7756   -1.6630   -0.4350 C   0  0  0  0  0  0  0  0  0  0  0  0
    0.2844   -2.2800   -0.4550 O   0  0  0  0  0  0  0  0  0  0  0  0
   -0.8246   -0.3180   -0.4350 N   0  0  0  0  0  0  0  0  0  0  0  0
   -2.0106    0.5080   -0.5910 C   0  0  0  0  0  0  0  0  0  0  0  0
   -2.5145    0.5946    0.3731 H   0  0  0  0  0  0  0  0  0  0  0  0
   -2.6910    0.1047   -1.3402 H   0  0  0  0  0  0  0  0  0  0  0  0
   -1.4974    1.8759   -1.0359 C   0  0  0  0  0  0  0  0  0  0  0  0
   -1.7825    2.6197   -0.2903 H   0  0  0  0  0  0  0  0  0  0  0  0
   -1.9613    2.0944   -1.9983 H   0  0  0  0  0  0  0  0  0  0  0  0
    0.0196    1.7852   -1.2010 C   0  0  0  0  0  0  0  0  0  0  0  0
    0.4870    2.6640   -0.7523 H   0  0  0  0  0  0  0  0  0  0  0  0
    0.3138    1.6951   -2.2466 H   0  0  0  0  0  0  0  0  0  0  0  0
    0.3724    0.5200   -0.4020 C   0  0  1  0  0  0  0  0  0  0  0  0
    1.1763   -0.0089   -0.9145 H   0  0  0  0  0  0  0  0  0  0  0  0
    0.8100    0.8517    1.0345 C   0  0  0  0  0  0  0  0  0  0  0  0
    1.8215    1.5197    1.2398 O   0  0  0  0  0  0  0  0  0  0  0  0
    0.0665    0.3493    2.0277 N   0  0  0  0  0  0  0  0  0  0  0  0
   -0.7796   -0.1374    1.7787 H   0  0  0  0  0  0  0  0  0  0  0  0
    0.3478    0.5621    3.4455 C   0  0  0  0  0  0  0  0  0  0  0  0
    0.2392    1.6224    3.6833 H   0  0  0  0  0  0  0  0  0  0  0  0
   -0.3415   -0.0182    4.0597 H   0  0  0  0  0  0  0  0  0  0  0  0
    1.3737    0.2605    3.6682 H   0  0  0  0  0  0  0  0  0  0  0  0
  5  6  2  0  0  0  0
  5  7  1  0  0  0  0
  2  3  1  0  0  0  0
  2  4  1  0  0  0  0
  2  5  1  0  0  0  0
  1  2  1  0  0  0  0
 19 20  2  0  0  0  0
 19 21  1  0  0  0  0
 17 18  1  0  0  0  0
 17 19  1  0  0  0  0
 14 15  1  0  0  0  0
 14 16  1  0  0  0  0
 14 17  1  0  0  0  0
 11 12  1  0  0  0  0
 11 13  1  0  0  0  0
 11 14  1  0  0  0  0
  8  9  1  0  0  0  0
  8 10  1  0  0  0  0
  8 11  1  0  0  0  0
  7  8  1  0  0  0  0
  7 17  1  0  0  0  0
 23 24  1  0  0  0  0
 23 25  1  0  0  0  0
 23 26  1  0  0  0  0
 21 22  1  0  0  0  0
 21 23  1  0  0  0  0
M  END
$$$$
default_name
  -OEChem-11182114113D

 26 26  0     1  0  0  0  0  0999 V2000
   -1.8446   -3.5060   -0.3010 H   0  0  0  0  0  0  0  0  0  0  0  0
   -2.0746   -2.4490   -0.4240 C   0  0  0  0  0  0  0  0  0  0  0  0
   -2.6906   -2.1160    0.4090 H   0  0  0  0  0  0  0  0  0  0  0  0
   -2.5986   -2.2980   -1.3650 H   0  0  0  0  0  0  0  0  0  0  0  0
   -0.7756   -1.6630   -0.4350 C   0  0  0  0  0  0  0  0  0  0  0  0
    0.2844   -2.2800   -0.4550 O   0  0  0  0  0  0  0  0  0  0  0  0
   -0.8246   -0.3180   -0.4350 N   0  0  0  0  0  0  0  0  0  0  0  0
   -2.0106    0.5080   -0.5910 C   0  0  0  0  0  0  0  0  0  0  0  0
   -2.5145    0.5946    0.3731 H   0  0  0  0  0  0  0  0  0  0  0  0
   -2.6910    0.1047   -1.3402 H   0  0  0  0  0  0  0  0  0  0  0  0
   -1.4974    1.8759   -1.0359 C   0  0  0  0  0  0  0  0  0  0  0  0
   -1.7825    2.6197   -0.2903 H   0  0  0  0  0  0  0  0  0  0  0  0
   -1.9613    2.0944   -1.9983 H   0  0  0  0  0  0  0  0  0  0  0  0
    0.0196    1.7852   -1.2010 C   0  0  0  0  0  0  0  0  0  0  0  0
    0.4870    2.6640   -0.7523 H   0  0  0  0  0  0  0  0  0  0  0  0
    0.3138    1.6951   -2.2466 H   0  0  0  0  0  0  0  0  0  0  0  0
    0.3724    0.5200   -0.4020 C   0  0  1  0  0  0  0  0  0  0  0  0
    1.1763   -0.0089   -0.9145 H   0  0  0  0  0  0  0  0  0  0  0  0
    0.8100    0.8517    1.0345 C   0  0  0  0  0  0  0  0  0  0  0  0
    1.6430    1.7309    1.2453 O   0  0  0  0  0  0  0  0  0  0  0  0
    0.2747    0.1180    2.0177 N   0  0  0  0  0  0  0  0  0  0  0  0
   -0.4445   -0.5426    1.7702 H   0  0  0  0  0  0  0  0  0  0  0  0
    0.5882    0.2978    3.4334 C   0  0  0  0  0  0  0  0  0  0  0  0
    0.2442    1.2813    3.7606 H   0  0  0  0  0  0  0  0  0  0  0  0
    0.0994   -0.4728    4.0304 H   0  0  0  0  0  0  0  0  0  0  0  0
    1.6686    0.2412    3.5828 H   0  0  0  0  0  0  0  0  0  0  0  0
  5  6  2  0  0  0  0
  5  7  1  0  0  0  0
  2  3  1  0  0  0  0
  2  4  1  0  0  0  0
  2  5  1  0  0  0  0
  1  2  1  0  0  0  0
 19 20  2  0  0  0  0
 19 21  1  0  0  0  0
 17 18  1  0  0  0  0
 17 19  1  0  0  0  0
 14 15  1  0  0  0  0
 14 16  1  0  0  0  0
 14 17  1  0  0  0  0
 11 12  1  0  0  0  0
 11 13  1  0  0  0  0
 11 14  1  0  0  0  0
  8  9  1  0  0  0  0
  8 10  1  0  0  0  0
  8 11  1  0  0  0  0
  7  8  1  0  0  0  0
  7 17  1  0  0  0  0
 23 24  1  0  0  0  0
 23 25  1  0  0  0  0
 23 26  1  0  0  0  0
 21 22  1  0  0  0  0
 21 23  1  0  0  0  0
M  END
$$$$
default_name
  -OEChem-11182114113D

 26 26  0     1  0  0  0  0  0999 V2000
   -1.8446   -3.5060   -0.3010 H   0  0  0  0  0  0  0  0  0  0  0  0
   -2.0746   -2.4490   -0.4240 C   0  0  0  0  0  0  0  0  0  0  0  0
   -2.6906   -2.1160    0.4090 H   0  0  0  0  0  0  0  0  0  0  0  0
   -2.5986   -2.2980   -1.3650 H   0  0  0  0  0  0  0  0  0  0  0  0
   -0.7756   -1.6630   -0.4350 C   0  0  0  0  0  0  0  0  0  0  0  0
    0.2844   -2.2800   -0.4550 O   0  0  0  0  0  0  0  0  0  0  0  0
   -0.8246   -0.3180   -0.4350 N   0  0  0  0  0  0  0  0  0  0  0  0
   -2.0106    0.5080   -0.5910 C   0  0  0  0  0  0  0  0  0  0  0  0
   -2.5145    0.5946    0.3731 H   0  0  0  0  0  0  0  0  0  0  0  0
   -2.6910    0.1047   -1.3402 H   0  0  0  0  0  0  0  0  0  0  0  0
   -1.4974    1.8759   -1.0359 C   0  0  0  0  0  0  0  0  0  0  0  0
   -1.7825    2.6197   -0.2903 H   0  0  0  0  0  0  0  0  0  0  0  0
   -1.9613    2.0944   -1.9983 H   0  0  0  0  0  0  0  0  0  0  0  0
    0.0196    1.7852   -1.2010 C   0  0  0  0  0  0  0  0  0  0  0  0
    0.4870    2.6640   -0.7523 H   0  0  0  0  0  0  0  0  0  0  0  0
    0.3138    1.6951   -2.2466 H   0  0  0  0  0  0  0  0  0  0  0  0
    0.3724    0.5200   -0.4020 C   0  0  1  0  0  0  0  0  0  0  0  0
    1.1763   -0.0089   -0.9145 H   0  0  0  0  0  0  0  0  0  0  0  0
    0.8100    0.8517    1.0345 C   0  0  0  0  0  0  0  0  0  0  0  0
    1.4199    1.8914    1.2762 O   0  0  0  0  0  0  0  0  0  0  0  0
    0.5311   -0.0543    1.9794 N   0  0  0  0  0  0  0  0  0  0  0  0
   -0.0233   -0.8523    1.7135 H   0  0  0  0  0  0  0  0  0  0  0  0
    0.8835    0.1015    3.3887 C   0  0  0  0  0  0  0  0  0  0  0  0
    0.3359    0.9474    3.8098 H   0  0  0  0  0  0  0  0  0  0  0  0
    0.6334   -0.8031    3.9440 H   0  0  0  0  0  0  0  0  0  0  0  0
    1.9534    0.3003    3.4824 H   0  0  0  0  0  0  0  0  0  0  0  0
  5  6  2  0  0  0  0
  5  7  1  0  0  0  0
  2  3  1  0  0  0  0
  2  4  1  0  0  0  0
  2  5  1  0  0  0  0
  1  2  1  0  0  0  0
 19 20  2  0  0  0  0
 19 21  1  0  0  0  0
 17 18  1  0  0  0  0
 17 19  1  0  0  0  0
 14 15  1  0  0  0  0
 14 16  1  0  0  0  0
 14 17  1  0  0  0  0
 11 12  1  0  0  0  0
 11 13  1  0  0  0  0
 11 14  1  0  0  0  0
  8  9  1  0  0  0  0
  8 10  1  0  0  0  0
  8 11  1  0  0  0  0
  7  8  1  0  0  0  0
  7 17  1  0  0  0  0
 23 24  1  0  0  0  0
 23 25  1  0  0  0  0
 23 26  1  0  0  0  0
 21 22  1  0  0  0  0
 21 23  1  0  0  0  0
M  END
$$$$
default_name
  -OEChem-11182114113D

 26 26  0     1  0  0  0  0  0999 V2000
   -1.8446   -3.5060   -0.3010 H   0  0  0  0  0  0  0  0  0  0  0  0
   -2.0746   -2.4490   -0.4240 C   0  0  0  0  0  0  0  0  0  0  0  0
   -2.6906   -2.1160    0.4090 H   0  0  0  0  0  0  0  0  0  0  0  0
   -2.5986   -2.2980   -1.3650 H   0  0  0  0  0  0  0  0  0  0  0  0
   -0.7756   -1.6630   -0.4350 C   0  0  0  0  0  0  0  0  0  0  0  0
    0.2844   -2.2800   -0.4550 O   0  0  0  0  0  0  0  0  0  0  0  0
   -0.8246   -0.3180   -0.4350 N   0  0  0  0  0  0  0  0  0  0  0  0
   -2.0106    0.5080   -0.5910 C   0  0  0  0  0  0  0  0  0  0  0  0
   -2.5145    0.5946    0.3731 H   0  0  0  0  0  0  0  0  0  0  0  0
   -2.6910    0.1047   -1.3402 H   0  0  0  0  0  0  0  0  0  0  0  0
   -1.4974    1.8759   -1.0359 C   0  0  0  0  0  0  0  0  0  0  0  0
   -1.7825    2.6197   -0.2903 H   0  0  0  0  0  0  0  0  0  0  0  0
   -1.9613    2.0944   -1.9983 H   0  0  0  0  0  0  0  0  0  0  0  0
    0.0196    1.7852   -1.2010 C   0  0  0  0  0  0  0  0  0  0  0  0
    0.4870    2.6640   -0.7523 H   0  0  0  0  0  0  0  0  0  0  0  0
    0.3138    1.6951   -2.2466 H   0  0  0  0  0  0  0  0  0  0  0  0
    0.3724    0.5200   -0.4020 C   0  0  1  0  0  0  0  0  0  0  0  0
    1.1763   -0.0089   -0.9145 H   0  0  0  0  0  0  0  0  0  0  0  0
    0.8100    0.8517    1.0345 C   0  0  0  0  0  0  0  0  0  0  0  0
    1.1673    1.9902    1.3304 O   0  0  0  0  0  0  0  0  0  0  0  0
    0.8183   -0.1560    1.9154 N   0  0  0  0  0  0  0  0  0  0  0  0
    0.4552   -1.0455    1.6123 H   0  0  0  0  0  0  0  0  0  0  0  0
    1.2138   -0.0134    3.3146 C   0  0  0  0  0  0  0  0  0  0  0  0
    0.5079    0.6433    3.8276 H   0  0  0  0  0  0  0  0  0  0  0  0
    1.2243   -0.9866    3.8064 H   0  0  0  0  0  0  0  0  0  0  0  0
    2.2086    0.4336    3.3739 H   0  0  0  0  0  0  0  0  0  0  0  0
  5  6  2  0  0  0  0
  5  7  1  0  0  0  0
  2  3  1  0  0  0  0
  2  4  1  0  0  0  0
  2  5  1  0  0  0  0
  1  2  1  0  0  0  0
 19 20  2  0  0  0  0
 19 21  1  0  0  0  0
 17 18  1  0  0  0  0
 17 19  1  0  0  0  0
 14 15  1  0  0  0  0
 14 16  1  0  0  0  0
 14 17  1  0  0  0  0
 11 12  1  0  0  0  0
 11 13  1  0  0  0  0
 11 14  1  0  0  0  0
  8  9  1  0  0  0  0
  8 10  1  0  0  0  0
  8 11  1  0  0  0  0
  7  8  1  0  0  0  0
  7 17  1  0  0  0  0
 23 24  1  0  0  0  0
 23 25  1  0  0  0  0
 23 26  1  0  0  0  0
 21 22  1  0  0  0  0
 21 23  1  0  0  0  0
M  END
$$$$
default_name
  -OEChem-11182114113D

 26 26  0     1  0  0  0  0  0999 V2000
   -1.8446   -3.5060   -0.3010 H   0  0  0  0  0  0  0  0  0  0  0  0
   -2.0746   -2.4490   -0.4240 C   0  0  0  0  0  0  0  0  0  0  0  0
   -2.6906   -2.1160    0.4090 H   0  0  0  0  0  0  0  0  0  0  0  0
   -2.5986   -2.2980   -1.3650 H   0  0  0  0  0  0  0  0  0  0  0  0
   -0.7756   -1.6630   -0.4350 C   0  0  0  0  0  0  0  0  0  0  0  0
    0.2844   -2.2800   -0.4550 O   0  0  0  0  0  0  0  0  0  0  0  0
   -0.8246   -0.3180   -0.4350 N   0  0  0  0  0  0  0  0  0  0  0  0
   -2.0106    0.5080   -0.5910 C   0  0  0  0  0  0  0  0  0  0  0  0
   -2.5145    0.5946    0.3731 H   0  0  0  0  0  0  0  0  0  0  0  0
   -2.6910    0.1047   -1.3402 H   0  0  0  0  0  0  0  0  0  0  0  0
   -1.4974    1.8759   -1.0359 C   0  0  0  0  0  0  0  0  0  0  0  0
   -1.7825    2.6197   -0.2903 H   0  0  0  0  0  0  0  0  0  0  0  0
   -1.9613    2.0944   -1.9983 H   0  0  0  0  0  0  0  0  0  0  0  0
    0.0196    1.7852   -1.2010 C   0  0  0  0  0  0  0  0  0  0  0  0
    0.4870    2.6640   -0.7523 H   0  0  0  0  0  0  0  0  0  0  0  0
    0.3138    1.6951   -2.2466 H   0  0  0  0  0  0  0  0  0  0  0  0
    0.3724    0.5200   -0.4020 C   0  0  1  0  0  0  0  0  0  0  0  0
    1.1763   -0.0089   -0.9145 H   0  0  0  0  0  0  0  0  0  0  0  0
    0.8100    0.8517    1.0345 C   0  0  0  0  0  0  0  0  0  0  0  0
    0.9025    2.0206    1.4040 O   0  0  0  0  0  0  0  0  0  0  0  0
    1.1167   -0.1801    1.8301 N   0  0  0  0  0  0  0  0  0  0  0  0
    0.9585   -1.1089    1.4736 H   0  0  0  0  0  0  0  0  0  0  0  0
    1.5564   -0.0391    3.2162 C   0  0  0  0  0  0  0  0  0  0  0  0
    0.7485    0.3899    3.8128 H   0  0  0  0  0  0  0  0  0  0  0  0
    1.8318   -1.0110    3.6270 H   0  0  0  0  0  0  0  0  0  0  0  0
    2.4168    0.6320    3.2646 H   0  0  0  0  0  0  0  0  0  0  0  0
  5  6  2  0  0  0  0
  5  7  1  0  0  0  0
  2  3  1  0  0  0  0
  2  4  1  0  0  0  0
  2  5  1  0  0  0  0
  1  2  1  0  0  0  0
 19 20  2  0  0  0  0
 19 21  1  0  0  0  0
 17 18  1  0  0  0  0
 17 19  1  0  0  0  0
 14 15  1  0  0  0  0
 14 16  1  0  0  0  0
 14 17  1  0  0  0  0
 11 12  1  0  0  0  0
 11 13  1  0  0  0  0
 11 14  1  0  0  0  0
  8  9  1  0  0  0  0
  8 10  1  0  0  0  0
  8 11  1  0  0  0  0
  7  8  1  0  0  0  0
  7 17  1  0  0  0  0
 23 24  1  0  0  0  0
 23 25  1  0  0  0  0
 23 26  1  0  0  0  0
 21 22  1  0  0  0  0
 21 23  1  0  0  0  0
M  END
$$$$
default_name
  -OEChem-11182114113D

 26 26  0     1  0  0  0  0  0999 V2000
   -1.8446   -3.5060   -0.3010 H   0  0  0  0  0  0  0  0  0  0  0  0
   -2.0746   -2.4490   -0.4240 C   0  0  0  0  0  0  0  0  0  0  0  0
   -2.6906   -2.1160    0.4090 H   0  0  0  0  0  0  0  0  0  0  0  0
   -2.5986   -2.2980   -1.3650 H   0  0  0  0  0  0  0  0  0  0  0  0
   -0.7756   -1.6630   -0.4350 C   0  0  0  0  0  0  0  0  0  0  0  0
    0.2844   -2.2800   -0.4550 O   0  0  0  0  0  0  0  0  0  0  0  0
   -0.8246   -0.3180   -0.4350 N   0  0  0  0  0  0  0  0  0  0  0  0
   -2.0106    0.5080   -0.5910 C   0  0  0  0  0  0  0  0  0  0  0  0
   -2.5145    0.5946    0.3731 H   0  0  0  0  0  0  0  0  0  0  0  0
   -2.6910    0.1047   -1.3402 H   0  0  0  0  0  0  0  0  0  0  0  0
   -1.4974    1.8759   -1.0359 C   0  0  0  0  0  0  0  0  0  0  0  0
   -1.7825    2.6197   -0.2903 H   0  0  0  0  0  0  0  0  0  0  0  0
   -1.9613    2.0944   -1.9983 H   0  0  0  0  0  0  0  0  0  0  0  0
    0.0196    1.7852   -1.2010 C   0  0  0  0  0  0  0  0  0  0  0  0
    0.4870    2.6640   -0.7523 H   0  0  0  0  0  0  0  0  0  0  0  0
    0.3138    1.6951   -2.2466 H   0  0  0  0  0  0  0  0  0  0  0  0
    0.3724    0.5200   -0.4020 C   0  0  1  0  0  0  0  0  0  0  0  0
    1.1763   -0.0089   -0.9145 H   0  0  0  0  0  0  0  0  0  0  0  0
    0.8100    0.8517    1.0345 C   0  0  0  0  0  0  0  0  0  0  0  0
    0.6434    1.9805    1.4922 O   0  0  0  0  0  0  0  0  0  0  0  0
    1.4060   -0.1249    1.7292 N   0  0  0  0  0  0  0  0  0  0  0  0
    1.4523   -1.0383    1.3069 H   0  0  0  0  0  0  0  0  0  0  0  0
    1.8881    0.0262    3.1001 C   0  0  0  0  0  0  0  0  0  0  0  0
    1.0414    0.2044    3.7664 H   0  0  0  0  0  0  0  0  0  0  0  0
    2.4145   -0.8744    3.4179 H   0  0  0  0  0  0  0  0  0  0  0  0
    2.5638    0.8820    3.1621 H   0  0  0  0  0  0  0  0  0  0  0  0
  5  6  2  0  0  0  0
  5  7  1  0  0  0  0
  2  3  1  0  0  0  0
  2  4  1  0  0  0  0
  2  5  1  0  0  0  0
  1  2  1  0  0  0  0
 19 20  2  0  0  0  0
 19 21  1  0  0  0  0
 17 18  1  0  0  0  0
 17 19  1  0  0  0  0
 14 15  1  0  0  0  0
 14 16  1  0  0  0  0
 14 17  1  0  0  0  0
 11 12  1  0  0  0  0
 11 13  1  0  0  0  0
 11 14  1  0  0  0  0
  8  9  1  0  0  0  0
  8 10  1  0  0  0  0
  8 11  1  0  0  0  0
  7  8  1  0  0  0  0
  7 17  1  0  0  0  0
 23 24  1  0  0  0  0
 23 25  1  0  0  0  0
 23 26  1  0  0  0  0
 21 22  1  0  0  0  0
 21 23  1  0  0  0  0
M  END
$$$$
default_name
  -OEChem-11182114113D

 26 26  0     1  0  0  0  0  0999 V2000
   -1.8446   -3.5060   -0.3010 H   0  0  0  0  0  0  0  0  0  0  0  0
   -2.0746   -2.4490   -0.4240 C   0  0  0  0  0  0  0  0  0  0  0  0
   -2.6906   -2.1160    0.4090 H   0  0  0  0  0  0  0  0  0  0  0  0
   -2.5986   -2.2980   -1.3650 H   0  0  0  0  0  0  0  0  0  0  0  0
   -0.7756   -1.6630   -0.4350 C   0  0  0  0  0  0  0  0  0  0  0  0
    0.2844   -2.2800   -0.4550 O   0  0  0  0  0  0  0  0  0  0  0  0
   -0.8246   -0.3180   -0.4350 N   0  0  0  0  0  0  0  0  0  0  0  0
   -2.0106    0.5080   -0.5910 C   0  0  0  0  0  0  0  0  0  0  0  0
   -2.5145    0.5946    0.3731 H   0  0  0  0  0  0  0  0  0  0  0  0
   -2.6910    0.1047   -1.3402 H   0  0  0  0  0  0  0  0  0  0  0  0
   -1.4974    1.8759   -1.0359 C   0  0  0  0  0  0  0  0  0  0  0  0
   -1.7825    2.6197   -0.2903 H   0  0  0  0  0  0  0  0  0  0  0  0
   -1.9613    2.0944   -1.9983 H   0  0  0  0  0  0  0  0  0  0  0  0
    0.0196    1.7852   -1.2010 C   0  0  0  0  0  0  0  0  0  0  0  0
    0.4870    2.6640   -0.7523 H   0  0  0  0  0  0  0  0  0  0  0  0
    0.3138    1.6951   -2.2466 H   0  0  0  0  0  0  0  0  0  0  0  0
    0.3724    0.5200   -0.4020 C   0  0  1  0  0  0  0  0  0  0  0  0
    1.1763   -0.0089   -0.9145 H   0  0  0  0  0  0  0  0  0  0  0  0
    0.8100    0.8517    1.0345 C   0  0  0  0  0  0  0  0  0  0  0  0
    0.4078    1.8726    1.5889 O   0  0  0  0  0  0  0  0  0  0  0  0
    1.6665    0.0058    1.6197 N   0  0  0  0  0  0  0  0  0  0  0  0
    1.9028   -0.8385    1.1235 H   0  0  0  0  0  0  0  0  0  0  0  0
    2.1863    0.1780    2.9742 C   0  0  0  0  0  0  0  0  0  0  0  0
    1.3666    0.0994    3.6916 H   0  0  0  0  0  0  0  0  0  0  0  0
    2.9326   -0.5862    3.1936 H   0  0  0  0  0  0  0  0  0  0  0  0
    2.6397    1.1666    3.0732 H   0  0  0  0  0  0  0  0  0  0  0  0
  5  6  2  0  0  0  0
  5  7  1  0  0  0  0
  2  3  1  0  0  0  0
  2  4  1  0  0  0  0
  2  5  1  0  0  0  0
  1  2  1  0  0  0  0
 19 20  2  0  0  0  0
 19 21  1  0  0  0  0
 17 18  1  0  0  0  0
 17 19  1  0  0  0  0
 14 15  1  0  0  0  0
 14 16  1  0  0  0  0
 14 17  1  0  0  0  0
 11 12  1  0  0  0  0
 11 13  1  0  0  0  0
 11 14  1  0  0  0  0
  8  9  1  0  0  0  0
  8 10  1  0  0  0  0
  8 11  1  0  0  0  0
  7  8  1  0  0  0  0
  7 17  1  0  0  0  0
 23 24  1  0  0  0  0
 23 25  1  0  0  0  0
 23 26  1  0  0  0  0
 21 22  1  0  0  0  0
 21 23  1  0  0  0  0
M  END
$$$$
default_name
  -OEChem-11182114113D

 26 26  0     1  0  0  0  0  0999 V2000
   -1.8446   -3.5060   -0.3010 H   0  0  0  0  0  0  0  0  0  0  0  0
   -2.0746   -2.4490   -0.4240 C   0  0  0  0  0  0  0  0  0  0  0  0
   -2.6906   -2.1160    0.4090 H   0  0  0  0  0  0  0  0  0  0  0  0
   -2.5986   -2.2980   -1.3650 H   0  0  0  0  0  0  0  0  0  0  0  0
   -0.7756   -1.6630   -0.4350 C   0  0  0  0  0  0  0  0  0  0  0  0
    0.2844   -2.2800   -0.4550 O   0  0  0  0  0  0  0  0  0  0  0  0
   -0.8246   -0.3180   -0.4350 N   0  0  0  0  0  0  0  0  0  0  0  0
   -2.0106    0.5080   -0.5910 C   0  0  0  0  0  0  0  0  0  0  0  0
   -2.5145    0.5946    0.3731 H   0  0  0  0  0  0  0  0  0  0  0  0
   -2.6910    0.1047   -1.3402 H   0  0  0  0  0  0  0  0  0  0  0  0
   -1.4974    1.8759   -1.0359 C   0  0  0  0  0  0  0  0  0  0  0  0
   -1.7825    2.6197   -0.2903 H   0  0  0  0  0  0  0  0  0  0  0  0
   -1.9613    2.0944   -1.9983 H   0  0  0  0  0  0  0  0  0  0  0  0
    0.0196    1.7852   -1.2010 C   0  0  0  0  0  0  0  0  0  0  0  0
    0.4870    2.6640   -0.7523 H   0  0  0  0  0  0  0  0  0  0  0  0
    0.3138    1.6951   -2.2466 H   0  0  0  0  0  0  0  0  0  0  0  0
    0.3724    0.5200   -0.4020 C   0  0  1  0  0  0  0  0  0  0  0  0
    1.1763   -0.0089   -0.9145 H   0  0  0  0  0  0  0  0  0  0  0  0
    0.8100    0.8517    1.0345 C   0  0  0  0  0  0  0  0  0  0  0  0
    0.2117    1.7044    1.6875 O   0  0  0  0  0  0  0  0  0  0  0  0
    1.8804    0.2031    1.5090 N   0  0  0  0  0  0  0  0  0  0  0  0
    2.2795   -0.5230    0.9360 H   0  0  0  0  0  0  0  0  0  0  0  0
    2.4305    0.4059    2.8472 C   0  0  0  0  0  0  0  0  0  0  0  0
    1.7018    0.0822    3.5935 H   0  0  0  0  0  0  0  0  0  0  0  0
    3.3508   -0.1661    2.9691 H   0  0  0  0  0  0  0  0  0  0  0  0
    2.6392    1.4664    3.0041 H   0  0  0  0  0  0  0  0  0  0  0  0
  5  6  2  0  0  0  0
  5  7  1  0  0  0  0
  2  3  1  0  0  0  0
  2  4  1  0  0  0  0
  2  5  1  0  0  0  0
  1  2  1  0  0  0  0
 19 20  2  0  0  0  0
 19 21  1  0  0  0  0
 17 18  1  0  0  0  0
 17 19  1  0  0  0  0
 14 15  1  0  0  0  0
 14 16  1  0  0  0  0
 14 17  1  0  0  0  0
 11 12  1  0  0  0  0
 11 13  1  0  0  0  0
 11 14  1  0  0  0  0
  8  9  1  0  0  0  0
  8 10  1  0  0  0  0
  8 11  1  0  0  0  0
  7  8  1  0  0  0  0
  7 17  1  0  0  0  0
 23 24  1  0  0  0  0
 23 25  1  0  0  0  0
 23 26  1  0  0  0  0
 21 22  1  0  0  0  0
 21 23  1  0  0  0  0
M  END
$$$$
default_name
  -OEChem-11182114113D

 26 26  0     1  0  0  0  0  0999 V2000
   -1.8446   -3.5060   -0.3010 H   0  0  0  0  0  0  0  0  0  0  0  0
   -2.0746   -2.4490   -0.4240 C   0  0  0  0  0  0  0  0  0  0  0  0
   -2.6906   -2.1160    0.4090 H   0  0  0  0  0  0  0  0  0  0  0  0
   -2.5986   -2.2980   -1.3650 H   0  0  0  0  0  0  0  0  0  0  0  0
   -0.7756   -1.6630   -0.4350 C   0  0  0  0  0  0  0  0  0  0  0  0
    0.2844   -2.2800   -0.4550 O   0  0  0  0  0  0  0  0  0  0  0  0
   -0.8246   -0.3180   -0.4350 N   0  0  0  0  0  0  0  0  0  0  0  0
   -2.0106    0.5080   -0.5910 C   0  0  0  0  0  0  0  0  0  0  0  0
   -2.5145    0.5946    0.3731 H   0  0  0  0  0  0  0  0  0  0  0  0
   -2.6910    0.1047   -1.3402 H   0  0  0  0  0  0  0  0  0  0  0  0
   -1.4974    1.8759   -1.0359 C   0  0  0  0  0  0  0  0  0  0  0  0
   -1.7825    2.6197   -0.2903 H   0  0  0  0  0  0  0  0  0  0  0  0
   -1.9613    2.0944   -1.9983 H   0  0  0  0  0  0  0  0  0  0  0  0
    0.0196    1.7852   -1.2010 C   0  0  0  0  0  0  0  0  0  0  0  0
    0.4870    2.6640   -0.7523 H   0  0  0  0  0  0  0  0  0  0  0  0
    0.3138    1.6951   -2.2466 H   0  0  0  0  0  0  0  0  0  0  0  0
    0.3724    0.5200   -0.4020 C   0  0  1  0  0  0  0  0  0  0  0  0
    1.1763   -0.0089   -0.9145 H   0  0  0  0  0  0  0  0  0  0  0  0
    0.8100    0.8517    1.0345 C   0  0  0  0  0  0  0  0  0  0  0  0
    0.0684    1.4872    1.7813 O   0  0  0  0  0  0  0  0  0  0  0  0
    2.0331    0.4535    1.4046 N   0  0  0  0  0  0  0  0  0  0  0  0
    2.5565   -0.1135    0.7570 H   0  0  0  0  0  0  0  0  0  0  0  0
    2.6042    0.6945    2.7276 C   0  0  0  0  0  0  0  0  0  0  0  0
    2.0244    0.1538    3.4787 H   0  0  0  0  0  0  0  0  0  0  0  0
    3.6407    0.3574    2.7599 H   0  0  0  0  0  0  0  0  0  0  0  0
    2.5624    1.7610    2.9595 H   0  0  0  0  0  0  0  0  0  0  0  0
  5  6  2  0  0  0  0
  5  7  1  0  0  0  0
  2  3  1  0  0  0  0
  2  4  1  0  0  0  0
  2  5  1  0  0  0  0
  1  2  1  0  0  0  0
 19 20  2  0  0  0  0
 19 21  1  0  0  0  0
 17 18  1  0  0  0  0
 17 19  1  0  0  0  0
 14 15  1  0  0  0  0
 14 16  1  0  0  0  0
 14 17  1  0  0  0  0
 11 12  1  0  0  0  0
 11 13  1  0  0  0  0
 11 14  1  0  0  0  0
  8  9  1  0  0  0  0
  8 10  1  0  0  0  0
  8 11  1  0  0  0  0
  7  8  1  0  0  0  0
  7 17  1  0  0  0  0
 23 24  1  0  0  0  0
 23 25  1  0  0  0  0
 23 26  1  0  0  0  0
 21 22  1  0  0  0  0
 21 23  1  0  0  0  0
M  END
$$$$
default_name
  -OEChem-11182114113D

 26 26  0     1  0  0  0  0  0999 V2000
   -1.8446   -3.5060   -0.3010 H   0  0  0  0  0  0  0  0  0  0  0  0
   -2.0746   -2.4490   -0.4240 C   0  0  0  0  0  0  0  0  0  0  0  0
   -2.6906   -2.1160    0.4090 H   0  0  0  0  0  0  0  0  0  0  0  0
   -2.5986   -2.2980   -1.3650 H   0  0  0  0  0  0  0  0  0  0  0  0
   -0.7756   -1.6630   -0.4350 C   0  0  0  0  0  0  0  0  0  0  0  0
    0.2844   -2.2800   -0.4550 O   0  0  0  0  0  0  0  0  0  0  0  0
   -0.8246   -0.3180   -0.4350 N   0  0  0  0  0  0  0  0  0  0  0  0
   -2.0106    0.5080   -0.5910 C   0  0  0  0  0  0  0  0  0  0  0  0
   -2.5145    0.5946    0.3731 H   0  0  0  0  0  0  0  0  0  0  0  0
   -2.6910    0.1047   -1.3402 H   0  0  0  0  0  0  0  0  0  0  0  0
   -1.4974    1.8759   -1.0359 C   0  0  0  0  0  0  0  0  0  0  0  0
   -1.7825    2.6197   -0.2903 H   0  0  0  0  0  0  0  0  0  0  0  0
   -1.9613    2.0944   -1.9983 H   0  0  0  0  0  0  0  0  0  0  0  0
    0.0196    1.7852   -1.2010 C   0  0  0  0  0  0  0  0  0  0  0  0
    0.4870    2.6640   -0.7523 H   0  0  0  0  0  0  0  0  0  0  0  0
    0.3138    1.6951   -2.2466 H   0  0  0  0  0  0  0  0  0  0  0  0
    0.3724    0.5200   -0.4020 C   0  0  1  0  0  0  0  0  0  0  0  0
    1.1763   -0.0089   -0.9145 H   0  0  0  0  0  0  0  0  0  0  0  0
    0.8100    0.8517    1.0345 C   0  0  0  0  0  0  0  0  0  0  0  0
   -0.0122    1.2358    1.8639 O   0  0  0  0  0  0  0  0  0  0  0  0
    2.1143    0.7399    1.3138 N   0  0  0  0  0  0  0  0  0  0  0  0
    2.7152    0.3623    0.5988 H   0  0  0  0  0  0  0  0  0  0  0  0
    2.6956    1.0241    2.6237 C   0  0  0  0  0  0  0  0  0  0  0  0
    2.3122    0.3093    3.3551 H   0  0  0  0  0  0  0  0  0  0  0  0
    3.7825    0.9485    2.5802 H   0  0  0  0  0  0  0  0  0  0  0  0
    2.4145    2.0302    2.9424 H   0  0  0  0  0  0  0  0  0  0  0  0
  5  6  2  0  0  0  0
  5  7  1  0  0  0  0
  2  3  1  0  0  0  0
  2  4  1  0  0  0  0
  2  5  1  0  0  0  0
  1  2  1  0  0  0  0
 19 20  2  0  0  0  0
 19 21  1  0  0  0  0
 17 18  1  0  0  0  0
 17 19  1  0  0  0  0
 14 15  1  0  0  0  0
 14 16  1  0  0  0  0
 14 17  1  0  0  0  0
 11 12  1  0  0  0  0
 11 13  1  0  0  0  0
 11 14  1  0  0  0  0
  8  9  1  0  0  0  0
  8 10  1  0  0  0  0
  8 11  1  0  0  0  0
  7  8  1  0  0  0  0
  7 17  1  0  0  0  0
 23 24  1  0  0  0  0
 23 25  1  0  0  0  0
 23 26  1  0  0  0  0
 21 22  1  0  0  0  0
 21 23  1  0  0  0  0
M  END
$$$$
default_name
  -OEChem-11182114113D

 26 26  0     1  0  0  0  0  0999 V2000
   -1.8446   -3.5060   -0.3010 H   0  0  0  0  0  0  0  0  0  0  0  0
   -2.0746   -2.4490   -0.4240 C   0  0  0  0  0  0  0  0  0  0  0  0
   -2.6906   -2.1160    0.4090 H   0  0  0  0  0  0  0  0  0  0  0  0
   -2.5986   -2.2980   -1.3650 H   0  0  0  0  0  0  0  0  0  0  0  0
   -0.7756   -1.6630   -0.4350 C   0  0  0  0  0  0  0  0  0  0  0  0
    0.2844   -2.2800   -0.4550 O   0  0  0  0  0  0  0  0  0  0  0  0
   -0.8246   -0.3180   -0.4350 N   0  0  0  0  0  0  0  0  0  0  0  0
   -2.0106    0.5080   -0.5910 C   0  0  0  0  0  0  0  0  0  0  0  0
   -2.5145    0.5946    0.3731 H   0  0  0  0  0  0  0  0  0  0  0  0
   -2.6910    0.1047   -1.3402 H   0  0  0  0  0  0  0  0  0  0  0  0
   -1.4974    1.8759   -1.0359 C   0  0  0  0  0  0  0  0  0  0  0  0
   -1.7825    2.6197   -0.2903 H   0  0  0  0  0  0  0  0  0  0  0  0
   -1.9613    2.0944   -1.9983 H   0  0  0  0  0  0  0  0  0  0  0  0
    0.0196    1.7852   -1.2010 C   0  0  0  0  0  0  0  0  0  0  0  0
    0.4870    2.6640   -0.7523 H   0  0  0  0  0  0  0  0  0  0  0  0
    0.3138    1.6951   -2.2466 H   0  0  0  0  0  0  0  0  0  0  0  0
    0.3724    0.5200   -0.4020 C   0  0  1  0  0  0  0  0  0  0  0  0
    1.1763   -0.0089   -0.9145 H   0  0  0  0  0  0  0  0  0  0  0  0
    0.8100    0.8517    1.0345 C   0  0  0  0  0  0  0  0  0  0  0  0
   -0.0247    0.9675    1.9296 O   0  0  0  0  0  0  0  0  0  0  0  0
    2.1183    1.0430    1.2425 N   0  0  0  0  0  0  0  0  0  0  0  0
    2.7445    0.8719    0.4722 H   0  0  0  0  0  0  0  0  0  0  0  0
    2.6983    1.3722    2.5425 C   0  0  0  0  0  0  0  0  0  0  0  0
    2.5458    0.5383    3.2311 H   0  0  0  0  0  0  0  0  0  0  0  0
    3.7665    1.5670    2.4423 H   0  0  0  0  0  0  0  0  0  0  0  0
    2.2056    2.2558    2.9539 H   0  0  0  0  0  0  0  0  0  0  0  0
  5  6  2  0  0  0  0
  5  7  1  0  0  0  0
  2  3  1  0  0  0  0
  2  4  1  0  0  0  0
  2  5  1  0  0  0  0
  1  2  1  0  0  0  0
 19 20  2  0  0  0  0
 19 21  1  0  0  0  0
 17 18  1  0  0  0  0
 17 19  1  0  0  0  0
 14 15  1  0  0  0  0
 14 16  1  0  0  0  0
 14 17  1  0  0  0  0
 11 12  1  0  0  0  0
 11 13  1  0  0  0  0
 11 14  1  0  0  0  0
  8  9  1  0  0  0  0
  8 10  1  0  0  0  0
  8 11  1  0  0  0  0
  7  8  1  0  0  0  0
  7 17  1  0  0  0  0
 23 24  1  0  0  0  0
 23 25  1  0  0  0  0
 23 26  1  0  0  0  0
 21 22  1  0  0  0  0
 21 23  1  0  0  0  0
M  END
$$$$
default_name
  -OEChem-11182114113D

 26 26  0     1  0  0  0  0  0999 V2000
   -1.8446   -3.5060   -0.3010 H   0  0  0  0  0  0  0  0  0  0  0  0
   -2.0746   -2.4490   -0.4240 C   0  0  0  0  0  0  0  0  0  0  0  0
   -2.6906   -2.1160    0.4090 H   0  0  0  0  0  0  0  0  0  0  0  0
   -2.5986   -2.2980   -1.3650 H   0  0  0  0  0  0  0  0  0  0  0  0
   -0.7756   -1.6630   -0.4350 C   0  0  0  0  0  0  0  0  0  0  0  0
    0.2844   -2.2800   -0.4550 O   0  0  0  0  0  0  0  0  0  0  0  0
   -0.8246   -0.3180   -0.4350 N   0  0  0  0  0  0  0  0  0  0  0  0
   -2.0106    0.5080   -0.5910 C   0  0  0  0  0  0  0  0  0  0  0  0
   -2.5145    0.5946    0.3731 H   0  0  0  0  0  0  0  0  0  0  0  0
   -2.6910    0.1047   -1.3402 H   0  0  0  0  0  0  0  0  0  0  0  0
   -1.4974    1.8759   -1.0359 C   0  0  0  0  0  0  0  0  0  0  0  0
   -1.7825    2.6197   -0.2903 H   0  0  0  0  0  0  0  0  0  0  0  0
   -1.9613    2.0944   -1.9983 H   0  0  0  0  0  0  0  0  0  0  0  0
    0.0196    1.7852   -1.2010 C   0  0  0  0  0  0  0  0  0  0  0  0
    0.4870    2.6640   -0.7523 H   0  0  0  0  0  0  0  0  0  0  0  0
    0.3138    1.6951   -2.2466 H   0  0  0  0  0  0  0  0  0  0  0  0
    0.3724    0.5200   -0.4020 C   0  0  1  0  0  0  0  0  0  0  0  0
    1.1763   -0.0089   -0.9145 H   0  0  0  0  0  0  0  0  0  0  0  0
    0.8100    0.8517    1.0345 C   0  0  0  0  0  0  0  0  0  0  0  0
    0.0318    0.7004    1.9741 O   0  0  0  0  0  0  0  0  0  0  0  0
    2.0450    1.3419    1.1958 N   0  0  0  0  0  0  0  0  0  0  0  0
    2.6426    1.3805    0.3857 H   0  0  0  0  0  0  0  0  0  0  0  0
    2.6123    1.7150    2.4895 C   0  0  0  0  0  0  0  0  0  0  0  0
    2.7090    0.8251    3.1151 H   0  0  0  0  0  0  0  0  0  0  0  0
    3.5939    2.1707    2.3554 H   0  0  0  0  0  0  0  0  0  0  0  0
    1.9500    2.4223    2.9934 H   0  0  0  0  0  0  0  0  0  0  0  0
  5  6  2  0  0  0  0
  5  7  1  0  0  0  0
  2  3  1  0  0  0  0
  2  4  1  0  0  0  0
  2  5  1  0  0  0  0
  1  2  1  0  0  0  0
 19 20  2  0  0  0  0
 19 21  1  0  0  0  0
 17 18  1  0  0  0  0
 17 19  1  0  0  0  0
 14 15  1  0  0  0  0
 14 16  1  0  0  0  0
 14 17  1  0  0  0  0
 11 12  1  0  0  0  0
 11 13  1  0  0  0  0
 11 14  1  0  0  0  0
  8  9  1  0  0  0  0
  8 10  1  0  0  0  0
  8 11  1  0  0  0  0
  7  8  1  0  0  0  0
  7 17  1  0  0  0  0
 23 24  1  0  0  0  0
 23 25  1  0  0  0  0
 23 26  1  0  0  0  0
 21 22  1  0  0  0  0
 21 23  1  0  0  0  0
M  END
$$$$
default_name
  -OEChem-11182114113D

 26 26  0     1  0  0  0  0  0999 V2000
   -1.8446   -3.5060   -0.3010 H   0  0  0  0  0  0  0  0  0  0  0  0
   -2.0746   -2.4490   -0.4240 C   0  0  0  0  0  0  0  0  0  0  0  0
   -2.6906   -2.1160    0.4090 H   0  0  0  0  0  0  0  0  0  0  0  0
   -2.5986   -2.2980   -1.3650 H   0  0  0  0  0  0  0  0  0  0  0  0
   -0.7756   -1.6630   -0.4350 C   0  0  0  0  0  0  0  0  0  0  0  0
    0.2844   -2.2800   -0.4550 O   0  0  0  0  0  0  0  0  0  0  0  0
   -0.8246   -0.3180   -0.4350 N   0  0  0  0  0  0  0  0  0  0  0  0
   -2.0106    0.5080   -0.5910 C   0  0  0  0  0  0  0  0  0  0  0  0
   -2.7102    0.2610    0.2092 H   0  0  0  0  0  0  0  0  0  0  0  0
   -2.4752    0.3502   -1.5637 H   0  0  0  0  0  0  0  0  0  0  0  0
   -1.5591    1.9610   -0.4589 C   0  0  0  0  0  0  0  0  0  0  0  0
   -1.6985    2.3268    0.5595 H   0  0  0  0  0  0  0  0  0  0  0  0
   -2.1133    2.5741   -1.1702 H   0  0  0  0  0  0  0  0  0  0  0  0
   -0.0827    1.9176   -0.8529 C   0  0  0  0  0  0  0  0  0  0  0  0
    0.4553    2.6916   -0.3019 H   0  0  0  0  0  0  0  0  0  0  0  0
    0.0515    2.0571   -1.9255 H   0  0  0  0  0  0  0  0  0  0  0  0
    0.3724    0.5200   -0.4020 C   0  0  1  0  0  0  0  0  0  0  0  0
    1.0855    0.1292   -1.1282 H   0  0  0  0  0  0  0  0  0  0  0  0
    1.0225    0.5498    0.9914 C   0  0  0  0  0  0  0  0  0  0  0  0
    0.5123   -0.0573    1.9307 O   0  0  0  0  0  0  0  0  0  0  0  0
    2.1286    1.2907    1.1303 N   0  0  0  0  0  0  0  0  0  0  0  0
    2.5184    1.7096    0.3012 H   0  0  0  0  0  0  0  0  0  0  0  0
    2.8632    1.4329    2.3852 C   0  0  0  0  0  0  0  0  0  0  0  0
    3.2795    0.4657    2.6752 H   0  0  0  0  0  0  0  0  0  0  0  0
    3.6726    2.1546    2.2707 H   0  0  0  0  0  0  0  0  0  0  0  0
    2.1864    1.7691    3.1736 H   0  0  0  0  0  0  0  0  0  0  0  0
  5  6  2  0  0  0  0
  5  7  1  0  0  0  0
  2  3  1  0  0  0  0
  2  4  1  0  0  0  0
  2  5  1  0  0  0  0
  1  2  1  0  0  0  0
 19 20  2  0  0  0  0
 19 21  1  0  0  0  0
 17 18  1  0  0  0  0
 17 19  1  0  0  0  0
 14 15  1  0  0  0  0
 14 16  1  0  0  0  0
 14 17  1  0  0  0  0
 11 12  1  0  0  0  0
 11 13  1  0  0  0  0
 11 14  1  0  0  0  0
  8  9  1  0  0  0  0
  8 10  1  0  0  0  0
  8 11  1  0  0  0  0
  7  8  1  0  0  0  0
  7 17  1  0  0  0  0
 23 24  1  0  0  0  0
 23 25  1  0  0  0  0
 23 26  1  0  0  0  0
 21 22  1  0  0  0  0
 21 23  1  0  0  0  0
M  END
$$$$
default_name
  -OEChem-11182114113D

 26 26  0     1  0  0  0  0  0999 V2000
   -1.8446   -3.5060   -0.3010 H   0  0  0  0  0  0  0  0  0  0  0  0
   -2.0746   -2.4490   -0.4240 C   0  0  0  0  0  0  0  0  0  0  0  0
   -2.6906   -2.1160    0.4090 H   0  0  0  0  0  0  0  0  0  0  0  0
   -2.5986   -2.2980   -1.3650 H   0  0  0  0  0  0  0  0  0  0  0  0
   -0.7756   -1.6630   -0.4350 C   0  0  0  0  0  0  0  0  0  0  0  0
    0.2844   -2.2800   -0.4550 O   0  0  0  0  0  0  0  0  0  0  0  0
   -0.8246   -0.3180   -0.4350 N   0  0  0  0  0  0  0  0  0  0  0  0
   -2.0106    0.5080   -0.5910 C   0  0  0  0  0  0  0  0  0  0  0  0
   -2.7102    0.2610    0.2092 H   0  0  0  0  0  0  0  0  0  0  0  0
   -2.4752    0.3502   -1.5637 H   0  0  0  0  0  0  0  0  0  0  0  0
   -1.5591    1.9610   -0.4589 C   0  0  0  0  0  0  0  0  0  0  0  0
   -1.6985    2.3268    0.5595 H   0  0  0  0  0  0  0  0  0  0  0  0
   -2.1133    2.5741   -1.1702 H   0  0  0  0  0  0  0  0  0  0  0  0
   -0.0827    1.9176   -0.8529 C   0  0  0  0  0  0  0  0  0  0  0  0
    0.4553    2.6916   -0.3019 H   0  0  0  0  0  0  0  0  0  0  0  0
    0.0515    2.0571   -1.9255 H   0  0  0  0  0  0  0  0  0  0  0  0
    0.3724    0.5200   -0.4020 C   0  0  1  0  0  0  0  0  0  0  0  0
    1.0855    0.1292   -1.1282 H   0  0  0  0  0  0  0  0  0  0  0  0
    1.0225    0.5498    0.9914 C   0  0  0  0  0  0  0  0  0  0  0  0
    0.6857   -0.2586    1.8541 O   0  0  0  0  0  0  0  0  0  0  0  0
    1.9267    1.5100    1.2199 N   0  0  0  0  0  0  0  0  0  0  0  0
    2.1924    2.0964    0.4450 H   0  0  0  0  0  0  0  0  0  0  0  0
    2.6301    1.6833    2.4886 C   0  0  0  0  0  0  0  0  0  0  0  0
    3.2664    0.8153    2.6738 H   0  0  0  0  0  0  0  0  0  0  0  0
    3.2456    2.5830    2.4607 H   0  0  0  0  0  0  0  0  0  0  0  0
    1.9077    1.7634    3.3038 H   0  0  0  0  0  0  0  0  0  0  0  0
  5  6  2  0  0  0  0
  5  7  1  0  0  0  0
  2  3  1  0  0  0  0
  2  4  1  0  0  0  0
  2  5  1  0  0  0  0
  1  2  1  0  0  0  0
 19 20  2  0  0  0  0
 19 21  1  0  0  0  0
 17 18  1  0  0  0  0
 17 19  1  0  0  0  0
 14 15  1  0  0  0  0
 14 16  1  0  0  0  0
 14 17  1  0  0  0  0
 11 12  1  0  0  0  0
 11 13  1  0  0  0  0
 11 14  1  0  0  0  0
  8  9  1  0  0  0  0
  8 10  1  0  0  0  0
  8 11  1  0  0  0  0
  7  8  1  0  0  0  0
  7 17  1  0  0  0  0
 23 24  1  0  0  0  0
 23 25  1  0  0  0  0
 23 26  1  0  0  0  0
 21 22  1  0  0  0  0
 21 23  1  0  0  0  0
M  END
$$$$
default_name
  -OEChem-11182114113D

 26 26  0     1  0  0  0  0  0999 V2000
   -1.8446   -3.5060   -0.3010 H   0  0  0  0  0  0  0  0  0  0  0  0
   -2.0746   -2.4490   -0.4240 C   0  0  0  0  0  0  0  0  0  0  0  0
   -2.6906   -2.1160    0.4090 H   0  0  0  0  0  0  0  0  0  0  0  0
   -2.5986   -2.2980   -1.3650 H   0  0  0  0  0  0  0  0  0  0  0  0
   -0.7756   -1.6630   -0.4350 C   0  0  0  0  0  0  0  0  0  0  0  0
    0.2844   -2.2800   -0.4550 O   0  0  0  0  0  0  0  0  0  0  0  0
   -0.8246   -0.3180   -0.4350 N   0  0  0  0  0  0  0  0  0  0  0  0
   -2.0106    0.5080   -0.5910 C   0  0  0  0  0  0  0  0  0  0  0  0
   -2.7102    0.2610    0.2092 H   0  0  0  0  0  0  0  0  0  0  0  0
   -2.4752    0.3502   -1.5637 H   0  0  0  0  0  0  0  0  0  0  0  0
   -1.5591    1.9610   -0.4589 C   0  0  0  0  0  0  0  0  0  0  0  0
   -1.6985    2.3268    0.5595 H   0  0  0  0  0  0  0  0  0  0  0  0
   -2.1133    2.5741   -1.1702 H   0  0  0  0  0  0  0  0  0  0  0  0
   -0.0827    1.9176   -0.8529 C   0  0  0  0  0  0  0  0  0  0  0  0
    0.4553    2.6916   -0.3019 H   0  0  0  0  0  0  0  0  0  0  0  0
    0.0515    2.0571   -1.9255 H   0  0  0  0  0  0  0  0  0  0  0  0
    0.3724    0.5200   -0.4020 C   0  0  1  0  0  0  0  0  0  0  0  0
    1.0855    0.1292   -1.1282 H   0  0  0  0  0  0  0  0  0  0  0  0
    1.0225    0.5498    0.9914 C   0  0  0  0  0  0  0  0  0  0  0  0
    0.9001   -0.4040    1.7572 O   0  0  0  0  0  0  0  0  0  0  0  0
    1.6806    1.6647    1.3313 N   0  0  0  0  0  0  0  0  0  0  0  0
    1.7876    2.3779    0.6279 H   0  0  0  0  0  0  0  0  0  0  0  0
    2.3467    1.8592    2.6171 C   0  0  0  0  0  0  0  0  0  0  0  0
    3.1719    1.1500    2.7107 H   0  0  0  0  0  0  0  0  0  0  0  0
    2.7338    2.8758    2.6932 H   0  0  0  0  0  0  0  0  0  0  0  0
    1.6404    1.6783    3.4303 H   0  0  0  0  0  0  0  0  0  0  0  0
  5  6  2  0  0  0  0
  5  7  1  0  0  0  0
  2  3  1  0  0  0  0
  2  4  1  0  0  0  0
  2  5  1  0  0  0  0
  1  2  1  0  0  0  0
 19 20  2  0  0  0  0
 19 21  1  0  0  0  0
 17 18  1  0  0  0  0
 17 19  1  0  0  0  0
 14 15  1  0  0  0  0
 14 16  1  0  0  0  0
 14 17  1  0  0  0  0
 11 12  1  0  0  0  0
 11 13  1  0  0  0  0
 11 14  1  0  0  0  0
  8  9  1  0  0  0  0
  8 10  1  0  0  0  0
  8 11  1  0  0  0  0
  7  8  1  0  0  0  0
  7 17  1  0  0  0  0
 23 24  1  0  0  0  0
 23 25  1  0  0  0  0
 23 26  1  0  0  0  0
 21 22  1  0  0  0  0
 21 23  1  0  0  0  0
M  END
$$$$
default_name
  -OEChem-11182114113D

 26 26  0     1  0  0  0  0  0999 V2000
   -1.8446   -3.5060   -0.3010 H   0  0  0  0  0  0  0  0  0  0  0  0
   -2.0746   -2.4490   -0.4240 C   0  0  0  0  0  0  0  0  0  0  0  0
   -2.6906   -2.1160    0.4090 H   0  0  0  0  0  0  0  0  0  0  0  0
   -2.5986   -2.2980   -1.3650 H   0  0  0  0  0  0  0  0  0  0  0  0
   -0.7756   -1.6630   -0.4350 C   0  0  0  0  0  0  0  0  0  0  0  0
    0.2844   -2.2800   -0.4550 O   0  0  0  0  0  0  0  0  0  0  0  0
   -0.8246   -0.3180   -0.4350 N   0  0  0  0  0  0  0  0  0  0  0  0
   -2.0106    0.5080   -0.5910 C   0  0  0  0  0  0  0  0  0  0  0  0
   -2.7102    0.2610    0.2092 H   0  0  0  0  0  0  0  0  0  0  0  0
   -2.4752    0.3502   -1.5637 H   0  0  0  0  0  0  0  0  0  0  0  0
   -1.5591    1.9610   -0.4589 C   0  0  0  0  0  0  0  0  0  0  0  0
   -1.6985    2.3268    0.5595 H   0  0  0  0  0  0  0  0  0  0  0  0
   -2.1133    2.5741   -1.1702 H   0  0  0  0  0  0  0  0  0  0  0  0
   -0.0827    1.9176   -0.8529 C   0  0  0  0  0  0  0  0  0  0  0  0
    0.4553    2.6916   -0.3019 H   0  0  0  0  0  0  0  0  0  0  0  0
    0.0515    2.0571   -1.9255 H   0  0  0  0  0  0  0  0  0  0  0  0
    0.3724    0.5200   -0.4020 C   0  0  1  0  0  0  0  0  0  0  0  0
    1.0855    0.1292   -1.1282 H   0  0  0  0  0  0  0  0  0  0  0  0
    1.0225    0.5498    0.9914 C   0  0  0  0  0  0  0  0  0  0  0  0
    1.1408   -0.4836    1.6466 O   0  0  0  0  0  0  0  0  0  0  0  0
    1.4072    1.7443    1.4572 N   0  0  0  0  0  0  0  0  0  0  0  0
    1.3314    2.5348    0.8373 H   0  0  0  0  0  0  0  0  0  0  0  0
    2.0323    1.9486    2.7618 C   0  0  0  0  0  0  0  0  0  0  0  0
    3.0022    1.4471    2.7835 H   0  0  0  0  0  0  0  0  0  0  0  0
    2.1719    3.0131    2.9525 H   0  0  0  0  0  0  0  0  0  0  0  0
    1.4029    1.5195    3.5445 H   0  0  0  0  0  0  0  0  0  0  0  0
  5  6  2  0  0  0  0
  5  7  1  0  0  0  0
  2  3  1  0  0  0  0
  2  4  1  0  0  0  0
  2  5  1  0  0  0  0
  1  2  1  0  0  0  0
 19 20  2  0  0  0  0
 19 21  1  0  0  0  0
 17 18  1  0  0  0  0
 17 19  1  0  0  0  0
 14 15  1  0  0  0  0
 14 16  1  0  0  0  0
 14 17  1  0  0  0  0
 11 12  1  0  0  0  0
 11 13  1  0  0  0  0
 11 14  1  0  0  0  0
  8  9  1  0  0  0  0
  8 10  1  0  0  0  0
  8 11  1  0  0  0  0
  7  8  1  0  0  0  0
  7 17  1  0  0  0  0
 23 24  1  0  0  0  0
 23 25  1  0  0  0  0
 23 26  1  0  0  0  0
 21 22  1  0  0  0  0
 21 23  1  0  0  0  0
M  END
$$$$
default_name
  -OEChem-11182114113D

 26 26  0     1  0  0  0  0  0999 V2000
   -1.8446   -3.5060   -0.3010 H   0  0  0  0  0  0  0  0  0  0  0  0
   -2.0746   -2.4490   -0.4240 C   0  0  0  0  0  0  0  0  0  0  0  0
   -2.6906   -2.1160    0.4090 H   0  0  0  0  0  0  0  0  0  0  0  0
   -2.5986   -2.2980   -1.3650 H   0  0  0  0  0  0  0  0  0  0  0  0
   -0.7756   -1.6630   -0.4350 C   0  0  0  0  0  0  0  0  0  0  0  0
    0.2844   -2.2800   -0.4550 O   0  0  0  0  0  0  0  0  0  0  0  0
   -0.8246   -0.3180   -0.4350 N   0  0  0  0  0  0  0  0  0  0  0  0
   -2.0106    0.5080   -0.5910 C   0  0  0  0  0  0  0  0  0  0  0  0
   -2.7102    0.2610    0.2092 H   0  0  0  0  0  0  0  0  0  0  0  0
   -2.4752    0.3502   -1.5637 H   0  0  0  0  0  0  0  0  0  0  0  0
   -1.5591    1.9610   -0.4589 C   0  0  0  0  0  0  0  0  0  0  0  0
   -1.6985    2.3268    0.5595 H   0  0  0  0  0  0  0  0  0  0  0  0
   -2.1133    2.5741   -1.1702 H   0  0  0  0  0  0  0  0  0  0  0  0
   -0.0827    1.9176   -0.8529 C   0  0  0  0  0  0  0  0  0  0  0  0
    0.4553    2.6916   -0.3019 H   0  0  0  0  0  0  0  0  0  0  0  0
    0.0515    2.0571   -1.9255 H   0  0  0  0  0  0  0  0  0  0  0  0
    0.3724    0.5200   -0.4020 C   0  0  1  0  0  0  0  0  0  0  0  0
    1.0855    0.1292   -1.1282 H   0  0  0  0  0  0  0  0  0  0  0  0
    1.0225    0.5498    0.9914 C   0  0  0  0  0  0  0  0  0  0  0  0
    1.3914   -0.4919    1.5299 O   0  0  0  0  0  0  0  0  0  0  0  0
    1.1251    1.7432    1.5889 N   0  0  0  0  0  0  0  0  0  0  0  0
    0.8551    2.5565    1.0591 H   0  0  0  0  0  0  0  0  0  0  0  0
    1.7084    1.9454    2.9130 C   0  0  0  0  0  0  0  0  0  0  0  0
    2.7691    1.6863    2.8872 H   0  0  0  0  0  0  0  0  0  0  0  0
    1.5982    2.9857    3.2207 H   0  0  0  0  0  0  0  0  0  0  0  0
    1.2113    1.2980    3.6387 H   0  0  0  0  0  0  0  0  0  0  0  0
  5  6  2  0  0  0  0
  5  7  1  0  0  0  0
  2  3  1  0  0  0  0
  2  4  1  0  0  0  0
  2  5  1  0  0  0  0
  1  2  1  0  0  0  0
 19 20  2  0  0  0  0
 19 21  1  0  0  0  0
 17 18  1  0  0  0  0
 17 19  1  0  0  0  0
 14 15  1  0  0  0  0
 14 16  1  0  0  0  0
 14 17  1  0  0  0  0
 11 12  1  0  0  0  0
 11 13  1  0  0  0  0
 11 14  1  0  0  0  0
  8  9  1  0  0  0  0
  8 10  1  0  0  0  0
  8 11  1  0  0  0  0
  7  8  1  0  0  0  0
  7 17  1  0  0  0  0
 23 24  1  0  0  0  0
 23 25  1  0  0  0  0
 23 26  1  0  0  0  0
 21 22  1  0  0  0  0
 21 23  1  0  0  0  0
M  END
$$$$
default_name
  -OEChem-11182114113D

 26 26  0     1  0  0  0  0  0999 V2000
   -1.8446   -3.5060   -0.3010 H   0  0  0  0  0  0  0  0  0  0  0  0
   -2.0746   -2.4490   -0.4240 C   0  0  0  0  0  0  0  0  0  0  0  0
   -2.6906   -2.1160    0.4090 H   0  0  0  0  0  0  0  0  0  0  0  0
   -2.5986   -2.2980   -1.3650 H   0  0  0  0  0  0  0  0  0  0  0  0
   -0.7756   -1.6630   -0.4350 C   0  0  0  0  0  0  0  0  0  0  0  0
    0.2844   -2.2800   -0.4550 O   0  0  0  0  0  0  0  0  0  0  0  0
   -0.8246   -0.3180   -0.4350 N   0  0  0  0  0  0  0  0  0  0  0  0
   -2.0106    0.5080   -0.5910 C   0  0  0  0  0  0  0  0  0  0  0  0
   -2.7102    0.2610    0.2092 H   0  0  0  0  0  0  0  0  0  0  0  0
   -2.4752    0.3502   -1.5637 H   0  0  0  0  0  0  0  0  0  0  0  0
   -1.5591    1.9610   -0.4589 C   0  0  0  0  0  0  0  0  0  0  0  0
   -1.6985    2.3268    0.5595 H   0  0  0  0  0  0  0  0  0  0  0  0
   -2.1133    2.5741   -1.1702 H   0  0  0  0  0  0  0  0  0  0  0  0
   -0.0827    1.9176   -0.8529 C   0  0  0  0  0  0  0  0  0  0  0  0
    0.4553    2.6916   -0.3019 H   0  0  0  0  0  0  0  0  0  0  0  0
    0.0515    2.0571   -1.9255 H   0  0  0  0  0  0  0  0  0  0  0  0
    0.3724    0.5200   -0.4020 C   0  0  1  0  0  0  0  0  0  0  0  0
    1.0855    0.1292   -1.1282 H   0  0  0  0  0  0  0  0  0  0  0  0
    1.0225    0.5498    0.9914 C   0  0  0  0  0  0  0  0  0  0  0  0
    1.6348   -0.4284    1.4150 O   0  0  0  0  0  0  0  0  0  0  0  0
    0.8535    1.6616    1.7173 N   0  0  0  0  0  0  0  0  0  0  0  0
    0.3910    2.4414    1.2781 H   0  0  0  0  0  0  0  0  0  0  0  0
    1.3971    1.8498    3.0603 C   0  0  0  0  0  0  0  0  0  0  0  0
    2.4883    1.8514    3.0146 H   0  0  0  0  0  0  0  0  0  0  0  0
    1.0518    2.7953    3.4797 H   0  0  0  0  0  0  0  0  0  0  0  0
    1.0786    1.0288    3.7063 H   0  0  0  0  0  0  0  0  0  0  0  0
  5  6  2  0  0  0  0
  5  7  1  0  0  0  0
  2  3  1  0  0  0  0
  2  4  1  0  0  0  0
  2  5  1  0  0  0  0
  1  2  1  0  0  0  0
 19 20  2  0  0  0  0
 19 21  1  0  0  0  0
 17 18  1  0  0  0  0
 17 19  1  0  0  0  0
 14 15  1  0  0  0  0
 14 16  1  0  0  0  0
 14 17  1  0  0  0  0
 11 12  1  0  0  0  0
 11 13  1  0  0  0  0
 11 14  1  0  0  0  0
  8  9  1  0  0  0  0
  8 10  1  0  0  0  0
  8 11  1  0  0  0  0
  7  8  1  0  0  0  0
  7 17  1  0  0  0  0
 23 24  1  0  0  0  0
 23 25  1  0  0  0  0
 23 26  1  0  0  0  0
 21 22  1  0  0  0  0
 21 23  1  0  0  0  0
M  END
$$$$
default_name
  -OEChem-11182114113D

 26 26  0     1  0  0  0  0  0999 V2000
   -1.8446   -3.5060   -0.3010 H   0  0  0  0  0  0  0  0  0  0  0  0
   -2.0746   -2.4490   -0.4240 C   0  0  0  0  0  0  0  0  0  0  0  0
   -2.6906   -2.1160    0.4090 H   0  0  0  0  0  0  0  0  0  0  0  0
   -2.5986   -2.2980   -1.3650 H   0  0  0  0  0  0  0  0  0  0  0  0
   -0.7756   -1.6630   -0.4350 C   0  0  0  0  0  0  0  0  0  0  0  0
    0.2844   -2.2800   -0.4550 O   0  0  0  0  0  0  0  0  0  0  0  0
   -0.8246   -0.3180   -0.4350 N   0  0  0  0  0  0  0  0  0  0  0  0
   -2.0106    0.5080   -0.5910 C   0  0  0  0  0  0  0  0  0  0  0  0
   -2.7102    0.2610    0.2092 H   0  0  0  0  0  0  0  0  0  0  0  0
   -2.4752    0.3502   -1.5637 H   0  0  0  0  0  0  0  0  0  0  0  0
   -1.5591    1.9610   -0.4589 C   0  0  0  0  0  0  0  0  0  0  0  0
   -1.6985    2.3268    0.5595 H   0  0  0  0  0  0  0  0  0  0  0  0
   -2.1133    2.5741   -1.1702 H   0  0  0  0  0  0  0  0  0  0  0  0
   -0.0827    1.9176   -0.8529 C   0  0  0  0  0  0  0  0  0  0  0  0
    0.4553    2.6916   -0.3019 H   0  0  0  0  0  0  0  0  0  0  0  0
    0.0515    2.0571   -1.9255 H   0  0  0  0  0  0  0  0  0  0  0  0
    0.3724    0.5200   -0.4020 C   0  0  1  0  0  0  0  0  0  0  0  0
    1.0855    0.1292   -1.1282 H   0  0  0  0  0  0  0  0  0  0  0  0
    1.0225    0.5498    0.9914 C   0  0  0  0  0  0  0  0  0  0  0  0
    1.8545   -0.2975    1.3097 O   0  0  0  0  0  0  0  0  0  0  0  0
    0.6109    1.5051    1.8338 N   0  0  0  0  0  0  0  0  0  0  0  0
   -0.0292    2.1975    1.4794 H   0  0  0  0  0  0  0  0  0  0  0  0
    1.1196    1.6683    3.1937 C   0  0  0  0  0  0  0  0  0  0  0  0
    2.1790    1.9310    3.1572 H   0  0  0  0  0  0  0  0  0  0  0  0
    0.5701    2.4549    3.7118 H   0  0  0  0  0  0  0  0  0  0  0  0
    1.0140    0.7302    3.7429 H   0  0  0  0  0  0  0  0  0  0  0  0
  5  6  2  0  0  0  0
  5  7  1  0  0  0  0
  2  3  1  0  0  0  0
  2  4  1  0  0  0  0
  2  5  1  0  0  0  0
  1  2  1  0  0  0  0
 19 20  2  0  0  0  0
 19 21  1  0  0  0  0
 17 18  1  0  0  0  0
 17 19  1  0  0  0  0
 14 15  1  0  0  0  0
 14 16  1  0  0  0  0
 14 17  1  0  0  0  0
 11 12  1  0  0  0  0
 11 13  1  0  0  0  0
 11 14  1  0  0  0  0
  8  9  1  0  0  0  0
  8 10  1  0  0  0  0
  8 11  1  0  0  0  0
  7  8  1  0  0  0  0
  7 17  1  0  0  0  0
 23 24  1  0  0  0  0
 23 25  1  0  0  0  0
 23 26  1  0  0  0  0
 21 22  1  0  0  0  0
 21 23  1  0  0  0  0
M  END
$$$$
default_name
  -OEChem-11182114113D

 26 26  0     1  0  0  0  0  0999 V2000
   -1.8446   -3.5060   -0.3010 H   0  0  0  0  0  0  0  0  0  0  0  0
   -2.0746   -2.4490   -0.4240 C   0  0  0  0  0  0  0  0  0  0  0  0
   -2.6906   -2.1160    0.4090 H   0  0  0  0  0  0  0  0  0  0  0  0
   -2.5986   -2.2980   -1.3650 H   0  0  0  0  0  0  0  0  0  0  0  0
   -0.7756   -1.6630   -0.4350 C   0  0  0  0  0  0  0  0  0  0  0  0
    0.2844   -2.2800   -0.4550 O   0  0  0  0  0  0  0  0  0  0  0  0
   -0.8246   -0.3180   -0.4350 N   0  0  0  0  0  0  0  0  0  0  0  0
   -2.0106    0.5080   -0.5910 C   0  0  0  0  0  0  0  0  0  0  0  0
   -2.7102    0.2610    0.2092 H   0  0  0  0  0  0  0  0  0  0  0  0
   -2.4752    0.3502   -1.5637 H   0  0  0  0  0  0  0  0  0  0  0  0
   -1.5591    1.9610   -0.4589 C   0  0  0  0  0  0  0  0  0  0  0  0
   -1.6985    2.3268    0.5595 H   0  0  0  0  0  0  0  0  0  0  0  0
   -2.1133    2.5741   -1.1702 H   0  0  0  0  0  0  0  0  0  0  0  0
   -0.0827    1.9176   -0.8529 C   0  0  0  0  0  0  0  0  0  0  0  0
    0.4553    2.6916   -0.3019 H   0  0  0  0  0  0  0  0  0  0  0  0
    0.0515    2.0571   -1.9255 H   0  0  0  0  0  0  0  0  0  0  0  0
    0.3724    0.5200   -0.4020 C   0  0  1  0  0  0  0  0  0  0  0  0
    1.0855    0.1292   -1.1282 H   0  0  0  0  0  0  0  0  0  0  0  0
    1.0225    0.5498    0.9914 C   0  0  0  0  0  0  0  0  0  0  0  0
    2.0354   -0.1079    1.2212 O   0  0  0  0  0  0  0  0  0  0  0  0
    0.4140    1.2843    1.9305 N   0  0  0  0  0  0  0  0  0  0  0  0
   -0.3769    1.8414    1.6492 H   0  0  0  0  0  0  0  0  0  0  0  0
    0.8947    1.4134    3.3041 C   0  0  0  0  0  0  0  0  0  0  0  0
    1.8623    1.9198    3.3053 H   0  0  0  0  0  0  0  0  0  0  0  0
    0.1857    1.9878    3.9011 H   0  0  0  0  0  0  0  0  0  0  0  0
    1.0217    0.4226    3.7459 H   0  0  0  0  0  0  0  0  0  0  0  0
  5  6  2  0  0  0  0
  5  7  1  0  0  0  0
  2  3  1  0  0  0  0
  2  4  1  0  0  0  0
  2  5  1  0  0  0  0
  1  2  1  0  0  0  0
 19 20  2  0  0  0  0
 19 21  1  0  0  0  0
 17 18  1  0  0  0  0
 17 19  1  0  0  0  0
 14 15  1  0  0  0  0
 14 16  1  0  0  0  0
 14 17  1  0  0  0  0
 11 12  1  0  0  0  0
 11 13  1  0  0  0  0
 11 14  1  0  0  0  0
  8  9  1  0  0  0  0
  8 10  1  0  0  0  0
  8 11  1  0  0  0  0
  7  8  1  0  0  0  0
  7 17  1  0  0  0  0
 23 24  1  0  0  0  0
 23 25  1  0  0  0  0
 23 26  1  0  0  0  0
 21 22  1  0  0  0  0
 21 23  1  0  0  0  0
M  END
$$$$
default_name
  -OEChem-11182114113D

 26 26  0     1  0  0  0  0  0999 V2000
   -1.8446   -3.5060   -0.3010 H   0  0  0  0  0  0  0  0  0  0  0  0
   -2.0746   -2.4490   -0.4240 C   0  0  0  0  0  0  0  0  0  0  0  0
   -2.6906   -2.1160    0.4090 H   0  0  0  0  0  0  0  0  0  0  0  0
   -2.5986   -2.2980   -1.3650 H   0  0  0  0  0  0  0  0  0  0  0  0
   -0.7756   -1.6630   -0.4350 C   0  0  0  0  0  0  0  0  0  0  0  0
    0.2844   -2.2800   -0.4550 O   0  0  0  0  0  0  0  0  0  0  0  0
   -0.8246   -0.3180   -0.4350 N   0  0  0  0  0  0  0  0  0  0  0  0
   -2.0106    0.5080   -0.5910 C   0  0  0  0  0  0  0  0  0  0  0  0
   -2.7102    0.2610    0.2092 H   0  0  0  0  0  0  0  0  0  0  0  0
   -2.4752    0.3502   -1.5637 H   0  0  0  0  0  0  0  0  0  0  0  0
   -1.5591    1.9610   -0.4589 C   0  0  0  0  0  0  0  0  0  0  0  0
   -1.6985    2.3268    0.5595 H   0  0  0  0  0  0  0  0  0  0  0  0
   -2.1133    2.5741   -1.1702 H   0  0  0  0  0  0  0  0  0  0  0  0
   -0.0827    1.9176   -0.8529 C   0  0  0  0  0  0  0  0  0  0  0  0
    0.4553    2.6916   -0.3019 H   0  0  0  0  0  0  0  0  0  0  0  0
    0.0515    2.0571   -1.9255 H   0  0  0  0  0  0  0  0  0  0  0  0
    0.3724    0.5200   -0.4020 C   0  0  1  0  0  0  0  0  0  0  0  0
    1.0855    0.1292   -1.1282 H   0  0  0  0  0  0  0  0  0  0  0  0
    1.0225    0.5498    0.9914 C   0  0  0  0  0  0  0  0  0  0  0  0
    2.1653    0.1273    1.1556 O   0  0  0  0  0  0  0  0  0  0  0  0
    0.2759    1.0142    2.0007 N   0  0  0  0  0  0  0  0  0  0  0  0
   -0.6283    1.3973    1.7760 H   0  0  0  0  0  0  0  0  0  0  0  0
    0.7378    1.1023    3.3839 C   0  0  0  0  0  0  0  0  0  0  0  0
    1.5597    1.8185    3.4486 H   0  0  0  0  0  0  0  0  0  0  0  0
   -0.0751    1.4257    4.0348 H   0  0  0  0  0  0  0  0  0  0  0  0
    1.1013    0.1271    3.7151 H   0  0  0  0  0  0  0  0  0  0  0  0
  5  6  2  0  0  0  0
  5  7  1  0  0  0  0
  2  3  1  0  0  0  0
  2  4  1  0  0  0  0
  2  5  1  0  0  0  0
  1  2  1  0  0  0  0
 19 20  2  0  0  0  0
 19 21  1  0  0  0  0
 17 18  1  0  0  0  0
 17 19  1  0  0  0  0
 14 15  1  0  0  0  0
 14 16  1  0  0  0  0
 14 17  1  0  0  0  0
 11 12  1  0  0  0  0
 11 13  1  0  0  0  0
 11 14  1  0  0  0  0
  8  9  1  0  0  0  0
  8 10  1  0  0  0  0
  8 11  1  0  0  0  0
  7  8  1  0  0  0  0
  7 17  1  0  0  0  0
 23 24  1  0  0  0  0
 23 25  1  0  0  0  0
 23 26  1  0  0  0  0
 21 22  1  0  0  0  0
 21 23  1  0  0  0  0
M  END
$$$$
default_name
  -OEChem-11182114113D

 26 26  0     1  0  0  0  0  0999 V2000
   -1.8446   -3.5060   -0.3010 H   0  0  0  0  0  0  0  0  0  0  0  0
   -2.0746   -2.4490   -0.4240 C   0  0  0  0  0  0  0  0  0  0  0  0
   -2.6906   -2.1160    0.4090 H   0  0  0  0  0  0  0  0  0  0  0  0
   -2.5986   -2.2980   -1.3650 H   0  0  0  0  0  0  0  0  0  0  0  0
   -0.7756   -1.6630   -0.4350 C   0  0  0  0  0  0  0  0  0  0  0  0
    0.2844   -2.2800   -0.4550 O   0  0  0  0  0  0  0  0  0  0  0  0
   -0.8246   -0.3180   -0.4350 N   0  0  0  0  0  0  0  0  0  0  0  0
   -2.0106    0.5080   -0.5910 C   0  0  0  0  0  0  0  0  0  0  0  0
   -2.7102    0.2610    0.2092 H   0  0  0  0  0  0  0  0  0  0  0  0
   -2.4752    0.3502   -1.5637 H   0  0  0  0  0  0  0  0  0  0  0  0
   -1.5591    1.9610   -0.4589 C   0  0  0  0  0  0  0  0  0  0  0  0
   -1.6985    2.3268    0.5595 H   0  0  0  0  0  0  0  0  0  0  0  0
   -2.1133    2.5741   -1.1702 H   0  0  0  0  0  0  0  0  0  0  0  0
   -0.0827    1.9176   -0.8529 C   0  0  0  0  0  0  0  0  0  0  0  0
    0.4553    2.6916   -0.3019 H   0  0  0  0  0  0  0  0  0  0  0  0
    0.0515    2.0571   -1.9255 H   0  0  0  0  0  0  0  0  0  0  0  0
    0.3724    0.5200   -0.4020 C   0  0  1  0  0  0  0  0  0  0  0  0
    1.0855    0.1292   -1.1282 H   0  0  0  0  0  0  0  0  0  0  0  0
    1.0225    0.5498    0.9914 C   0  0  0  0  0  0  0  0  0  0  0  0
    2.2352    0.3921    1.1172 O   0  0  0  0  0  0  0  0  0  0  0  0
    0.2063    0.7133    2.0396 N   0  0  0  0  0  0  0  0  0  0  0  0
   -0.7664    0.8954    1.8512 H   0  0  0  0  0  0  0  0  0  0  0  0
    0.6596    0.7563    3.4278 C   0  0  0  0  0  0  0  0  0  0  0  0
    1.2919    1.6341    3.5775 H   0  0  0  0  0  0  0  0  0  0  0  0
   -0.1945    0.8070    4.1038 H   0  0  0  0  0  0  0  0  0  0  0  0
    1.2474   -0.1364    3.6526 H   0  0  0  0  0  0  0  0  0  0  0  0
  5  6  2  0  0  0  0
  5  7  1  0  0  0  0
  2  3  1  0  0  0  0
  2  4  1  0  0  0  0
  2  5  1  0  0  0  0
  1  2  1  0  0  0  0
 19 20  2  0  0  0  0
 19 21  1  0  0  0  0
 17 18  1  0  0  0  0
 17 19  1  0  0  0  0
 14 15  1  0  0  0  0
 14 16  1  0  0  0  0
 14 17  1  0  0  0  0
 11 12  1  0  0  0  0
 11 13  1  0  0  0  0
 11 14  1  0  0  0  0
  8  9  1  0  0  0  0
  8 10  1  0  0  0  0
  8 11  1  0  0  0  0
  7  8  1  0  0  0  0
  7 17  1  0  0  0  0
 23 24  1  0  0  0  0
 23 25  1  0  0  0  0
 23 26  1  0  0  0  0
 21 22  1  0  0  0  0
 21 23  1  0  0  0  0
M  END
$$$$
default_name
  -OEChem-11182114113D

 26 26  0     1  0  0  0  0  0999 V2000
   -1.8446   -3.5060   -0.3010 H   0  0  0  0  0  0  0  0  0  0  0  0
   -2.0746   -2.4490   -0.4240 C   0  0  0  0  0  0  0  0  0  0  0  0
   -2.6906   -2.1160    0.4090 H   0  0  0  0  0  0  0  0  0  0  0  0
   -2.5986   -2.2980   -1.3650 H   0  0  0  0  0  0  0  0  0  0  0  0
   -0.7756   -1.6630   -0.4350 C   0  0  0  0  0  0  0  0  0  0  0  0
    0.2844   -2.2800   -0.4550 O   0  0  0  0  0  0  0  0  0  0  0  0
   -0.8246   -0.3180   -0.4350 N   0  0  0  0  0  0  0  0  0  0  0  0
   -2.0106    0.5080   -0.5910 C   0  0  0  0  0  0  0  0  0  0  0  0
   -2.7102    0.2610    0.2092 H   0  0  0  0  0  0  0  0  0  0  0  0
   -2.4752    0.3502   -1.5637 H   0  0  0  0  0  0  0  0  0  0  0  0
   -1.5591    1.9610   -0.4589 C   0  0  0  0  0  0  0  0  0  0  0  0
   -1.6985    2.3268    0.5595 H   0  0  0  0  0  0  0  0  0  0  0  0
   -2.1133    2.5741   -1.1702 H   0  0  0  0  0  0  0  0  0  0  0  0
   -0.0827    1.9176   -0.8529 C   0  0  0  0  0  0  0  0  0  0  0  0
    0.4553    2.6916   -0.3019 H   0  0  0  0  0  0  0  0  0  0  0  0
    0.0515    2.0571   -1.9255 H   0  0  0  0  0  0  0  0  0  0  0  0
    0.3724    0.5200   -0.4020 C   0  0  1  0  0  0  0  0  0  0  0  0
    1.0855    0.1292   -1.1282 H   0  0  0  0  0  0  0  0  0  0  0  0
    1.0225    0.5498    0.9914 C   0  0  0  0  0  0  0  0  0  0  0  0
    2.2405    0.6685    1.1089 O   0  0  0  0  0  0  0  0  0  0  0  0
    0.2098    0.4020    2.0446 N   0  0  0  0  0  0  0  0  0  0  0  0
   -0.7818    0.3701    1.8696 H   0  0  0  0  0  0  0  0  0  0  0  0
    0.6654    0.3989    3.4328 C   0  0  0  0  0  0  0  0  0  0  0  0
    1.0772    1.3790    3.6831 H   0  0  0  0  0  0  0  0  0  0  0  0
   -0.1645    0.1738    4.1033 H   0  0  0  0  0  0  0  0  0  0  0  0
    1.4499   -0.3498    3.5627 H   0  0  0  0  0  0  0  0  0  0  0  0
  5  6  2  0  0  0  0
  5  7  1  0  0  0  0
  2  3  1  0  0  0  0
  2  4  1  0  0  0  0
  2  5  1  0  0  0  0
  1  2  1  0  0  0  0
 19 20  2  0  0  0  0
 19 21  1  0  0  0  0
 17 18  1  0  0  0  0
 17 19  1  0  0  0  0
 14 15  1  0  0  0  0
 14 16  1  0  0  0  0
 14 17  1  0  0  0  0
 11 12  1  0  0  0  0
 11 13  1  0  0  0  0
 11 14  1  0  0  0  0
  8  9  1  0  0  0  0
  8 10  1  0  0  0  0
  8 11  1  0  0  0  0
  7  8  1  0  0  0  0
  7 17  1  0  0  0  0
 23 24  1  0  0  0  0
 23 25  1  0  0  0  0
 23 26  1  0  0  0  0
 21 22  1  0  0  0  0
 21 23  1  0  0  0  0
M  END
$$$$
default_name
  -OEChem-11182114113D

 26 26  0     1  0  0  0  0  0999 V2000
   -1.8446   -3.5060   -0.3010 H   0  0  0  0  0  0  0  0  0  0  0  0
   -2.0746   -2.4490   -0.4240 C   0  0  0  0  0  0  0  0  0  0  0  0
   -2.6906   -2.1160    0.4090 H   0  0  0  0  0  0  0  0  0  0  0  0
   -2.5986   -2.2980   -1.3650 H   0  0  0  0  0  0  0  0  0  0  0  0
   -0.7756   -1.6630   -0.4350 C   0  0  0  0  0  0  0  0  0  0  0  0
    0.2844   -2.2800   -0.4550 O   0  0  0  0  0  0  0  0  0  0  0  0
   -0.8246   -0.3180   -0.4350 N   0  0  0  0  0  0  0  0  0  0  0  0
   -2.0106    0.5080   -0.5910 C   0  0  0  0  0  0  0  0  0  0  0  0
   -2.7102    0.2610    0.2092 H   0  0  0  0  0  0  0  0  0  0  0  0
   -2.4752    0.3502   -1.5637 H   0  0  0  0  0  0  0  0  0  0  0  0
   -1.5591    1.9610   -0.4589 C   0  0  0  0  0  0  0  0  0  0  0  0
   -1.6985    2.3268    0.5595 H   0  0  0  0  0  0  0  0  0  0  0  0
   -2.1133    2.5741   -1.1702 H   0  0  0  0  0  0  0  0  0  0  0  0
   -0.0827    1.9176   -0.8529 C   0  0  0  0  0  0  0  0  0  0  0  0
    0.4553    2.6916   -0.3019 H   0  0  0  0  0  0  0  0  0  0  0  0
    0.0515    2.0571   -1.9255 H   0  0  0  0  0  0  0  0  0  0  0  0
    0.3724    0.5200   -0.4020 C   0  0  1  0  0  0  0  0  0  0  0  0
    1.0855    0.1292   -1.1282 H   0  0  0  0  0  0  0  0  0  0  0  0
    1.0225    0.5498    0.9914 C   0  0  0  0  0  0  0  0  0  0  0  0
    2.1807    0.9376    1.1310 O   0  0  0  0  0  0  0  0  0  0  0  0
    0.2862    0.1016    2.0154 N   0  0  0  0  0  0  0  0  0  0  0  0
   -0.6733   -0.1430    1.8300 H   0  0  0  0  0  0  0  0  0  0  0  0
    0.7549    0.0546    3.3984 C   0  0  0  0  0  0  0  0  0  0  0  0
    0.9301    1.0707    3.7584 H   0  0  0  0  0  0  0  0  0  0  0  0
    0.0131   -0.4306    4.0335 H   0  0  0  0  0  0  0  0  0  0  0  0
    1.6951   -0.4986    3.4514 H   0  0  0  0  0  0  0  0  0  0  0  0
  5  6  2  0  0  0  0
  5  7  1  0  0  0  0
  2  3  1  0  0  0  0
  2  4  1  0  0  0  0
  2  5  1  0  0  0  0
  1  2  1  0  0  0  0
 19 20  2  0  0  0  0
 19 21  1  0  0  0  0
 17 18  1  0  0  0  0
 17 19  1  0  0  0  0
 14 15  1  0  0  0  0
 14 16  1  0  0  0  0
 14 17  1  0  0  0  0
 11 12  1  0  0  0  0
 11 13  1  0  0  0  0
 11 14  1  0  0  0  0
  8  9  1  0  0  0  0
  8 10  1  0  0  0  0
  8 11  1  0  0  0  0
  7  8  1  0  0  0  0
  7 17  1  0  0  0  0
 23 24  1  0  0  0  0
 23 25  1  0  0  0  0
 23 26  1  0  0  0  0
 21 22  1  0  0  0  0
 21 23  1  0  0  0  0
M  END
$$$$
default_name
  -OEChem-11182114113D

 26 26  0     1  0  0  0  0  0999 V2000
   -1.8446   -3.5060   -0.3010 H   0  0  0  0  0  0  0  0  0  0  0  0
   -2.0746   -2.4490   -0.4240 C   0  0  0  0  0  0  0  0  0  0  0  0
   -2.6906   -2.1160    0.4090 H   0  0  0  0  0  0  0  0  0  0  0  0
   -2.5986   -2.2980   -1.3650 H   0  0  0  0  0  0  0  0  0  0  0  0
   -0.7756   -1.6630   -0.4350 C   0  0  0  0  0  0  0  0  0  0  0  0
    0.2844   -2.2800   -0.4550 O   0  0  0  0  0  0  0  0  0  0  0  0
   -0.8246   -0.3180   -0.4350 N   0  0  0  0  0  0  0  0  0  0  0  0
   -2.0106    0.5080   -0.5910 C   0  0  0  0  0  0  0  0  0  0  0  0
   -2.7102    0.2610    0.2092 H   0  0  0  0  0  0  0  0  0  0  0  0
   -2.4752    0.3502   -1.5637 H   0  0  0  0  0  0  0  0  0  0  0  0
   -1.5591    1.9610   -0.4589 C   0  0  0  0  0  0  0  0  0  0  0  0
   -1.6985    2.3268    0.5595 H   0  0  0  0  0  0  0  0  0  0  0  0
   -2.1133    2.5741   -1.1702 H   0  0  0  0  0  0  0  0  0  0  0  0
   -0.0827    1.9176   -0.8529 C   0  0  0  0  0  0  0  0  0  0  0  0
    0.4553    2.6916   -0.3019 H   0  0  0  0  0  0  0  0  0  0  0  0
    0.0515    2.0571   -1.9255 H   0  0  0  0  0  0  0  0  0  0  0  0
    0.3724    0.5200   -0.4020 C   0  0  1  0  0  0  0  0  0  0  0  0
    1.0855    0.1292   -1.1282 H   0  0  0  0  0  0  0  0  0  0  0  0
    1.0225    0.5498    0.9914 C   0  0  0  0  0  0  0  0  0  0  0  0
    2.0600    1.1812    1.1821 O   0  0  0  0  0  0  0  0  0  0  0  0
    0.4303   -0.1674    1.9539 N   0  0  0  0  0  0  0  0  0  0  0  0
   -0.4484   -0.6088    1.7351 H   0  0  0  0  0  0  0  0  0  0  0  0
    0.9219   -0.2533    3.3271 C   0  0  0  0  0  0  0  0  0  0  0  0
    0.8607    0.7301    3.7980 H   0  0  0  0  0  0  0  0  0  0  0  0
    0.3260   -0.9653    3.8989 H   0  0  0  0  0  0  0  0  0  0  0  0
    1.9664   -0.5727    3.3265 H   0  0  0  0  0  0  0  0  0  0  0  0
  5  6  2  0  0  0  0
  5  7  1  0  0  0  0
  2  3  1  0  0  0  0
  2  4  1  0  0  0  0
  2  5  1  0  0  0  0
  1  2  1  0  0  0  0
 19 20  2  0  0  0  0
 19 21  1  0  0  0  0
 17 18  1  0  0  0  0
 17 19  1  0  0  0  0
 14 15  1  0  0  0  0
 14 16  1  0  0  0  0
 14 17  1  0  0  0  0
 11 12  1  0  0  0  0
 11 13  1  0  0  0  0
 11 14  1  0  0  0  0
  8  9  1  0  0  0  0
  8 10  1  0  0  0  0
  8 11  1  0  0  0  0
  7  8  1  0  0  0  0
  7 17  1  0  0  0  0
 23 24  1  0  0  0  0
 23 25  1  0  0  0  0
 23 26  1  0  0  0  0
 21 22  1  0  0  0  0
 21 23  1  0  0  0  0
M  END
$$$$
default_name
  -OEChem-11182114113D

 26 26  0     1  0  0  0  0  0999 V2000
   -1.8446   -3.5060   -0.3010 H   0  0  0  0  0  0  0  0  0  0  0  0
   -2.0746   -2.4490   -0.4240 C   0  0  0  0  0  0  0  0  0  0  0  0
   -2.6906   -2.1160    0.4090 H   0  0  0  0  0  0  0  0  0  0  0  0
   -2.5986   -2.2980   -1.3650 H   0  0  0  0  0  0  0  0  0  0  0  0
   -0.7756   -1.6630   -0.4350 C   0  0  0  0  0  0  0  0  0  0  0  0
    0.2844   -2.2800   -0.4550 O   0  0  0  0  0  0  0  0  0  0  0  0
   -0.8246   -0.3180   -0.4350 N   0  0  0  0  0  0  0  0  0  0  0  0
   -2.0106    0.5080   -0.5910 C   0  0  0  0  0  0  0  0  0  0  0  0
   -2.7102    0.2610    0.2092 H   0  0  0  0  0  0  0  0  0  0  0  0
   -2.4752    0.3502   -1.5637 H   0  0  0  0  0  0  0  0  0  0  0  0
   -1.5591    1.9610   -0.4589 C   0  0  0  0  0  0  0  0  0  0  0  0
   -1.6985    2.3268    0.5595 H   0  0  0  0  0  0  0  0  0  0  0  0
   -2.1133    2.5741   -1.1702 H   0  0  0  0  0  0  0  0  0  0  0  0
   -0.0827    1.9176   -0.8529 C   0  0  0  0  0  0  0  0  0  0  0  0
    0.4553    2.6916   -0.3019 H   0  0  0  0  0  0  0  0  0  0  0  0
    0.0515    2.0571   -1.9255 H   0  0  0  0  0  0  0  0  0  0  0  0
    0.3724    0.5200   -0.4020 C   0  0  1  0  0  0  0  0  0  0  0  0
    1.0855    0.1292   -1.1282 H   0  0  0  0  0  0  0  0  0  0  0  0
    1.0225    0.5498    0.9914 C   0  0  0  0  0  0  0  0  0  0  0  0
    1.8866    1.3825    1.2587 O   0  0  0  0  0  0  0  0  0  0  0  0
    0.6323   -0.3867    1.8644 N   0  0  0  0  0  0  0  0  0  0  0  0
   -0.1224   -0.9956    1.5913 H   0  0  0  0  0  0  0  0  0  0  0  0
    1.1550   -0.5037    3.2237 C   0  0  0  0  0  0  0  0  0  0  0  0
    0.8737    0.3806    3.7995 H   0  0  0  0  0  0  0  0  0  0  0  0
    0.7529   -1.3936    3.7089 H   0  0  0  0  0  0  0  0  0  0  0  0
    2.2451   -0.5669    3.1963 H   0  0  0  0  0  0  0  0  0  0  0  0
  5  6  2  0  0  0  0
  5  7  1  0  0  0  0
  2  3  1  0  0  0  0
  2  4  1  0  0  0  0
  2  5  1  0  0  0  0
  1  2  1  0  0  0  0
 19 20  2  0  0  0  0
 19 21  1  0  0  0  0
 17 18  1  0  0  0  0
 17 19  1  0  0  0  0
 14 15  1  0  0  0  0
 14 16  1  0  0  0  0
 14 17  1  0  0  0  0
 11 12  1  0  0  0  0
 11 13  1  0  0  0  0
 11 14  1  0  0  0  0
  8  9  1  0  0  0  0
  8 10  1  0  0  0  0
  8 11  1  0  0  0  0
  7  8  1  0  0  0  0
  7 17  1  0  0  0  0
 23 24  1  0  0  0  0
 23 25  1  0  0  0  0
 23 26  1  0  0  0  0
 21 22  1  0  0  0  0
 21 23  1  0  0  0  0
M  END
$$$$
default_name
  -OEChem-11182114113D

 26 26  0     1  0  0  0  0  0999 V2000
   -1.8446   -3.5060   -0.3010 H   0  0  0  0  0  0  0  0  0  0  0  0
   -2.0746   -2.4490   -0.4240 C   0  0  0  0  0  0  0  0  0  0  0  0
   -2.6906   -2.1160    0.4090 H   0  0  0  0  0  0  0  0  0  0  0  0
   -2.5986   -2.2980   -1.3650 H   0  0  0  0  0  0  0  0  0  0  0  0
   -0.7756   -1.6630   -0.4350 C   0  0  0  0  0  0  0  0  0  0  0  0
    0.2844   -2.2800   -0.4550 O   0  0  0  0  0  0  0  0  0  0  0  0
   -0.8246   -0.3180   -0.4350 N   0  0  0  0  0  0  0  0  0  0  0  0
   -2.0106    0.5080   -0.5910 C   0  0  0  0  0  0  0  0  0  0  0  0
   -2.7102    0.2610    0.2092 H   0  0  0  0  0  0  0  0  0  0  0  0
   -2.4752    0.3502   -1.5637 H   0  0  0  0  0  0  0  0  0  0  0  0
   -1.5591    1.9610   -0.4589 C   0  0  0  0  0  0  0  0  0  0  0  0
   -1.6985    2.3268    0.5595 H   0  0  0  0  0  0  0  0  0  0  0  0
   -2.1133    2.5741   -1.1702 H   0  0  0  0  0  0  0  0  0  0  0  0
   -0.0827    1.9176   -0.8529 C   0  0  0  0  0  0  0  0  0  0  0  0
    0.4553    2.6916   -0.3019 H   0  0  0  0  0  0  0  0  0  0  0  0
    0.0515    2.0571   -1.9255 H   0  0  0  0  0  0  0  0  0  0  0  0
    0.3724    0.5200   -0.4020 C   0  0  1  0  0  0  0  0  0  0  0  0
    1.0855    0.1292   -1.1282 H   0  0  0  0  0  0  0  0  0  0  0  0
    1.0225    0.5498    0.9914 C   0  0  0  0  0  0  0  0  0  0  0  0
    1.6722    1.5279    1.3556 O   0  0  0  0  0  0  0  0  0  0  0  0
    0.8784   -0.5415    1.7529 N   0  0  0  0  0  0  0  0  0  0  0  0
    0.2824   -1.2770    1.4084 H   0  0  0  0  0  0  0  0  0  0  0  0
    1.4385   -0.6796    3.0952 C   0  0  0  0  0  0  0  0  0  0  0  0
    0.9683    0.0459    3.7625 H   0  0  0  0  0  0  0  0  0  0  0  0
    1.2647   -1.6864    3.4764 H   0  0  0  0  0  0  0  0  0  0  0  0
    2.5123   -0.4818    3.0698 H   0  0  0  0  0  0  0  0  0  0  0  0
  5  6  2  0  0  0  0
  5  7  1  0  0  0  0
  2  3  1  0  0  0  0
  2  4  1  0  0  0  0
  2  5  1  0  0  0  0
  1  2  1  0  0  0  0
 19 20  2  0  0  0  0
 19 21  1  0  0  0  0
 17 18  1  0  0  0  0
 17 19  1  0  0  0  0
 14 15  1  0  0  0  0
 14 16  1  0  0  0  0
 14 17  1  0  0  0  0
 11 12  1  0  0  0  0
 11 13  1  0  0  0  0
 11 14  1  0  0  0  0
  8  9  1  0  0  0  0
  8 10  1  0  0  0  0
  8 11  1  0  0  0  0
  7  8  1  0  0  0  0
  7 17  1  0  0  0  0
 23 24  1  0  0  0  0
 23 25  1  0  0  0  0
 23 26  1  0  0  0  0
 21 22  1  0  0  0  0
 21 23  1  0  0  0  0
M  END
$$$$
default_name
  -OEChem-11182114113D

 26 26  0     1  0  0  0  0  0999 V2000
   -1.8446   -3.5060   -0.3010 H   0  0  0  0  0  0  0  0  0  0  0  0
   -2.0746   -2.4490   -0.4240 C   0  0  0  0  0  0  0  0  0  0  0  0
   -2.6906   -2.1160    0.4090 H   0  0  0  0  0  0  0  0  0  0  0  0
   -2.5986   -2.2980   -1.3650 H   0  0  0  0  0  0  0  0  0  0  0  0
   -0.7756   -1.6630   -0.4350 C   0  0  0  0  0  0  0  0  0  0  0  0
    0.2844   -2.2800   -0.4550 O   0  0  0  0  0  0  0  0  0  0  0  0
   -0.8246   -0.3180   -0.4350 N   0  0  0  0  0  0  0  0  0  0  0  0
   -2.0106    0.5080   -0.5910 C   0  0  0  0  0  0  0  0  0  0  0  0
   -2.7102    0.2610    0.2092 H   0  0  0  0  0  0  0  0  0  0  0  0
   -2.4752    0.3502   -1.5637 H   0  0  0  0  0  0  0  0  0  0  0  0
   -1.5591    1.9610   -0.4589 C   0  0  0  0  0  0  0  0  0  0  0  0
   -1.6985    2.3268    0.5595 H   0  0  0  0  0  0  0  0  0  0  0  0
   -2.1133    2.5741   -1.1702 H   0  0  0  0  0  0  0  0  0  0  0  0
   -0.0827    1.9176   -0.8529 C   0  0  0  0  0  0  0  0  0  0  0  0
    0.4553    2.6916   -0.3019 H   0  0  0  0  0  0  0  0  0  0  0  0
    0.0515    2.0571   -1.9255 H   0  0  0  0  0  0  0  0  0  0  0  0
    0.3724    0.5200   -0.4020 C   0  0  1  0  0  0  0  0  0  0  0  0
    1.0855    0.1292   -1.1282 H   0  0  0  0  0  0  0  0  0  0  0  0
    1.0225    0.5498    0.9914 C   0  0  0  0  0  0  0  0  0  0  0  0
    1.4315    1.6075    1.4662 O   0  0  0  0  0  0  0  0  0  0  0  0
    1.1518   -0.6210    1.6270 N   0  0  0  0  0  0  0  0  0  0  0  0
    0.7386   -1.4339    1.1989 H   0  0  0  0  0  0  0  0  0  0  0  0
    1.7528   -0.7690    2.9504 C   0  0  0  0  0  0  0  0  0  0  0  0
    1.1379   -0.2512    3.6897 H   0  0  0  0  0  0  0  0  0  0  0  0
    1.8266   -1.8238    3.2171 H   0  0  0  0  0  0  0  0  0  0  0  0
    2.7498   -0.3231    2.9556 H   0  0  0  0  0  0  0  0  0  0  0  0
  5  6  2  0  0  0  0
  5  7  1  0  0  0  0
  2  3  1  0  0  0  0
  2  4  1  0  0  0  0
  2  5  1  0  0  0  0
  1  2  1  0  0  0  0
 19 20  2  0  0  0  0
 19 21  1  0  0  0  0
 17 18  1  0  0  0  0
 17 19  1  0  0  0  0
 14 15  1  0  0  0  0
 14 16  1  0  0  0  0
 14 17  1  0  0  0  0
 11 12  1  0  0  0  0
 11 13  1  0  0  0  0
 11 14  1  0  0  0  0
  8  9  1  0  0  0  0
  8 10  1  0  0  0  0
  8 11  1  0  0  0  0
  7  8  1  0  0  0  0
  7 17  1  0  0  0  0
 23 24  1  0  0  0  0
 23 25  1  0  0  0  0
 23 26  1  0  0  0  0
 21 22  1  0  0  0  0
 21 23  1  0  0  0  0
M  END
$$$$
default_name
  -OEChem-11182114113D

 26 26  0     1  0  0  0  0  0999 V2000
   -1.8446   -3.5060   -0.3010 H   0  0  0  0  0  0  0  0  0  0  0  0
   -2.0746   -2.4490   -0.4240 C   0  0  0  0  0  0  0  0  0  0  0  0
   -2.6906   -2.1160    0.4090 H   0  0  0  0  0  0  0  0  0  0  0  0
   -2.5986   -2.2980   -1.3650 H   0  0  0  0  0  0  0  0  0  0  0  0
   -0.7756   -1.6630   -0.4350 C   0  0  0  0  0  0  0  0  0  0  0  0
    0.2844   -2.2800   -0.4550 O   0  0  0  0  0  0  0  0  0  0  0  0
   -0.8246   -0.3180   -0.4350 N   0  0  0  0  0  0  0  0  0  0  0  0
   -2.0106    0.5080   -0.5910 C   0  0  0  0  0  0  0  0  0  0  0  0
   -2.7102    0.2610    0.2092 H   0  0  0  0  0  0  0  0  0  0  0  0
   -2.4752    0.3502   -1.5637 H   0  0  0  0  0  0  0  0  0  0  0  0
   -1.5591    1.9610   -0.4589 C   0  0  0  0  0  0  0  0  0  0  0  0
   -1.6985    2.3268    0.5595 H   0  0  0  0  0  0  0  0  0  0  0  0
   -2.1133    2.5741   -1.1702 H   0  0  0  0  0  0  0  0  0  0  0  0
   -0.0827    1.9176   -0.8529 C   0  0  0  0  0  0  0  0  0  0  0  0
    0.4553    2.6916   -0.3019 H   0  0  0  0  0  0  0  0  0  0  0  0
    0.0515    2.0571   -1.9255 H   0  0  0  0  0  0  0  0  0  0  0  0
    0.3724    0.5200   -0.4020 C   0  0  1  0  0  0  0  0  0  0  0  0
    1.0855    0.1292   -1.1282 H   0  0  0  0  0  0  0  0  0  0  0  0
    1.0225    0.5498    0.9914 C   0  0  0  0  0  0  0  0  0  0  0  0
    1.1809    1.6158    1.5829 O   0  0  0  0  0  0  0  0  0  0  0  0
    1.4339   -0.6199    1.4954 N   0  0  0  0  0  0  0  0  0  0  0  0
    1.2149   -1.4556    0.9771 H   0  0  0  0  0  0  0  0  0  0  0  0
    2.0767   -0.7658    2.7993 C   0  0  0  0  0  0  0  0  0  0  0  0
    1.3711   -0.4904    3.5861 H   0  0  0  0  0  0  0  0  0  0  0  0
    2.4003   -1.7963    2.9489 H   0  0  0  0  0  0  0  0  0  0  0  0
    2.9414   -0.1015    2.8614 H   0  0  0  0  0  0  0  0  0  0  0  0
  5  6  2  0  0  0  0
  5  7  1  0  0  0  0
  2  3  1  0  0  0  0
  2  4  1  0  0  0  0
  2  5  1  0  0  0  0
  1  2  1  0  0  0  0
 19 20  2  0  0  0  0
 19 21  1  0  0  0  0
 17 18  1  0  0  0  0
 17 19  1  0  0  0  0
 14 15  1  0  0  0  0
 14 16  1  0  0  0  0
 14 17  1  0  0  0  0
 11 12  1  0  0  0  0
 11 13  1  0  0  0  0
 11 14  1  0  0  0  0
  8  9  1  0  0  0  0
  8 10  1  0  0  0  0
  8 11  1  0  0  0  0
  7  8  1  0  0  0  0
  7 17  1  0  0  0  0
 23 24  1  0  0  0  0
 23 25  1  0  0  0  0
 23 26  1  0  0  0  0
 21 22  1  0  0  0  0
 21 23  1  0  0  0  0
M  END
$$$$
default_name
  -OEChem-11182114113D

 26 26  0     1  0  0  0  0  0999 V2000
   -1.8446   -3.5060   -0.3010 H   0  0  0  0  0  0  0  0  0  0  0  0
   -2.0746   -2.4490   -0.4240 C   0  0  0  0  0  0  0  0  0  0  0  0
   -2.6906   -2.1160    0.4090 H   0  0  0  0  0  0  0  0  0  0  0  0
   -2.5986   -2.2980   -1.3650 H   0  0  0  0  0  0  0  0  0  0  0  0
   -0.7756   -1.6630   -0.4350 C   0  0  0  0  0  0  0  0  0  0  0  0
    0.2844   -2.2800   -0.4550 O   0  0  0  0  0  0  0  0  0  0  0  0
   -0.8246   -0.3180   -0.4350 N   0  0  0  0  0  0  0  0  0  0  0  0
   -2.0106    0.5080   -0.5910 C   0  0  0  0  0  0  0  0  0  0  0  0
   -2.7102    0.2610    0.2092 H   0  0  0  0  0  0  0  0  0  0  0  0
   -2.4752    0.3502   -1.5637 H   0  0  0  0  0  0  0  0  0  0  0  0
   -1.5591    1.9610   -0.4589 C   0  0  0  0  0  0  0  0  0  0  0  0
   -1.6985    2.3268    0.5595 H   0  0  0  0  0  0  0  0  0  0  0  0
   -2.1133    2.5741   -1.1702 H   0  0  0  0  0  0  0  0  0  0  0  0
   -0.0827    1.9176   -0.8529 C   0  0  0  0  0  0  0  0  0  0  0  0
    0.4553    2.6916   -0.3019 H   0  0  0  0  0  0  0  0  0  0  0  0
    0.0515    2.0571   -1.9255 H   0  0  0  0  0  0  0  0  0  0  0  0
    0.3724    0.5200   -0.4020 C   0  0  1  0  0  0  0  0  0  0  0  0
    1.0855    0.1292   -1.1282 H   0  0  0  0  0  0  0  0  0  0  0  0
    1.0225    0.5498    0.9914 C   0  0  0  0  0  0  0  0  0  0  0  0
    0.9375    1.5523    1.6979 O   0  0  0  0  0  0  0  0  0  0  0  0
    1.7055   -0.5384    1.3669 N   0  0  0  0  0  0  0  0  0  0  0  0
    1.6790   -1.3406    0.7582 H   0  0  0  0  0  0  0  0  0  0  0  0
    2.3880   -0.6702    2.6520 C   0  0  0  0  0  0  0  0  0  0  0  0
    1.6519   -0.6555    3.4586 H   0  0  0  0  0  0  0  0  0  0  0  0
    2.9467   -1.6059    2.6899 H   0  0  0  0  0  0  0  0  0  0  0  0
    3.0741    0.1677    2.7938 H   0  0  0  0  0  0  0  0  0  0  0  0
  5  6  2  0  0  0  0
  5  7  1  0  0  0  0
  2  3  1  0  0  0  0
  2  4  1  0  0  0  0
  2  5  1  0  0  0  0
  1  2  1  0  0  0  0
 19 20  2  0  0  0  0
 19 21  1  0  0  0  0
 17 18  1  0  0  0  0
 17 19  1  0  0  0  0
 14 15  1  0  0  0  0
 14 16  1  0  0  0  0
 14 17  1  0  0  0  0
 11 12  1  0  0  0  0
 11 13  1  0  0  0  0
 11 14  1  0  0  0  0
  8  9  1  0  0  0  0
  8 10  1  0  0  0  0
  8 11  1  0  0  0  0
  7  8  1  0  0  0  0
  7 17  1  0  0  0  0
 23 24  1  0  0  0  0
 23 25  1  0  0  0  0
 23 26  1  0  0  0  0
 21 22  1  0  0  0  0
 21 23  1  0  0  0  0
M  END
$$$$
default_name
  -OEChem-11182114113D

 26 26  0     1  0  0  0  0  0999 V2000
   -1.8446   -3.5060   -0.3010 H   0  0  0  0  0  0  0  0  0  0  0  0
   -2.0746   -2.4490   -0.4240 C   0  0  0  0  0  0  0  0  0  0  0  0
   -2.6906   -2.1160    0.4090 H   0  0  0  0  0  0  0  0  0  0  0  0
   -2.5986   -2.2980   -1.3650 H   0  0  0  0  0  0  0  0  0  0  0  0
   -0.7756   -1.6630   -0.4350 C   0  0  0  0  0  0  0  0  0  0  0  0
    0.2844   -2.2800   -0.4550 O   0  0  0  0  0  0  0  0  0  0  0  0
   -0.8246   -0.3180   -0.4350 N   0  0  0  0  0  0  0  0  0  0  0  0
   -2.0106    0.5080   -0.5910 C   0  0  0  0  0  0  0  0  0  0  0  0
   -2.7102    0.2610    0.2092 H   0  0  0  0  0  0  0  0  0  0  0  0
   -2.4752    0.3502   -1.5637 H   0  0  0  0  0  0  0  0  0  0  0  0
   -1.5591    1.9610   -0.4589 C   0  0  0  0  0  0  0  0  0  0  0  0
   -1.6985    2.3268    0.5595 H   0  0  0  0  0  0  0  0  0  0  0  0
   -2.1133    2.5741   -1.1702 H   0  0  0  0  0  0  0  0  0  0  0  0
   -0.0827    1.9176   -0.8529 C   0  0  0  0  0  0  0  0  0  0  0  0
    0.4553    2.6916   -0.3019 H   0  0  0  0  0  0  0  0  0  0  0  0
    0.0515    2.0571   -1.9255 H   0  0  0  0  0  0  0  0  0  0  0  0
    0.3724    0.5200   -0.4020 C   0  0  1  0  0  0  0  0  0  0  0  0
    1.0855    0.1292   -1.1282 H   0  0  0  0  0  0  0  0  0  0  0  0
    1.0225    0.5498    0.9914 C   0  0  0  0  0  0  0  0  0  0  0  0
    0.7178    1.4214    1.8032 O   0  0  0  0  0  0  0  0  0  0  0  0
    1.9480   -0.3818    1.2504 N   0  0  0  0  0  0  0  0  0  0  0  0
    2.0992   -1.0967    0.5569 H   0  0  0  0  0  0  0  0  0  0  0  0
    2.6656   -0.4888    2.5186 C   0  0  0  0  0  0  0  0  0  0  0  0
    1.9612   -0.7351    3.3160 H   0  0  0  0  0  0  0  0  0  0  0  0
    3.4284   -1.2656    2.4578 H   0  0  0  0  0  0  0  0  0  0  0  0
    3.1387    0.4663    2.7572 H   0  0  0  0  0  0  0  0  0  0  0  0
  5  6  2  0  0  0  0
  5  7  1  0  0  0  0
  2  3  1  0  0  0  0
  2  4  1  0  0  0  0
  2  5  1  0  0  0  0
  1  2  1  0  0  0  0
 19 20  2  0  0  0  0
 19 21  1  0  0  0  0
 17 18  1  0  0  0  0
 17 19  1  0  0  0  0
 14 15  1  0  0  0  0
 14 16  1  0  0  0  0
 14 17  1  0  0  0  0
 11 12  1  0  0  0  0
 11 13  1  0  0  0  0
 11 14  1  0  0  0  0
  8  9  1  0  0  0  0
  8 10  1  0  0  0  0
  8 11  1  0  0  0  0
  7  8  1  0  0  0  0
  7 17  1  0  0  0  0
 23 24  1  0  0  0  0
 23 25  1  0  0  0  0
 23 26  1  0  0  0  0
 21 22  1  0  0  0  0
 21 23  1  0  0  0  0
M  END
$$$$
default_name
  -OEChem-11182114113D

 26 26  0     1  0  0  0  0  0999 V2000
   -1.8446   -3.5060   -0.3010 H   0  0  0  0  0  0  0  0  0  0  0  0
   -2.0746   -2.4490   -0.4240 C   0  0  0  0  0  0  0  0  0  0  0  0
   -2.6906   -2.1160    0.4090 H   0  0  0  0  0  0  0  0  0  0  0  0
   -2.5986   -2.2980   -1.3650 H   0  0  0  0  0  0  0  0  0  0  0  0
   -0.7756   -1.6630   -0.4350 C   0  0  0  0  0  0  0  0  0  0  0  0
    0.2844   -2.2800   -0.4550 O   0  0  0  0  0  0  0  0  0  0  0  0
   -0.8246   -0.3180   -0.4350 N   0  0  0  0  0  0  0  0  0  0  0  0
   -2.0106    0.5080   -0.5910 C   0  0  0  0  0  0  0  0  0  0  0  0
   -2.7102    0.2610    0.2092 H   0  0  0  0  0  0  0  0  0  0  0  0
   -2.4752    0.3502   -1.5637 H   0  0  0  0  0  0  0  0  0  0  0  0
   -1.5591    1.9610   -0.4589 C   0  0  0  0  0  0  0  0  0  0  0  0
   -1.6985    2.3268    0.5595 H   0  0  0  0  0  0  0  0  0  0  0  0
   -2.1133    2.5741   -1.1702 H   0  0  0  0  0  0  0  0  0  0  0  0
   -0.0827    1.9176   -0.8529 C   0  0  0  0  0  0  0  0  0  0  0  0
    0.4553    2.6916   -0.3019 H   0  0  0  0  0  0  0  0  0  0  0  0
    0.0515    2.0571   -1.9255 H   0  0  0  0  0  0  0  0  0  0  0  0
    0.3724    0.5200   -0.4020 C   0  0  1  0  0  0  0  0  0  0  0  0
    1.0855    0.1292   -1.1282 H   0  0  0  0  0  0  0  0  0  0  0  0
    1.0225    0.5498    0.9914 C   0  0  0  0  0  0  0  0  0  0  0  0
    0.5369    1.2318    1.8916 O   0  0  0  0  0  0  0  0  0  0  0  0
    2.1450   -0.1610    1.1538 N   0  0  0  0  0  0  0  0  0  0  0  0
    2.4469   -0.7405    0.3870 H   0  0  0  0  0  0  0  0  0  0  0  0
    2.8905   -0.2338    2.4082 C   0  0  0  0  0  0  0  0  0  0  0  0
    2.2779   -0.7239    3.1680 H   0  0  0  0  0  0  0  0  0  0  0  0
    3.8128   -0.7984    2.2685 H   0  0  0  0  0  0  0  0  0  0  0  0
    3.1310    0.7738    2.7542 H   0  0  0  0  0  0  0  0  0  0  0  0
  5  6  2  0  0  0  0
  5  7  1  0  0  0  0
  2  3  1  0  0  0  0
  2  4  1  0  0  0  0
  2  5  1  0  0  0  0
  1  2  1  0  0  0  0
 19 20  2  0  0  0  0
 19 21  1  0  0  0  0
 17 18  1  0  0  0  0
 17 19  1  0  0  0  0
 14 15  1  0  0  0  0
 14 16  1  0  0  0  0
 14 17  1  0  0  0  0
 11 12  1  0  0  0  0
 11 13  1  0  0  0  0
 11 14  1  0  0  0  0
  8  9  1  0  0  0  0
  8 10  1  0  0  0  0
  8 11  1  0  0  0  0
  7  8  1  0  0  0  0
  7 17  1  0  0  0  0
 23 24  1  0  0  0  0
 23 25  1  0  0  0  0
 23 26  1  0  0  0  0
 21 22  1  0  0  0  0
 21 23  1  0  0  0  0
M  END
$$$$
default_name
  -OEChem-11182114113D

 26 26  0     1  0  0  0  0  0999 V2000
   -1.8446   -3.5060   -0.3010 H   0  0  0  0  0  0  0  0  0  0  0  0
   -2.0746   -2.4490   -0.4240 C   0  0  0  0  0  0  0  0  0  0  0  0
   -2.6906   -2.1160    0.4090 H   0  0  0  0  0  0  0  0  0  0  0  0
   -2.5986   -2.2980   -1.3650 H   0  0  0  0  0  0  0  0  0  0  0  0
   -0.7756   -1.6630   -0.4350 C   0  0  0  0  0  0  0  0  0  0  0  0
    0.2844   -2.2800   -0.4550 O   0  0  0  0  0  0  0  0  0  0  0  0
   -0.8246   -0.3180   -0.4350 N   0  0  0  0  0  0  0  0  0  0  0  0
   -2.0106    0.5080   -0.5910 C   0  0  0  0  0  0  0  0  0  0  0  0
   -2.7102    0.2610    0.2092 H   0  0  0  0  0  0  0  0  0  0  0  0
   -2.4752    0.3502   -1.5637 H   0  0  0  0  0  0  0  0  0  0  0  0
   -1.5591    1.9610   -0.4589 C   0  0  0  0  0  0  0  0  0  0  0  0
   -1.6985    2.3268    0.5595 H   0  0  0  0  0  0  0  0  0  0  0  0
   -2.1133    2.5741   -1.1702 H   0  0  0  0  0  0  0  0  0  0  0  0
   -0.0827    1.9176   -0.8529 C   0  0  0  0  0  0  0  0  0  0  0  0
    0.4553    2.6916   -0.3019 H   0  0  0  0  0  0  0  0  0  0  0  0
    0.0515    2.0571   -1.9255 H   0  0  0  0  0  0  0  0  0  0  0  0
    0.3724    0.5200   -0.4020 C   0  0  1  0  0  0  0  0  0  0  0  0
    1.0855    0.1292   -1.1282 H   0  0  0  0  0  0  0  0  0  0  0  0
    1.0225    0.5498    0.9914 C   0  0  0  0  0  0  0  0  0  0  0  0
    0.4070    0.9966    1.9573 O   0  0  0  0  0  0  0  0  0  0  0  0
    2.2830    0.1091    1.0836 N   0  0  0  0  0  0  0  0  0  0  0  0
    2.6983   -0.2964    0.2602 H   0  0  0  0  0  0  0  0  0  0  0  0
    3.0473    0.0773    2.3283 C   0  0  0  0  0  0  0  0  0  0  0  0
    2.5805   -0.6227    3.0246 H   0  0  0  0  0  0  0  0  0  0  0  0
    4.0736   -0.2364    2.1348 H   0  0  0  0  0  0  0  0  0  0  0  0
    3.0514    1.0694    2.7850 H   0  0  0  0  0  0  0  0  0  0  0  0
  5  6  2  0  0  0  0
  5  7  1  0  0  0  0
  2  3  1  0  0  0  0
  2  4  1  0  0  0  0
  2  5  1  0  0  0  0
  1  2  1  0  0  0  0
 19 20  2  0  0  0  0
 19 21  1  0  0  0  0
 17 18  1  0  0  0  0
 17 19  1  0  0  0  0
 14 15  1  0  0  0  0
 14 16  1  0  0  0  0
 14 17  1  0  0  0  0
 11 12  1  0  0  0  0
 11 13  1  0  0  0  0
 11 14  1  0  0  0  0
  8  9  1  0  0  0  0
  8 10  1  0  0  0  0
  8 11  1  0  0  0  0
  7  8  1  0  0  0  0
  7 17  1  0  0  0  0
 23 24  1  0  0  0  0
 23 25  1  0  0  0  0
 23 26  1  0  0  0  0
 21 22  1  0  0  0  0
 21 23  1  0  0  0  0
M  END
$$$$
default_name
  -OEChem-11182114113D

 26 26  0     1  0  0  0  0  0999 V2000
   -1.8446   -3.5060   -0.3010 H   0  0  0  0  0  0  0  0  0  0  0  0
   -2.0746   -2.4490   -0.4240 C   0  0  0  0  0  0  0  0  0  0  0  0
   -2.6906   -2.1160    0.4090 H   0  0  0  0  0  0  0  0  0  0  0  0
   -2.5986   -2.2980   -1.3650 H   0  0  0  0  0  0  0  0  0  0  0  0
   -0.7756   -1.6630   -0.4350 C   0  0  0  0  0  0  0  0  0  0  0  0
    0.2844   -2.2800   -0.4550 O   0  0  0  0  0  0  0  0  0  0  0  0
   -0.8246   -0.3180   -0.4350 N   0  0  0  0  0  0  0  0  0  0  0  0
   -2.0106    0.5080   -0.5910 C   0  0  0  0  0  0  0  0  0  0  0  0
   -2.7102    0.2610    0.2092 H   0  0  0  0  0  0  0  0  0  0  0  0
   -2.4752    0.3502   -1.5637 H   0  0  0  0  0  0  0  0  0  0  0  0
   -1.5591    1.9610   -0.4589 C   0  0  0  0  0  0  0  0  0  0  0  0
   -1.6985    2.3268    0.5595 H   0  0  0  0  0  0  0  0  0  0  0  0
   -2.1133    2.5741   -1.1702 H   0  0  0  0  0  0  0  0  0  0  0  0
   -0.0827    1.9176   -0.8529 C   0  0  0  0  0  0  0  0  0  0  0  0
    0.4553    2.6916   -0.3019 H   0  0  0  0  0  0  0  0  0  0  0  0
    0.0515    2.0571   -1.9255 H   0  0  0  0  0  0  0  0  0  0  0  0
    0.3724    0.5200   -0.4020 C   0  0  1  0  0  0  0  0  0  0  0  0
    1.0855    0.1292   -1.1282 H   0  0  0  0  0  0  0  0  0  0  0  0
    1.0225    0.5498    0.9914 C   0  0  0  0  0  0  0  0  0  0  0  0
    0.3371    0.7318    1.9956 O   0  0  0  0  0  0  0  0  0  0  0  0
    2.3526    0.4100    1.0447 N   0  0  0  0  0  0  0  0  0  0  0  0
    2.8364    0.2054    0.1850 H   0  0  0  0  0  0  0  0  0  0  0  0
    3.1255    0.4233    2.2844 C   0  0  0  0  0  0  0  0  0  0  0  0
    2.8482   -0.4382    2.8957 H   0  0  0  0  0  0  0  0  0  0  0  0
    4.1930    0.3824    2.0658 H   0  0  0  0  0  0  0  0  0  0  0  0
    2.9054    1.3329    2.8475 H   0  0  0  0  0  0  0  0  0  0  0  0
  5  6  2  0  0  0  0
  5  7  1  0  0  0  0
  2  3  1  0  0  0  0
  2  4  1  0  0  0  0
  2  5  1  0  0  0  0
  1  2  1  0  0  0  0
 19 20  2  0  0  0  0
 19 21  1  0  0  0  0
 17 18  1  0  0  0  0
 17 19  1  0  0  0  0
 14 15  1  0  0  0  0
 14 16  1  0  0  0  0
 14 17  1  0  0  0  0
 11 12  1  0  0  0  0
 11 13  1  0  0  0  0
 11 14  1  0  0  0  0
  8  9  1  0  0  0  0
  8 10  1  0  0  0  0
  8 11  1  0  0  0  0
  7  8  1  0  0  0  0
  7 17  1  0  0  0  0
 23 24  1  0  0  0  0
 23 25  1  0  0  0  0
 23 26  1  0  0  0  0
 21 22  1  0  0  0  0
 21 23  1  0  0  0  0
M  END
$$$$
default_name
  -OEChem-11182114113D

 26 26  0     1  0  0  0  0  0999 V2000
   -1.8446   -3.5060   -0.3010 H   0  0  0  0  0  0  0  0  0  0  0  0
   -2.0746   -2.4490   -0.4240 C   0  0  0  0  0  0  0  0  0  0  0  0
   -2.6906   -2.1160    0.4090 H   0  0  0  0  0  0  0  0  0  0  0  0
   -2.5986   -2.2980   -1.3650 H   0  0  0  0  0  0  0  0  0  0  0  0
   -0.7756   -1.6630   -0.4350 C   0  0  0  0  0  0  0  0  0  0  0  0
    0.2844   -2.2800   -0.4550 O   0  0  0  0  0  0  0  0  0  0  0  0
   -0.8246   -0.3180   -0.4350 N   0  0  0  0  0  0  0  0  0  0  0  0
   -2.0106    0.5080   -0.5910 C   0  0  0  0  0  0  0  0  0  0  0  0
   -2.7102    0.2610    0.2092 H   0  0  0  0  0  0  0  0  0  0  0  0
   -2.4752    0.3502   -1.5637 H   0  0  0  0  0  0  0  0  0  0  0  0
   -1.5591    1.9610   -0.4589 C   0  0  0  0  0  0  0  0  0  0  0  0
   -1.6985    2.3268    0.5595 H   0  0  0  0  0  0  0  0  0  0  0  0
   -2.1133    2.5741   -1.1702 H   0  0  0  0  0  0  0  0  0  0  0  0
   -0.0827    1.9176   -0.8529 C   0  0  0  0  0  0  0  0  0  0  0  0
    0.4553    2.6916   -0.3019 H   0  0  0  0  0  0  0  0  0  0  0  0
    0.0515    2.0571   -1.9255 H   0  0  0  0  0  0  0  0  0  0  0  0
    0.3724    0.5200   -0.4020 C   0  0  1  0  0  0  0  0  0  0  0  0
    1.0855    0.1292   -1.1282 H   0  0  0  0  0  0  0  0  0  0  0  0
    1.0225    0.5498    0.9914 C   0  0  0  0  0  0  0  0  0  0  0  0
    0.3318    0.4554    2.0040 O   0  0  0  0  0  0  0  0  0  0  0  0
    2.3491    0.7213    1.0396 N   0  0  0  0  0  0  0  0  0  0  0  0
    2.8518    0.7308    0.1666 H   0  0  0  0  0  0  0  0  0  0  0  0
    3.1197    0.7806    2.2795 C   0  0  0  0  0  0  0  0  0  0  0  0
    3.0630   -0.1831    2.7901 H   0  0  0  0  0  0  0  0  0  0  0  0
    4.1630    1.0155    2.0663 H   0  0  0  0  0  0  0  0  0  0  0  0
    2.7028    1.5463    2.9375 H   0  0  0  0  0  0  0  0  0  0  0  0
  5  6  2  0  0  0  0
  5  7  1  0  0  0  0
  2  3  1  0  0  0  0
  2  4  1  0  0  0  0
  2  5  1  0  0  0  0
  1  2  1  0  0  0  0
 19 20  2  0  0  0  0
 19 21  1  0  0  0  0
 17 18  1  0  0  0  0
 17 19  1  0  0  0  0
 14 15  1  0  0  0  0
 14 16  1  0  0  0  0
 14 17  1  0  0  0  0
 11 12  1  0  0  0  0
 11 13  1  0  0  0  0
 11 14  1  0  0  0  0
  8  9  1  0  0  0  0
  8 10  1  0  0  0  0
  8 11  1  0  0  0  0
  7  8  1  0  0  0  0
  7 17  1  0  0  0  0
 23 24  1  0  0  0  0
 23 25  1  0  0  0  0
 23 26  1  0  0  0  0
 21 22  1  0  0  0  0
 21 23  1  0  0  0  0
M  END
$$$$
default_name
  -OEChem-11182114113D

 26 26  0     1  0  0  0  0  0999 V2000
   -1.8446   -3.5060   -0.3010 H   0  0  0  0  0  0  0  0  0  0  0  0
   -2.0746   -2.4490   -0.4240 C   0  0  0  0  0  0  0  0  0  0  0  0
   -2.6906   -2.1160    0.4090 H   0  0  0  0  0  0  0  0  0  0  0  0
   -2.5986   -2.2980   -1.3650 H   0  0  0  0  0  0  0  0  0  0  0  0
   -0.7756   -1.6630   -0.4350 C   0  0  0  0  0  0  0  0  0  0  0  0
    0.2844   -2.2800   -0.4550 O   0  0  0  0  0  0  0  0  0  0  0  0
   -0.8246   -0.3180   -0.4350 N   0  0  0  0  0  0  0  0  0  0  0  0
   -2.0106    0.5080   -0.5910 C   0  0  0  0  0  0  0  0  0  0  0  0
   -2.7102    0.2610    0.2092 H   0  0  0  0  0  0  0  0  0  0  0  0
   -2.4752    0.3502   -1.5637 H   0  0  0  0  0  0  0  0  0  0  0  0
   -1.5591    1.9610   -0.4589 C   0  0  0  0  0  0  0  0  0  0  0  0
   -1.6985    2.3268    0.5595 H   0  0  0  0  0  0  0  0  0  0  0  0
   -2.1133    2.5741   -1.1702 H   0  0  0  0  0  0  0  0  0  0  0  0
   -0.0827    1.9176   -0.8529 C   0  0  0  0  0  0  0  0  0  0  0  0
    0.4553    2.6916   -0.3019 H   0  0  0  0  0  0  0  0  0  0  0  0
    0.0515    2.0571   -1.9255 H   0  0  0  0  0  0  0  0  0  0  0  0
    0.3724    0.5200   -0.4020 C   0  0  1  0  0  0  0  0  0  0  0  0
    1.0855    0.1292   -1.1282 H   0  0  0  0  0  0  0  0  0  0  0  0
    1.0225    0.5498    0.9914 C   0  0  0  0  0  0  0  0  0  0  0  0
    0.3916    0.1863    1.9819 O   0  0  0  0  0  0  0  0  0  0  0  0
    2.2727    1.0217    1.0689 N   0  0  0  0  0  0  0  0  0  0  0  0
    2.7433    1.2438    0.2062 H   0  0  0  0  0  0  0  0  0  0  0  0
    3.0302    1.1250    2.3139 C   0  0  0  0  0  0  0  0  0  0  0  0
    3.2101    0.1252    2.7148 H   0  0  0  0  0  0  0  0  0  0  0  0
    3.9854    1.6200    2.1361 H   0  0  0  0  0  0  0  0  0  0  0  0
    2.4576    1.6951    3.0487 H   0  0  0  0  0  0  0  0  0  0  0  0
  5  6  2  0  0  0  0
  5  7  1  0  0  0  0
  2  3  1  0  0  0  0
  2  4  1  0  0  0  0
  2  5  1  0  0  0  0
  1  2  1  0  0  0  0
 19 20  2  0  0  0  0
 19 21  1  0  0  0  0
 17 18  1  0  0  0  0
 17 19  1  0  0  0  0
 14 15  1  0  0  0  0
 14 16  1  0  0  0  0
 14 17  1  0  0  0  0
 11 12  1  0  0  0  0
 11 13  1  0  0  0  0
 11 14  1  0  0  0  0
  8  9  1  0  0  0  0
  8 10  1  0  0  0  0
  8 11  1  0  0  0  0
  7  8  1  0  0  0  0
  7 17  1  0  0  0  0
 23 24  1  0  0  0  0
 23 25  1  0  0  0  0
 23 26  1  0  0  0  0
 21 22  1  0  0  0  0
 21 23  1  0  0  0  0
M  END
$$$$
default_name
  -OEChem-11182114113D

 26 26  0     1  0  0  0  0  0999 V2000
   -1.8446   -3.5060   -0.3010 H   0  0  0  0  0  0  0  0  0  0  0  0
   -2.0746   -2.4490   -0.4240 C   0  0  0  0  0  0  0  0  0  0  0  0
   -2.6906   -2.1160    0.4090 H   0  0  0  0  0  0  0  0  0  0  0  0
   -2.5986   -2.2980   -1.3650 H   0  0  0  0  0  0  0  0  0  0  0  0
   -0.7756   -1.6630   -0.4350 C   0  0  0  0  0  0  0  0  0  0  0  0
    0.2844   -2.2800   -0.4550 O   0  0  0  0  0  0  0  0  0  0  0  0
   -0.8246   -0.3180   -0.4350 N   0  0  0  0  0  0  0  0  0  0  0  0
   -2.0106    0.5080   -0.5910 C   0  0  0  0  0  0  0  0  0  0  0  0
   -2.8794    0.0924   -0.0778 H   0  0  0  0  0  0  0  0  0  0  0  0
   -2.2658    0.7721   -1.6167 H   0  0  0  0  0  0  0  0  0  0  0  0
   -1.5055    1.7417    0.1542 C   0  0  0  0  0  0  0  0  0  0  0  0
   -1.4385    1.5656    1.2289 H   0  0  0  0  0  0  0  0  0  0  0  0
   -2.1554    2.5907   -0.0597 H   0  0  0  0  0  0  0  0  0  0  0  0
   -0.1306    1.9711   -0.4735 C   0  0  0  0  0  0  0  0  0  0  0  0
    0.4913    2.6226    0.1437 H   0  0  0  0  0  0  0  0  0  0  0  0
   -0.1563    2.3372   -1.4997 H   0  0  0  0  0  0  0  0  0  0  0  0
    0.3724    0.5200   -0.4020 C   0  0  1  0  0  0  0  0  0  0  0  0
    0.9653    0.3073   -1.2918 H   0  0  0  0  0  0  0  0  0  0  0  0
    1.2232    0.2686    0.8542 C   0  0  0  0  0  0  0  0  0  0  0  0
    0.8525   -0.5345    1.7080 O   0  0  0  0  0  0  0  0  0  0  0  0
    2.3451    0.9873    0.9823 N   0  0  0  0  0  0  0  0  0  0  0  0
    2.6112    1.5805    0.2128 H   0  0  0  0  0  0  0  0  0  0  0  0
    3.2599    0.8768    2.1161 C   0  0  0  0  0  0  0  0  0  0  0  0
    3.7049   -0.1204    2.1293 H   0  0  0  0  0  0  0  0  0  0  0  0
    4.0504    1.6240    2.0392 H   0  0  0  0  0  0  0  0  0  0  0  0
    2.7116    1.0239    3.0492 H   0  0  0  0  0  0  0  0  0  0  0  0
  5  6  2  0  0  0  0
  5  7  1  0  0  0  0
  2  3  1  0  0  0  0
  2  4  1  0  0  0  0
  2  5  1  0  0  0  0
  1  2  1  0  0  0  0
 19 20  2  0  0  0  0
 19 21  1  0  0  0  0
 17 18  1  0  0  0  0
 17 19  1  0  0  0  0
 14 15  1  0  0  0  0
 14 16  1  0  0  0  0
 14 17  1  0  0  0  0
 11 12  1  0  0  0  0
 11 13  1  0  0  0  0
 11 14  1  0  0  0  0
  8  9  1  0  0  0  0
  8 10  1  0  0  0  0
  8 11  1  0  0  0  0
  7  8  1  0  0  0  0
  7 17  1  0  0  0  0
 23 24  1  0  0  0  0
 23 25  1  0  0  0  0
 23 26  1  0  0  0  0
 21 22  1  0  0  0  0
 21 23  1  0  0  0  0
M  END
$$$$
default_name
  -OEChem-11182114113D

 26 26  0     1  0  0  0  0  0999 V2000
   -1.8446   -3.5060   -0.3010 H   0  0  0  0  0  0  0  0  0  0  0  0
   -2.0746   -2.4490   -0.4240 C   0  0  0  0  0  0  0  0  0  0  0  0
   -2.6906   -2.1160    0.4090 H   0  0  0  0  0  0  0  0  0  0  0  0
   -2.5986   -2.2980   -1.3650 H   0  0  0  0  0  0  0  0  0  0  0  0
   -0.7756   -1.6630   -0.4350 C   0  0  0  0  0  0  0  0  0  0  0  0
    0.2844   -2.2800   -0.4550 O   0  0  0  0  0  0  0  0  0  0  0  0
   -0.8246   -0.3180   -0.4350 N   0  0  0  0  0  0  0  0  0  0  0  0
   -2.0106    0.5080   -0.5910 C   0  0  0  0  0  0  0  0  0  0  0  0
   -2.8794    0.0924   -0.0778 H   0  0  0  0  0  0  0  0  0  0  0  0
   -2.2658    0.7721   -1.6167 H   0  0  0  0  0  0  0  0  0  0  0  0
   -1.5055    1.7417    0.1542 C   0  0  0  0  0  0  0  0  0  0  0  0
   -1.4385    1.5656    1.2289 H   0  0  0  0  0  0  0  0  0  0  0  0
   -2.1554    2.5907   -0.0597 H   0  0  0  0  0  0  0  0  0  0  0  0
   -0.1306    1.9711   -0.4735 C   0  0  0  0  0  0  0  0  0  0  0  0
    0.4913    2.6226    0.1437 H   0  0  0  0  0  0  0  0  0  0  0  0
   -0.1563    2.3372   -1.4997 H   0  0  0  0  0  0  0  0  0  0  0  0
    0.3724    0.5200   -0.4020 C   0  0  1  0  0  0  0  0  0  0  0  0
    0.9653    0.3073   -1.2918 H   0  0  0  0  0  0  0  0  0  0  0  0
    1.2232    0.2686    0.8542 C   0  0  0  0  0  0  0  0  0  0  0  0
    1.0105   -0.7112    1.5656 O   0  0  0  0  0  0  0  0  0  0  0  0
    2.1610    1.1783    1.1452 N   0  0  0  0  0  0  0  0  0  0  0  0
    2.3142    1.9210    0.4821 H   0  0  0  0  0  0  0  0  0  0  0  0
    3.0473    1.0946    2.3036 C   0  0  0  0  0  0  0  0  0  0  0  0
    3.6953    0.2211    2.2041 H   0  0  0  0  0  0  0  0  0  0  0  0
    3.6610    1.9930    2.3768 H   0  0  0  0  0  0  0  0  0  0  0  0
    2.4553    0.9846    3.2149 H   0  0  0  0  0  0  0  0  0  0  0  0
  5  6  2  0  0  0  0
  5  7  1  0  0  0  0
  2  3  1  0  0  0  0
  2  4  1  0  0  0  0
  2  5  1  0  0  0  0
  1  2  1  0  0  0  0
 19 20  2  0  0  0  0
 19 21  1  0  0  0  0
 17 18  1  0  0  0  0
 17 19  1  0  0  0  0
 14 15  1  0  0  0  0
 14 16  1  0  0  0  0
 14 17  1  0  0  0  0
 11 12  1  0  0  0  0
 11 13  1  0  0  0  0
 11 14  1  0  0  0  0
  8  9  1  0  0  0  0
  8 10  1  0  0  0  0
  8 11  1  0  0  0  0
  7  8  1  0  0  0  0
  7 17  1  0  0  0  0
 23 24  1  0  0  0  0
 23 25  1  0  0  0  0
 23 26  1  0  0  0  0
 21 22  1  0  0  0  0
 21 23  1  0  0  0  0
M  END
$$$$
default_name
  -OEChem-11182114113D

 26 26  0     1  0  0  0  0  0999 V2000
   -1.8446   -3.5060   -0.3010 H   0  0  0  0  0  0  0  0  0  0  0  0
   -2.0746   -2.4490   -0.4240 C   0  0  0  0  0  0  0  0  0  0  0  0
   -2.6906   -2.1160    0.4090 H   0  0  0  0  0  0  0  0  0  0  0  0
   -2.5986   -2.2980   -1.3650 H   0  0  0  0  0  0  0  0  0  0  0  0
   -0.7756   -1.6630   -0.4350 C   0  0  0  0  0  0  0  0  0  0  0  0
    0.2844   -2.2800   -0.4550 O   0  0  0  0  0  0  0  0  0  0  0  0
   -0.8246   -0.3180   -0.4350 N   0  0  0  0  0  0  0  0  0  0  0  0
   -2.0106    0.5080   -0.5910 C   0  0  0  0  0  0  0  0  0  0  0  0
   -2.8794    0.0924   -0.0778 H   0  0  0  0  0  0  0  0  0  0  0  0
   -2.2658    0.7721   -1.6167 H   0  0  0  0  0  0  0  0  0  0  0  0
   -1.5055    1.7417    0.1542 C   0  0  0  0  0  0  0  0  0  0  0  0
   -1.4385    1.5656    1.2289 H   0  0  0  0  0  0  0  0  0  0  0  0
   -2.1554    2.5907   -0.0597 H   0  0  0  0  0  0  0  0  0  0  0  0
   -0.1306    1.9711   -0.4735 C   0  0  0  0  0  0  0  0  0  0  0  0
    0.4913    2.6226    0.1437 H   0  0  0  0  0  0  0  0  0  0  0  0
   -0.1563    2.3372   -1.4997 H   0  0  0  0  0  0  0  0  0  0  0  0
    0.3724    0.5200   -0.4020 C   0  0  1  0  0  0  0  0  0  0  0  0
    0.9653    0.3073   -1.2918 H   0  0  0  0  0  0  0  0  0  0  0  0
    1.2232    0.2686    0.8542 C   0  0  0  0  0  0  0  0  0  0  0  0
    1.2066   -0.8281    1.4094 O   0  0  0  0  0  0  0  0  0  0  0  0
    1.9359    1.3005    1.3222 N   0  0  0  0  0  0  0  0  0  0  0  0
    1.9440    2.1484    0.7783 H   0  0  0  0  0  0  0  0  0  0  0  0
    2.7880    1.2331    2.5070 C   0  0  0  0  0  0  0  0  0  0  0  0
    3.6107    0.5383    2.3249 H   0  0  0  0  0  0  0  0  0  0  0  0
    3.1925    2.2187    2.7393 H   0  0  0  0  0  0  0  0  0  0  0  0
    2.2091    0.8688    3.3585 H   0  0  0  0  0  0  0  0  0  0  0  0
  5  6  2  0  0  0  0
  5  7  1  0  0  0  0
  2  3  1  0  0  0  0
  2  4  1  0  0  0  0
  2  5  1  0  0  0  0
  1  2  1  0  0  0  0
 19 20  2  0  0  0  0
 19 21  1  0  0  0  0
 17 18  1  0  0  0  0
 17 19  1  0  0  0  0
 14 15  1  0  0  0  0
 14 16  1  0  0  0  0
 14 17  1  0  0  0  0
 11 12  1  0  0  0  0
 11 13  1  0  0  0  0
 11 14  1  0  0  0  0
  8  9  1  0  0  0  0
  8 10  1  0  0  0  0
  8 11  1  0  0  0  0
  7  8  1  0  0  0  0
  7 17  1  0  0  0  0
 23 24  1  0  0  0  0
 23 25  1  0  0  0  0
 23 26  1  0  0  0  0
 21 22  1  0  0  0  0
 21 23  1  0  0  0  0
M  END
$$$$
default_name
  -OEChem-11182114113D

 26 26  0     1  0  0  0  0  0999 V2000
   -1.8446   -3.5060   -0.3010 H   0  0  0  0  0  0  0  0  0  0  0  0
   -2.0746   -2.4490   -0.4240 C   0  0  0  0  0  0  0  0  0  0  0  0
   -2.6906   -2.1160    0.4090 H   0  0  0  0  0  0  0  0  0  0  0  0
   -2.5986   -2.2980   -1.3650 H   0  0  0  0  0  0  0  0  0  0  0  0
   -0.7756   -1.6630   -0.4350 C   0  0  0  0  0  0  0  0  0  0  0  0
    0.2844   -2.2800   -0.4550 O   0  0  0  0  0  0  0  0  0  0  0  0
   -0.8246   -0.3180   -0.4350 N   0  0  0  0  0  0  0  0  0  0  0  0
   -2.0106    0.5080   -0.5910 C   0  0  0  0  0  0  0  0  0  0  0  0
   -2.8794    0.0924   -0.0778 H   0  0  0  0  0  0  0  0  0  0  0  0
   -2.2658    0.7721   -1.6167 H   0  0  0  0  0  0  0  0  0  0  0  0
   -1.5055    1.7417    0.1542 C   0  0  0  0  0  0  0  0  0  0  0  0
   -1.4385    1.5656    1.2289 H   0  0  0  0  0  0  0  0  0  0  0  0
   -2.1554    2.5907   -0.0597 H   0  0  0  0  0  0  0  0  0  0  0  0
   -0.1306    1.9711   -0.4735 C   0  0  0  0  0  0  0  0  0  0  0  0
    0.4913    2.6226    0.1437 H   0  0  0  0  0  0  0  0  0  0  0  0
   -0.1563    2.3372   -1.4997 H   0  0  0  0  0  0  0  0  0  0  0  0
    0.3724    0.5200   -0.4020 C   0  0  1  0  0  0  0  0  0  0  0  0
    0.9653    0.3073   -1.2918 H   0  0  0  0  0  0  0  0  0  0  0  0
    1.2232    0.2686    0.8542 C   0  0  0  0  0  0  0  0  0  0  0  0
    1.4273   -0.8772    1.2501 O   0  0  0  0  0  0  0  0  0  0  0  0
    1.6851    1.3456    1.5010 N   0  0  0  0  0  0  0  0  0  0  0  0
    1.5258    2.2475    1.0814 H   0  0  0  0  0  0  0  0  0  0  0  0
    2.4997    1.2829    2.7122 C   0  0  0  0  0  0  0  0  0  0  0  0
    3.4569    0.8095    2.4833 H   0  0  0  0  0  0  0  0  0  0  0  0
    2.6769    2.2859    3.1019 H   0  0  0  0  0  0  0  0  0  0  0  0
    1.9897    0.6844    3.4702 H   0  0  0  0  0  0  0  0  0  0  0  0
  5  6  2  0  0  0  0
  5  7  1  0  0  0  0
  2  3  1  0  0  0  0
  2  4  1  0  0  0  0
  2  5  1  0  0  0  0
  1  2  1  0  0  0  0
 19 20  2  0  0  0  0
 19 21  1  0  0  0  0
 17 18  1  0  0  0  0
 17 19  1  0  0  0  0
 14 15  1  0  0  0  0
 14 16  1  0  0  0  0
 14 17  1  0  0  0  0
 11 12  1  0  0  0  0
 11 13  1  0  0  0  0
 11 14  1  0  0  0  0
  8  9  1  0  0  0  0
  8 10  1  0  0  0  0
  8 11  1  0  0  0  0
  7  8  1  0  0  0  0
  7 17  1  0  0  0  0
 23 24  1  0  0  0  0
 23 25  1  0  0  0  0
 23 26  1  0  0  0  0
 21 22  1  0  0  0  0
 21 23  1  0  0  0  0
M  END
$$$$
default_name
  -OEChem-11182114113D

 26 26  0     1  0  0  0  0  0999 V2000
   -1.8446   -3.5060   -0.3010 H   0  0  0  0  0  0  0  0  0  0  0  0
   -2.0746   -2.4490   -0.4240 C   0  0  0  0  0  0  0  0  0  0  0  0
   -2.6906   -2.1160    0.4090 H   0  0  0  0  0  0  0  0  0  0  0  0
   -2.5986   -2.2980   -1.3650 H   0  0  0  0  0  0  0  0  0  0  0  0
   -0.7756   -1.6630   -0.4350 C   0  0  0  0  0  0  0  0  0  0  0  0
    0.2844   -2.2800   -0.4550 O   0  0  0  0  0  0  0  0  0  0  0  0
   -0.8246   -0.3180   -0.4350 N   0  0  0  0  0  0  0  0  0  0  0  0
   -2.0106    0.5080   -0.5910 C   0  0  0  0  0  0  0  0  0  0  0  0
   -2.8794    0.0924   -0.0778 H   0  0  0  0  0  0  0  0  0  0  0  0
   -2.2658    0.7721   -1.6167 H   0  0  0  0  0  0  0  0  0  0  0  0
   -1.5055    1.7417    0.1542 C   0  0  0  0  0  0  0  0  0  0  0  0
   -1.4385    1.5656    1.2289 H   0  0  0  0  0  0  0  0  0  0  0  0
   -2.1554    2.5907   -0.0597 H   0  0  0  0  0  0  0  0  0  0  0  0
   -0.1306    1.9711   -0.4735 C   0  0  0  0  0  0  0  0  0  0  0  0
    0.4913    2.6226    0.1437 H   0  0  0  0  0  0  0  0  0  0  0  0
   -0.1563    2.3372   -1.4997 H   0  0  0  0  0  0  0  0  0  0  0  0
    0.3724    0.5200   -0.4020 C   0  0  1  0  0  0  0  0  0  0  0  0
    0.9653    0.3073   -1.2918 H   0  0  0  0  0  0  0  0  0  0  0  0
    1.2232    0.2686    0.8542 C   0  0  0  0  0  0  0  0  0  0  0  0
    1.6576   -0.8552    1.0986 O   0  0  0  0  0  0  0  0  0  0  0  0
    1.4258    1.3106    1.6697 N   0  0  0  0  0  0  0  0  0  0  0  0
    1.0881    2.2114    1.3706 H   0  0  0  0  0  0  0  0  0  0  0  0
    2.2020    1.2407    2.9054 C   0  0  0  0  0  0  0  0  0  0  0  0
    3.2442    1.0163    2.6687 H   0  0  0  0  0  0  0  0  0  0  0  0
    2.1494    2.1898    3.4399 H   0  0  0  0  0  0  0  0  0  0  0  0
    1.8120    0.4438    3.5424 H   0  0  0  0  0  0  0  0  0  0  0  0
  5  6  2  0  0  0  0
  5  7  1  0  0  0  0
  2  3  1  0  0  0  0
  2  4  1  0  0  0  0
  2  5  1  0  0  0  0
  1  2  1  0  0  0  0
 19 20  2  0  0  0  0
 19 21  1  0  0  0  0
 17 18  1  0  0  0  0
 17 19  1  0  0  0  0
 14 15  1  0  0  0  0
 14 16  1  0  0  0  0
 14 17  1  0  0  0  0
 11 12  1  0  0  0  0
 11 13  1  0  0  0  0
 11 14  1  0  0  0  0
  8  9  1  0  0  0  0
  8 10  1  0  0  0  0
  8 11  1  0  0  0  0
  7  8  1  0  0  0  0
  7 17  1  0  0  0  0
 23 24  1  0  0  0  0
 23 25  1  0  0  0  0
 23 26  1  0  0  0  0
 21 22  1  0  0  0  0
 21 23  1  0  0  0  0
M  END
$$$$
default_name
  -OEChem-11182114113D

 26 26  0     1  0  0  0  0  0999 V2000
   -1.8446   -3.5060   -0.3010 H   0  0  0  0  0  0  0  0  0  0  0  0
   -2.0746   -2.4490   -0.4240 C   0  0  0  0  0  0  0  0  0  0  0  0
   -2.6906   -2.1160    0.4090 H   0  0  0  0  0  0  0  0  0  0  0  0
   -2.5986   -2.2980   -1.3650 H   0  0  0  0  0  0  0  0  0  0  0  0
   -0.7756   -1.6630   -0.4350 C   0  0  0  0  0  0  0  0  0  0  0  0
    0.2844   -2.2800   -0.4550 O   0  0  0  0  0  0  0  0  0  0  0  0
   -0.8246   -0.3180   -0.4350 N   0  0  0  0  0  0  0  0  0  0  0  0
   -2.0106    0.5080   -0.5910 C   0  0  0  0  0  0  0  0  0  0  0  0
   -2.8794    0.0924   -0.0778 H   0  0  0  0  0  0  0  0  0  0  0  0
   -2.2658    0.7721   -1.6167 H   0  0  0  0  0  0  0  0  0  0  0  0
   -1.5055    1.7417    0.1542 C   0  0  0  0  0  0  0  0  0  0  0  0
   -1.4385    1.5656    1.2289 H   0  0  0  0  0  0  0  0  0  0  0  0
   -2.1554    2.5907   -0.0597 H   0  0  0  0  0  0  0  0  0  0  0  0
   -0.1306    1.9711   -0.4735 C   0  0  0  0  0  0  0  0  0  0  0  0
    0.4913    2.6226    0.1437 H   0  0  0  0  0  0  0  0  0  0  0  0
   -0.1563    2.3372   -1.4997 H   0  0  0  0  0  0  0  0  0  0  0  0
    0.3724    0.5200   -0.4020 C   0  0  1  0  0  0  0  0  0  0  0  0
    0.9653    0.3073   -1.2918 H   0  0  0  0  0  0  0  0  0  0  0  0
    1.2232    0.2686    0.8542 C   0  0  0  0  0  0  0  0  0  0  0  0
    1.8818   -0.7635    0.9651 O   0  0  0  0  0  0  0  0  0  0  0  0
    1.1755    1.1977    1.8165 N   0  0  0  0  0  0  0  0  0  0  0  0
    0.6607    2.0425    1.6263 H   0  0  0  0  0  0  0  0  0  0  0  0
    1.9151    1.1094    3.0734 C   0  0  0  0  0  0  0  0  0  0  0  0
    2.9872    1.1444    2.8684 H   0  0  0  0  0  0  0  0  0  0  0  0
    1.6458    1.9370    3.7304 H   0  0  0  0  0  0  0  0  0  0  0  0
    1.6881    0.1635    3.5701 H   0  0  0  0  0  0  0  0  0  0  0  0
  5  6  2  0  0  0  0
  5  7  1  0  0  0  0
  2  3  1  0  0  0  0
  2  4  1  0  0  0  0
  2  5  1  0  0  0  0
  1  2  1  0  0  0  0
 19 20  2  0  0  0  0
 19 21  1  0  0  0  0
 17 18  1  0  0  0  0
 17 19  1  0  0  0  0
 14 15  1  0  0  0  0
 14 16  1  0  0  0  0
 14 17  1  0  0  0  0
 11 12  1  0  0  0  0
 11 13  1  0  0  0  0
 11 14  1  0  0  0  0
  8  9  1  0  0  0  0
  8 10  1  0  0  0  0
  8 11  1  0  0  0  0
  7  8  1  0  0  0  0
  7 17  1  0  0  0  0
 23 24  1  0  0  0  0
 23 25  1  0  0  0  0
 23 26  1  0  0  0  0
 21 22  1  0  0  0  0
 21 23  1  0  0  0  0
M  END
$$$$
default_name
  -OEChem-11182114113D

 26 26  0     1  0  0  0  0  0999 V2000
   -1.8446   -3.5060   -0.3010 H   0  0  0  0  0  0  0  0  0  0  0  0
   -2.0746   -2.4490   -0.4240 C   0  0  0  0  0  0  0  0  0  0  0  0
   -2.6906   -2.1160    0.4090 H   0  0  0  0  0  0  0  0  0  0  0  0
   -2.5986   -2.2980   -1.3650 H   0  0  0  0  0  0  0  0  0  0  0  0
   -0.7756   -1.6630   -0.4350 C   0  0  0  0  0  0  0  0  0  0  0  0
    0.2844   -2.2800   -0.4550 O   0  0  0  0  0  0  0  0  0  0  0  0
   -0.8246   -0.3180   -0.4350 N   0  0  0  0  0  0  0  0  0  0  0  0
   -2.0106    0.5080   -0.5910 C   0  0  0  0  0  0  0  0  0  0  0  0
   -2.8794    0.0924   -0.0778 H   0  0  0  0  0  0  0  0  0  0  0  0
   -2.2658    0.7721   -1.6167 H   0  0  0  0  0  0  0  0  0  0  0  0
   -1.5055    1.7417    0.1542 C   0  0  0  0  0  0  0  0  0  0  0  0
   -1.4385    1.5656    1.2289 H   0  0  0  0  0  0  0  0  0  0  0  0
   -2.1554    2.5907   -0.0597 H   0  0  0  0  0  0  0  0  0  0  0  0
   -0.1306    1.9711   -0.4735 C   0  0  0  0  0  0  0  0  0  0  0  0
    0.4913    2.6226    0.1437 H   0  0  0  0  0  0  0  0  0  0  0  0
   -0.1563    2.3372   -1.4997 H   0  0  0  0  0  0  0  0  0  0  0  0
    0.3724    0.5200   -0.4020 C   0  0  1  0  0  0  0  0  0  0  0  0
    0.9653    0.3073   -1.2918 H   0  0  0  0  0  0  0  0  0  0  0  0
    1.2232    0.2686    0.8542 C   0  0  0  0  0  0  0  0  0  0  0  0
    2.0846   -0.6084    0.8587 O   0  0  0  0  0  0  0  0  0  0  0  0
    0.9515    1.0148    1.9317 N   0  0  0  0  0  0  0  0  0  0  0  0
    0.2727    1.7524    1.8310 H   0  0  0  0  0  0  0  0  0  0  0  0
    1.6587    0.8978    3.2048 C   0  0  0  0  0  0  0  0  0  0  0  0
    2.7035    1.1853    3.0688 H   0  0  0  0  0  0  0  0  0  0  0  0
    1.2006    1.5448    3.9535 H   0  0  0  0  0  0  0  0  0  0  0  0
    1.6266   -0.1374    3.5516 H   0  0  0  0  0  0  0  0  0  0  0  0
  5  6  2  0  0  0  0
  5  7  1  0  0  0  0
  2  3  1  0  0  0  0
  2  4  1  0  0  0  0
  2  5  1  0  0  0  0
  1  2  1  0  0  0  0
 19 20  2  0  0  0  0
 19 21  1  0  0  0  0
 17 18  1  0  0  0  0
 17 19  1  0  0  0  0
 14 15  1  0  0  0  0
 14 16  1  0  0  0  0
 14 17  1  0  0  0  0
 11 12  1  0  0  0  0
 11 13  1  0  0  0  0
 11 14  1  0  0  0  0
  8  9  1  0  0  0  0
  8 10  1  0  0  0  0
  8 11  1  0  0  0  0
  7  8  1  0  0  0  0
  7 17  1  0  0  0  0
 23 24  1  0  0  0  0
 23 25  1  0  0  0  0
 23 26  1  0  0  0  0
 21 22  1  0  0  0  0
 21 23  1  0  0  0  0
M  END
$$$$
default_name
  -OEChem-11182114113D

 26 26  0     1  0  0  0  0  0999 V2000
   -1.8446   -3.5060   -0.3010 H   0  0  0  0  0  0  0  0  0  0  0  0
   -2.0746   -2.4490   -0.4240 C   0  0  0  0  0  0  0  0  0  0  0  0
   -2.6906   -2.1160    0.4090 H   0  0  0  0  0  0  0  0  0  0  0  0
   -2.5986   -2.2980   -1.3650 H   0  0  0  0  0  0  0  0  0  0  0  0
   -0.7756   -1.6630   -0.4350 C   0  0  0  0  0  0  0  0  0  0  0  0
    0.2844   -2.2800   -0.4550 O   0  0  0  0  0  0  0  0  0  0  0  0
   -0.8246   -0.3180   -0.4350 N   0  0  0  0  0  0  0  0  0  0  0  0
   -2.0106    0.5080   -0.5910 C   0  0  0  0  0  0  0  0  0  0  0  0
   -2.8794    0.0924   -0.0778 H   0  0  0  0  0  0  0  0  0  0  0  0
   -2.2658    0.7721   -1.6167 H   0  0  0  0  0  0  0  0  0  0  0  0
   -1.5055    1.7417    0.1542 C   0  0  0  0  0  0  0  0  0  0  0  0
   -1.4385    1.5656    1.2289 H   0  0  0  0  0  0  0  0  0  0  0  0
   -2.1554    2.5907   -0.0597 H   0  0  0  0  0  0  0  0  0  0  0  0
   -0.1306    1.9711   -0.4735 C   0  0  0  0  0  0  0  0  0  0  0  0
    0.4913    2.6226    0.1437 H   0  0  0  0  0  0  0  0  0  0  0  0
   -0.1563    2.3372   -1.4997 H   0  0  0  0  0  0  0  0  0  0  0  0
    0.3724    0.5200   -0.4020 C   0  0  1  0  0  0  0  0  0  0  0  0
    0.9653    0.3073   -1.2918 H   0  0  0  0  0  0  0  0  0  0  0  0
    1.2232    0.2686    0.8542 C   0  0  0  0  0  0  0  0  0  0  0  0
    2.2522   -0.4006    0.7868 O   0  0  0  0  0  0  0  0  0  0  0  0
    0.7688    0.7743    2.0072 N   0  0  0  0  0  0  0  0  0  0  0  0
   -0.0494    1.3609    1.9708 H   0  0  0  0  0  0  0  0  0  0  0  0
    1.4502    0.6204    3.2905 C   0  0  0  0  0  0  0  0  0  0  0  0
    2.4122    1.1362    3.2562 H   0  0  0  0  0  0  0  0  0  0  0  0
    0.8440    1.0399    4.0939 H   0  0  0  0  0  0  0  0  0  0  0  0
    1.6316   -0.4383    3.4880 H   0  0  0  0  0  0  0  0  0  0  0  0
  5  6  2  0  0  0  0
  5  7  1  0  0  0  0
  2  3  1  0  0  0  0
  2  4  1  0  0  0  0
  2  5  1  0  0  0  0
  1  2  1  0  0  0  0
 19 20  2  0  0  0  0
 19 21  1  0  0  0  0
 17 18  1  0  0  0  0
 17 19  1  0  0  0  0
 14 15  1  0  0  0  0
 14 16  1  0  0  0  0
 14 17  1  0  0  0  0
 11 12  1  0  0  0  0
 11 13  1  0  0  0  0
 11 14  1  0  0  0  0
  8  9  1  0  0  0  0
  8 10  1  0  0  0  0
  8 11  1  0  0  0  0
  7  8  1  0  0  0  0
  7 17  1  0  0  0  0
 23 24  1  0  0  0  0
 23 25  1  0  0  0  0
 23 26  1  0  0  0  0
 21 22  1  0  0  0  0
 21 23  1  0  0  0  0
M  END
$$$$
default_name
  -OEChem-11182114113D

 26 26  0     1  0  0  0  0  0999 V2000
   -1.8446   -3.5060   -0.3010 H   0  0  0  0  0  0  0  0  0  0  0  0
   -2.0746   -2.4490   -0.4240 C   0  0  0  0  0  0  0  0  0  0  0  0
   -2.6906   -2.1160    0.4090 H   0  0  0  0  0  0  0  0  0  0  0  0
   -2.5986   -2.2980   -1.3650 H   0  0  0  0  0  0  0  0  0  0  0  0
   -0.7756   -1.6630   -0.4350 C   0  0  0  0  0  0  0  0  0  0  0  0
    0.2844   -2.2800   -0.4550 O   0  0  0  0  0  0  0  0  0  0  0  0
   -0.8246   -0.3180   -0.4350 N   0  0  0  0  0  0  0  0  0  0  0  0
   -2.0106    0.5080   -0.5910 C   0  0  0  0  0  0  0  0  0  0  0  0
   -2.8794    0.0924   -0.0778 H   0  0  0  0  0  0  0  0  0  0  0  0
   -2.2658    0.7721   -1.6167 H   0  0  0  0  0  0  0  0  0  0  0  0
   -1.5055    1.7417    0.1542 C   0  0  0  0  0  0  0  0  0  0  0  0
   -1.4385    1.5656    1.2289 H   0  0  0  0  0  0  0  0  0  0  0  0
   -2.1554    2.5907   -0.0597 H   0  0  0  0  0  0  0  0  0  0  0  0
   -0.1306    1.9711   -0.4735 C   0  0  0  0  0  0  0  0  0  0  0  0
    0.4913    2.6226    0.1437 H   0  0  0  0  0  0  0  0  0  0  0  0
   -0.1563    2.3372   -1.4997 H   0  0  0  0  0  0  0  0  0  0  0  0
    0.3724    0.5200   -0.4020 C   0  0  1  0  0  0  0  0  0  0  0  0
    0.9653    0.3073   -1.2918 H   0  0  0  0  0  0  0  0  0  0  0  0
    1.2232    0.2686    0.8542 C   0  0  0  0  0  0  0  0  0  0  0  0
    2.3733   -0.1540    0.7542 O   0  0  0  0  0  0  0  0  0  0  0  0
    0.6401    0.4925    2.0381 N   0  0  0  0  0  0  0  0  0  0  0  0
   -0.2836    0.8946    2.0361 H   0  0  0  0  0  0  0  0  0  0  0  0
    1.3038    0.2961    3.3247 C   0  0  0  0  0  0  0  0  0  0  0  0
    2.1334    1.0003    3.4178 H   0  0  0  0  0  0  0  0  0  0  0  0
    0.6003    0.4567    4.1423 H   0  0  0  0  0  0  0  0  0  0  0  0
    1.7027   -0.7189    3.3837 H   0  0  0  0  0  0  0  0  0  0  0  0
  5  6  2  0  0  0  0
  5  7  1  0  0  0  0
  2  3  1  0  0  0  0
  2  4  1  0  0  0  0
  2  5  1  0  0  0  0
  1  2  1  0  0  0  0
 19 20  2  0  0  0  0
 19 21  1  0  0  0  0
 17 18  1  0  0  0  0
 17 19  1  0  0  0  0
 14 15  1  0  0  0  0
 14 16  1  0  0  0  0
 14 17  1  0  0  0  0
 11 12  1  0  0  0  0
 11 13  1  0  0  0  0
 11 14  1  0  0  0  0
  8  9  1  0  0  0  0
  8 10  1  0  0  0  0
  8 11  1  0  0  0  0
  7  8  1  0  0  0  0
  7 17  1  0  0  0  0
 23 24  1  0  0  0  0
 23 25  1  0  0  0  0
 23 26  1  0  0  0  0
 21 22  1  0  0  0  0
 21 23  1  0  0  0  0
M  END
$$$$
default_name
  -OEChem-11182114113D

 26 26  0     1  0  0  0  0  0999 V2000
   -1.8446   -3.5060   -0.3010 H   0  0  0  0  0  0  0  0  0  0  0  0
   -2.0746   -2.4490   -0.4240 C   0  0  0  0  0  0  0  0  0  0  0  0
   -2.6906   -2.1160    0.4090 H   0  0  0  0  0  0  0  0  0  0  0  0
   -2.5986   -2.2980   -1.3650 H   0  0  0  0  0  0  0  0  0  0  0  0
   -0.7756   -1.6630   -0.4350 C   0  0  0  0  0  0  0  0  0  0  0  0
    0.2844   -2.2800   -0.4550 O   0  0  0  0  0  0  0  0  0  0  0  0
   -0.8246   -0.3180   -0.4350 N   0  0  0  0  0  0  0  0  0  0  0  0
   -2.0106    0.5080   -0.5910 C   0  0  0  0  0  0  0  0  0  0  0  0
   -2.8794    0.0924   -0.0778 H   0  0  0  0  0  0  0  0  0  0  0  0
   -2.2658    0.7721   -1.6167 H   0  0  0  0  0  0  0  0  0  0  0  0
   -1.5055    1.7417    0.1542 C   0  0  0  0  0  0  0  0  0  0  0  0
   -1.4385    1.5656    1.2289 H   0  0  0  0  0  0  0  0  0  0  0  0
   -2.1554    2.5907   -0.0597 H   0  0  0  0  0  0  0  0  0  0  0  0
   -0.1306    1.9711   -0.4735 C   0  0  0  0  0  0  0  0  0  0  0  0
    0.4913    2.6226    0.1437 H   0  0  0  0  0  0  0  0  0  0  0  0
   -0.1563    2.3372   -1.4997 H   0  0  0  0  0  0  0  0  0  0  0  0
    0.3724    0.5200   -0.4020 C   0  0  1  0  0  0  0  0  0  0  0  0
    0.9653    0.3073   -1.2918 H   0  0  0  0  0  0  0  0  0  0  0  0
    1.2232    0.2686    0.8542 C   0  0  0  0  0  0  0  0  0  0  0  0
    2.4394    0.1144    0.7631 O   0  0  0  0  0  0  0  0  0  0  0  0
    0.5740    0.1887    2.0220 N   0  0  0  0  0  0  0  0  0  0  0  0
   -0.4140    0.3853    2.0225 H   0  0  0  0  0  0  0  0  0  0  0  0
    1.2295   -0.0530    3.3052 C   0  0  0  0  0  0  0  0  0  0  0  0
    1.8860    0.7869    3.5427 H   0  0  0  0  0  0  0  0  0  0  0  0
    0.4862   -0.1650    4.0951 H   0  0  0  0  0  0  0  0  0  0  0  0
    1.8351   -0.9599    3.2458 H   0  0  0  0  0  0  0  0  0  0  0  0
  5  6  2  0  0  0  0
  5  7  1  0  0  0  0
  2  3  1  0  0  0  0
  2  4  1  0  0  0  0
  2  5  1  0  0  0  0
  1  2  1  0  0  0  0
 19 20  2  0  0  0  0
 19 21  1  0  0  0  0
 17 18  1  0  0  0  0
 17 19  1  0  0  0  0
 14 15  1  0  0  0  0
 14 16  1  0  0  0  0
 14 17  1  0  0  0  0
 11 12  1  0  0  0  0
 11 13  1  0  0  0  0
 11 14  1  0  0  0  0
  8  9  1  0  0  0  0
  8 10  1  0  0  0  0
  8 11  1  0  0  0  0
  7  8  1  0  0  0  0
  7 17  1  0  0  0  0
 23 24  1  0  0  0  0
 23 25  1  0  0  0  0
 23 26  1  0  0  0  0
 21 22  1  0  0  0  0
 21 23  1  0  0  0  0
M  END
$$$$
default_name
  -OEChem-11182114113D

 26 26  0     1  0  0  0  0  0999 V2000
   -1.8446   -3.5060   -0.3010 H   0  0  0  0  0  0  0  0  0  0  0  0
   -2.0746   -2.4490   -0.4240 C   0  0  0  0  0  0  0  0  0  0  0  0
   -2.6906   -2.1160    0.4090 H   0  0  0  0  0  0  0  0  0  0  0  0
   -2.5986   -2.2980   -1.3650 H   0  0  0  0  0  0  0  0  0  0  0  0
   -0.7756   -1.6630   -0.4350 C   0  0  0  0  0  0  0  0  0  0  0  0
    0.2844   -2.2800   -0.4550 O   0  0  0  0  0  0  0  0  0  0  0  0
   -0.8246   -0.3180   -0.4350 N   0  0  0  0  0  0  0  0  0  0  0  0
   -2.0106    0.5080   -0.5910 C   0  0  0  0  0  0  0  0  0  0  0  0
   -2.8794    0.0924   -0.0778 H   0  0  0  0  0  0  0  0  0  0  0  0
   -2.2658    0.7721   -1.6167 H   0  0  0  0  0  0  0  0  0  0  0  0
   -1.5055    1.7417    0.1542 C   0  0  0  0  0  0  0  0  0  0  0  0
   -1.4385    1.5656    1.2289 H   0  0  0  0  0  0  0  0  0  0  0  0
   -2.1554    2.5907   -0.0597 H   0  0  0  0  0  0  0  0  0  0  0  0
   -0.1306    1.9711   -0.4735 C   0  0  0  0  0  0  0  0  0  0  0  0
    0.4913    2.6226    0.1437 H   0  0  0  0  0  0  0  0  0  0  0  0
   -0.1563    2.3372   -1.4997 H   0  0  0  0  0  0  0  0  0  0  0  0
    0.3724    0.5200   -0.4020 C   0  0  1  0  0  0  0  0  0  0  0  0
    0.9653    0.3073   -1.2918 H   0  0  0  0  0  0  0  0  0  0  0  0
    1.2232    0.2686    0.8542 C   0  0  0  0  0  0  0  0  0  0  0  0
    2.4462    0.3863    0.8129 O   0  0  0  0  0  0  0  0  0  0  0  0
    0.5751   -0.1164    1.9603 N   0  0  0  0  0  0  0  0  0  0  0  0
   -0.4318   -0.1322    1.9310 H   0  0  0  0  0  0  0  0  0  0  0  0
    1.2324   -0.4031    3.2331 C   0  0  0  0  0  0  0  0  0  0  0  0
    1.6868    0.5106    3.6223 H   0  0  0  0  0  0  0  0  0  0  0  0
    0.5095   -0.7830    3.9557 H   0  0  0  0  0  0  0  0  0  0  0  0
    2.0198   -1.1450    3.0837 H   0  0  0  0  0  0  0  0  0  0  0  0
  5  6  2  0  0  0  0
  5  7  1  0  0  0  0
  2  3  1  0  0  0  0
  2  4  1  0  0  0  0
  2  5  1  0  0  0  0
  1  2  1  0  0  0  0
 19 20  2  0  0  0  0
 19 21  1  0  0  0  0
 17 18  1  0  0  0  0
 17 19  1  0  0  0  0
 14 15  1  0  0  0  0
 14 16  1  0  0  0  0
 14 17  1  0  0  0  0
 11 12  1  0  0  0  0
 11 13  1  0  0  0  0
 11 14  1  0  0  0  0
  8  9  1  0  0  0  0
  8 10  1  0  0  0  0
  8 11  1  0  0  0  0
  7  8  1  0  0  0  0
  7 17  1  0  0  0  0
 23 24  1  0  0  0  0
 23 25  1  0  0  0  0
 23 26  1  0  0  0  0
 21 22  1  0  0  0  0
 21 23  1  0  0  0  0
M  END
$$$$
default_name
  -OEChem-11182114113D

 26 26  0     1  0  0  0  0  0999 V2000
   -1.8446   -3.5060   -0.3010 H   0  0  0  0  0  0  0  0  0  0  0  0
   -2.0746   -2.4490   -0.4240 C   0  0  0  0  0  0  0  0  0  0  0  0
   -2.6906   -2.1160    0.4090 H   0  0  0  0  0  0  0  0  0  0  0  0
   -2.5986   -2.2980   -1.3650 H   0  0  0  0  0  0  0  0  0  0  0  0
   -0.7756   -1.6630   -0.4350 C   0  0  0  0  0  0  0  0  0  0  0  0
    0.2844   -2.2800   -0.4550 O   0  0  0  0  0  0  0  0  0  0  0  0
   -0.8246   -0.3180   -0.4350 N   0  0  0  0  0  0  0  0  0  0  0  0
   -2.0106    0.5080   -0.5910 C   0  0  0  0  0  0  0  0  0  0  0  0
   -2.8794    0.0924   -0.0778 H   0  0  0  0  0  0  0  0  0  0  0  0
   -2.2658    0.7721   -1.6167 H   0  0  0  0  0  0  0  0  0  0  0  0
   -1.5055    1.7417    0.1542 C   0  0  0  0  0  0  0  0  0  0  0  0
   -1.4385    1.5656    1.2289 H   0  0  0  0  0  0  0  0  0  0  0  0
   -2.1554    2.5907   -0.0597 H   0  0  0  0  0  0  0  0  0  0  0  0
   -0.1306    1.9711   -0.4735 C   0  0  0  0  0  0  0  0  0  0  0  0
    0.4913    2.6226    0.1437 H   0  0  0  0  0  0  0  0  0  0  0  0
   -0.1563    2.3372   -1.4997 H   0  0  0  0  0  0  0  0  0  0  0  0
    0.3724    0.5200   -0.4020 C   0  0  1  0  0  0  0  0  0  0  0  0
    0.9653    0.3073   -1.2918 H   0  0  0  0  0  0  0  0  0  0  0  0
    1.2232    0.2686    0.8542 C   0  0  0  0  0  0  0  0  0  0  0  0
    2.3931    0.6433    0.9003 O   0  0  0  0  0  0  0  0  0  0  0  0
    0.6432   -0.4020    1.8569 N   0  0  0  0  0  0  0  0  0  0  0  0
   -0.3357   -0.6228    1.7677 H   0  0  0  0  0  0  0  0  0  0  0  0
    1.3122   -0.7303    3.1136 C   0  0  0  0  0  0  0  0  0  0  0  0
    1.5494    0.1902    3.6512 H   0  0  0  0  0  0  0  0  0  0  0  0
    0.6684   -1.3550    3.7336 H   0  0  0  0  0  0  0  0  0  0  0  0
    2.2442   -1.2615    2.9084 H   0  0  0  0  0  0  0  0  0  0  0  0
  5  6  2  0  0  0  0
  5  7  1  0  0  0  0
  2  3  1  0  0  0  0
  2  4  1  0  0  0  0
  2  5  1  0  0  0  0
  1  2  1  0  0  0  0
 19 20  2  0  0  0  0
 19 21  1  0  0  0  0
 17 18  1  0  0  0  0
 17 19  1  0  0  0  0
 14 15  1  0  0  0  0
 14 16  1  0  0  0  0
 14 17  1  0  0  0  0
 11 12  1  0  0  0  0
 11 13  1  0  0  0  0
 11 14  1  0  0  0  0
  8  9  1  0  0  0  0
  8 10  1  0  0  0  0
  8 11  1  0  0  0  0
  7  8  1  0  0  0  0
  7 17  1  0  0  0  0
 23 24  1  0  0  0  0
 23 25  1  0  0  0  0
 23 26  1  0  0  0  0
 21 22  1  0  0  0  0
 21 23  1  0  0  0  0
M  END
$$$$
default_name
  -OEChem-11182114113D

 26 26  0     1  0  0  0  0  0999 V2000
   -1.8446   -3.5060   -0.3010 H   0  0  0  0  0  0  0  0  0  0  0  0
   -2.0746   -2.4490   -0.4240 C   0  0  0  0  0  0  0  0  0  0  0  0
   -2.6906   -2.1160    0.4090 H   0  0  0  0  0  0  0  0  0  0  0  0
   -2.5986   -2.2980   -1.3650 H   0  0  0  0  0  0  0  0  0  0  0  0
   -0.7756   -1.6630   -0.4350 C   0  0  0  0  0  0  0  0  0  0  0  0
    0.2844   -2.2800   -0.4550 O   0  0  0  0  0  0  0  0  0  0  0  0
   -0.8246   -0.3180   -0.4350 N   0  0  0  0  0  0  0  0  0  0  0  0
   -2.0106    0.5080   -0.5910 C   0  0  0  0  0  0  0  0  0  0  0  0
   -2.8794    0.0924   -0.0778 H   0  0  0  0  0  0  0  0  0  0  0  0
   -2.2658    0.7721   -1.6167 H   0  0  0  0  0  0  0  0  0  0  0  0
   -1.5055    1.7417    0.1542 C   0  0  0  0  0  0  0  0  0  0  0  0
   -1.4385    1.5656    1.2289 H   0  0  0  0  0  0  0  0  0  0  0  0
   -2.1554    2.5907   -0.0597 H   0  0  0  0  0  0  0  0  0  0  0  0
   -0.1306    1.9711   -0.4735 C   0  0  0  0  0  0  0  0  0  0  0  0
    0.4913    2.6226    0.1437 H   0  0  0  0  0  0  0  0  0  0  0  0
   -0.1563    2.3372   -1.4997 H   0  0  0  0  0  0  0  0  0  0  0  0
    0.3724    0.5200   -0.4020 C   0  0  1  0  0  0  0  0  0  0  0  0
    0.9653    0.3073   -1.2918 H   0  0  0  0  0  0  0  0  0  0  0  0
    1.2232    0.2686    0.8542 C   0  0  0  0  0  0  0  0  0  0  0  0
    2.2839    0.8678    1.0192 O   0  0  0  0  0  0  0  0  0  0  0  0
    0.7738   -0.6488    1.7191 N   0  0  0  0  0  0  0  0  0  0  0  0
   -0.1322   -1.0529    1.5438 H   0  0  0  0  0  0  0  0  0  0  0  0
    1.4636   -1.0124    2.9546 C   0  0  0  0  0  0  0  0  0  0  0  0
    1.4833   -0.1524    3.6275 H   0  0  0  0  0  0  0  0  0  0  0  0
    0.9523   -1.8421    3.4438 H   0  0  0  0  0  0  0  0  0  0  0  0
    2.4930   -1.3015    2.7319 H   0  0  0  0  0  0  0  0  0  0  0  0
  5  6  2  0  0  0  0
  5  7  1  0  0  0  0
  2  3  1  0  0  0  0
  2  4  1  0  0  0  0
  2  5  1  0  0  0  0
  1  2  1  0  0  0  0
 19 20  2  0  0  0  0
 19 21  1  0  0  0  0
 17 18  1  0  0  0  0
 17 19  1  0  0  0  0
 14 15  1  0  0  0  0
 14 16  1  0  0  0  0
 14 17  1  0  0  0  0
 11 12  1  0  0  0  0
 11 13  1  0  0  0  0
 11 14  1  0  0  0  0
  8  9  1  0  0  0  0
  8 10  1  0  0  0  0
  8 11  1  0  0  0  0
  7  8  1  0  0  0  0
  7 17  1  0  0  0  0
 23 24  1  0  0  0  0
 23 25  1  0  0  0  0
 23 26  1  0  0  0  0
 21 22  1  0  0  0  0
 21 23  1  0  0  0  0
M  END
$$$$
default_name
  -OEChem-11182114113D

 26 26  0     1  0  0  0  0  0999 V2000
   -1.8446   -3.5060   -0.3010 H   0  0  0  0  0  0  0  0  0  0  0  0
   -2.0746   -2.4490   -0.4240 C   0  0  0  0  0  0  0  0  0  0  0  0
   -2.6906   -2.1160    0.4090 H   0  0  0  0  0  0  0  0  0  0  0  0
   -2.5986   -2.2980   -1.3650 H   0  0  0  0  0  0  0  0  0  0  0  0
   -0.7756   -1.6630   -0.4350 C   0  0  0  0  0  0  0  0  0  0  0  0
    0.2844   -2.2800   -0.4550 O   0  0  0  0  0  0  0  0  0  0  0  0
   -0.8246   -0.3180   -0.4350 N   0  0  0  0  0  0  0  0  0  0  0  0
   -2.0106    0.5080   -0.5910 C   0  0  0  0  0  0  0  0  0  0  0  0
   -2.8794    0.0924   -0.0778 H   0  0  0  0  0  0  0  0  0  0  0  0
   -2.2658    0.7721   -1.6167 H   0  0  0  0  0  0  0  0  0  0  0  0
   -1.5055    1.7417    0.1542 C   0  0  0  0  0  0  0  0  0  0  0  0
   -1.4385    1.5656    1.2289 H   0  0  0  0  0  0  0  0  0  0  0  0
   -2.1554    2.5907   -0.0597 H   0  0  0  0  0  0  0  0  0  0  0  0
   -0.1306    1.9711   -0.4735 C   0  0  0  0  0  0  0  0  0  0  0  0
    0.4913    2.6226    0.1437 H   0  0  0  0  0  0  0  0  0  0  0  0
   -0.1563    2.3372   -1.4997 H   0  0  0  0  0  0  0  0  0  0  0  0
    0.3724    0.5200   -0.4020 C   0  0  1  0  0  0  0  0  0  0  0  0
    0.9653    0.3073   -1.2918 H   0  0  0  0  0  0  0  0  0  0  0  0
    1.2232    0.2686    0.8542 C   0  0  0  0  0  0  0  0  0  0  0  0
    2.1258    1.0446    1.1616 O   0  0  0  0  0  0  0  0  0  0  0  0
    0.9579   -0.8397    1.5562 N   0  0  0  0  0  0  0  0  0  0  0  0
    0.1648   -1.3933    1.2746 H   0  0  0  0  0  0  0  0  0  0  0  0
    1.6762   -1.2301    2.7671 C   0  0  0  0  0  0  0  0  0  0  0  0
    1.4928   -0.4940    3.5527 H   0  0  0  0  0  0  0  0  0  0  0  0
    1.3418   -2.2111    3.1062 H   0  0  0  0  0  0  0  0  0  0  0  0
    2.7493   -1.2623    2.5662 H   0  0  0  0  0  0  0  0  0  0  0  0
  5  6  2  0  0  0  0
  5  7  1  0  0  0  0
  2  3  1  0  0  0  0
  2  4  1  0  0  0  0
  2  5  1  0  0  0  0
  1  2  1  0  0  0  0
 19 20  2  0  0  0  0
 19 21  1  0  0  0  0
 17 18  1  0  0  0  0
 17 19  1  0  0  0  0
 14 15  1  0  0  0  0
 14 16  1  0  0  0  0
 14 17  1  0  0  0  0
 11 12  1  0  0  0  0
 11 13  1  0  0  0  0
 11 14  1  0  0  0  0
  8  9  1  0  0  0  0
  8 10  1  0  0  0  0
  8 11  1  0  0  0  0
  7  8  1  0  0  0  0
  7 17  1  0  0  0  0
 23 24  1  0  0  0  0
 23 25  1  0  0  0  0
 23 26  1  0  0  0  0
 21 22  1  0  0  0  0
 21 23  1  0  0  0  0
M  END
$$$$
default_name
  -OEChem-11182114113D

 26 26  0     1  0  0  0  0  0999 V2000
   -1.8446   -3.5060   -0.3010 H   0  0  0  0  0  0  0  0  0  0  0  0
   -2.0746   -2.4490   -0.4240 C   0  0  0  0  0  0  0  0  0  0  0  0
   -2.6906   -2.1160    0.4090 H   0  0  0  0  0  0  0  0  0  0  0  0
   -2.5986   -2.2980   -1.3650 H   0  0  0  0  0  0  0  0  0  0  0  0
   -0.7756   -1.6630   -0.4350 C   0  0  0  0  0  0  0  0  0  0  0  0
    0.2844   -2.2800   -0.4550 O   0  0  0  0  0  0  0  0  0  0  0  0
   -0.8246   -0.3180   -0.4350 N   0  0  0  0  0  0  0  0  0  0  0  0
   -2.0106    0.5080   -0.5910 C   0  0  0  0  0  0  0  0  0  0  0  0
   -2.8794    0.0924   -0.0778 H   0  0  0  0  0  0  0  0  0  0  0  0
   -2.2658    0.7721   -1.6167 H   0  0  0  0  0  0  0  0  0  0  0  0
   -1.5055    1.7417    0.1542 C   0  0  0  0  0  0  0  0  0  0  0  0
   -1.4385    1.5656    1.2289 H   0  0  0  0  0  0  0  0  0  0  0  0
   -2.1554    2.5907   -0.0597 H   0  0  0  0  0  0  0  0  0  0  0  0
   -0.1306    1.9711   -0.4735 C   0  0  0  0  0  0  0  0  0  0  0  0
    0.4913    2.6226    0.1437 H   0  0  0  0  0  0  0  0  0  0  0  0
   -0.1563    2.3372   -1.4997 H   0  0  0  0  0  0  0  0  0  0  0  0
    0.3724    0.5200   -0.4020 C   0  0  1  0  0  0  0  0  0  0  0  0
    0.9653    0.3073   -1.2918 H   0  0  0  0  0  0  0  0  0  0  0  0
    1.2232    0.2686    0.8542 C   0  0  0  0  0  0  0  0  0  0  0  0
    1.9298    1.1615    1.3178 O   0  0  0  0  0  0  0  0  0  0  0  0
    1.1830   -0.9619    1.3793 N   0  0  0  0  0  0  0  0  0  0  0  0
    0.5350   -1.6208    0.9783 H   0  0  0  0  0  0  0  0  0  0  0  0
    1.9355   -1.3686    2.5638 C   0  0  0  0  0  0  0  0  0  0  0  0
    1.5774   -0.8112    3.4319 H   0  0  0  0  0  0  0  0  0  0  0  0
    1.8103   -2.4368    2.7438 H   0  0  0  0  0  0  0  0  0  0  0  0
    2.9955   -1.1465    2.4226 H   0  0  0  0  0  0  0  0  0  0  0  0
  5  6  2  0  0  0  0
  5  7  1  0  0  0  0
  2  3  1  0  0  0  0
  2  4  1  0  0  0  0
  2  5  1  0  0  0  0
  1  2  1  0  0  0  0
 19 20  2  0  0  0  0
 19 21  1  0  0  0  0
 17 18  1  0  0  0  0
 17 19  1  0  0  0  0
 14 15  1  0  0  0  0
 14 16  1  0  0  0  0
 14 17  1  0  0  0  0
 11 12  1  0  0  0  0
 11 13  1  0  0  0  0
 11 14  1  0  0  0  0
  8  9  1  0  0  0  0
  8 10  1  0  0  0  0
  8 11  1  0  0  0  0
  7  8  1  0  0  0  0
  7 17  1  0  0  0  0
 23 24  1  0  0  0  0
 23 25  1  0  0  0  0
 23 26  1  0  0  0  0
 21 22  1  0  0  0  0
 21 23  1  0  0  0  0
M  END
$$$$
default_name
  -OEChem-11182114113D

 26 26  0     1  0  0  0  0  0999 V2000
   -1.8446   -3.5060   -0.3010 H   0  0  0  0  0  0  0  0  0  0  0  0
   -2.0746   -2.4490   -0.4240 C   0  0  0  0  0  0  0  0  0  0  0  0
   -2.6906   -2.1160    0.4090 H   0  0  0  0  0  0  0  0  0  0  0  0
   -2.5986   -2.2980   -1.3650 H   0  0  0  0  0  0  0  0  0  0  0  0
   -0.7756   -1.6630   -0.4350 C   0  0  0  0  0  0  0  0  0  0  0  0
    0.2844   -2.2800   -0.4550 O   0  0  0  0  0  0  0  0  0  0  0  0
   -0.8246   -0.3180   -0.4350 N   0  0  0  0  0  0  0  0  0  0  0  0
   -2.0106    0.5080   -0.5910 C   0  0  0  0  0  0  0  0  0  0  0  0
   -2.8794    0.0924   -0.0778 H   0  0  0  0  0  0  0  0  0  0  0  0
   -2.2658    0.7721   -1.6167 H   0  0  0  0  0  0  0  0  0  0  0  0
   -1.5055    1.7417    0.1542 C   0  0  0  0  0  0  0  0  0  0  0  0
   -1.4385    1.5656    1.2289 H   0  0  0  0  0  0  0  0  0  0  0  0
   -2.1554    2.5907   -0.0597 H   0  0  0  0  0  0  0  0  0  0  0  0
   -0.1306    1.9711   -0.4735 C   0  0  0  0  0  0  0  0  0  0  0  0
    0.4913    2.6226    0.1437 H   0  0  0  0  0  0  0  0  0  0  0  0
   -0.1563    2.3372   -1.4997 H   0  0  0  0  0  0  0  0  0  0  0  0
    0.3724    0.5200   -0.4020 C   0  0  1  0  0  0  0  0  0  0  0  0
    0.9653    0.3073   -1.2918 H   0  0  0  0  0  0  0  0  0  0  0  0
    1.2232    0.2686    0.8542 C   0  0  0  0  0  0  0  0  0  0  0  0
    1.7091    1.2106    1.4771 O   0  0  0  0  0  0  0  0  0  0  0  0
    1.4338   -1.0071    1.2004 N   0  0  0  0  0  0  0  0  0  0  0  0
    0.9532   -1.7199    0.6753 H   0  0  0  0  0  0  0  0  0  0  0  0
    2.2238   -1.4185    2.3585 C   0  0  0  0  0  0  0  0  0  0  0  0
    1.7313   -1.0824    3.2734 H   0  0  0  0  0  0  0  0  0  0  0  0
    2.3259   -2.5039    2.3812 H   0  0  0  0  0  0  0  0  0  0  0  0
    3.2149   -0.9621    2.3109 H   0  0  0  0  0  0  0  0  0  0  0  0
  5  6  2  0  0  0  0
  5  7  1  0  0  0  0
  2  3  1  0  0  0  0
  2  4  1  0  0  0  0
  2  5  1  0  0  0  0
  1  2  1  0  0  0  0
 19 20  2  0  0  0  0
 19 21  1  0  0  0  0
 17 18  1  0  0  0  0
 17 19  1  0  0  0  0
 14 15  1  0  0  0  0
 14 16  1  0  0  0  0
 14 17  1  0  0  0  0
 11 12  1  0  0  0  0
 11 13  1  0  0  0  0
 11 14  1  0  0  0  0
  8  9  1  0  0  0  0
  8 10  1  0  0  0  0
  8 11  1  0  0  0  0
  7  8  1  0  0  0  0
  7 17  1  0  0  0  0
 23 24  1  0  0  0  0
 23 25  1  0  0  0  0
 23 26  1  0  0  0  0
 21 22  1  0  0  0  0
 21 23  1  0  0  0  0
M  END
$$$$
default_name
  -OEChem-11182114113D

 26 26  0     1  0  0  0  0  0999 V2000
   -1.8446   -3.5060   -0.3010 H   0  0  0  0  0  0  0  0  0  0  0  0
   -2.0746   -2.4490   -0.4240 C   0  0  0  0  0  0  0  0  0  0  0  0
   -2.6906   -2.1160    0.4090 H   0  0  0  0  0  0  0  0  0  0  0  0
   -2.5986   -2.2980   -1.3650 H   0  0  0  0  0  0  0  0  0  0  0  0
   -0.7756   -1.6630   -0.4350 C   0  0  0  0  0  0  0  0  0  0  0  0
    0.2844   -2.2800   -0.4550 O   0  0  0  0  0  0  0  0  0  0  0  0
   -0.8246   -0.3180   -0.4350 N   0  0  0  0  0  0  0  0  0  0  0  0
   -2.0106    0.5080   -0.5910 C   0  0  0  0  0  0  0  0  0  0  0  0
   -2.8794    0.0924   -0.0778 H   0  0  0  0  0  0  0  0  0  0  0  0
   -2.2658    0.7721   -1.6167 H   0  0  0  0  0  0  0  0  0  0  0  0
   -1.5055    1.7417    0.1542 C   0  0  0  0  0  0  0  0  0  0  0  0
   -1.4385    1.5656    1.2289 H   0  0  0  0  0  0  0  0  0  0  0  0
   -2.1554    2.5907   -0.0597 H   0  0  0  0  0  0  0  0  0  0  0  0
   -0.1306    1.9711   -0.4735 C   0  0  0  0  0  0  0  0  0  0  0  0
    0.4913    2.6226    0.1437 H   0  0  0  0  0  0  0  0  0  0  0  0
   -0.1563    2.3372   -1.4997 H   0  0  0  0  0  0  0  0  0  0  0  0
    0.3724    0.5200   -0.4020 C   0  0  1  0  0  0  0  0  0  0  0  0
    0.9653    0.3073   -1.2918 H   0  0  0  0  0  0  0  0  0  0  0  0
    1.2232    0.2686    0.8542 C   0  0  0  0  0  0  0  0  0  0  0  0
    1.4788    1.1886    1.6286 O   0  0  0  0  0  0  0  0  0  0  0  0
    1.6932   -0.9720    1.0318 N   0  0  0  0  0  0  0  0  0  0  0  0
    1.3909   -1.6837    0.3860 H   0  0  0  0  0  0  0  0  0  0  0  0
    2.5216   -1.3763    2.1653 C   0  0  0  0  0  0  0  0  0  0  0  0
    1.9440   -1.2891    3.0880 H   0  0  0  0  0  0  0  0  0  0  0  0
    2.8534   -2.4078    2.0431 H   0  0  0  0  0  0  0  0  0  0  0  0
    3.3926   -0.7215    2.2387 H   0  0  0  0  0  0  0  0  0  0  0  0
  5  6  2  0  0  0  0
  5  7  1  0  0  0  0
  2  3  1  0  0  0  0
  2  4  1  0  0  0  0
  2  5  1  0  0  0  0
  1  2  1  0  0  0  0
 19 20  2  0  0  0  0
 19 21  1  0  0  0  0
 17 18  1  0  0  0  0
 17 19  1  0  0  0  0
 14 15  1  0  0  0  0
 14 16  1  0  0  0  0
 14 17  1  0  0  0  0
 11 12  1  0  0  0  0
 11 13  1  0  0  0  0
 11 14  1  0  0  0  0
  8  9  1  0  0  0  0
  8 10  1  0  0  0  0
  8 11  1  0  0  0  0
  7  8  1  0  0  0  0
  7 17  1  0  0  0  0
 23 24  1  0  0  0  0
 23 25  1  0  0  0  0
 23 26  1  0  0  0  0
 21 22  1  0  0  0  0
 21 23  1  0  0  0  0
M  END
$$$$
default_name
  -OEChem-11182114113D

 26 26  0     1  0  0  0  0  0999 V2000
   -1.8446   -3.5060   -0.3010 H   0  0  0  0  0  0  0  0  0  0  0  0
   -2.0746   -2.4490   -0.4240 C   0  0  0  0  0  0  0  0  0  0  0  0
   -2.6906   -2.1160    0.4090 H   0  0  0  0  0  0  0  0  0  0  0  0
   -2.5986   -2.2980   -1.3650 H   0  0  0  0  0  0  0  0  0  0  0  0
   -0.7756   -1.6630   -0.4350 C   0  0  0  0  0  0  0  0  0  0  0  0
    0.2844   -2.2800   -0.4550 O   0  0  0  0  0  0  0  0  0  0  0  0
   -0.8246   -0.3180   -0.4350 N   0  0  0  0  0  0  0  0  0  0  0  0
   -2.0106    0.5080   -0.5910 C   0  0  0  0  0  0  0  0  0  0  0  0
   -2.8794    0.0924   -0.0778 H   0  0  0  0  0  0  0  0  0  0  0  0
   -2.2658    0.7721   -1.6167 H   0  0  0  0  0  0  0  0  0  0  0  0
   -1.5055    1.7417    0.1542 C   0  0  0  0  0  0  0  0  0  0  0  0
   -1.4385    1.5656    1.2289 H   0  0  0  0  0  0  0  0  0  0  0  0
   -2.1554    2.5907   -0.0597 H   0  0  0  0  0  0  0  0  0  0  0  0
   -0.1306    1.9711   -0.4735 C   0  0  0  0  0  0  0  0  0  0  0  0
    0.4913    2.6226    0.1437 H   0  0  0  0  0  0  0  0  0  0  0  0
   -0.1563    2.3372   -1.4997 H   0  0  0  0  0  0  0  0  0  0  0  0
    0.3724    0.5200   -0.4020 C   0  0  1  0  0  0  0  0  0  0  0  0
    0.9653    0.3073   -1.2918 H   0  0  0  0  0  0  0  0  0  0  0  0
    1.2232    0.2686    0.8542 C   0  0  0  0  0  0  0  0  0  0  0  0
    1.2546    1.0969    1.7621 O   0  0  0  0  0  0  0  0  0  0  0  0
    1.9434   -0.8592    0.8849 N   0  0  0  0  0  0  0  0  0  0  0  0
    1.8183   -1.5149    0.1304 H   0  0  0  0  0  0  0  0  0  0  0  0
    2.8084   -1.2450    1.9973 C   0  0  0  0  0  0  0  0  0  0  0  0
    2.2009   -1.4173    2.8883 H   0  0  0  0  0  0  0  0  0  0  0  0
    3.3570   -2.1551    1.7526 H   0  0  0  0  0  0  0  0  0  0  0  0
    3.5164   -0.4412    2.2109 H   0  0  0  0  0  0  0  0  0  0  0  0
  5  6  2  0  0  0  0
  5  7  1  0  0  0  0
  2  3  1  0  0  0  0
  2  4  1  0  0  0  0
  2  5  1  0  0  0  0
  1  2  1  0  0  0  0
 19 20  2  0  0  0  0
 19 21  1  0  0  0  0
 17 18  1  0  0  0  0
 17 19  1  0  0  0  0
 14 15  1  0  0  0  0
 14 16  1  0  0  0  0
 14 17  1  0  0  0  0
 11 12  1  0  0  0  0
 11 13  1  0  0  0  0
 11 14  1  0  0  0  0
  8  9  1  0  0  0  0
  8 10  1  0  0  0  0
  8 11  1  0  0  0  0
  7  8  1  0  0  0  0
  7 17  1  0  0  0  0
 23 24  1  0  0  0  0
 23 25  1  0  0  0  0
 23 26  1  0  0  0  0
 21 22  1  0  0  0  0
 21 23  1  0  0  0  0
M  END
$$$$
default_name
  -OEChem-11182114113D

 26 26  0     1  0  0  0  0  0999 V2000
   -1.8446   -3.5060   -0.3010 H   0  0  0  0  0  0  0  0  0  0  0  0
   -2.0746   -2.4490   -0.4240 C   0  0  0  0  0  0  0  0  0  0  0  0
   -2.6906   -2.1160    0.4090 H   0  0  0  0  0  0  0  0  0  0  0  0
   -2.5986   -2.2980   -1.3650 H   0  0  0  0  0  0  0  0  0  0  0  0
   -0.7756   -1.6630   -0.4350 C   0  0  0  0  0  0  0  0  0  0  0  0
    0.2844   -2.2800   -0.4550 O   0  0  0  0  0  0  0  0  0  0  0  0
   -0.8246   -0.3180   -0.4350 N   0  0  0  0  0  0  0  0  0  0  0  0
   -2.0106    0.5080   -0.5910 C   0  0  0  0  0  0  0  0  0  0  0  0
   -2.8794    0.0924   -0.0778 H   0  0  0  0  0  0  0  0  0  0  0  0
   -2.2658    0.7721   -1.6167 H   0  0  0  0  0  0  0  0  0  0  0  0
   -1.5055    1.7417    0.1542 C   0  0  0  0  0  0  0  0  0  0  0  0
   -1.4385    1.5656    1.2289 H   0  0  0  0  0  0  0  0  0  0  0  0
   -2.1554    2.5907   -0.0597 H   0  0  0  0  0  0  0  0  0  0  0  0
   -0.1306    1.9711   -0.4735 C   0  0  0  0  0  0  0  0  0  0  0  0
    0.4913    2.6226    0.1437 H   0  0  0  0  0  0  0  0  0  0  0  0
   -0.1563    2.3372   -1.4997 H   0  0  0  0  0  0  0  0  0  0  0  0
    0.3724    0.5200   -0.4020 C   0  0  1  0  0  0  0  0  0  0  0  0
    0.9653    0.3073   -1.2918 H   0  0  0  0  0  0  0  0  0  0  0  0
    1.2232    0.2686    0.8542 C   0  0  0  0  0  0  0  0  0  0  0  0
    1.0517    0.9418    1.8685 O   0  0  0  0  0  0  0  0  0  0  0  0
    2.1674   -0.6763    0.7698 N   0  0  0  0  0  0  0  0  0  0  0  0
    2.2063   -1.2248   -0.0743 H   0  0  0  0  0  0  0  0  0  0  0  0
    3.0648   -1.0334    1.8660 C   0  0  0  0  0  0  0  0  0  0  0  0
    2.4847   -1.4582    2.6880 H   0  0  0  0  0  0  0  0  0  0  0  0
    3.8022   -1.7629    1.5296 H   0  0  0  0  0  0  0  0  0  0  0  0
    3.5780   -0.1403    2.2294 H   0  0  0  0  0  0  0  0  0  0  0  0
  5  6  2  0  0  0  0
  5  7  1  0  0  0  0
  2  3  1  0  0  0  0
  2  4  1  0  0  0  0
  2  5  1  0  0  0  0
  1  2  1  0  0  0  0
 19 20  2  0  0  0  0
 19 21  1  0  0  0  0
 17 18  1  0  0  0  0
 17 19  1  0  0  0  0
 14 15  1  0  0  0  0
 14 16  1  0  0  0  0
 14 17  1  0  0  0  0
 11 12  1  0  0  0  0
 11 13  1  0  0  0  0
 11 14  1  0  0  0  0
  8  9  1  0  0  0  0
  8 10  1  0  0  0  0
  8 11  1  0  0  0  0
  7  8  1  0  0  0  0
  7 17  1  0  0  0  0
 23 24  1  0  0  0  0
 23 25  1  0  0  0  0
 23 26  1  0  0  0  0
 21 22  1  0  0  0  0
 21 23  1  0  0  0  0
M  END
$$$$
default_name
  -OEChem-11182114113D

 26 26  0     1  0  0  0  0  0999 V2000
   -1.8446   -3.5060   -0.3010 H   0  0  0  0  0  0  0  0  0  0  0  0
   -2.0746   -2.4490   -0.4240 C   0  0  0  0  0  0  0  0  0  0  0  0
   -2.6906   -2.1160    0.4090 H   0  0  0  0  0  0  0  0  0  0  0  0
   -2.5986   -2.2980   -1.3650 H   0  0  0  0  0  0  0  0  0  0  0  0
   -0.7756   -1.6630   -0.4350 C   0  0  0  0  0  0  0  0  0  0  0  0
    0.2844   -2.2800   -0.4550 O   0  0  0  0  0  0  0  0  0  0  0  0
   -0.8246   -0.3180   -0.4350 N   0  0  0  0  0  0  0  0  0  0  0  0
   -2.0106    0.5080   -0.5910 C   0  0  0  0  0  0  0  0  0  0  0  0
   -2.8794    0.0924   -0.0778 H   0  0  0  0  0  0  0  0  0  0  0  0
   -2.2658    0.7721   -1.6167 H   0  0  0  0  0  0  0  0  0  0  0  0
   -1.5055    1.7417    0.1542 C   0  0  0  0  0  0  0  0  0  0  0  0
   -1.4385    1.5656    1.2289 H   0  0  0  0  0  0  0  0  0  0  0  0
   -2.1554    2.5907   -0.0597 H   0  0  0  0  0  0  0  0  0  0  0  0
   -0.1306    1.9711   -0.4735 C   0  0  0  0  0  0  0  0  0  0  0  0
    0.4913    2.6226    0.1437 H   0  0  0  0  0  0  0  0  0  0  0  0
   -0.1563    2.3372   -1.4997 H   0  0  0  0  0  0  0  0  0  0  0  0
    0.3724    0.5200   -0.4020 C   0  0  1  0  0  0  0  0  0  0  0  0
    0.9653    0.3073   -1.2918 H   0  0  0  0  0  0  0  0  0  0  0  0
    1.2232    0.2686    0.8542 C   0  0  0  0  0  0  0  0  0  0  0  0
    0.8841    0.7340    1.9404 O   0  0  0  0  0  0  0  0  0  0  0  0
    2.3501   -0.4358    0.6942 N   0  0  0  0  0  0  0  0  0  0  0  0
    2.5284   -0.8333   -0.2141 H   0  0  0  0  0  0  0  0  0  0  0  0
    3.2733   -0.7560    1.7803 C   0  0  0  0  0  0  0  0  0  0  0  0
    2.7759   -1.4090    2.5006 H   0  0  0  0  0  0  0  0  0  0  0  0
    4.1588   -1.2580    1.3891 H   0  0  0  0  0  0  0  0  0  0  0  0
    3.5730    0.1606    2.2930 H   0  0  0  0  0  0  0  0  0  0  0  0
  5  6  2  0  0  0  0
  5  7  1  0  0  0  0
  2  3  1  0  0  0  0
  2  4  1  0  0  0  0
  2  5  1  0  0  0  0
  1  2  1  0  0  0  0
 19 20  2  0  0  0  0
 19 21  1  0  0  0  0
 17 18  1  0  0  0  0
 17 19  1  0  0  0  0
 14 15  1  0  0  0  0
 14 16  1  0  0  0  0
 14 17  1  0  0  0  0
 11 12  1  0  0  0  0
 11 13  1  0  0  0  0
 11 14  1  0  0  0  0
  8  9  1  0  0  0  0
  8 10  1  0  0  0  0
  8 11  1  0  0  0  0
  7  8  1  0  0  0  0
  7 17  1  0  0  0  0
 23 24  1  0  0  0  0
 23 25  1  0  0  0  0
 23 26  1  0  0  0  0
 21 22  1  0  0  0  0
 21 23  1  0  0  0  0
M  END
$$$$
default_name
  -OEChem-11182114113D

 26 26  0     1  0  0  0  0  0999 V2000
   -1.8446   -3.5060   -0.3010 H   0  0  0  0  0  0  0  0  0  0  0  0
   -2.0746   -2.4490   -0.4240 C   0  0  0  0  0  0  0  0  0  0  0  0
   -2.6906   -2.1160    0.4090 H   0  0  0  0  0  0  0  0  0  0  0  0
   -2.5986   -2.2980   -1.3650 H   0  0  0  0  0  0  0  0  0  0  0  0
   -0.7756   -1.6630   -0.4350 C   0  0  0  0  0  0  0  0  0  0  0  0
    0.2844   -2.2800   -0.4550 O   0  0  0  0  0  0  0  0  0  0  0  0
   -0.8246   -0.3180   -0.4350 N   0  0  0  0  0  0  0  0  0  0  0  0
   -2.0106    0.5080   -0.5910 C   0  0  0  0  0  0  0  0  0  0  0  0
   -2.8794    0.0924   -0.0778 H   0  0  0  0  0  0  0  0  0  0  0  0
   -2.2658    0.7721   -1.6167 H   0  0  0  0  0  0  0  0  0  0  0  0
   -1.5055    1.7417    0.1542 C   0  0  0  0  0  0  0  0  0  0  0  0
   -1.4385    1.5656    1.2289 H   0  0  0  0  0  0  0  0  0  0  0  0
   -2.1554    2.5907   -0.0597 H   0  0  0  0  0  0  0  0  0  0  0  0
   -0.1306    1.9711   -0.4735 C   0  0  0  0  0  0  0  0  0  0  0  0
    0.4913    2.6226    0.1437 H   0  0  0  0  0  0  0  0  0  0  0  0
   -0.1563    2.3372   -1.4997 H   0  0  0  0  0  0  0  0  0  0  0  0
    0.3724    0.5200   -0.4020 C   0  0  1  0  0  0  0  0  0  0  0  0
    0.9653    0.3073   -1.2918 H   0  0  0  0  0  0  0  0  0  0  0  0
    1.2232    0.2686    0.8542 C   0  0  0  0  0  0  0  0  0  0  0  0
    0.7631    0.4874    1.9730 O   0  0  0  0  0  0  0  0  0  0  0  0
    2.4788   -0.1540    0.6634 N   0  0  0  0  0  0  0  0  0  0  0  0
    2.7626   -0.3670   -0.2795 H   0  0  0  0  0  0  0  0  0  0  0  0
    3.4197   -0.4317    1.7460 C   0  0  0  0  0  0  0  0  0  0  0  0
    3.0547   -1.2731    2.3389 H   0  0  0  0  0  0  0  0  0  0  0  0
    4.4025   -0.6748    1.3408 H   0  0  0  0  0  0  0  0  0  0  0  0
    3.5019    0.4412    2.3973 H   0  0  0  0  0  0  0  0  0  0  0  0
  5  6  2  0  0  0  0
  5  7  1  0  0  0  0
  2  3  1  0  0  0  0
  2  4  1  0  0  0  0
  2  5  1  0  0  0  0
  1  2  1  0  0  0  0
 19 20  2  0  0  0  0
 19 21  1  0  0  0  0
 17 18  1  0  0  0  0
 17 19  1  0  0  0  0
 14 15  1  0  0  0  0
 14 16  1  0  0  0  0
 14 17  1  0  0  0  0
 11 12  1  0  0  0  0
 11 13  1  0  0  0  0
 11 14  1  0  0  0  0
  8  9  1  0  0  0  0
  8 10  1  0  0  0  0
  8 11  1  0  0  0  0
  7  8  1  0  0  0  0
  7 17  1  0  0  0  0
 23 24  1  0  0  0  0
 23 25  1  0  0  0  0
 23 26  1  0  0  0  0
 21 22  1  0  0  0  0
 21 23  1  0  0  0  0
M  END
$$$$
default_name
  -OEChem-11182114113D

 26 26  0     1  0  0  0  0  0999 V2000
   -1.8446   -3.5060   -0.3010 H   0  0  0  0  0  0  0  0  0  0  0  0
   -2.0746   -2.4490   -0.4240 C   0  0  0  0  0  0  0  0  0  0  0  0
   -2.6906   -2.1160    0.4090 H   0  0  0  0  0  0  0  0  0  0  0  0
   -2.5986   -2.2980   -1.3650 H   0  0  0  0  0  0  0  0  0  0  0  0
   -0.7756   -1.6630   -0.4350 C   0  0  0  0  0  0  0  0  0  0  0  0
    0.2844   -2.2800   -0.4550 O   0  0  0  0  0  0  0  0  0  0  0  0
   -0.8246   -0.3180   -0.4350 N   0  0  0  0  0  0  0  0  0  0  0  0
   -2.0106    0.5080   -0.5910 C   0  0  0  0  0  0  0  0  0  0  0  0
   -2.8794    0.0924   -0.0778 H   0  0  0  0  0  0  0  0  0  0  0  0
   -2.2658    0.7721   -1.6167 H   0  0  0  0  0  0  0  0  0  0  0  0
   -1.5055    1.7417    0.1542 C   0  0  0  0  0  0  0  0  0  0  0  0
   -1.4385    1.5656    1.2289 H   0  0  0  0  0  0  0  0  0  0  0  0
   -2.1554    2.5907   -0.0597 H   0  0  0  0  0  0  0  0  0  0  0  0
   -0.1306    1.9711   -0.4735 C   0  0  0  0  0  0  0  0  0  0  0  0
    0.4913    2.6226    0.1437 H   0  0  0  0  0  0  0  0  0  0  0  0
   -0.1563    2.3372   -1.4997 H   0  0  0  0  0  0  0  0  0  0  0  0
    0.3724    0.5200   -0.4020 C   0  0  1  0  0  0  0  0  0  0  0  0
    0.9653    0.3073   -1.2918 H   0  0  0  0  0  0  0  0  0  0  0  0
    1.2232    0.2686    0.8542 C   0  0  0  0  0  0  0  0  0  0  0  0
    0.6969    0.2190    1.9641 O   0  0  0  0  0  0  0  0  0  0  0  0
    2.5449    0.1498    0.6794 N   0  0  0  0  0  0  0  0  0  0  0  0
    2.8931    0.1423   -0.2659 H   0  0  0  0  0  0  0  0  0  0  0  0
    3.4940   -0.0826    1.7656 C   0  0  0  0  0  0  0  0  0  0  0  0
    3.3022   -1.0597    2.2141 H   0  0  0  0  0  0  0  0  0  0  0  0
    4.5165   -0.0530    1.3879 H   0  0  0  0  0  0  0  0  0  0  0  0
    3.3695    0.6822    2.5352 H   0  0  0  0  0  0  0  0  0  0  0  0
  5  6  2  0  0  0  0
  5  7  1  0  0  0  0
  2  3  1  0  0  0  0
  2  4  1  0  0  0  0
  2  5  1  0  0  0  0
  1  2  1  0  0  0  0
 19 20  2  0  0  0  0
 19 21  1  0  0  0  0
 17 18  1  0  0  0  0
 17 19  1  0  0  0  0
 14 15  1  0  0  0  0
 14 16  1  0  0  0  0
 14 17  1  0  0  0  0
 11 12  1  0  0  0  0
 11 13  1  0  0  0  0
 11 14  1  0  0  0  0
  8  9  1  0  0  0  0
  8 10  1  0  0  0  0
  8 11  1  0  0  0  0
  7  8  1  0  0  0  0
  7 17  1  0  0  0  0
 23 24  1  0  0  0  0
 23 25  1  0  0  0  0
 23 26  1  0  0  0  0
 21 22  1  0  0  0  0
 21 23  1  0  0  0  0
M  END
$$$$
default_name
  -OEChem-11182114113D

 26 26  0     1  0  0  0  0  0999 V2000
   -1.8446   -3.5060   -0.3010 H   0  0  0  0  0  0  0  0  0  0  0  0
   -2.0746   -2.4490   -0.4240 C   0  0  0  0  0  0  0  0  0  0  0  0
   -2.6906   -2.1160    0.4090 H   0  0  0  0  0  0  0  0  0  0  0  0
   -2.5986   -2.2980   -1.3650 H   0  0  0  0  0  0  0  0  0  0  0  0
   -0.7756   -1.6630   -0.4350 C   0  0  0  0  0  0  0  0  0  0  0  0
    0.2844   -2.2800   -0.4550 O   0  0  0  0  0  0  0  0  0  0  0  0
   -0.8246   -0.3180   -0.4350 N   0  0  0  0  0  0  0  0  0  0  0  0
   -2.0106    0.5080   -0.5910 C   0  0  0  0  0  0  0  0  0  0  0  0
   -2.8794    0.0924   -0.0778 H   0  0  0  0  0  0  0  0  0  0  0  0
   -2.2658    0.7721   -1.6167 H   0  0  0  0  0  0  0  0  0  0  0  0
   -1.5055    1.7417    0.1542 C   0  0  0  0  0  0  0  0  0  0  0  0
   -1.4385    1.5656    1.2289 H   0  0  0  0  0  0  0  0  0  0  0  0
   -2.1554    2.5907   -0.0597 H   0  0  0  0  0  0  0  0  0  0  0  0
   -0.1306    1.9711   -0.4735 C   0  0  0  0  0  0  0  0  0  0  0  0
    0.4913    2.6226    0.1437 H   0  0  0  0  0  0  0  0  0  0  0  0
   -0.1563    2.3372   -1.4997 H   0  0  0  0  0  0  0  0  0  0  0  0
    0.3724    0.5200   -0.4020 C   0  0  1  0  0  0  0  0  0  0  0  0
    0.9653    0.3073   -1.2918 H   0  0  0  0  0  0  0  0  0  0  0  0
    1.2232    0.2686    0.8542 C   0  0  0  0  0  0  0  0  0  0  0  0
    0.6901   -0.0529    1.9143 O   0  0  0  0  0  0  0  0  0  0  0  0
    2.5438    0.4549    0.7412 N   0  0  0  0  0  0  0  0  0  0  0  0
    2.9108    0.6598   -0.1744 H   0  0  0  0  0  0  0  0  0  0  0  0
    3.4911    0.2675    1.8376 C   0  0  0  0  0  0  0  0  0  0  0  0
    3.5014   -0.7835    2.1344 H   0  0  0  0  0  0  0  0  0  0  0  0
    4.4933    0.5649    1.5273 H   0  0  0  0  0  0  0  0  0  0  0  0
    3.1848    0.8673    2.6974 H   0  0  0  0  0  0  0  0  0  0  0  0
  5  6  2  0  0  0  0
  5  7  1  0  0  0  0
  2  3  1  0  0  0  0
  2  4  1  0  0  0  0
  2  5  1  0  0  0  0
  1  2  1  0  0  0  0
 19 20  2  0  0  0  0
 19 21  1  0  0  0  0
 17 18  1  0  0  0  0
 17 19  1  0  0  0  0
 14 15  1  0  0  0  0
 14 16  1  0  0  0  0
 14 17  1  0  0  0  0
 11 12  1  0  0  0  0
 11 13  1  0  0  0  0
 11 14  1  0  0  0  0
  8  9  1  0  0  0  0
  8 10  1  0  0  0  0
  8 11  1  0  0  0  0
  7  8  1  0  0  0  0
  7 17  1  0  0  0  0
 23 24  1  0  0  0  0
 23 25  1  0  0  0  0
 23 26  1  0  0  0  0
 21 22  1  0  0  0  0
 21 23  1  0  0  0  0
M  END
$$$$
default_name
  -OEChem-11182114113D

 26 26  0     1  0  0  0  0  0999 V2000
   -1.8446   -3.5060   -0.3010 H   0  0  0  0  0  0  0  0  0  0  0  0
   -2.0746   -2.4490   -0.4240 C   0  0  0  0  0  0  0  0  0  0  0  0
   -2.6906   -2.1160    0.4090 H   0  0  0  0  0  0  0  0  0  0  0  0
   -2.5986   -2.2980   -1.3650 H   0  0  0  0  0  0  0  0  0  0  0  0
   -0.7756   -1.6630   -0.4350 C   0  0  0  0  0  0  0  0  0  0  0  0
    0.2844   -2.2800   -0.4550 O   0  0  0  0  0  0  0  0  0  0  0  0
   -0.8246   -0.3180   -0.4350 N   0  0  0  0  0  0  0  0  0  0  0  0
   -2.0106    0.5080   -0.5910 C   0  0  0  0  0  0  0  0  0  0  0  0
   -2.8794    0.0924   -0.0778 H   0  0  0  0  0  0  0  0  0  0  0  0
   -2.2658    0.7721   -1.6167 H   0  0  0  0  0  0  0  0  0  0  0  0
   -1.5055    1.7417    0.1542 C   0  0  0  0  0  0  0  0  0  0  0  0
   -1.4385    1.5656    1.2289 H   0  0  0  0  0  0  0  0  0  0  0  0
   -2.1554    2.5907   -0.0597 H   0  0  0  0  0  0  0  0  0  0  0  0
   -0.1306    1.9711   -0.4735 C   0  0  0  0  0  0  0  0  0  0  0  0
    0.4913    2.6226    0.1437 H   0  0  0  0  0  0  0  0  0  0  0  0
   -0.1563    2.3372   -1.4997 H   0  0  0  0  0  0  0  0  0  0  0  0
    0.3724    0.5200   -0.4020 C   0  0  1  0  0  0  0  0  0  0  0  0
    0.9653    0.3073   -1.2918 H   0  0  0  0  0  0  0  0  0  0  0  0
    1.2232    0.2686    0.8542 C   0  0  0  0  0  0  0  0  0  0  0  0
    0.7432   -0.3099    1.8270 O   0  0  0  0  0  0  0  0  0  0  0  0
    2.4757    0.7406    0.8445 N   0  0  0  0  0  0  0  0  0  0  0  0
    2.8147    1.1504   -0.0111 H   0  0  0  0  0  0  0  0  0  0  0  0
    3.4113    0.5947    1.9571 C   0  0  0  0  0  0  0  0  0  0  0  0
    3.6387   -0.4631    2.1055 H   0  0  0  0  0  0  0  0  0  0  0  0
    4.3343    1.1369    1.7495 H   0  0  0  0  0  0  0  0  0  0  0  0
    2.9604    0.9838    2.8727 H   0  0  0  0  0  0  0  0  0  0  0  0
  5  6  2  0  0  0  0
  5  7  1  0  0  0  0
  2  3  1  0  0  0  0
  2  4  1  0  0  0  0
  2  5  1  0  0  0  0
  1  2  1  0  0  0  0
 19 20  2  0  0  0  0
 19 21  1  0  0  0  0
 17 18  1  0  0  0  0
 17 19  1  0  0  0  0
 14 15  1  0  0  0  0
 14 16  1  0  0  0  0
 14 17  1  0  0  0  0
 11 12  1  0  0  0  0
 11 13  1  0  0  0  0
 11 14  1  0  0  0  0
  8  9  1  0  0  0  0
  8 10  1  0  0  0  0
  8 11  1  0  0  0  0
  7  8  1  0  0  0  0
  7 17  1  0  0  0  0
 23 24  1  0  0  0  0
 23 25  1  0  0  0  0
 23 26  1  0  0  0  0
 21 22  1  0  0  0  0
 21 23  1  0  0  0  0
M  END
$$$$
default_name
  -OEChem-11182114113D

 26 26  0     1  0  0  0  0  0999 V2000
   -1.8446   -3.5060   -0.3010 H   0  0  0  0  0  0  0  0  0  0  0  0
   -2.0746   -2.4490   -0.4240 C   0  0  0  0  0  0  0  0  0  0  0  0
   -2.6906   -2.1160    0.4090 H   0  0  0  0  0  0  0  0  0  0  0  0
   -2.5986   -2.2980   -1.3650 H   0  0  0  0  0  0  0  0  0  0  0  0
   -0.7756   -1.6630   -0.4350 C   0  0  0  0  0  0  0  0  0  0  0  0
    0.2844   -2.2800   -0.4550 O   0  0  0  0  0  0  0  0  0  0  0  0
   -0.8246   -0.3180   -0.4350 N   0  0  0  0  0  0  0  0  0  0  0  0
   -2.0106    0.5080   -0.5910 C   0  0  0  0  0  0  0  0  0  0  0  0
   -2.9830    0.1578   -0.2410 H   0  0  0  0  0  0  0  0  0  0  0  0
   -2.1351    1.2455   -1.3831 H   0  0  0  0  0  0  0  0  0  0  0  0
   -1.2272    1.1176    0.5697 C   0  0  0  0  0  0  0  0  0  0  0  0
   -0.8237    0.3336    1.2124 H   0  0  0  0  0  0  0  0  0  0  0  0
   -1.8931    1.7741    1.1306 H   0  0  0  0  0  0  0  0  0  0  0  0
   -0.1209    1.9420   -0.0885 C   0  0  0  0  0  0  0  0  0  0  0  0
    0.5927    2.4617    0.5542 H   0  0  0  0  0  0  0  0  0  0  0  0
   -0.2955    2.5163   -0.9982 H   0  0  0  0  0  0  0  0  0  0  0  0
    0.3724    0.5200   -0.4020 C   0  0  1  0  0  0  0  0  0  0  0  0
    0.8239    0.5134   -1.3943 H   0  0  0  0  0  0  0  0  0  0  0  0
    1.3983    0.0272    0.6323 C   0  0  0  0  0  0  0  0  0  0  0  0
    1.1508   -0.9462    1.3412 O   0  0  0  0  0  0  0  0  0  0  0  0
    2.5340    0.7269    0.7429 N   0  0  0  0  0  0  0  0  0  0  0  0
    2.6885    1.4752    0.0863 H   0  0  0  0  0  0  0  0  0  0  0  0
    3.6064    0.3991    1.6795 C   0  0  0  0  0  0  0  0  0  0  0  0
    4.0382   -0.5684    1.4146 H   0  0  0  0  0  0  0  0  0  0  0  0
    4.3842    1.1627    1.6471 H   0  0  0  0  0  0  0  0  0  0  0  0
    3.2048    0.3334    2.6930 H   0  0  0  0  0  0  0  0  0  0  0  0
  5  6  2  0  0  0  0
  5  7  1  0  0  0  0
  2  3  1  0  0  0  0
  2  4  1  0  0  0  0
  2  5  1  0  0  0  0
  1  2  1  0  0  0  0
 19 20  2  0  0  0  0
 19 21  1  0  0  0  0
 17 18  1  0  0  0  0
 17 19  1  0  0  0  0
 14 15  1  0  0  0  0
 14 16  1  0  0  0  0
 14 17  1  0  0  0  0
 11 12  1  0  0  0  0
 11 13  1  0  0  0  0
 11 14  1  0  0  0  0
  8  9  1  0  0  0  0
  8 10  1  0  0  0  0
  8 11  1  0  0  0  0
  7  8  1  0  0  0  0
  7 17  1  0  0  0  0
 23 24  1  0  0  0  0
 23 25  1  0  0  0  0
 23 26  1  0  0  0  0
 21 22  1  0  0  0  0
 21 23  1  0  0  0  0
M  END
$$$$
default_name
  -OEChem-11182114113D

 26 26  0     1  0  0  0  0  0999 V2000
   -1.8446   -3.5060   -0.3010 H   0  0  0  0  0  0  0  0  0  0  0  0
   -2.0746   -2.4490   -0.4240 C   0  0  0  0  0  0  0  0  0  0  0  0
   -2.6906   -2.1160    0.4090 H   0  0  0  0  0  0  0  0  0  0  0  0
   -2.5986   -2.2980   -1.3650 H   0  0  0  0  0  0  0  0  0  0  0  0
   -0.7756   -1.6630   -0.4350 C   0  0  0  0  0  0  0  0  0  0  0  0
    0.2844   -2.2800   -0.4550 O   0  0  0  0  0  0  0  0  0  0  0  0
   -0.8246   -0.3180   -0.4350 N   0  0  0  0  0  0  0  0  0  0  0  0
   -2.0106    0.5080   -0.5910 C   0  0  0  0  0  0  0  0  0  0  0  0
   -2.9830    0.1578   -0.2410 H   0  0  0  0  0  0  0  0  0  0  0  0
   -2.1351    1.2455   -1.3831 H   0  0  0  0  0  0  0  0  0  0  0  0
   -1.2272    1.1176    0.5697 C   0  0  0  0  0  0  0  0  0  0  0  0
   -0.8237    0.3336    1.2124 H   0  0  0  0  0  0  0  0  0  0  0  0
   -1.8931    1.7741    1.1306 H   0  0  0  0  0  0  0  0  0  0  0  0
   -0.1209    1.9420   -0.0885 C   0  0  0  0  0  0  0  0  0  0  0  0
    0.5927    2.4617    0.5542 H   0  0  0  0  0  0  0  0  0  0  0  0
   -0.2955    2.5163   -0.9982 H   0  0  0  0  0  0  0  0  0  0  0  0
    0.3724    0.5200   -0.4020 C   0  0  1  0  0  0  0  0  0  0  0  0
    0.8239    0.5134   -1.3943 H   0  0  0  0  0  0  0  0  0  0  0  0
    1.3983    0.0272    0.6323 C   0  0  0  0  0  0  0  0  0  0  0  0
    1.2841   -1.0853    1.1428 O   0  0  0  0  0  0  0  0  0  0  0  0
    2.3782    0.8750    0.9681 N   0  0  0  0  0  0  0  0  0  0  0  0
    2.4384    1.7443    0.4626 H   0  0  0  0  0  0  0  0  0  0  0  0
    3.4264    0.5675    1.9383 C   0  0  0  0  0  0  0  0  0  0  0  0
    4.0434   -0.2507    1.5608 H   0  0  0  0  0  0  0  0  0  0  0  0
    4.0531    1.4434    2.1091 H   0  0  0  0  0  0  0  0  0  0  0  0
    2.9757    0.2544    2.8826 H   0  0  0  0  0  0  0  0  0  0  0  0
  5  6  2  0  0  0  0
  5  7  1  0  0  0  0
  2  3  1  0  0  0  0
  2  4  1  0  0  0  0
  2  5  1  0  0  0  0
  1  2  1  0  0  0  0
 19 20  2  0  0  0  0
 19 21  1  0  0  0  0
 17 18  1  0  0  0  0
 17 19  1  0  0  0  0
 14 15  1  0  0  0  0
 14 16  1  0  0  0  0
 14 17  1  0  0  0  0
 11 12  1  0  0  0  0
 11 13  1  0  0  0  0
 11 14  1  0  0  0  0
  8  9  1  0  0  0  0
  8 10  1  0  0  0  0
  8 11  1  0  0  0  0
  7  8  1  0  0  0  0
  7 17  1  0  0  0  0
 23 24  1  0  0  0  0
 23 25  1  0  0  0  0
 23 26  1  0  0  0  0
 21 22  1  0  0  0  0
 21 23  1  0  0  0  0
M  END
$$$$
default_name
  -OEChem-11182114113D

 26 26  0     1  0  0  0  0  0999 V2000
   -1.8446   -3.5060   -0.3010 H   0  0  0  0  0  0  0  0  0  0  0  0
   -2.0746   -2.4490   -0.4240 C   0  0  0  0  0  0  0  0  0  0  0  0
   -2.6906   -2.1160    0.4090 H   0  0  0  0  0  0  0  0  0  0  0  0
   -2.5986   -2.2980   -1.3650 H   0  0  0  0  0  0  0  0  0  0  0  0
   -0.7756   -1.6630   -0.4350 C   0  0  0  0  0  0  0  0  0  0  0  0
    0.2844   -2.2800   -0.4550 O   0  0  0  0  0  0  0  0  0  0  0  0
   -0.8246   -0.3180   -0.4350 N   0  0  0  0  0  0  0  0  0  0  0  0
   -2.0106    0.5080   -0.5910 C   0  0  0  0  0  0  0  0  0  0  0  0
   -2.9830    0.1578   -0.2410 H   0  0  0  0  0  0  0  0  0  0  0  0
   -2.1351    1.2455   -1.3831 H   0  0  0  0  0  0  0  0  0  0  0  0
   -1.2272    1.1176    0.5697 C   0  0  0  0  0  0  0  0  0  0  0  0
   -0.8237    0.3336    1.2124 H   0  0  0  0  0  0  0  0  0  0  0  0
   -1.8931    1.7741    1.1306 H   0  0  0  0  0  0  0  0  0  0  0  0
   -0.1209    1.9420   -0.0885 C   0  0  0  0  0  0  0  0  0  0  0  0
    0.5927    2.4617    0.5542 H   0  0  0  0  0  0  0  0  0  0  0  0
   -0.2955    2.5163   -0.9982 H   0  0  0  0  0  0  0  0  0  0  0  0
    0.3724    0.5200   -0.4020 C   0  0  1  0  0  0  0  0  0  0  0  0
    0.8239    0.5134   -1.3943 H   0  0  0  0  0  0  0  0  0  0  0  0
    1.3983    0.0272    0.6323 C   0  0  0  0  0  0  0  0  0  0  0  0
    1.4535   -1.1622    0.9381 O   0  0  0  0  0  0  0  0  0  0  0  0
    2.1832    0.9521    1.1982 N   0  0  0  0  0  0  0  0  0  0  0  0
    2.1188    1.8959    0.8518 H   0  0  0  0  0  0  0  0  0  0  0  0
    3.2017    0.6542    2.2024 C   0  0  0  0  0  0  0  0  0  0  0  0
    3.9810    0.0318    1.7574 H   0  0  0  0  0  0  0  0  0  0  0  0
    3.6462    1.5770    2.5764 H   0  0  0  0  0  0  0  0  0  0  0  0
    2.7524    0.1055    3.0331 H   0  0  0  0  0  0  0  0  0  0  0  0
  5  6  2  0  0  0  0
  5  7  1  0  0  0  0
  2  3  1  0  0  0  0
  2  4  1  0  0  0  0
  2  5  1  0  0  0  0
  1  2  1  0  0  0  0
 19 20  2  0  0  0  0
 19 21  1  0  0  0  0
 17 18  1  0  0  0  0
 17 19  1  0  0  0  0
 14 15  1  0  0  0  0
 14 16  1  0  0  0  0
 14 17  1  0  0  0  0
 11 12  1  0  0  0  0
 11 13  1  0  0  0  0
 11 14  1  0  0  0  0
  8  9  1  0  0  0  0
  8 10  1  0  0  0  0
  8 11  1  0  0  0  0
  7  8  1  0  0  0  0
  7 17  1  0  0  0  0
 23 24  1  0  0  0  0
 23 25  1  0  0  0  0
 23 26  1  0  0  0  0
 21 22  1  0  0  0  0
 21 23  1  0  0  0  0
M  END
$$$$
default_name
  -OEChem-11182114113D

 26 26  0     1  0  0  0  0  0999 V2000
   -1.8446   -3.5060   -0.3010 H   0  0  0  0  0  0  0  0  0  0  0  0
   -2.0746   -2.4490   -0.4240 C   0  0  0  0  0  0  0  0  0  0  0  0
   -2.6906   -2.1160    0.4090 H   0  0  0  0  0  0  0  0  0  0  0  0
   -2.5986   -2.2980   -1.3650 H   0  0  0  0  0  0  0  0  0  0  0  0
   -0.7756   -1.6630   -0.4350 C   0  0  0  0  0  0  0  0  0  0  0  0
    0.2844   -2.2800   -0.4550 O   0  0  0  0  0  0  0  0  0  0  0  0
   -0.8246   -0.3180   -0.4350 N   0  0  0  0  0  0  0  0  0  0  0  0
   -2.0106    0.5080   -0.5910 C   0  0  0  0  0  0  0  0  0  0  0  0
   -2.9830    0.1578   -0.2410 H   0  0  0  0  0  0  0  0  0  0  0  0
   -2.1351    1.2455   -1.3831 H   0  0  0  0  0  0  0  0  0  0  0  0
   -1.2272    1.1176    0.5697 C   0  0  0  0  0  0  0  0  0  0  0  0
   -0.8237    0.3336    1.2124 H   0  0  0  0  0  0  0  0  0  0  0  0
   -1.8931    1.7741    1.1306 H   0  0  0  0  0  0  0  0  0  0  0  0
   -0.1209    1.9420   -0.0885 C   0  0  0  0  0  0  0  0  0  0  0  0
    0.5927    2.4617    0.5542 H   0  0  0  0  0  0  0  0  0  0  0  0
   -0.2955    2.5163   -0.9982 H   0  0  0  0  0  0  0  0  0  0  0  0
    0.3724    0.5200   -0.4020 C   0  0  1  0  0  0  0  0  0  0  0  0
    0.8239    0.5134   -1.3943 H   0  0  0  0  0  0  0  0  0  0  0  0
    1.3983    0.0272    0.6323 C   0  0  0  0  0  0  0  0  0  0  0  0
    1.6475   -1.1717    0.7412 O   0  0  0  0  0  0  0  0  0  0  0  0
    1.9623    0.9529    1.4176 N   0  0  0  0  0  0  0  0  0  0  0  0
    1.7515    1.9194    1.2274 H   0  0  0  0  0  0  0  0  0  0  0  0
    2.9477    0.6532    2.4539 C   0  0  0  0  0  0  0  0  0  0  0  0
    3.8552    0.2599    1.9908 H   0  0  0  0  0  0  0  0  0  0  0  0
    3.1912    1.5546    3.0171 H   0  0  0  0  0  0  0  0  0  0  0  0
    2.5502   -0.1031    3.1342 H   0  0  0  0  0  0  0  0  0  0  0  0
  5  6  2  0  0  0  0
  5  7  1  0  0  0  0
  2  3  1  0  0  0  0
  2  4  1  0  0  0  0
  2  5  1  0  0  0  0
  1  2  1  0  0  0  0
 19 20  2  0  0  0  0
 19 21  1  0  0  0  0
 17 18  1  0  0  0  0
 17 19  1  0  0  0  0
 14 15  1  0  0  0  0
 14 16  1  0  0  0  0
 14 17  1  0  0  0  0
 11 12  1  0  0  0  0
 11 13  1  0  0  0  0
 11 14  1  0  0  0  0
  8  9  1  0  0  0  0
  8 10  1  0  0  0  0
  8 11  1  0  0  0  0
  7  8  1  0  0  0  0
  7 17  1  0  0  0  0
 23 24  1  0  0  0  0
 23 25  1  0  0  0  0
 23 26  1  0  0  0  0
 21 22  1  0  0  0  0
 21 23  1  0  0  0  0
M  END
$$$$
default_name
  -OEChem-11182114113D

 26 26  0     1  0  0  0  0  0999 V2000
   -1.8446   -3.5060   -0.3010 H   0  0  0  0  0  0  0  0  0  0  0  0
   -2.0746   -2.4490   -0.4240 C   0  0  0  0  0  0  0  0  0  0  0  0
   -2.6906   -2.1160    0.4090 H   0  0  0  0  0  0  0  0  0  0  0  0
   -2.5986   -2.2980   -1.3650 H   0  0  0  0  0  0  0  0  0  0  0  0
   -0.7756   -1.6630   -0.4350 C   0  0  0  0  0  0  0  0  0  0  0  0
    0.2844   -2.2800   -0.4550 O   0  0  0  0  0  0  0  0  0  0  0  0
   -0.8246   -0.3180   -0.4350 N   0  0  0  0  0  0  0  0  0  0  0  0
   -2.0106    0.5080   -0.5910 C   0  0  0  0  0  0  0  0  0  0  0  0
   -2.9830    0.1578   -0.2410 H   0  0  0  0  0  0  0  0  0  0  0  0
   -2.1351    1.2455   -1.3831 H   0  0  0  0  0  0  0  0  0  0  0  0
   -1.2272    1.1176    0.5697 C   0  0  0  0  0  0  0  0  0  0  0  0
   -0.8237    0.3336    1.2124 H   0  0  0  0  0  0  0  0  0  0  0  0
   -1.8931    1.7741    1.1306 H   0  0  0  0  0  0  0  0  0  0  0  0
   -0.1209    1.9420   -0.0885 C   0  0  0  0  0  0  0  0  0  0  0  0
    0.5927    2.4617    0.5542 H   0  0  0  0  0  0  0  0  0  0  0  0
   -0.2955    2.5163   -0.9982 H   0  0  0  0  0  0  0  0  0  0  0  0
    0.3724    0.5200   -0.4020 C   0  0  1  0  0  0  0  0  0  0  0  0
    0.8239    0.5134   -1.3943 H   0  0  0  0  0  0  0  0  0  0  0  0
    1.3983    0.0272    0.6323 C   0  0  0  0  0  0  0  0  0  0  0  0
    1.8528   -1.1131    0.5655 O   0  0  0  0  0  0  0  0  0  0  0  0
    1.7307    0.8773    1.6114 N   0  0  0  0  0  0  0  0  0  0  0  0
    1.3614    1.8134    1.5637 H   0  0  0  0  0  0  0  0  0  0  0  0
    2.6816    0.5646    2.6756 C   0  0  0  0  0  0  0  0  0  0  0  0
    3.6746    0.4181    2.2452 H   0  0  0  0  0  0  0  0  0  0  0  0
    2.7189    1.3777    3.4012 H   0  0  0  0  0  0  0  0  0  0  0  0
    2.3829   -0.3574    3.1791 H   0  0  0  0  0  0  0  0  0  0  0  0
  5  6  2  0  0  0  0
  5  7  1  0  0  0  0
  2  3  1  0  0  0  0
  2  4  1  0  0  0  0
  2  5  1  0  0  0  0
  1  2  1  0  0  0  0
 19 20  2  0  0  0  0
 19 21  1  0  0  0  0
 17 18  1  0  0  0  0
 17 19  1  0  0  0  0
 14 15  1  0  0  0  0
 14 16  1  0  0  0  0
 14 17  1  0  0  0  0
 11 12  1  0  0  0  0
 11 13  1  0  0  0  0
 11 14  1  0  0  0  0
  8  9  1  0  0  0  0
  8 10  1  0  0  0  0
  8 11  1  0  0  0  0
  7  8  1  0  0  0  0
  7 17  1  0  0  0  0
 23 24  1  0  0  0  0
 23 25  1  0  0  0  0
 23 26  1  0  0  0  0
 21 22  1  0  0  0  0
 21 23  1  0  0  0  0
M  END
$$$$
default_name
  -OEChem-11182114113D

 26 26  0     1  0  0  0  0  0999 V2000
   -1.8446   -3.5060   -0.3010 H   0  0  0  0  0  0  0  0  0  0  0  0
   -2.0746   -2.4490   -0.4240 C   0  0  0  0  0  0  0  0  0  0  0  0
   -2.6906   -2.1160    0.4090 H   0  0  0  0  0  0  0  0  0  0  0  0
   -2.5986   -2.2980   -1.3650 H   0  0  0  0  0  0  0  0  0  0  0  0
   -0.7756   -1.6630   -0.4350 C   0  0  0  0  0  0  0  0  0  0  0  0
    0.2844   -2.2800   -0.4550 O   0  0  0  0  0  0  0  0  0  0  0  0
   -0.8246   -0.3180   -0.4350 N   0  0  0  0  0  0  0  0  0  0  0  0
   -2.0106    0.5080   -0.5910 C   0  0  0  0  0  0  0  0  0  0  0  0
   -2.9830    0.1578   -0.2410 H   0  0  0  0  0  0  0  0  0  0  0  0
   -2.1351    1.2455   -1.3831 H   0  0  0  0  0  0  0  0  0  0  0  0
   -1.2272    1.1176    0.5697 C   0  0  0  0  0  0  0  0  0  0  0  0
   -0.8237    0.3336    1.2124 H   0  0  0  0  0  0  0  0  0  0  0  0
   -1.8931    1.7741    1.1306 H   0  0  0  0  0  0  0  0  0  0  0  0
   -0.1209    1.9420   -0.0885 C   0  0  0  0  0  0  0  0  0  0  0  0
    0.5927    2.4617    0.5542 H   0  0  0  0  0  0  0  0  0  0  0  0
   -0.2955    2.5163   -0.9982 H   0  0  0  0  0  0  0  0  0  0  0  0
    0.3724    0.5200   -0.4020 C   0  0  1  0  0  0  0  0  0  0  0  0
    0.8239    0.5134   -1.3943 H   0  0  0  0  0  0  0  0  0  0  0  0
    1.3983    0.0272    0.6323 C   0  0  0  0  0  0  0  0  0  0  0  0
    2.0555   -0.9903    0.4229 O   0  0  0  0  0  0  0  0  0  0  0  0
    1.5040    0.7305    1.7663 N   0  0  0  0  0  0  0  0  0  0  0  0
    0.9752    1.5849    1.8380 H   0  0  0  0  0  0  0  0  0  0  0  0
    2.4217    0.3945    2.8523 C   0  0  0  0  0  0  0  0  0  0  0  0
    3.4516    0.4955    2.5033 H   0  0  0  0  0  0  0  0  0  0  0  0
    2.2617    1.0583    3.7025 H   0  0  0  0  0  0  0  0  0  0  0  0
    2.2617   -0.6398    3.1647 H   0  0  0  0  0  0  0  0  0  0  0  0
  5  6  2  0  0  0  0
  5  7  1  0  0  0  0
  2  3  1  0  0  0  0
  2  4  1  0  0  0  0
  2  5  1  0  0  0  0
  1  2  1  0  0  0  0
 19 20  2  0  0  0  0
 19 21  1  0  0  0  0
 17 18  1  0  0  0  0
 17 19  1  0  0  0  0
 14 15  1  0  0  0  0
 14 16  1  0  0  0  0
 14 17  1  0  0  0  0
 11 12  1  0  0  0  0
 11 13  1  0  0  0  0
 11 14  1  0  0  0  0
  8  9  1  0  0  0  0
  8 10  1  0  0  0  0
  8 11  1  0  0  0  0
  7  8  1  0  0  0  0
  7 17  1  0  0  0  0
 23 24  1  0  0  0  0
 23 25  1  0  0  0  0
 23 26  1  0  0  0  0
 21 22  1  0  0  0  0
 21 23  1  0  0  0  0
M  END
$$$$
default_name
  -OEChem-11182114113D

 26 26  0     1  0  0  0  0  0999 V2000
   -1.8446   -3.5060   -0.3010 H   0  0  0  0  0  0  0  0  0  0  0  0
   -2.0746   -2.4490   -0.4240 C   0  0  0  0  0  0  0  0  0  0  0  0
   -2.6906   -2.1160    0.4090 H   0  0  0  0  0  0  0  0  0  0  0  0
   -2.5986   -2.2980   -1.3650 H   0  0  0  0  0  0  0  0  0  0  0  0
   -0.7756   -1.6630   -0.4350 C   0  0  0  0  0  0  0  0  0  0  0  0
    0.2844   -2.2800   -0.4550 O   0  0  0  0  0  0  0  0  0  0  0  0
   -0.8246   -0.3180   -0.4350 N   0  0  0  0  0  0  0  0  0  0  0  0
   -2.0106    0.5080   -0.5910 C   0  0  0  0  0  0  0  0  0  0  0  0
   -2.9830    0.1578   -0.2410 H   0  0  0  0  0  0  0  0  0  0  0  0
   -2.1351    1.2455   -1.3831 H   0  0  0  0  0  0  0  0  0  0  0  0
   -1.2272    1.1176    0.5697 C   0  0  0  0  0  0  0  0  0  0  0  0
   -0.8237    0.3336    1.2124 H   0  0  0  0  0  0  0  0  0  0  0  0
   -1.8931    1.7741    1.1306 H   0  0  0  0  0  0  0  0  0  0  0  0
   -0.1209    1.9420   -0.0885 C   0  0  0  0  0  0  0  0  0  0  0  0
    0.5927    2.4617    0.5542 H   0  0  0  0  0  0  0  0  0  0  0  0
   -0.2955    2.5163   -0.9982 H   0  0  0  0  0  0  0  0  0  0  0  0
    0.3724    0.5200   -0.4020 C   0  0  1  0  0  0  0  0  0  0  0  0
    0.8239    0.5134   -1.3943 H   0  0  0  0  0  0  0  0  0  0  0  0
    1.3983    0.0272    0.6323 C   0  0  0  0  0  0  0  0  0  0  0  0
    2.2418   -0.8119    0.3231 O   0  0  0  0  0  0  0  0  0  0  0  0
    1.2978    0.5225    1.8718 N   0  0  0  0  0  0  0  0  0  0  0  0
    0.6191    1.2497    2.0314 H   0  0  0  0  0  0  0  0  0  0  0  0
    2.1856    0.1543    2.9721 C   0  0  0  0  0  0  0  0  0  0  0  0
    3.2013    0.4869    2.7475 H   0  0  0  0  0  0  0  0  0  0  0  0
    1.8508    0.6182    3.9005 H   0  0  0  0  0  0  0  0  0  0  0  0
    2.1951   -0.9312    3.0920 H   0  0  0  0  0  0  0  0  0  0  0  0
  5  6  2  0  0  0  0
  5  7  1  0  0  0  0
  2  3  1  0  0  0  0
  2  4  1  0  0  0  0
  2  5  1  0  0  0  0
  1  2  1  0  0  0  0
 19 20  2  0  0  0  0
 19 21  1  0  0  0  0
 17 18  1  0  0  0  0
 17 19  1  0  0  0  0
 14 15  1  0  0  0  0
 14 16  1  0  0  0  0
 14 17  1  0  0  0  0
 11 12  1  0  0  0  0
 11 13  1  0  0  0  0
 11 14  1  0  0  0  0
  8  9  1  0  0  0  0
  8 10  1  0  0  0  0
  8 11  1  0  0  0  0
  7  8  1  0  0  0  0
  7 17  1  0  0  0  0
 23 24  1  0  0  0  0
 23 25  1  0  0  0  0
 23 26  1  0  0  0  0
 21 22  1  0  0  0  0
 21 23  1  0  0  0  0
M  END
$$$$
default_name
  -OEChem-11182114113D

 26 26  0     1  0  0  0  0  0999 V2000
   -1.8446   -3.5060   -0.3010 H   0  0  0  0  0  0  0  0  0  0  0  0
   -2.0746   -2.4490   -0.4240 C   0  0  0  0  0  0  0  0  0  0  0  0
   -2.6906   -2.1160    0.4090 H   0  0  0  0  0  0  0  0  0  0  0  0
   -2.5986   -2.2980   -1.3650 H   0  0  0  0  0  0  0  0  0  0  0  0
   -0.7756   -1.6630   -0.4350 C   0  0  0  0  0  0  0  0  0  0  0  0
    0.2844   -2.2800   -0.4550 O   0  0  0  0  0  0  0  0  0  0  0  0
   -0.8246   -0.3180   -0.4350 N   0  0  0  0  0  0  0  0  0  0  0  0
   -2.0106    0.5080   -0.5910 C   0  0  0  0  0  0  0  0  0  0  0  0
   -2.9830    0.1578   -0.2410 H   0  0  0  0  0  0  0  0  0  0  0  0
   -2.1351    1.2455   -1.3831 H   0  0  0  0  0  0  0  0  0  0  0  0
   -1.2272    1.1176    0.5697 C   0  0  0  0  0  0  0  0  0  0  0  0
   -0.8237    0.3336    1.2124 H   0  0  0  0  0  0  0  0  0  0  0  0
   -1.8931    1.7741    1.1306 H   0  0  0  0  0  0  0  0  0  0  0  0
   -0.1209    1.9420   -0.0885 C   0  0  0  0  0  0  0  0  0  0  0  0
    0.5927    2.4617    0.5542 H   0  0  0  0  0  0  0  0  0  0  0  0
   -0.2955    2.5163   -0.9982 H   0  0  0  0  0  0  0  0  0  0  0  0
    0.3724    0.5200   -0.4020 C   0  0  1  0  0  0  0  0  0  0  0  0
    0.8239    0.5134   -1.3943 H   0  0  0  0  0  0  0  0  0  0  0  0
    1.3983    0.0272    0.6323 C   0  0  0  0  0  0  0  0  0  0  0  0
    2.3990   -0.5899    0.2730 O   0  0  0  0  0  0  0  0  0  0  0  0
    1.1260    0.2675    1.9206 N   0  0  0  0  0  0  0  0  0  0  0  0
    0.3175    0.8306    2.1309 H   0  0  0  0  0  0  0  0  0  0  0  0
    1.9894   -0.1394    3.0268 C   0  0  0  0  0  0  0  0  0  0  0  0
    2.9408    0.3928    2.9611 H   0  0  0  0  0  0  0  0  0  0  0  0
    1.5140    0.0873    3.9816 H   0  0  0  0  0  0  0  0  0  0  0  0
    2.1874   -1.2118    2.9659 H   0  0  0  0  0  0  0  0  0  0  0  0
  5  6  2  0  0  0  0
  5  7  1  0  0  0  0
  2  3  1  0  0  0  0
  2  4  1  0  0  0  0
  2  5  1  0  0  0  0
  1  2  1  0  0  0  0
 19 20  2  0  0  0  0
 19 21  1  0  0  0  0
 17 18  1  0  0  0  0
 17 19  1  0  0  0  0
 14 15  1  0  0  0  0
 14 16  1  0  0  0  0
 14 17  1  0  0  0  0
 11 12  1  0  0  0  0
 11 13  1  0  0  0  0
 11 14  1  0  0  0  0
  8  9  1  0  0  0  0
  8 10  1  0  0  0  0
  8 11  1  0  0  0  0
  7  8  1  0  0  0  0
  7 17  1  0  0  0  0
 23 24  1  0  0  0  0
 23 25  1  0  0  0  0
 23 26  1  0  0  0  0
 21 22  1  0  0  0  0
 21 23  1  0  0  0  0
M  END
$$$$
default_name
  -OEChem-11182114113D

 26 26  0     1  0  0  0  0  0999 V2000
   -1.8446   -3.5060   -0.3010 H   0  0  0  0  0  0  0  0  0  0  0  0
   -2.0746   -2.4490   -0.4240 C   0  0  0  0  0  0  0  0  0  0  0  0
   -2.6906   -2.1160    0.4090 H   0  0  0  0  0  0  0  0  0  0  0  0
   -2.5986   -2.2980   -1.3650 H   0  0  0  0  0  0  0  0  0  0  0  0
   -0.7756   -1.6630   -0.4350 C   0  0  0  0  0  0  0  0  0  0  0  0
    0.2844   -2.2800   -0.4550 O   0  0  0  0  0  0  0  0  0  0  0  0
   -0.8246   -0.3180   -0.4350 N   0  0  0  0  0  0  0  0  0  0  0  0
   -2.0106    0.5080   -0.5910 C   0  0  0  0  0  0  0  0  0  0  0  0
   -2.9830    0.1578   -0.2410 H   0  0  0  0  0  0  0  0  0  0  0  0
   -2.1351    1.2455   -1.3831 H   0  0  0  0  0  0  0  0  0  0  0  0
   -1.2272    1.1176    0.5697 C   0  0  0  0  0  0  0  0  0  0  0  0
   -0.8237    0.3336    1.2124 H   0  0  0  0  0  0  0  0  0  0  0  0
   -1.8931    1.7741    1.1306 H   0  0  0  0  0  0  0  0  0  0  0  0
   -0.1209    1.9420   -0.0885 C   0  0  0  0  0  0  0  0  0  0  0  0
    0.5927    2.4617    0.5542 H   0  0  0  0  0  0  0  0  0  0  0  0
   -0.2955    2.5163   -0.9982 H   0  0  0  0  0  0  0  0  0  0  0  0
    0.3724    0.5200   -0.4020 C   0  0  1  0  0  0  0  0  0  0  0  0
    0.8239    0.5134   -1.3943 H   0  0  0  0  0  0  0  0  0  0  0  0
    1.3983    0.0272    0.6323 C   0  0  0  0  0  0  0  0  0  0  0  0
    2.5163   -0.3395    0.2760 O   0  0  0  0  0  0  0  0  0  0  0  0
    1.0004   -0.0171    1.9096 N   0  0  0  0  0  0  0  0  0  0  0  0
    0.0909    0.3560    2.1296 H   0  0  0  0  0  0  0  0  0  0  0  0
    1.8465   -0.4667    3.0126 C   0  0  0  0  0  0  0  0  0  0  0  0
    2.6878    0.2197    3.1295 H   0  0  0  0  0  0  0  0  0  0  0  0
    1.2743   -0.4981    3.9404 H   0  0  0  0  0  0  0  0  0  0  0  0
    2.2393   -1.4623    2.7950 H   0  0  0  0  0  0  0  0  0  0  0  0
  5  6  2  0  0  0  0
  5  7  1  0  0  0  0
  2  3  1  0  0  0  0
  2  4  1  0  0  0  0
  2  5  1  0  0  0  0
  1  2  1  0  0  0  0
 19 20  2  0  0  0  0
 19 21  1  0  0  0  0
 17 18  1  0  0  0  0
 17 19  1  0  0  0  0
 14 15  1  0  0  0  0
 14 16  1  0  0  0  0
 14 17  1  0  0  0  0
 11 12  1  0  0  0  0
 11 13  1  0  0  0  0
 11 14  1  0  0  0  0
  8  9  1  0  0  0  0
  8 10  1  0  0  0  0
  8 11  1  0  0  0  0
  7  8  1  0  0  0  0
  7 17  1  0  0  0  0
 23 24  1  0  0  0  0
 23 25  1  0  0  0  0
 23 26  1  0  0  0  0
 21 22  1  0  0  0  0
 21 23  1  0  0  0  0
M  END
$$$$
default_name
  -OEChem-11182114113D

 26 26  0     1  0  0  0  0  0999 V2000
   -1.8446   -3.5060   -0.3010 H   0  0  0  0  0  0  0  0  0  0  0  0
   -2.0746   -2.4490   -0.4240 C   0  0  0  0  0  0  0  0  0  0  0  0
   -2.6906   -2.1160    0.4090 H   0  0  0  0  0  0  0  0  0  0  0  0
   -2.5986   -2.2980   -1.3650 H   0  0  0  0  0  0  0  0  0  0  0  0
   -0.7756   -1.6630   -0.4350 C   0  0  0  0  0  0  0  0  0  0  0  0
    0.2844   -2.2800   -0.4550 O   0  0  0  0  0  0  0  0  0  0  0  0
   -0.8246   -0.3180   -0.4350 N   0  0  0  0  0  0  0  0  0  0  0  0
   -2.0106    0.5080   -0.5910 C   0  0  0  0  0  0  0  0  0  0  0  0
   -2.9830    0.1578   -0.2410 H   0  0  0  0  0  0  0  0  0  0  0  0
   -2.1351    1.2455   -1.3831 H   0  0  0  0  0  0  0  0  0  0  0  0
   -1.2272    1.1176    0.5697 C   0  0  0  0  0  0  0  0  0  0  0  0
   -0.8237    0.3336    1.2124 H   0  0  0  0  0  0  0  0  0  0  0  0
   -1.8931    1.7741    1.1306 H   0  0  0  0  0  0  0  0  0  0  0  0
   -0.1209    1.9420   -0.0885 C   0  0  0  0  0  0  0  0  0  0  0  0
    0.5927    2.4617    0.5542 H   0  0  0  0  0  0  0  0  0  0  0  0
   -0.2955    2.5163   -0.9982 H   0  0  0  0  0  0  0  0  0  0  0  0
    0.3724    0.5200   -0.4020 C   0  0  1  0  0  0  0  0  0  0  0  0
    0.8239    0.5134   -1.3943 H   0  0  0  0  0  0  0  0  0  0  0  0
    1.3983    0.0272    0.6323 C   0  0  0  0  0  0  0  0  0  0  0  0
    2.5857   -0.0776    0.3318 O   0  0  0  0  0  0  0  0  0  0  0  0
    0.9296   -0.3120    1.8393 N   0  0  0  0  0  0  0  0  0  0  0  0
   -0.0453   -0.1416    2.0276 H   0  0  0  0  0  0  0  0  0  0  0  0
    1.7666   -0.8053    2.9305 C   0  0  0  0  0  0  0  0  0  0  0  0
    2.4596   -0.0206    3.2414 H   0  0  0  0  0  0  0  0  0  0  0  0
    1.1482   -1.0981    3.7796 H   0  0  0  0  0  0  0  0  0  0  0  0
    2.3473   -1.6657    2.5911 H   0  0  0  0  0  0  0  0  0  0  0  0
  5  6  2  0  0  0  0
  5  7  1  0  0  0  0
  2  3  1  0  0  0  0
  2  4  1  0  0  0  0
  2  5  1  0  0  0  0
  1  2  1  0  0  0  0
 19 20  2  0  0  0  0
 19 21  1  0  0  0  0
 17 18  1  0  0  0  0
 17 19  1  0  0  0  0
 14 15  1  0  0  0  0
 14 16  1  0  0  0  0
 14 17  1  0  0  0  0
 11 12  1  0  0  0  0
 11 13  1  0  0  0  0
 11 14  1  0  0  0  0
  8  9  1  0  0  0  0
  8 10  1  0  0  0  0
  8 11  1  0  0  0  0
  7  8  1  0  0  0  0
  7 17  1  0  0  0  0
 23 24  1  0  0  0  0
 23 25  1  0  0  0  0
 23 26  1  0  0  0  0
 21 22  1  0  0  0  0
 21 23  1  0  0  0  0
M  END
$$$$
default_name
  -OEChem-11182114113D

 26 26  0     1  0  0  0  0  0999 V2000
   -1.8446   -3.5060   -0.3010 H   0  0  0  0  0  0  0  0  0  0  0  0
   -2.0746   -2.4490   -0.4240 C   0  0  0  0  0  0  0  0  0  0  0  0
   -2.6906   -2.1160    0.4090 H   0  0  0  0  0  0  0  0  0  0  0  0
   -2.5986   -2.2980   -1.3650 H   0  0  0  0  0  0  0  0  0  0  0  0
   -0.7756   -1.6630   -0.4350 C   0  0  0  0  0  0  0  0  0  0  0  0
    0.2844   -2.2800   -0.4550 O   0  0  0  0  0  0  0  0  0  0  0  0
   -0.8246   -0.3180   -0.4350 N   0  0  0  0  0  0  0  0  0  0  0  0
   -2.0106    0.5080   -0.5910 C   0  0  0  0  0  0  0  0  0  0  0  0
   -2.9830    0.1578   -0.2410 H   0  0  0  0  0  0  0  0  0  0  0  0
   -2.1351    1.2455   -1.3831 H   0  0  0  0  0  0  0  0  0  0  0  0
   -1.2272    1.1176    0.5697 C   0  0  0  0  0  0  0  0  0  0  0  0
   -0.8237    0.3336    1.2124 H   0  0  0  0  0  0  0  0  0  0  0  0
   -1.8931    1.7741    1.1306 H   0  0  0  0  0  0  0  0  0  0  0  0
   -0.1209    1.9420   -0.0885 C   0  0  0  0  0  0  0  0  0  0  0  0
    0.5927    2.4617    0.5542 H   0  0  0  0  0  0  0  0  0  0  0  0
   -0.2955    2.5163   -0.9982 H   0  0  0  0  0  0  0  0  0  0  0  0
    0.3724    0.5200   -0.4020 C   0  0  1  0  0  0  0  0  0  0  0  0
    0.8239    0.5134   -1.3943 H   0  0  0  0  0  0  0  0  0  0  0  0
    1.3983    0.0272    0.6323 C   0  0  0  0  0  0  0  0  0  0  0  0
    2.6026    0.1777    0.4367 O   0  0  0  0  0  0  0  0  0  0  0  0
    0.9184   -0.5971    1.7147 N   0  0  0  0  0  0  0  0  0  0  0  0
   -0.0817   -0.6284    1.8318 H   0  0  0  0  0  0  0  0  0  0  0  0
    1.7551   -1.1321    2.7862 C   0  0  0  0  0  0  0  0  0  0  0  0
    2.2717   -0.3117    3.2891 H   0  0  0  0  0  0  0  0  0  0  0  0
    1.1441   -1.6719    3.5103 H   0  0  0  0  0  0  0  0  0  0  0  0
    2.5039   -1.8083    2.3678 H   0  0  0  0  0  0  0  0  0  0  0  0
  5  6  2  0  0  0  0
  5  7  1  0  0  0  0
  2  3  1  0  0  0  0
  2  4  1  0  0  0  0
  2  5  1  0  0  0  0
  1  2  1  0  0  0  0
 19 20  2  0  0  0  0
 19 21  1  0  0  0  0
 17 18  1  0  0  0  0
 17 19  1  0  0  0  0
 14 15  1  0  0  0  0
 14 16  1  0  0  0  0
 14 17  1  0  0  0  0
 11 12  1  0  0  0  0
 11 13  1  0  0  0  0
 11 14  1  0  0  0  0
  8  9  1  0  0  0  0
  8 10  1  0  0  0  0
  8 11  1  0  0  0  0
  7  8  1  0  0  0  0
  7 17  1  0  0  0  0
 23 24  1  0  0  0  0
 23 25  1  0  0  0  0
 23 26  1  0  0  0  0
 21 22  1  0  0  0  0
 21 23  1  0  0  0  0
M  END
$$$$
default_name
  -OEChem-11182114113D

 26 26  0     1  0  0  0  0  0999 V2000
   -1.8446   -3.5060   -0.3010 H   0  0  0  0  0  0  0  0  0  0  0  0
   -2.0746   -2.4490   -0.4240 C   0  0  0  0  0  0  0  0  0  0  0  0
   -2.6906   -2.1160    0.4090 H   0  0  0  0  0  0  0  0  0  0  0  0
   -2.5986   -2.2980   -1.3650 H   0  0  0  0  0  0  0  0  0  0  0  0
   -0.7756   -1.6630   -0.4350 C   0  0  0  0  0  0  0  0  0  0  0  0
    0.2844   -2.2800   -0.4550 O   0  0  0  0  0  0  0  0  0  0  0  0
   -0.8246   -0.3180   -0.4350 N   0  0  0  0  0  0  0  0  0  0  0  0
   -2.0106    0.5080   -0.5910 C   0  0  0  0  0  0  0  0  0  0  0  0
   -2.9830    0.1578   -0.2410 H   0  0  0  0  0  0  0  0  0  0  0  0
   -2.1351    1.2455   -1.3831 H   0  0  0  0  0  0  0  0  0  0  0  0
   -1.2272    1.1176    0.5697 C   0  0  0  0  0  0  0  0  0  0  0  0
   -0.8237    0.3336    1.2124 H   0  0  0  0  0  0  0  0  0  0  0  0
   -1.8931    1.7741    1.1306 H   0  0  0  0  0  0  0  0  0  0  0  0
   -0.1209    1.9420   -0.0885 C   0  0  0  0  0  0  0  0  0  0  0  0
    0.5927    2.4617    0.5542 H   0  0  0  0  0  0  0  0  0  0  0  0
   -0.2955    2.5163   -0.9982 H   0  0  0  0  0  0  0  0  0  0  0  0
    0.3724    0.5200   -0.4020 C   0  0  1  0  0  0  0  0  0  0  0  0
    0.8239    0.5134   -1.3943 H   0  0  0  0  0  0  0  0  0  0  0  0
    1.3983    0.0272    0.6323 C   0  0  0  0  0  0  0  0  0  0  0  0
    2.5658    0.4092    0.5835 O   0  0  0  0  0  0  0  0  0  0  0  0
    0.9674   -0.8529    1.5441 N   0  0  0  0  0  0  0  0  0  0  0  0
   -0.0160   -1.0711    1.5557 H   0  0  0  0  0  0  0  0  0  0  0  0
    1.8129   -1.4248    2.5894 C   0  0  0  0  0  0  0  0  0  0  0  0
    2.1369   -0.6339    3.2692 H   0  0  0  0  0  0  0  0  0  0  0  0
    1.2624   -2.1804    3.1507 H   0  0  0  0  0  0  0  0  0  0  0  0
    2.6984   -1.8801    2.1406 H   0  0  0  0  0  0  0  0  0  0  0  0
  5  6  2  0  0  0  0
  5  7  1  0  0  0  0
  2  3  1  0  0  0  0
  2  4  1  0  0  0  0
  2  5  1  0  0  0  0
  1  2  1  0  0  0  0
 19 20  2  0  0  0  0
 19 21  1  0  0  0  0
 17 18  1  0  0  0  0
 17 19  1  0  0  0  0
 14 15  1  0  0  0  0
 14 16  1  0  0  0  0
 14 17  1  0  0  0  0
 11 12  1  0  0  0  0
 11 13  1  0  0  0  0
 11 14  1  0  0  0  0
  8  9  1  0  0  0  0
  8 10  1  0  0  0  0
  8 11  1  0  0  0  0
  7  8  1  0  0  0  0
  7 17  1  0  0  0  0
 23 24  1  0  0  0  0
 23 25  1  0  0  0  0
 23 26  1  0  0  0  0
 21 22  1  0  0  0  0
 21 23  1  0  0  0  0
M  END
$$$$
default_name
  -OEChem-11182114113D

 26 26  0     1  0  0  0  0  0999 V2000
   -1.8446   -3.5060   -0.3010 H   0  0  0  0  0  0  0  0  0  0  0  0
   -2.0746   -2.4490   -0.4240 C   0  0  0  0  0  0  0  0  0  0  0  0
   -2.6906   -2.1160    0.4090 H   0  0  0  0  0  0  0  0  0  0  0  0
   -2.5986   -2.2980   -1.3650 H   0  0  0  0  0  0  0  0  0  0  0  0
   -0.7756   -1.6630   -0.4350 C   0  0  0  0  0  0  0  0  0  0  0  0
    0.2844   -2.2800   -0.4550 O   0  0  0  0  0  0  0  0  0  0  0  0
   -0.8246   -0.3180   -0.4350 N   0  0  0  0  0  0  0  0  0  0  0  0
   -2.0106    0.5080   -0.5910 C   0  0  0  0  0  0  0  0  0  0  0  0
   -2.9830    0.1578   -0.2410 H   0  0  0  0  0  0  0  0  0  0  0  0
   -2.1351    1.2455   -1.3831 H   0  0  0  0  0  0  0  0  0  0  0  0
   -1.2272    1.1176    0.5697 C   0  0  0  0  0  0  0  0  0  0  0  0
   -0.8237    0.3336    1.2124 H   0  0  0  0  0  0  0  0  0  0  0  0
   -1.8931    1.7741    1.1306 H   0  0  0  0  0  0  0  0  0  0  0  0
   -0.1209    1.9420   -0.0885 C   0  0  0  0  0  0  0  0  0  0  0  0
    0.5927    2.4617    0.5542 H   0  0  0  0  0  0  0  0  0  0  0  0
   -0.2955    2.5163   -0.9982 H   0  0  0  0  0  0  0  0  0  0  0  0
    0.3724    0.5200   -0.4020 C   0  0  1  0  0  0  0  0  0  0  0  0
    0.8239    0.5134   -1.3943 H   0  0  0  0  0  0  0  0  0  0  0  0
    1.3983    0.0272    0.6323 C   0  0  0  0  0  0  0  0  0  0  0  0
    2.4778    0.6010    0.7622 O   0  0  0  0  0  0  0  0  0  0  0  0
    1.0735   -1.0619    1.3393 N   0  0  0  0  0  0  0  0  0  0  0  0
    0.1475   -1.4396    1.2180 H   0  0  0  0  0  0  0  0  0  0  0  0
    1.9360   -1.6635    2.3536 C   0  0  0  0  0  0  0  0  0  0  0  0
    2.0645   -0.9651    3.1833 H   0  0  0  0  0  0  0  0  0  0  0  0
    1.4950   -2.5889    2.7254 H   0  0  0  0  0  0  0  0  0  0  0  0
    2.9177   -1.8765    1.9249 H   0  0  0  0  0  0  0  0  0  0  0  0
  5  6  2  0  0  0  0
  5  7  1  0  0  0  0
  2  3  1  0  0  0  0
  2  4  1  0  0  0  0
  2  5  1  0  0  0  0
  1  2  1  0  0  0  0
 19 20  2  0  0  0  0
 19 21  1  0  0  0  0
 17 18  1  0  0  0  0
 17 19  1  0  0  0  0
 14 15  1  0  0  0  0
 14 16  1  0  0  0  0
 14 17  1  0  0  0  0
 11 12  1  0  0  0  0
 11 13  1  0  0  0  0
 11 14  1  0  0  0  0
  8  9  1  0  0  0  0
  8 10  1  0  0  0  0
  8 11  1  0  0  0  0
  7  8  1  0  0  0  0
  7 17  1  0  0  0  0
 23 24  1  0  0  0  0
 23 25  1  0  0  0  0
 23 26  1  0  0  0  0
 21 22  1  0  0  0  0
 21 23  1  0  0  0  0
M  END
$$$$
default_name
  -OEChem-11182114113D

 26 26  0     1  0  0  0  0  0999 V2000
   -1.8446   -3.5060   -0.3010 H   0  0  0  0  0  0  0  0  0  0  0  0
   -2.0746   -2.4490   -0.4240 C   0  0  0  0  0  0  0  0  0  0  0  0
   -2.6906   -2.1160    0.4090 H   0  0  0  0  0  0  0  0  0  0  0  0
   -2.5986   -2.2980   -1.3650 H   0  0  0  0  0  0  0  0  0  0  0  0
   -0.7756   -1.6630   -0.4350 C   0  0  0  0  0  0  0  0  0  0  0  0
    0.2844   -2.2800   -0.4550 O   0  0  0  0  0  0  0  0  0  0  0  0
   -0.8246   -0.3180   -0.4350 N   0  0  0  0  0  0  0  0  0  0  0  0
   -2.0106    0.5080   -0.5910 C   0  0  0  0  0  0  0  0  0  0  0  0
   -2.9830    0.1578   -0.2410 H   0  0  0  0  0  0  0  0  0  0  0  0
   -2.1351    1.2455   -1.3831 H   0  0  0  0  0  0  0  0  0  0  0  0
   -1.2272    1.1176    0.5697 C   0  0  0  0  0  0  0  0  0  0  0  0
   -0.8237    0.3336    1.2124 H   0  0  0  0  0  0  0  0  0  0  0  0
   -1.8931    1.7741    1.1306 H   0  0  0  0  0  0  0  0  0  0  0  0
   -0.1209    1.9420   -0.0885 C   0  0  0  0  0  0  0  0  0  0  0  0
    0.5927    2.4617    0.5542 H   0  0  0  0  0  0  0  0  0  0  0  0
   -0.2955    2.5163   -0.9982 H   0  0  0  0  0  0  0  0  0  0  0  0
    0.3724    0.5200   -0.4020 C   0  0  1  0  0  0  0  0  0  0  0  0
    0.8239    0.5134   -1.3943 H   0  0  0  0  0  0  0  0  0  0  0  0
    1.3983    0.0272    0.6323 C   0  0  0  0  0  0  0  0  0  0  0  0
    2.3445    0.7401    0.9607 O   0  0  0  0  0  0  0  0  0  0  0  0
    1.2294   -1.2100    1.1142 N   0  0  0  0  0  0  0  0  0  0  0  0
    0.3975   -1.7088    0.8417 H   0  0  0  0  0  0  0  0  0  0  0  0
    2.1161   -1.8320    2.0948 C   0  0  0  0  0  0  0  0  0  0  0  0
    2.0593   -1.2828    3.0371 H   0  0  0  0  0  0  0  0  0  0  0  0
    1.8260   -2.8695    2.2634 H   0  0  0  0  0  0  0  0  0  0  0  0
    3.1468   -1.7975    1.7353 H   0  0  0  0  0  0  0  0  0  0  0  0
  5  6  2  0  0  0  0
  5  7  1  0  0  0  0
  2  3  1  0  0  0  0
  2  4  1  0  0  0  0
  2  5  1  0  0  0  0
  1  2  1  0  0  0  0
 19 20  2  0  0  0  0
 19 21  1  0  0  0  0
 17 18  1  0  0  0  0
 17 19  1  0  0  0  0
 14 15  1  0  0  0  0
 14 16  1  0  0  0  0
 14 17  1  0  0  0  0
 11 12  1  0  0  0  0
 11 13  1  0  0  0  0
 11 14  1  0  0  0  0
  8  9  1  0  0  0  0
  8 10  1  0  0  0  0
  8 11  1  0  0  0  0
  7  8  1  0  0  0  0
  7 17  1  0  0  0  0
 23 24  1  0  0  0  0
 23 25  1  0  0  0  0
 23 26  1  0  0  0  0
 21 22  1  0  0  0  0
 21 23  1  0  0  0  0
M  END
$$$$
default_name
  -OEChem-11182114113D

 26 26  0     1  0  0  0  0  0999 V2000
   -1.8446   -3.5060   -0.3010 H   0  0  0  0  0  0  0  0  0  0  0  0
   -2.0746   -2.4490   -0.4240 C   0  0  0  0  0  0  0  0  0  0  0  0
   -2.6906   -2.1160    0.4090 H   0  0  0  0  0  0  0  0  0  0  0  0
   -2.5986   -2.2980   -1.3650 H   0  0  0  0  0  0  0  0  0  0  0  0
   -0.7756   -1.6630   -0.4350 C   0  0  0  0  0  0  0  0  0  0  0  0
    0.2844   -2.2800   -0.4550 O   0  0  0  0  0  0  0  0  0  0  0  0
   -0.8246   -0.3180   -0.4350 N   0  0  0  0  0  0  0  0  0  0  0  0
   -2.0106    0.5080   -0.5910 C   0  0  0  0  0  0  0  0  0  0  0  0
   -2.9830    0.1578   -0.2410 H   0  0  0  0  0  0  0  0  0  0  0  0
   -2.1351    1.2455   -1.3831 H   0  0  0  0  0  0  0  0  0  0  0  0
   -1.2272    1.1176    0.5697 C   0  0  0  0  0  0  0  0  0  0  0  0
   -0.8237    0.3336    1.2124 H   0  0  0  0  0  0  0  0  0  0  0  0
   -1.8931    1.7741    1.1306 H   0  0  0  0  0  0  0  0  0  0  0  0
   -0.1209    1.9420   -0.0885 C   0  0  0  0  0  0  0  0  0  0  0  0
    0.5927    2.4617    0.5542 H   0  0  0  0  0  0  0  0  0  0  0  0
   -0.2955    2.5163   -0.9982 H   0  0  0  0  0  0  0  0  0  0  0  0
    0.3724    0.5200   -0.4020 C   0  0  1  0  0  0  0  0  0  0  0  0
    0.8239    0.5134   -1.3943 H   0  0  0  0  0  0  0  0  0  0  0  0
    1.3983    0.0272    0.6323 C   0  0  0  0  0  0  0  0  0  0  0  0
    2.1751    0.8171    1.1653 O   0  0  0  0  0  0  0  0  0  0  0  0
    1.4244   -1.2871    0.8841 N   0  0  0  0  0  0  0  0  0  0  0  0
    0.7171   -1.8603    0.4526 H   0  0  0  0  0  0  0  0  0  0  0  0
    2.3407   -1.9186    1.8306 C   0  0  0  0  0  0  0  0  0  0  0  0
    2.1217   -1.5654    2.8405 H   0  0  0  0  0  0  0  0  0  0  0  0
    2.2329   -3.0032    1.7961 H   0  0  0  0  0  0  0  0  0  0  0  0
    3.3701   -1.6486    1.5848 H   0  0  0  0  0  0  0  0  0  0  0  0
  5  6  2  0  0  0  0
  5  7  1  0  0  0  0
  2  3  1  0  0  0  0
  2  4  1  0  0  0  0
  2  5  1  0  0  0  0
  1  2  1  0  0  0  0
 19 20  2  0  0  0  0
 19 21  1  0  0  0  0
 17 18  1  0  0  0  0
 17 19  1  0  0  0  0
 14 15  1  0  0  0  0
 14 16  1  0  0  0  0
 14 17  1  0  0  0  0
 11 12  1  0  0  0  0
 11 13  1  0  0  0  0
 11 14  1  0  0  0  0
  8  9  1  0  0  0  0
  8 10  1  0  0  0  0
  8 11  1  0  0  0  0
  7  8  1  0  0  0  0
  7 17  1  0  0  0  0
 23 24  1  0  0  0  0
 23 25  1  0  0  0  0
 23 26  1  0  0  0  0
 21 22  1  0  0  0  0
 21 23  1  0  0  0  0
M  END
$$$$
default_name
  -OEChem-11182114113D

 26 26  0     1  0  0  0  0  0999 V2000
   -1.8446   -3.5060   -0.3010 H   0  0  0  0  0  0  0  0  0  0  0  0
   -2.0746   -2.4490   -0.4240 C   0  0  0  0  0  0  0  0  0  0  0  0
   -2.6906   -2.1160    0.4090 H   0  0  0  0  0  0  0  0  0  0  0  0
   -2.5986   -2.2980   -1.3650 H   0  0  0  0  0  0  0  0  0  0  0  0
   -0.7756   -1.6630   -0.4350 C   0  0  0  0  0  0  0  0  0  0  0  0
    0.2844   -2.2800   -0.4550 O   0  0  0  0  0  0  0  0  0  0  0  0
   -0.8246   -0.3180   -0.4350 N   0  0  0  0  0  0  0  0  0  0  0  0
   -2.0106    0.5080   -0.5910 C   0  0  0  0  0  0  0  0  0  0  0  0
   -2.9830    0.1578   -0.2410 H   0  0  0  0  0  0  0  0  0  0  0  0
   -2.1351    1.2455   -1.3831 H   0  0  0  0  0  0  0  0  0  0  0  0
   -1.2272    1.1176    0.5697 C   0  0  0  0  0  0  0  0  0  0  0  0
   -0.8237    0.3336    1.2124 H   0  0  0  0  0  0  0  0  0  0  0  0
   -1.8931    1.7741    1.1306 H   0  0  0  0  0  0  0  0  0  0  0  0
   -0.1209    1.9420   -0.0885 C   0  0  0  0  0  0  0  0  0  0  0  0
    0.5927    2.4617    0.5542 H   0  0  0  0  0  0  0  0  0  0  0  0
   -0.2955    2.5163   -0.9982 H   0  0  0  0  0  0  0  0  0  0  0  0
    0.3724    0.5200   -0.4020 C   0  0  1  0  0  0  0  0  0  0  0  0
    0.8239    0.5134   -1.3943 H   0  0  0  0  0  0  0  0  0  0  0  0
    1.3983    0.0272    0.6323 C   0  0  0  0  0  0  0  0  0  0  0  0
    1.9811    0.8265    1.3623 O   0  0  0  0  0  0  0  0  0  0  0  0
    1.6452   -1.2879    0.6646 N   0  0  0  0  0  0  0  0  0  0  0  0
    1.0845   -1.8838    0.0770 H   0  0  0  0  0  0  0  0  0  0  0  0
    2.5947   -1.9176    1.5791 C   0  0  0  0  0  0  0  0  0  0  0  0
    2.2475   -1.7935    2.6071 H   0  0  0  0  0  0  0  0  0  0  0  0
    2.6880   -2.9808    1.3554 H   0  0  0  0  0  0  0  0  0  0  0  0
    3.5723   -1.4399    1.4836 H   0  0  0  0  0  0  0  0  0  0  0  0
  5  6  2  0  0  0  0
  5  7  1  0  0  0  0
  2  3  1  0  0  0  0
  2  4  1  0  0  0  0
  2  5  1  0  0  0  0
  1  2  1  0  0  0  0
 19 20  2  0  0  0  0
 19 21  1  0  0  0  0
 17 18  1  0  0  0  0
 17 19  1  0  0  0  0
 14 15  1  0  0  0  0
 14 16  1  0  0  0  0
 14 17  1  0  0  0  0
 11 12  1  0  0  0  0
 11 13  1  0  0  0  0
 11 14  1  0  0  0  0
  8  9  1  0  0  0  0
  8 10  1  0  0  0  0
  8 11  1  0  0  0  0
  7  8  1  0  0  0  0
  7 17  1  0  0  0  0
 23 24  1  0  0  0  0
 23 25  1  0  0  0  0
 23 26  1  0  0  0  0
 21 22  1  0  0  0  0
 21 23  1  0  0  0  0
M  END
$$$$
default_name
  -OEChem-11182114113D

 26 26  0     1  0  0  0  0  0999 V2000
   -1.8446   -3.5060   -0.3010 H   0  0  0  0  0  0  0  0  0  0  0  0
   -2.0746   -2.4490   -0.4240 C   0  0  0  0  0  0  0  0  0  0  0  0
   -2.6906   -2.1160    0.4090 H   0  0  0  0  0  0  0  0  0  0  0  0
   -2.5986   -2.2980   -1.3650 H   0  0  0  0  0  0  0  0  0  0  0  0
   -0.7756   -1.6630   -0.4350 C   0  0  0  0  0  0  0  0  0  0  0  0
    0.2844   -2.2800   -0.4550 O   0  0  0  0  0  0  0  0  0  0  0  0
   -0.8246   -0.3180   -0.4350 N   0  0  0  0  0  0  0  0  0  0  0  0
   -2.0106    0.5080   -0.5910 C   0  0  0  0  0  0  0  0  0  0  0  0
   -2.9830    0.1578   -0.2410 H   0  0  0  0  0  0  0  0  0  0  0  0
   -2.1351    1.2455   -1.3831 H   0  0  0  0  0  0  0  0  0  0  0  0
   -1.2272    1.1176    0.5697 C   0  0  0  0  0  0  0  0  0  0  0  0
   -0.8237    0.3336    1.2124 H   0  0  0  0  0  0  0  0  0  0  0  0
   -1.8931    1.7741    1.1306 H   0  0  0  0  0  0  0  0  0  0  0  0
   -0.1209    1.9420   -0.0885 C   0  0  0  0  0  0  0  0  0  0  0  0
    0.5927    2.4617    0.5542 H   0  0  0  0  0  0  0  0  0  0  0  0
   -0.2955    2.5163   -0.9982 H   0  0  0  0  0  0  0  0  0  0  0  0
    0.3724    0.5200   -0.4020 C   0  0  1  0  0  0  0  0  0  0  0  0
    0.8239    0.5134   -1.3943 H   0  0  0  0  0  0  0  0  0  0  0  0
    1.3983    0.0272    0.6323 C   0  0  0  0  0  0  0  0  0  0  0  0
    1.7758    0.7679    1.5380 O   0  0  0  0  0  0  0  0  0  0  0  0
    1.8769   -1.2123    0.4709 N   0  0  0  0  0  0  0  0  0  0  0  0
    1.4746   -1.7778   -0.2594 H   0  0  0  0  0  0  0  0  0  0  0  0
    2.8608   -1.8290    1.3575 C   0  0  0  0  0  0  0  0  0  0  0  0
    2.4280   -1.9516    2.3527 H   0  0  0  0  0  0  0  0  0  0  0  0
    3.1602   -2.8039    0.9713 H   0  0  0  0  0  0  0  0  0  0  0  0
    3.7396   -1.1857    1.4387 H   0  0  0  0  0  0  0  0  0  0  0  0
  5  6  2  0  0  0  0
  5  7  1  0  0  0  0
  2  3  1  0  0  0  0
  2  4  1  0  0  0  0
  2  5  1  0  0  0  0
  1  2  1  0  0  0  0
 19 20  2  0  0  0  0
 19 21  1  0  0  0  0
 17 18  1  0  0  0  0
 17 19  1  0  0  0  0
 14 15  1  0  0  0  0
 14 16  1  0  0  0  0
 14 17  1  0  0  0  0
 11 12  1  0  0  0  0
 11 13  1  0  0  0  0
 11 14  1  0  0  0  0
  8  9  1  0  0  0  0
  8 10  1  0  0  0  0
  8 11  1  0  0  0  0
  7  8  1  0  0  0  0
  7 17  1  0  0  0  0
 23 24  1  0  0  0  0
 23 25  1  0  0  0  0
 23 26  1  0  0  0  0
 21 22  1  0  0  0  0
 21 23  1  0  0  0  0
M  END
$$$$
default_name
  -OEChem-11182114113D

 26 26  0     1  0  0  0  0  0999 V2000
   -1.8446   -3.5060   -0.3010 H   0  0  0  0  0  0  0  0  0  0  0  0
   -2.0746   -2.4490   -0.4240 C   0  0  0  0  0  0  0  0  0  0  0  0
   -2.6906   -2.1160    0.4090 H   0  0  0  0  0  0  0  0  0  0  0  0
   -2.5986   -2.2980   -1.3650 H   0  0  0  0  0  0  0  0  0  0  0  0
   -0.7756   -1.6630   -0.4350 C   0  0  0  0  0  0  0  0  0  0  0  0
    0.2844   -2.2800   -0.4550 O   0  0  0  0  0  0  0  0  0  0  0  0
   -0.8246   -0.3180   -0.4350 N   0  0  0  0  0  0  0  0  0  0  0  0
   -2.0106    0.5080   -0.5910 C   0  0  0  0  0  0  0  0  0  0  0  0
   -2.9830    0.1578   -0.2410 H   0  0  0  0  0  0  0  0  0  0  0  0
   -2.1351    1.2455   -1.3831 H   0  0  0  0  0  0  0  0  0  0  0  0
   -1.2272    1.1176    0.5697 C   0  0  0  0  0  0  0  0  0  0  0  0
   -0.8237    0.3336    1.2124 H   0  0  0  0  0  0  0  0  0  0  0  0
   -1.8931    1.7741    1.1306 H   0  0  0  0  0  0  0  0  0  0  0  0
   -0.1209    1.9420   -0.0885 C   0  0  0  0  0  0  0  0  0  0  0  0
    0.5927    2.4617    0.5542 H   0  0  0  0  0  0  0  0  0  0  0  0
   -0.2955    2.5163   -0.9982 H   0  0  0  0  0  0  0  0  0  0  0  0
    0.3724    0.5200   -0.4020 C   0  0  1  0  0  0  0  0  0  0  0  0
    0.8239    0.5134   -1.3943 H   0  0  0  0  0  0  0  0  0  0  0  0
    1.3983    0.0272    0.6323 C   0  0  0  0  0  0  0  0  0  0  0  0
    1.5730    0.6452    1.6806 O   0  0  0  0  0  0  0  0  0  0  0  0
    2.1035   -1.0655    0.3160 N   0  0  0  0  0  0  0  0  0  0  0  0
    1.8608   -1.5494   -0.5337 H   0  0  0  0  0  0  0  0  0  0  0  0
    3.1207   -1.6589    1.1807 C   0  0  0  0  0  0  0  0  0  0  0  0
    2.6511   -2.0290    2.0946 H   0  0  0  0  0  0  0  0  0  0  0  0
    3.6174   -2.4845    0.6700 H   0  0  0  0  0  0  0  0  0  0  0  0
    3.8608   -0.9032    1.4531 H   0  0  0  0  0  0  0  0  0  0  0  0
  5  6  2  0  0  0  0
  5  7  1  0  0  0  0
  2  3  1  0  0  0  0
  2  4  1  0  0  0  0
  2  5  1  0  0  0  0
  1  2  1  0  0  0  0
 19 20  2  0  0  0  0
 19 21  1  0  0  0  0
 17 18  1  0  0  0  0
 17 19  1  0  0  0  0
 14 15  1  0  0  0  0
 14 16  1  0  0  0  0
 14 17  1  0  0  0  0
 11 12  1  0  0  0  0
 11 13  1  0  0  0  0
 11 14  1  0  0  0  0
  8  9  1  0  0  0  0
  8 10  1  0  0  0  0
  8 11  1  0  0  0  0
  7  8  1  0  0  0  0
  7 17  1  0  0  0  0
 23 24  1  0  0  0  0
 23 25  1  0  0  0  0
 23 26  1  0  0  0  0
 21 22  1  0  0  0  0
 21 23  1  0  0  0  0
M  END
$$$$
default_name
  -OEChem-11182114113D

 26 26  0     1  0  0  0  0  0999 V2000
   -1.8446   -3.5060   -0.3010 H   0  0  0  0  0  0  0  0  0  0  0  0
   -2.0746   -2.4490   -0.4240 C   0  0  0  0  0  0  0  0  0  0  0  0
   -2.6906   -2.1160    0.4090 H   0  0  0  0  0  0  0  0  0  0  0  0
   -2.5986   -2.2980   -1.3650 H   0  0  0  0  0  0  0  0  0  0  0  0
   -0.7756   -1.6630   -0.4350 C   0  0  0  0  0  0  0  0  0  0  0  0
    0.2844   -2.2800   -0.4550 O   0  0  0  0  0  0  0  0  0  0  0  0
   -0.8246   -0.3180   -0.4350 N   0  0  0  0  0  0  0  0  0  0  0  0
   -2.0106    0.5080   -0.5910 C   0  0  0  0  0  0  0  0  0  0  0  0
   -2.9830    0.1578   -0.2410 H   0  0  0  0  0  0  0  0  0  0  0  0
   -2.1351    1.2455   -1.3831 H   0  0  0  0  0  0  0  0  0  0  0  0
   -1.2272    1.1176    0.5697 C   0  0  0  0  0  0  0  0  0  0  0  0
   -0.8237    0.3336    1.2124 H   0  0  0  0  0  0  0  0  0  0  0  0
   -1.8931    1.7741    1.1306 H   0  0  0  0  0  0  0  0  0  0  0  0
   -0.1209    1.9420   -0.0885 C   0  0  0  0  0  0  0  0  0  0  0  0
    0.5927    2.4617    0.5542 H   0  0  0  0  0  0  0  0  0  0  0  0
   -0.2955    2.5163   -0.9982 H   0  0  0  0  0  0  0  0  0  0  0  0
    0.3724    0.5200   -0.4020 C   0  0  1  0  0  0  0  0  0  0  0  0
    0.8239    0.5134   -1.3943 H   0  0  0  0  0  0  0  0  0  0  0  0
    1.3983    0.0272    0.6323 C   0  0  0  0  0  0  0  0  0  0  0  0
    1.3868    0.4668    1.7804 O   0  0  0  0  0  0  0  0  0  0  0  0
    2.3098   -0.8576    0.2105 N   0  0  0  0  0  0  0  0  0  0  0  0
    2.2168   -1.2141   -0.7271 H   0  0  0  0  0  0  0  0  0  0  0  0
    3.3568   -1.4188    1.0609 C   0  0  0  0  0  0  0  0  0  0  0  0
    2.9014   -2.0204    1.8504 H   0  0  0  0  0  0  0  0  0  0  0  0
    4.0284   -2.0443    0.4721 H   0  0  0  0  0  0  0  0  0  0  0  0
    3.9274   -0.6118    1.5259 H   0  0  0  0  0  0  0  0  0  0  0  0
  5  6  2  0  0  0  0
  5  7  1  0  0  0  0
  2  3  1  0  0  0  0
  2  4  1  0  0  0  0
  2  5  1  0  0  0  0
  1  2  1  0  0  0  0
 19 20  2  0  0  0  0
 19 21  1  0  0  0  0
 17 18  1  0  0  0  0
 17 19  1  0  0  0  0
 14 15  1  0  0  0  0
 14 16  1  0  0  0  0
 14 17  1  0  0  0  0
 11 12  1  0  0  0  0
 11 13  1  0  0  0  0
 11 14  1  0  0  0  0
  8  9  1  0  0  0  0
  8 10  1  0  0  0  0
  8 11  1  0  0  0  0
  7  8  1  0  0  0  0
  7 17  1  0  0  0  0
 23 24  1  0  0  0  0
 23 25  1  0  0  0  0
 23 26  1  0  0  0  0
 21 22  1  0  0  0  0
 21 23  1  0  0  0  0
M  END
$$$$
default_name
  -OEChem-11182114113D

 26 26  0     1  0  0  0  0  0999 V2000
   -1.8446   -3.5060   -0.3010 H   0  0  0  0  0  0  0  0  0  0  0  0
   -2.0746   -2.4490   -0.4240 C   0  0  0  0  0  0  0  0  0  0  0  0
   -2.6906   -2.1160    0.4090 H   0  0  0  0  0  0  0  0  0  0  0  0
   -2.5986   -2.2980   -1.3650 H   0  0  0  0  0  0  0  0  0  0  0  0
   -0.7756   -1.6630   -0.4350 C   0  0  0  0  0  0  0  0  0  0  0  0
    0.2844   -2.2800   -0.4550 O   0  0  0  0  0  0  0  0  0  0  0  0
   -0.8246   -0.3180   -0.4350 N   0  0  0  0  0  0  0  0  0  0  0  0
   -2.0106    0.5080   -0.5910 C   0  0  0  0  0  0  0  0  0  0  0  0
   -2.9830    0.1578   -0.2410 H   0  0  0  0  0  0  0  0  0  0  0  0
   -2.1351    1.2455   -1.3831 H   0  0  0  0  0  0  0  0  0  0  0  0
   -1.2272    1.1176    0.5697 C   0  0  0  0  0  0  0  0  0  0  0  0
   -0.8237    0.3336    1.2124 H   0  0  0  0  0  0  0  0  0  0  0  0
   -1.8931    1.7741    1.1306 H   0  0  0  0  0  0  0  0  0  0  0  0
   -0.1209    1.9420   -0.0885 C   0  0  0  0  0  0  0  0  0  0  0  0
    0.5927    2.4617    0.5542 H   0  0  0  0  0  0  0  0  0  0  0  0
   -0.2955    2.5163   -0.9982 H   0  0  0  0  0  0  0  0  0  0  0  0
    0.3724    0.5200   -0.4020 C   0  0  1  0  0  0  0  0  0  0  0  0
    0.8239    0.5134   -1.3943 H   0  0  0  0  0  0  0  0  0  0  0  0
    1.3983    0.0272    0.6323 C   0  0  0  0  0  0  0  0  0  0  0  0
    1.2296    0.2448    1.8305 O   0  0  0  0  0  0  0  0  0  0  0  0
    2.4815   -0.6026    0.1616 N   0  0  0  0  0  0  0  0  0  0  0  0
    2.5184   -0.7950   -0.8266 H   0  0  0  0  0  0  0  0  0  0  0  0
    3.5530   -1.1250    1.0063 C   0  0  0  0  0  0  0  0  0  0  0  0
    3.1619   -1.9264    1.6368 H   0  0  0  0  0  0  0  0  0  0  0  0
    4.3652   -1.5135    0.3909 H   0  0  0  0  0  0  0  0  0  0  0  0
    3.9351   -0.3313    1.6520 H   0  0  0  0  0  0  0  0  0  0  0  0
  5  6  2  0  0  0  0
  5  7  1  0  0  0  0
  2  3  1  0  0  0  0
  2  4  1  0  0  0  0
  2  5  1  0  0  0  0
  1  2  1  0  0  0  0
 19 20  2  0  0  0  0
 19 21  1  0  0  0  0
 17 18  1  0  0  0  0
 17 19  1  0  0  0  0
 14 15  1  0  0  0  0
 14 16  1  0  0  0  0
 14 17  1  0  0  0  0
 11 12  1  0  0  0  0
 11 13  1  0  0  0  0
 11 14  1  0  0  0  0
  8  9  1  0  0  0  0
  8 10  1  0  0  0  0
  8 11  1  0  0  0  0
  7  8  1  0  0  0  0
  7 17  1  0  0  0  0
 23 24  1  0  0  0  0
 23 25  1  0  0  0  0
 23 26  1  0  0  0  0
 21 22  1  0  0  0  0
 21 23  1  0  0  0  0
M  END
$$$$
default_name
  -OEChem-11182114113D

 26 26  0     1  0  0  0  0  0999 V2000
   -1.8446   -3.5060   -0.3010 H   0  0  0  0  0  0  0  0  0  0  0  0
   -2.0746   -2.4490   -0.4240 C   0  0  0  0  0  0  0  0  0  0  0  0
   -2.6906   -2.1160    0.4090 H   0  0  0  0  0  0  0  0  0  0  0  0
   -2.5986   -2.2980   -1.3650 H   0  0  0  0  0  0  0  0  0  0  0  0
   -0.7756   -1.6630   -0.4350 C   0  0  0  0  0  0  0  0  0  0  0  0
    0.2844   -2.2800   -0.4550 O   0  0  0  0  0  0  0  0  0  0  0  0
   -0.8246   -0.3180   -0.4350 N   0  0  0  0  0  0  0  0  0  0  0  0
   -2.0106    0.5080   -0.5910 C   0  0  0  0  0  0  0  0  0  0  0  0
   -2.9830    0.1578   -0.2410 H   0  0  0  0  0  0  0  0  0  0  0  0
   -2.1351    1.2455   -1.3831 H   0  0  0  0  0  0  0  0  0  0  0  0
   -1.2272    1.1176    0.5697 C   0  0  0  0  0  0  0  0  0  0  0  0
   -0.8237    0.3336    1.2124 H   0  0  0  0  0  0  0  0  0  0  0  0
   -1.8931    1.7741    1.1306 H   0  0  0  0  0  0  0  0  0  0  0  0
   -0.1209    1.9420   -0.0885 C   0  0  0  0  0  0  0  0  0  0  0  0
    0.5927    2.4617    0.5542 H   0  0  0  0  0  0  0  0  0  0  0  0
   -0.2955    2.5163   -0.9982 H   0  0  0  0  0  0  0  0  0  0  0  0
    0.3724    0.5200   -0.4020 C   0  0  1  0  0  0  0  0  0  0  0  0
    0.8239    0.5134   -1.3943 H   0  0  0  0  0  0  0  0  0  0  0  0
    1.3983    0.0272    0.6323 C   0  0  0  0  0  0  0  0  0  0  0  0
    1.1123   -0.0057    1.8275 O   0  0  0  0  0  0  0  0  0  0  0  0
    2.6071   -0.3179    0.1727 N   0  0  0  0  0  0  0  0  0  0  0  0
    2.7450   -0.3204   -0.8252 H   0  0  0  0  0  0  0  0  0  0  0  0
    3.6960   -0.7977    1.0204 C   0  0  0  0  0  0  0  0  0  0  0  0
    3.4149   -1.7533    1.4684 H   0  0  0  0  0  0  0  0  0  0  0  0
    4.6048   -0.9281    0.4321 H   0  0  0  0  0  0  0  0  0  0  0  0
    3.8831   -0.0808    1.8228 H   0  0  0  0  0  0  0  0  0  0  0  0
  5  6  2  0  0  0  0
  5  7  1  0  0  0  0
  2  3  1  0  0  0  0
  2  4  1  0  0  0  0
  2  5  1  0  0  0  0
  1  2  1  0  0  0  0
 19 20  2  0  0  0  0
 19 21  1  0  0  0  0
 17 18  1  0  0  0  0
 17 19  1  0  0  0  0
 14 15  1  0  0  0  0
 14 16  1  0  0  0  0
 14 17  1  0  0  0  0
 11 12  1  0  0  0  0
 11 13  1  0  0  0  0
 11 14  1  0  0  0  0
  8  9  1  0  0  0  0
  8 10  1  0  0  0  0
  8 11  1  0  0  0  0
  7  8  1  0  0  0  0
  7 17  1  0  0  0  0
 23 24  1  0  0  0  0
 23 25  1  0  0  0  0
 23 26  1  0  0  0  0
 21 22  1  0  0  0  0
 21 23  1  0  0  0  0
M  END
$$$$
default_name
  -OEChem-11182114113D

 26 26  0     1  0  0  0  0  0999 V2000
   -1.8446   -3.5060   -0.3010 H   0  0  0  0  0  0  0  0  0  0  0  0
   -2.0746   -2.4490   -0.4240 C   0  0  0  0  0  0  0  0  0  0  0  0
   -2.6906   -2.1160    0.4090 H   0  0  0  0  0  0  0  0  0  0  0  0
   -2.5986   -2.2980   -1.3650 H   0  0  0  0  0  0  0  0  0  0  0  0
   -0.7756   -1.6630   -0.4350 C   0  0  0  0  0  0  0  0  0  0  0  0
    0.2844   -2.2800   -0.4550 O   0  0  0  0  0  0  0  0  0  0  0  0
   -0.8246   -0.3180   -0.4350 N   0  0  0  0  0  0  0  0  0  0  0  0
   -2.0106    0.5080   -0.5910 C   0  0  0  0  0  0  0  0  0  0  0  0
   -2.9830    0.1578   -0.2410 H   0  0  0  0  0  0  0  0  0  0  0  0
   -2.1351    1.2455   -1.3831 H   0  0  0  0  0  0  0  0  0  0  0  0
   -1.2272    1.1176    0.5697 C   0  0  0  0  0  0  0  0  0  0  0  0
   -0.8237    0.3336    1.2124 H   0  0  0  0  0  0  0  0  0  0  0  0
   -1.8931    1.7741    1.1306 H   0  0  0  0  0  0  0  0  0  0  0  0
   -0.1209    1.9420   -0.0885 C   0  0  0  0  0  0  0  0  0  0  0  0
    0.5927    2.4617    0.5542 H   0  0  0  0  0  0  0  0  0  0  0  0
   -0.2955    2.5163   -0.9982 H   0  0  0  0  0  0  0  0  0  0  0  0
    0.3724    0.5200   -0.4020 C   0  0  1  0  0  0  0  0  0  0  0  0
    0.8239    0.5134   -1.3943 H   0  0  0  0  0  0  0  0  0  0  0  0
    1.3983    0.0272    0.6323 C   0  0  0  0  0  0  0  0  0  0  0  0
    1.0428   -0.2675    1.7717 O   0  0  0  0  0  0  0  0  0  0  0  0
    2.6779   -0.0230    0.2429 N   0  0  0  0  0  0  0  0  0  0  0  0
    2.8812    0.1772   -0.7232 H   0  0  0  0  0  0  0  0  0  0  0  0
    3.7759   -0.4591    1.1025 C   0  0  0  0  0  0  0  0  0  0  0  0
    3.6431   -1.5130    1.3565 H   0  0  0  0  0  0  0  0  0  0  0  0
    4.7310   -0.3280    0.5929 H   0  0  0  0  0  0  0  0  0  0  0  0
    3.7752    0.1227    2.0268 H   0  0  0  0  0  0  0  0  0  0  0  0
  5  6  2  0  0  0  0
  5  7  1  0  0  0  0
  2  3  1  0  0  0  0
  2  4  1  0  0  0  0
  2  5  1  0  0  0  0
  1  2  1  0  0  0  0
 19 20  2  0  0  0  0
 19 21  1  0  0  0  0
 17 18  1  0  0  0  0
 17 19  1  0  0  0  0
 14 15  1  0  0  0  0
 14 16  1  0  0  0  0
 14 17  1  0  0  0  0
 11 12  1  0  0  0  0
 11 13  1  0  0  0  0
 11 14  1  0  0  0  0
  8  9  1  0  0  0  0
  8 10  1  0  0  0  0
  8 11  1  0  0  0  0
  7  8  1  0  0  0  0
  7 17  1  0  0  0  0
 23 24  1  0  0  0  0
 23 25  1  0  0  0  0
 23 26  1  0  0  0  0
 21 22  1  0  0  0  0
 21 23  1  0  0  0  0
M  END
$$$$
default_name
  -OEChem-11182114113D

 26 26  0     1  0  0  0  0  0999 V2000
   -1.8446   -3.5060   -0.3010 H   0  0  0  0  0  0  0  0  0  0  0  0
   -2.0746   -2.4490   -0.4240 C   0  0  0  0  0  0  0  0  0  0  0  0
   -2.6906   -2.1160    0.4090 H   0  0  0  0  0  0  0  0  0  0  0  0
   -2.5986   -2.2980   -1.3650 H   0  0  0  0  0  0  0  0  0  0  0  0
   -0.7756   -1.6630   -0.4350 C   0  0  0  0  0  0  0  0  0  0  0  0
    0.2844   -2.2800   -0.4550 O   0  0  0  0  0  0  0  0  0  0  0  0
   -0.8246   -0.3180   -0.4350 N   0  0  0  0  0  0  0  0  0  0  0  0
   -2.0106    0.5080   -0.5910 C   0  0  0  0  0  0  0  0  0  0  0  0
   -2.9830    0.1578   -0.2410 H   0  0  0  0  0  0  0  0  0  0  0  0
   -2.1351    1.2455   -1.3831 H   0  0  0  0  0  0  0  0  0  0  0  0
   -1.2272    1.1176    0.5697 C   0  0  0  0  0  0  0  0  0  0  0  0
   -0.8237    0.3336    1.2124 H   0  0  0  0  0  0  0  0  0  0  0  0
   -1.8931    1.7741    1.1306 H   0  0  0  0  0  0  0  0  0  0  0  0
   -0.1209    1.9420   -0.0885 C   0  0  0  0  0  0  0  0  0  0  0  0
    0.5927    2.4617    0.5542 H   0  0  0  0  0  0  0  0  0  0  0  0
   -0.2955    2.5163   -0.9982 H   0  0  0  0  0  0  0  0  0  0  0  0
    0.3724    0.5200   -0.4020 C   0  0  1  0  0  0  0  0  0  0  0  0
    0.8239    0.5134   -1.3943 H   0  0  0  0  0  0  0  0  0  0  0  0
    1.3983    0.0272    0.6323 C   0  0  0  0  0  0  0  0  0  0  0  0
    1.0260   -0.5229    1.6668 O   0  0  0  0  0  0  0  0  0  0  0  0
    2.6892    0.2620    0.3676 N   0  0  0  0  0  0  0  0  0  0  0  0
    2.9177    0.6639   -0.5275 H   0  0  0  0  0  0  0  0  0  0  0  0
    3.7873   -0.1323    1.2468 C   0  0  0  0  0  0  0  0  0  0  0  0
    3.8310   -1.2218    1.3088 H   0  0  0  0  0  0  0  0  0  0  0  0
    4.7350    0.2458    0.8622 H   0  0  0  0  0  0  0  0  0  0  0  0
    3.6186    0.2652    2.2500 H   0  0  0  0  0  0  0  0  0  0  0  0
  5  6  2  0  0  0  0
  5  7  1  0  0  0  0
  2  3  1  0  0  0  0
  2  4  1  0  0  0  0
  2  5  1  0  0  0  0
  1  2  1  0  0  0  0
 19 20  2  0  0  0  0
 19 21  1  0  0  0  0
 17 18  1  0  0  0  0
 17 19  1  0  0  0  0
 14 15  1  0  0  0  0
 14 16  1  0  0  0  0
 14 17  1  0  0  0  0
 11 12  1  0  0  0  0
 11 13  1  0  0  0  0
 11 14  1  0  0  0  0
  8  9  1  0  0  0  0
  8 10  1  0  0  0  0
  8 11  1  0  0  0  0
  7  8  1  0  0  0  0
  7 17  1  0  0  0  0
 23 24  1  0  0  0  0
 23 25  1  0  0  0  0
 23 26  1  0  0  0  0
 21 22  1  0  0  0  0
 21 23  1  0  0  0  0
M  END
$$$$
default_name
  -OEChem-11182114113D

 26 26  0     1  0  0  0  0  0999 V2000
   -1.8446   -3.5060   -0.3010 H   0  0  0  0  0  0  0  0  0  0  0  0
   -2.0746   -2.4490   -0.4240 C   0  0  0  0  0  0  0  0  0  0  0  0
   -2.6906   -2.1160    0.4090 H   0  0  0  0  0  0  0  0  0  0  0  0
   -2.5986   -2.2980   -1.3650 H   0  0  0  0  0  0  0  0  0  0  0  0
   -0.7756   -1.6630   -0.4350 C   0  0  0  0  0  0  0  0  0  0  0  0
    0.2844   -2.2800   -0.4550 O   0  0  0  0  0  0  0  0  0  0  0  0
   -0.8246   -0.3180   -0.4350 N   0  0  0  0  0  0  0  0  0  0  0  0
   -2.0106    0.5080   -0.5910 C   0  0  0  0  0  0  0  0  0  0  0  0
   -2.9830    0.1578   -0.2410 H   0  0  0  0  0  0  0  0  0  0  0  0
   -2.1351    1.2455   -1.3831 H   0  0  0  0  0  0  0  0  0  0  0  0
   -1.2272    1.1176    0.5697 C   0  0  0  0  0  0  0  0  0  0  0  0
   -0.8237    0.3336    1.2124 H   0  0  0  0  0  0  0  0  0  0  0  0
   -1.8931    1.7741    1.1306 H   0  0  0  0  0  0  0  0  0  0  0  0
   -0.1209    1.9420   -0.0885 C   0  0  0  0  0  0  0  0  0  0  0  0
    0.5927    2.4617    0.5542 H   0  0  0  0  0  0  0  0  0  0  0  0
   -0.2955    2.5163   -0.9982 H   0  0  0  0  0  0  0  0  0  0  0  0
    0.3724    0.5200   -0.4020 C   0  0  1  0  0  0  0  0  0  0  0  0
    0.8239    0.5134   -1.3943 H   0  0  0  0  0  0  0  0  0  0  0  0
    1.3983    0.0272    0.6323 C   0  0  0  0  0  0  0  0  0  0  0  0
    1.0628   -0.7543    1.5200 O   0  0  0  0  0  0  0  0  0  0  0  0
    2.6401    0.5178    0.5381 N   0  0  0  0  0  0  0  0  0  0  0  0
    2.8519    1.1066   -0.2514 H   0  0  0  0  0  0  0  0  0  0  0  0
    3.7295    0.1604    1.4436 C   0  0  0  0  0  0  0  0  0  0  0  0
    3.9658   -0.8996    1.3287 H   0  0  0  0  0  0  0  0  0  0  0  0
    4.6168    0.7542    1.2218 H   0  0  0  0  0  0  0  0  0  0  0  0
    3.4241    0.3371    2.4772 H   0  0  0  0  0  0  0  0  0  0  0  0
  5  6  2  0  0  0  0
  5  7  1  0  0  0  0
  2  3  1  0  0  0  0
  2  4  1  0  0  0  0
  2  5  1  0  0  0  0
  1  2  1  0  0  0  0
 19 20  2  0  0  0  0
 19 21  1  0  0  0  0
 17 18  1  0  0  0  0
 17 19  1  0  0  0  0
 14 15  1  0  0  0  0
 14 16  1  0  0  0  0
 14 17  1  0  0  0  0
 11 12  1  0  0  0  0
 11 13  1  0  0  0  0
 11 14  1  0  0  0  0
  8  9  1  0  0  0  0
  8 10  1  0  0  0  0
  8 11  1  0  0  0  0
  7  8  1  0  0  0  0
  7 17  1  0  0  0  0
 23 24  1  0  0  0  0
 23 25  1  0  0  0  0
 23 26  1  0  0  0  0
 21 22  1  0  0  0  0
 21 23  1  0  0  0  0
M  END
$$$$
default_name
  -OEChem-11182114113D

 26 26  0     1  0  0  0  0  0999 V2000
   -1.8446   -3.5060   -0.3010 H   0  0  0  0  0  0  0  0  0  0  0  0
   -2.0746   -2.4490   -0.4240 C   0  0  0  0  0  0  0  0  0  0  0  0
   -2.6906   -2.1160    0.4090 H   0  0  0  0  0  0  0  0  0  0  0  0
   -2.5986   -2.2980   -1.3650 H   0  0  0  0  0  0  0  0  0  0  0  0
   -0.7756   -1.6630   -0.4350 C   0  0  0  0  0  0  0  0  0  0  0  0
    0.2844   -2.2800   -0.4550 O   0  0  0  0  0  0  0  0  0  0  0  0
   -0.8246   -0.3180   -0.4350 N   0  0  0  0  0  0  0  0  0  0  0  0
   -2.0106    0.5080   -0.5910 C   0  0  0  0  0  0  0  0  0  0  0  0
   -2.9830    0.1578   -0.2410 H   0  0  0  0  0  0  0  0  0  0  0  0
   -2.1351    1.2455   -1.3831 H   0  0  0  0  0  0  0  0  0  0  0  0
   -1.2272    1.1176    0.5697 C   0  0  0  0  0  0  0  0  0  0  0  0
   -0.8237    0.3336    1.2124 H   0  0  0  0  0  0  0  0  0  0  0  0
   -1.8931    1.7741    1.1306 H   0  0  0  0  0  0  0  0  0  0  0  0
   -0.1209    1.9420   -0.0885 C   0  0  0  0  0  0  0  0  0  0  0  0
    0.5927    2.4617    0.5542 H   0  0  0  0  0  0  0  0  0  0  0  0
   -0.2955    2.5163   -0.9982 H   0  0  0  0  0  0  0  0  0  0  0  0
    0.3724    0.5200   -0.4020 C   0  0  1  0  0  0  0  0  0  0  0  0
    0.8239    0.5134   -1.3943 H   0  0  0  0  0  0  0  0  0  0  0  0
    1.3983    0.0272    0.6323 C   0  0  0  0  0  0  0  0  0  0  0  0
    1.1508   -0.9462    1.3412 O   0  0  0  0  0  0  0  0  0  0  0  0
    2.5340    0.7269    0.7429 N   0  0  0  0  0  0  0  0  0  0  0  0
    2.6885    1.4752    0.0863 H   0  0  0  0  0  0  0  0  0  0  0  0
    3.6064    0.3991    1.6795 C   0  0  0  0  0  0  0  0  0  0  0  0
    4.0382   -0.5684    1.4146 H   0  0  0  0  0  0  0  0  0  0  0  0
    4.3842    1.1627    1.6471 H   0  0  0  0  0  0  0  0  0  0  0  0
    3.2048    0.3334    2.6930 H   0  0  0  0  0  0  0  0  0  0  0  0
  5  6  2  0  0  0  0
  5  7  1  0  0  0  0
  2  3  1  0  0  0  0
  2  4  1  0  0  0  0
  2  5  1  0  0  0  0
  1  2  1  0  0  0  0
 19 20  2  0  0  0  0
 19 21  1  0  0  0  0
 17 18  1  0  0  0  0
 17 19  1  0  0  0  0
 14 15  1  0  0  0  0
 14 16  1  0  0  0  0
 14 17  1  0  0  0  0
 11 12  1  0  0  0  0
 11 13  1  0  0  0  0
 11 14  1  0  0  0  0
  8  9  1  0  0  0  0
  8 10  1  0  0  0  0
  8 11  1  0  0  0  0
  7  8  1  0  0  0  0
  7 17  1  0  0  0  0
 23 24  1  0  0  0  0
 23 25  1  0  0  0  0
 23 26  1  0  0  0  0
 21 22  1  0  0  0  0
 21 23  1  0  0  0  0
M  END
$$$$
default_name
  -OEChem-11182114113D

 26 26  0     1  0  0  0  0  0999 V2000
   -1.8446   -3.5060   -0.3010 H   0  0  0  0  0  0  0  0  0  0  0  0
   -2.0746   -2.4490   -0.4240 C   0  0  0  0  0  0  0  0  0  0  0  0
   -2.6906   -2.1160    0.4090 H   0  0  0  0  0  0  0  0  0  0  0  0
   -2.5986   -2.2980   -1.3650 H   0  0  0  0  0  0  0  0  0  0  0  0
   -0.7756   -1.6630   -0.4350 C   0  0  0  0  0  0  0  0  0  0  0  0
    0.2844   -2.2800   -0.4550 O   0  0  0  0  0  0  0  0  0  0  0  0
   -0.8246   -0.3180   -0.4350 N   0  0  0  0  0  0  0  0  0  0  0  0
   -2.0106    0.5080   -0.5910 C   0  0  0  0  0  0  0  0  0  0  0  0
   -2.9830    0.1578   -0.2410 H   0  0  0  0  0  0  0  0  0  0  0  0
   -2.1351    1.2455   -1.3831 H   0  0  0  0  0  0  0  0  0  0  0  0
   -1.2272    1.1176    0.5697 C   0  0  0  0  0  0  0  0  0  0  0  0
   -0.8237    0.3336    1.2124 H   0  0  0  0  0  0  0  0  0  0  0  0
   -1.8931    1.7741    1.1306 H   0  0  0  0  0  0  0  0  0  0  0  0
   -0.1209    1.9420   -0.0885 C   0  0  0  0  0  0  0  0  0  0  0  0
    0.5927    2.4617    0.5542 H   0  0  0  0  0  0  0  0  0  0  0  0
   -0.2955    2.5163   -0.9982 H   0  0  0  0  0  0  0  0  0  0  0  0
    0.3724    0.5200   -0.4020 C   0  0  1  0  0  0  0  0  0  0  0  0
    0.8239    0.5134   -1.3943 H   0  0  0  0  0  0  0  0  0  0  0  0
    1.3983    0.0272    0.6323 C   0  0  0  0  0  0  0  0  0  0  0  0
    1.2841   -1.0853    1.1428 O   0  0  0  0  0  0  0  0  0  0  0  0
    2.3782    0.8750    0.9681 N   0  0  0  0  0  0  0  0  0  0  0  0
    2.4384    1.7443    0.4626 H   0  0  0  0  0  0  0  0  0  0  0  0
    3.4264    0.5675    1.9383 C   0  0  0  0  0  0  0  0  0  0  0  0
    4.0434   -0.2507    1.5608 H   0  0  0  0  0  0  0  0  0  0  0  0
    4.0531    1.4434    2.1091 H   0  0  0  0  0  0  0  0  0  0  0  0
    2.9757    0.2544    2.8826 H   0  0  0  0  0  0  0  0  0  0  0  0
  5  6  2  0  0  0  0
  5  7  1  0  0  0  0
  2  3  1  0  0  0  0
  2  4  1  0  0  0  0
  2  5  1  0  0  0  0
  1  2  1  0  0  0  0
 19 20  2  0  0  0  0
 19 21  1  0  0  0  0
 17 18  1  0  0  0  0
 17 19  1  0  0  0  0
 14 15  1  0  0  0  0
 14 16  1  0  0  0  0
 14 17  1  0  0  0  0
 11 12  1  0  0  0  0
 11 13  1  0  0  0  0
 11 14  1  0  0  0  0
  8  9  1  0  0  0  0
  8 10  1  0  0  0  0
  8 11  1  0  0  0  0
  7  8  1  0  0  0  0
  7 17  1  0  0  0  0
 23 24  1  0  0  0  0
 23 25  1  0  0  0  0
 23 26  1  0  0  0  0
 21 22  1  0  0  0  0
 21 23  1  0  0  0  0
M  END
$$$$
default_name
  -OEChem-11182114113D

 26 26  0     1  0  0  0  0  0999 V2000
   -1.8446   -3.5060   -0.3010 H   0  0  0  0  0  0  0  0  0  0  0  0
   -2.0746   -2.4490   -0.4240 C   0  0  0  0  0  0  0  0  0  0  0  0
   -2.6906   -2.1160    0.4090 H   0  0  0  0  0  0  0  0  0  0  0  0
   -2.5986   -2.2980   -1.3650 H   0  0  0  0  0  0  0  0  0  0  0  0
   -0.7756   -1.6630   -0.4350 C   0  0  0  0  0  0  0  0  0  0  0  0
    0.2844   -2.2800   -0.4550 O   0  0  0  0  0  0  0  0  0  0  0  0
   -0.8246   -0.3180   -0.4350 N   0  0  0  0  0  0  0  0  0  0  0  0
   -2.0106    0.5080   -0.5910 C   0  0  0  0  0  0  0  0  0  0  0  0
   -2.9830    0.1578   -0.2410 H   0  0  0  0  0  0  0  0  0  0  0  0
   -2.1351    1.2455   -1.3831 H   0  0  0  0  0  0  0  0  0  0  0  0
   -1.2272    1.1176    0.5697 C   0  0  0  0  0  0  0  0  0  0  0  0
   -0.8237    0.3336    1.2124 H   0  0  0  0  0  0  0  0  0  0  0  0
   -1.8931    1.7741    1.1306 H   0  0  0  0  0  0  0  0  0  0  0  0
   -0.1209    1.9420   -0.0885 C   0  0  0  0  0  0  0  0  0  0  0  0
    0.5927    2.4617    0.5542 H   0  0  0  0  0  0  0  0  0  0  0  0
   -0.2955    2.5163   -0.9982 H   0  0  0  0  0  0  0  0  0  0  0  0
    0.3724    0.5200   -0.4020 C   0  0  1  0  0  0  0  0  0  0  0  0
    0.8239    0.5134   -1.3943 H   0  0  0  0  0  0  0  0  0  0  0  0
    1.3983    0.0272    0.6323 C   0  0  0  0  0  0  0  0  0  0  0  0
    1.4535   -1.1622    0.9381 O   0  0  0  0  0  0  0  0  0  0  0  0
    2.1832    0.9521    1.1982 N   0  0  0  0  0  0  0  0  0  0  0  0
    2.1188    1.8959    0.8518 H   0  0  0  0  0  0  0  0  0  0  0  0
    3.2017    0.6542    2.2024 C   0  0  0  0  0  0  0  0  0  0  0  0
    3.9810    0.0318    1.7574 H   0  0  0  0  0  0  0  0  0  0  0  0
    3.6462    1.5770    2.5764 H   0  0  0  0  0  0  0  0  0  0  0  0
    2.7524    0.1055    3.0331 H   0  0  0  0  0  0  0  0  0  0  0  0
  5  6  2  0  0  0  0
  5  7  1  0  0  0  0
  2  3  1  0  0  0  0
  2  4  1  0  0  0  0
  2  5  1  0  0  0  0
  1  2  1  0  0  0  0
 19 20  2  0  0  0  0
 19 21  1  0  0  0  0
 17 18  1  0  0  0  0
 17 19  1  0  0  0  0
 14 15  1  0  0  0  0
 14 16  1  0  0  0  0
 14 17  1  0  0  0  0
 11 12  1  0  0  0  0
 11 13  1  0  0  0  0
 11 14  1  0  0  0  0
  8  9  1  0  0  0  0
  8 10  1  0  0  0  0
  8 11  1  0  0  0  0
  7  8  1  0  0  0  0
  7 17  1  0  0  0  0
 23 24  1  0  0  0  0
 23 25  1  0  0  0  0
 23 26  1  0  0  0  0
 21 22  1  0  0  0  0
 21 23  1  0  0  0  0
M  END
$$$$
default_name
  -OEChem-11182114113D

 26 26  0     1  0  0  0  0  0999 V2000
   -1.8446   -3.5060   -0.3010 H   0  0  0  0  0  0  0  0  0  0  0  0
   -2.0746   -2.4490   -0.4240 C   0  0  0  0  0  0  0  0  0  0  0  0
   -2.6906   -2.1160    0.4090 H   0  0  0  0  0  0  0  0  0  0  0  0
   -2.5986   -2.2980   -1.3650 H   0  0  0  0  0  0  0  0  0  0  0  0
   -0.7756   -1.6630   -0.4350 C   0  0  0  0  0  0  0  0  0  0  0  0
    0.2844   -2.2800   -0.4550 O   0  0  0  0  0  0  0  0  0  0  0  0
   -0.8246   -0.3180   -0.4350 N   0  0  0  0  0  0  0  0  0  0  0  0
   -2.0106    0.5080   -0.5910 C   0  0  0  0  0  0  0  0  0  0  0  0
   -2.9830    0.1578   -0.2410 H   0  0  0  0  0  0  0  0  0  0  0  0
   -2.1351    1.2455   -1.3831 H   0  0  0  0  0  0  0  0  0  0  0  0
   -1.2272    1.1176    0.5697 C   0  0  0  0  0  0  0  0  0  0  0  0
   -0.8237    0.3336    1.2124 H   0  0  0  0  0  0  0  0  0  0  0  0
   -1.8931    1.7741    1.1306 H   0  0  0  0  0  0  0  0  0  0  0  0
   -0.1209    1.9420   -0.0885 C   0  0  0  0  0  0  0  0  0  0  0  0
    0.5927    2.4617    0.5542 H   0  0  0  0  0  0  0  0  0  0  0  0
   -0.2955    2.5163   -0.9982 H   0  0  0  0  0  0  0  0  0  0  0  0
    0.3724    0.5200   -0.4020 C   0  0  1  0  0  0  0  0  0  0  0  0
    0.8239    0.5134   -1.3943 H   0  0  0  0  0  0  0  0  0  0  0  0
    1.3983    0.0272    0.6323 C   0  0  0  0  0  0  0  0  0  0  0  0
    1.6475   -1.1717    0.7412 O   0  0  0  0  0  0  0  0  0  0  0  0
    1.9623    0.9529    1.4176 N   0  0  0  0  0  0  0  0  0  0  0  0
    1.7515    1.9194    1.2274 H   0  0  0  0  0  0  0  0  0  0  0  0
    2.9477    0.6532    2.4539 C   0  0  0  0  0  0  0  0  0  0  0  0
    3.8552    0.2599    1.9908 H   0  0  0  0  0  0  0  0  0  0  0  0
    3.1912    1.5546    3.0171 H   0  0  0  0  0  0  0  0  0  0  0  0
    2.5502   -0.1031    3.1342 H   0  0  0  0  0  0  0  0  0  0  0  0
  5  6  2  0  0  0  0
  5  7  1  0  0  0  0
  2  3  1  0  0  0  0
  2  4  1  0  0  0  0
  2  5  1  0  0  0  0
  1  2  1  0  0  0  0
 19 20  2  0  0  0  0
 19 21  1  0  0  0  0
 17 18  1  0  0  0  0
 17 19  1  0  0  0  0
 14 15  1  0  0  0  0
 14 16  1  0  0  0  0
 14 17  1  0  0  0  0
 11 12  1  0  0  0  0
 11 13  1  0  0  0  0
 11 14  1  0  0  0  0
  8  9  1  0  0  0  0
  8 10  1  0  0  0  0
  8 11  1  0  0  0  0
  7  8  1  0  0  0  0
  7 17  1  0  0  0  0
 23 24  1  0  0  0  0
 23 25  1  0  0  0  0
 23 26  1  0  0  0  0
 21 22  1  0  0  0  0
 21 23  1  0  0  0  0
M  END
$$$$
default_name
  -OEChem-11182114113D

 26 26  0     1  0  0  0  0  0999 V2000
   -1.8446   -3.5060   -0.3010 H   0  0  0  0  0  0  0  0  0  0  0  0
   -2.0746   -2.4490   -0.4240 C   0  0  0  0  0  0  0  0  0  0  0  0
   -2.6906   -2.1160    0.4090 H   0  0  0  0  0  0  0  0  0  0  0  0
   -2.5986   -2.2980   -1.3650 H   0  0  0  0  0  0  0  0  0  0  0  0
   -0.7756   -1.6630   -0.4350 C   0  0  0  0  0  0  0  0  0  0  0  0
    0.2844   -2.2800   -0.4550 O   0  0  0  0  0  0  0  0  0  0  0  0
   -0.8246   -0.3180   -0.4350 N   0  0  0  0  0  0  0  0  0  0  0  0
   -2.0106    0.5080   -0.5910 C   0  0  0  0  0  0  0  0  0  0  0  0
   -2.9830    0.1578   -0.2410 H   0  0  0  0  0  0  0  0  0  0  0  0
   -2.1351    1.2455   -1.3831 H   0  0  0  0  0  0  0  0  0  0  0  0
   -1.2272    1.1176    0.5697 C   0  0  0  0  0  0  0  0  0  0  0  0
   -0.8237    0.3336    1.2124 H   0  0  0  0  0  0  0  0  0  0  0  0
   -1.8931    1.7741    1.1306 H   0  0  0  0  0  0  0  0  0  0  0  0
   -0.1209    1.9420   -0.0885 C   0  0  0  0  0  0  0  0  0  0  0  0
    0.5927    2.4617    0.5542 H   0  0  0  0  0  0  0  0  0  0  0  0
   -0.2955    2.5163   -0.9982 H   0  0  0  0  0  0  0  0  0  0  0  0
    0.3724    0.5200   -0.4020 C   0  0  1  0  0  0  0  0  0  0  0  0
    0.8239    0.5134   -1.3943 H   0  0  0  0  0  0  0  0  0  0  0  0
    1.3983    0.0272    0.6323 C   0  0  0  0  0  0  0  0  0  0  0  0
    1.8528   -1.1131    0.5655 O   0  0  0  0  0  0  0  0  0  0  0  0
    1.7307    0.8773    1.6114 N   0  0  0  0  0  0  0  0  0  0  0  0
    1.3614    1.8134    1.5637 H   0  0  0  0  0  0  0  0  0  0  0  0
    2.6816    0.5646    2.6756 C   0  0  0  0  0  0  0  0  0  0  0  0
    3.6746    0.4181    2.2452 H   0  0  0  0  0  0  0  0  0  0  0  0
    2.7189    1.3777    3.4012 H   0  0  0  0  0  0  0  0  0  0  0  0
    2.3829   -0.3574    3.1791 H   0  0  0  0  0  0  0  0  0  0  0  0
  5  6  2  0  0  0  0
  5  7  1  0  0  0  0
  2  3  1  0  0  0  0
  2  4  1  0  0  0  0
  2  5  1  0  0  0  0
  1  2  1  0  0  0  0
 19 20  2  0  0  0  0
 19 21  1  0  0  0  0
 17 18  1  0  0  0  0
 17 19  1  0  0  0  0
 14 15  1  0  0  0  0
 14 16  1  0  0  0  0
 14 17  1  0  0  0  0
 11 12  1  0  0  0  0
 11 13  1  0  0  0  0
 11 14  1  0  0  0  0
  8  9  1  0  0  0  0
  8 10  1  0  0  0  0
  8 11  1  0  0  0  0
  7  8  1  0  0  0  0
  7 17  1  0  0  0  0
 23 24  1  0  0  0  0
 23 25  1  0  0  0  0
 23 26  1  0  0  0  0
 21 22  1  0  0  0  0
 21 23  1  0  0  0  0
M  END
$$$$
default_name
  -OEChem-11182114113D

 26 26  0     1  0  0  0  0  0999 V2000
   -1.8446   -3.5060   -0.3010 H   0  0  0  0  0  0  0  0  0  0  0  0
   -2.0746   -2.4490   -0.4240 C   0  0  0  0  0  0  0  0  0  0  0  0
   -2.6906   -2.1160    0.4090 H   0  0  0  0  0  0  0  0  0  0  0  0
   -2.5986   -2.2980   -1.3650 H   0  0  0  0  0  0  0  0  0  0  0  0
   -0.7756   -1.6630   -0.4350 C   0  0  0  0  0  0  0  0  0  0  0  0
    0.2844   -2.2800   -0.4550 O   0  0  0  0  0  0  0  0  0  0  0  0
   -0.8246   -0.3180   -0.4350 N   0  0  0  0  0  0  0  0  0  0  0  0
   -2.0106    0.5080   -0.5910 C   0  0  0  0  0  0  0  0  0  0  0  0
   -2.9830    0.1578   -0.2410 H   0  0  0  0  0  0  0  0  0  0  0  0
   -2.1351    1.2455   -1.3831 H   0  0  0  0  0  0  0  0  0  0  0  0
   -1.2272    1.1176    0.5697 C   0  0  0  0  0  0  0  0  0  0  0  0
   -0.8237    0.3336    1.2124 H   0  0  0  0  0  0  0  0  0  0  0  0
   -1.8931    1.7741    1.1306 H   0  0  0  0  0  0  0  0  0  0  0  0
   -0.1209    1.9420   -0.0885 C   0  0  0  0  0  0  0  0  0  0  0  0
    0.5927    2.4617    0.5542 H   0  0  0  0  0  0  0  0  0  0  0  0
   -0.2955    2.5163   -0.9982 H   0  0  0  0  0  0  0  0  0  0  0  0
    0.3724    0.5200   -0.4020 C   0  0  1  0  0  0  0  0  0  0  0  0
    0.8239    0.5134   -1.3943 H   0  0  0  0  0  0  0  0  0  0  0  0
    1.3983    0.0272    0.6323 C   0  0  0  0  0  0  0  0  0  0  0  0
    2.0555   -0.9903    0.4229 O   0  0  0  0  0  0  0  0  0  0  0  0
    1.5040    0.7305    1.7663 N   0  0  0  0  0  0  0  0  0  0  0  0
    0.9752    1.5849    1.8380 H   0  0  0  0  0  0  0  0  0  0  0  0
    2.4217    0.3945    2.8523 C   0  0  0  0  0  0  0  0  0  0  0  0
    3.4516    0.4955    2.5033 H   0  0  0  0  0  0  0  0  0  0  0  0
    2.2617    1.0583    3.7025 H   0  0  0  0  0  0  0  0  0  0  0  0
    2.2617   -0.6398    3.1647 H   0  0  0  0  0  0  0  0  0  0  0  0
  5  6  2  0  0  0  0
  5  7  1  0  0  0  0
  2  3  1  0  0  0  0
  2  4  1  0  0  0  0
  2  5  1  0  0  0  0
  1  2  1  0  0  0  0
 19 20  2  0  0  0  0
 19 21  1  0  0  0  0
 17 18  1  0  0  0  0
 17 19  1  0  0  0  0
 14 15  1  0  0  0  0
 14 16  1  0  0  0  0
 14 17  1  0  0  0  0
 11 12  1  0  0  0  0
 11 13  1  0  0  0  0
 11 14  1  0  0  0  0
  8  9  1  0  0  0  0
  8 10  1  0  0  0  0
  8 11  1  0  0  0  0
  7  8  1  0  0  0  0
  7 17  1  0  0  0  0
 23 24  1  0  0  0  0
 23 25  1  0  0  0  0
 23 26  1  0  0  0  0
 21 22  1  0  0  0  0
 21 23  1  0  0  0  0
M  END
$$$$
default_name
  -OEChem-11182114113D

 26 26  0     1  0  0  0  0  0999 V2000
   -1.8446   -3.5060   -0.3010 H   0  0  0  0  0  0  0  0  0  0  0  0
   -2.0746   -2.4490   -0.4240 C   0  0  0  0  0  0  0  0  0  0  0  0
   -2.6906   -2.1160    0.4090 H   0  0  0  0  0  0  0  0  0  0  0  0
   -2.5986   -2.2980   -1.3650 H   0  0  0  0  0  0  0  0  0  0  0  0
   -0.7756   -1.6630   -0.4350 C   0  0  0  0  0  0  0  0  0  0  0  0
    0.2844   -2.2800   -0.4550 O   0  0  0  0  0  0  0  0  0  0  0  0
   -0.8246   -0.3180   -0.4350 N   0  0  0  0  0  0  0  0  0  0  0  0
   -2.0106    0.5080   -0.5910 C   0  0  0  0  0  0  0  0  0  0  0  0
   -2.9830    0.1578   -0.2410 H   0  0  0  0  0  0  0  0  0  0  0  0
   -2.1351    1.2455   -1.3831 H   0  0  0  0  0  0  0  0  0  0  0  0
   -1.2272    1.1176    0.5697 C   0  0  0  0  0  0  0  0  0  0  0  0
   -0.8237    0.3336    1.2124 H   0  0  0  0  0  0  0  0  0  0  0  0
   -1.8931    1.7741    1.1306 H   0  0  0  0  0  0  0  0  0  0  0  0
   -0.1209    1.9420   -0.0885 C   0  0  0  0  0  0  0  0  0  0  0  0
    0.5927    2.4617    0.5542 H   0  0  0  0  0  0  0  0  0  0  0  0
   -0.2955    2.5163   -0.9982 H   0  0  0  0  0  0  0  0  0  0  0  0
    0.3724    0.5200   -0.4020 C   0  0  1  0  0  0  0  0  0  0  0  0
    0.8239    0.5134   -1.3943 H   0  0  0  0  0  0  0  0  0  0  0  0
    1.3983    0.0272    0.6323 C   0  0  0  0  0  0  0  0  0  0  0  0
    2.2418   -0.8119    0.3231 O   0  0  0  0  0  0  0  0  0  0  0  0
    1.2978    0.5225    1.8718 N   0  0  0  0  0  0  0  0  0  0  0  0
    0.6191    1.2497    2.0314 H   0  0  0  0  0  0  0  0  0  0  0  0
    2.1856    0.1543    2.9721 C   0  0  0  0  0  0  0  0  0  0  0  0
    3.2013    0.4869    2.7475 H   0  0  0  0  0  0  0  0  0  0  0  0
    1.8508    0.6182    3.9005 H   0  0  0  0  0  0  0  0  0  0  0  0
    2.1951   -0.9312    3.0920 H   0  0  0  0  0  0  0  0  0  0  0  0
  5  6  2  0  0  0  0
  5  7  1  0  0  0  0
  2  3  1  0  0  0  0
  2  4  1  0  0  0  0
  2  5  1  0  0  0  0
  1  2  1  0  0  0  0
 19 20  2  0  0  0  0
 19 21  1  0  0  0  0
 17 18  1  0  0  0  0
 17 19  1  0  0  0  0
 14 15  1  0  0  0  0
 14 16  1  0  0  0  0
 14 17  1  0  0  0  0
 11 12  1  0  0  0  0
 11 13  1  0  0  0  0
 11 14  1  0  0  0  0
  8  9  1  0  0  0  0
  8 10  1  0  0  0  0
  8 11  1  0  0  0  0
  7  8  1  0  0  0  0
  7 17  1  0  0  0  0
 23 24  1  0  0  0  0
 23 25  1  0  0  0  0
 23 26  1  0  0  0  0
 21 22  1  0  0  0  0
 21 23  1  0  0  0  0
M  END
$$$$
default_name
  -OEChem-11182114113D

 26 26  0     1  0  0  0  0  0999 V2000
   -1.8446   -3.5060   -0.3010 H   0  0  0  0  0  0  0  0  0  0  0  0
   -2.0746   -2.4490   -0.4240 C   0  0  0  0  0  0  0  0  0  0  0  0
   -2.6906   -2.1160    0.4090 H   0  0  0  0  0  0  0  0  0  0  0  0
   -2.5986   -2.2980   -1.3650 H   0  0  0  0  0  0  0  0  0  0  0  0
   -0.7756   -1.6630   -0.4350 C   0  0  0  0  0  0  0  0  0  0  0  0
    0.2844   -2.2800   -0.4550 O   0  0  0  0  0  0  0  0  0  0  0  0
   -0.8246   -0.3180   -0.4350 N   0  0  0  0  0  0  0  0  0  0  0  0
   -2.0106    0.5080   -0.5910 C   0  0  0  0  0  0  0  0  0  0  0  0
   -2.9830    0.1578   -0.2410 H   0  0  0  0  0  0  0  0  0  0  0  0
   -2.1351    1.2455   -1.3831 H   0  0  0  0  0  0  0  0  0  0  0  0
   -1.2272    1.1176    0.5697 C   0  0  0  0  0  0  0  0  0  0  0  0
   -0.8237    0.3336    1.2124 H   0  0  0  0  0  0  0  0  0  0  0  0
   -1.8931    1.7741    1.1306 H   0  0  0  0  0  0  0  0  0  0  0  0
   -0.1209    1.9420   -0.0885 C   0  0  0  0  0  0  0  0  0  0  0  0
    0.5927    2.4617    0.5542 H   0  0  0  0  0  0  0  0  0  0  0  0
   -0.2955    2.5163   -0.9982 H   0  0  0  0  0  0  0  0  0  0  0  0
    0.3724    0.5200   -0.4020 C   0  0  1  0  0  0  0  0  0  0  0  0
    0.8239    0.5134   -1.3943 H   0  0  0  0  0  0  0  0  0  0  0  0
    1.3983    0.0272    0.6323 C   0  0  0  0  0  0  0  0  0  0  0  0
    2.3990   -0.5899    0.2730 O   0  0  0  0  0  0  0  0  0  0  0  0
    1.1260    0.2675    1.9206 N   0  0  0  0  0  0  0  0  0  0  0  0
    0.3175    0.8306    2.1309 H   0  0  0  0  0  0  0  0  0  0  0  0
    1.9894   -0.1394    3.0268 C   0  0  0  0  0  0  0  0  0  0  0  0
    2.9408    0.3928    2.9611 H   0  0  0  0  0  0  0  0  0  0  0  0
    1.5140    0.0873    3.9816 H   0  0  0  0  0  0  0  0  0  0  0  0
    2.1874   -1.2118    2.9659 H   0  0  0  0  0  0  0  0  0  0  0  0
  5  6  2  0  0  0  0
  5  7  1  0  0  0  0
  2  3  1  0  0  0  0
  2  4  1  0  0  0  0
  2  5  1  0  0  0  0
  1  2  1  0  0  0  0
 19 20  2  0  0  0  0
 19 21  1  0  0  0  0
 17 18  1  0  0  0  0
 17 19  1  0  0  0  0
 14 15  1  0  0  0  0
 14 16  1  0  0  0  0
 14 17  1  0  0  0  0
 11 12  1  0  0  0  0
 11 13  1  0  0  0  0
 11 14  1  0  0  0  0
  8  9  1  0  0  0  0
  8 10  1  0  0  0  0
  8 11  1  0  0  0  0
  7  8  1  0  0  0  0
  7 17  1  0  0  0  0
 23 24  1  0  0  0  0
 23 25  1  0  0  0  0
 23 26  1  0  0  0  0
 21 22  1  0  0  0  0
 21 23  1  0  0  0  0
M  END
$$$$
default_name
  -OEChem-11182114113D

 26 26  0     1  0  0  0  0  0999 V2000
   -1.8446   -3.5060   -0.3010 H   0  0  0  0  0  0  0  0  0  0  0  0
   -2.0746   -2.4490   -0.4240 C   0  0  0  0  0  0  0  0  0  0  0  0
   -2.6906   -2.1160    0.4090 H   0  0  0  0  0  0  0  0  0  0  0  0
   -2.5986   -2.2980   -1.3650 H   0  0  0  0  0  0  0  0  0  0  0  0
   -0.7756   -1.6630   -0.4350 C   0  0  0  0  0  0  0  0  0  0  0  0
    0.2844   -2.2800   -0.4550 O   0  0  0  0  0  0  0  0  0  0  0  0
   -0.8246   -0.3180   -0.4350 N   0  0  0  0  0  0  0  0  0  0  0  0
   -2.0106    0.5080   -0.5910 C   0  0  0  0  0  0  0  0  0  0  0  0
   -2.9830    0.1578   -0.2410 H   0  0  0  0  0  0  0  0  0  0  0  0
   -2.1351    1.2455   -1.3831 H   0  0  0  0  0  0  0  0  0  0  0  0
   -1.2272    1.1176    0.5697 C   0  0  0  0  0  0  0  0  0  0  0  0
   -0.8237    0.3336    1.2124 H   0  0  0  0  0  0  0  0  0  0  0  0
   -1.8931    1.7741    1.1306 H   0  0  0  0  0  0  0  0  0  0  0  0
   -0.1209    1.9420   -0.0885 C   0  0  0  0  0  0  0  0  0  0  0  0
    0.5927    2.4617    0.5542 H   0  0  0  0  0  0  0  0  0  0  0  0
   -0.2955    2.5163   -0.9982 H   0  0  0  0  0  0  0  0  0  0  0  0
    0.3724    0.5200   -0.4020 C   0  0  1  0  0  0  0  0  0  0  0  0
    0.8239    0.5134   -1.3943 H   0  0  0  0  0  0  0  0  0  0  0  0
    1.3983    0.0272    0.6323 C   0  0  0  0  0  0  0  0  0  0  0  0
    2.5163   -0.3395    0.2760 O   0  0  0  0  0  0  0  0  0  0  0  0
    1.0004   -0.0171    1.9096 N   0  0  0  0  0  0  0  0  0  0  0  0
    0.0909    0.3560    2.1296 H   0  0  0  0  0  0  0  0  0  0  0  0
    1.8465   -0.4667    3.0126 C   0  0  0  0  0  0  0  0  0  0  0  0
    2.6878    0.2197    3.1295 H   0  0  0  0  0  0  0  0  0  0  0  0
    1.2743   -0.4981    3.9404 H   0  0  0  0  0  0  0  0  0  0  0  0
    2.2393   -1.4623    2.7950 H   0  0  0  0  0  0  0  0  0  0  0  0
  5  6  2  0  0  0  0
  5  7  1  0  0  0  0
  2  3  1  0  0  0  0
  2  4  1  0  0  0  0
  2  5  1  0  0  0  0
  1  2  1  0  0  0  0
 19 20  2  0  0  0  0
 19 21  1  0  0  0  0
 17 18  1  0  0  0  0
 17 19  1  0  0  0  0
 14 15  1  0  0  0  0
 14 16  1  0  0  0  0
 14 17  1  0  0  0  0
 11 12  1  0  0  0  0
 11 13  1  0  0  0  0
 11 14  1  0  0  0  0
  8  9  1  0  0  0  0
  8 10  1  0  0  0  0
  8 11  1  0  0  0  0
  7  8  1  0  0  0  0
  7 17  1  0  0  0  0
 23 24  1  0  0  0  0
 23 25  1  0  0  0  0
 23 26  1  0  0  0  0
 21 22  1  0  0  0  0
 21 23  1  0  0  0  0
M  END
$$$$
default_name
  -OEChem-11182114113D

 26 26  0     1  0  0  0  0  0999 V2000
   -1.8446   -3.5060   -0.3010 H   0  0  0  0  0  0  0  0  0  0  0  0
   -2.0746   -2.4490   -0.4240 C   0  0  0  0  0  0  0  0  0  0  0  0
   -2.6906   -2.1160    0.4090 H   0  0  0  0  0  0  0  0  0  0  0  0
   -2.5986   -2.2980   -1.3650 H   0  0  0  0  0  0  0  0  0  0  0  0
   -0.7756   -1.6630   -0.4350 C   0  0  0  0  0  0  0  0  0  0  0  0
    0.2844   -2.2800   -0.4550 O   0  0  0  0  0  0  0  0  0  0  0  0
   -0.8246   -0.3180   -0.4350 N   0  0  0  0  0  0  0  0  0  0  0  0
   -2.0106    0.5080   -0.5910 C   0  0  0  0  0  0  0  0  0  0  0  0
   -2.9830    0.1578   -0.2410 H   0  0  0  0  0  0  0  0  0  0  0  0
   -2.1351    1.2455   -1.3831 H   0  0  0  0  0  0  0  0  0  0  0  0
   -1.2272    1.1176    0.5697 C   0  0  0  0  0  0  0  0  0  0  0  0
   -0.8237    0.3336    1.2124 H   0  0  0  0  0  0  0  0  0  0  0  0
   -1.8931    1.7741    1.1306 H   0  0  0  0  0  0  0  0  0  0  0  0
   -0.1209    1.9420   -0.0885 C   0  0  0  0  0  0  0  0  0  0  0  0
    0.5927    2.4617    0.5542 H   0  0  0  0  0  0  0  0  0  0  0  0
   -0.2955    2.5163   -0.9982 H   0  0  0  0  0  0  0  0  0  0  0  0
    0.3724    0.5200   -0.4020 C   0  0  1  0  0  0  0  0  0  0  0  0
    0.8239    0.5134   -1.3943 H   0  0  0  0  0  0  0  0  0  0  0  0
    1.3983    0.0272    0.6323 C   0  0  0  0  0  0  0  0  0  0  0  0
    2.5857   -0.0776    0.3318 O   0  0  0  0  0  0  0  0  0  0  0  0
    0.9296   -0.3120    1.8393 N   0  0  0  0  0  0  0  0  0  0  0  0
   -0.0453   -0.1416    2.0276 H   0  0  0  0  0  0  0  0  0  0  0  0
    1.7666   -0.8053    2.9305 C   0  0  0  0  0  0  0  0  0  0  0  0
    2.4596   -0.0206    3.2414 H   0  0  0  0  0  0  0  0  0  0  0  0
    1.1482   -1.0981    3.7796 H   0  0  0  0  0  0  0  0  0  0  0  0
    2.3473   -1.6657    2.5911 H   0  0  0  0  0  0  0  0  0  0  0  0
  5  6  2  0  0  0  0
  5  7  1  0  0  0  0
  2  3  1  0  0  0  0
  2  4  1  0  0  0  0
  2  5  1  0  0  0  0
  1  2  1  0  0  0  0
 19 20  2  0  0  0  0
 19 21  1  0  0  0  0
 17 18  1  0  0  0  0
 17 19  1  0  0  0  0
 14 15  1  0  0  0  0
 14 16  1  0  0  0  0
 14 17  1  0  0  0  0
 11 12  1  0  0  0  0
 11 13  1  0  0  0  0
 11 14  1  0  0  0  0
  8  9  1  0  0  0  0
  8 10  1  0  0  0  0
  8 11  1  0  0  0  0
  7  8  1  0  0  0  0
  7 17  1  0  0  0  0
 23 24  1  0  0  0  0
 23 25  1  0  0  0  0
 23 26  1  0  0  0  0
 21 22  1  0  0  0  0
 21 23  1  0  0  0  0
M  END
$$$$
default_name
  -OEChem-11182114113D

 26 26  0     1  0  0  0  0  0999 V2000
   -1.8446   -3.5060   -0.3010 H   0  0  0  0  0  0  0  0  0  0  0  0
   -2.0746   -2.4490   -0.4240 C   0  0  0  0  0  0  0  0  0  0  0  0
   -2.6906   -2.1160    0.4090 H   0  0  0  0  0  0  0  0  0  0  0  0
   -2.5986   -2.2980   -1.3650 H   0  0  0  0  0  0  0  0  0  0  0  0
   -0.7756   -1.6630   -0.4350 C   0  0  0  0  0  0  0  0  0  0  0  0
    0.2844   -2.2800   -0.4550 O   0  0  0  0  0  0  0  0  0  0  0  0
   -0.8246   -0.3180   -0.4350 N   0  0  0  0  0  0  0  0  0  0  0  0
   -2.0106    0.5080   -0.5910 C   0  0  0  0  0  0  0  0  0  0  0  0
   -2.9830    0.1578   -0.2410 H   0  0  0  0  0  0  0  0  0  0  0  0
   -2.1351    1.2455   -1.3831 H   0  0  0  0  0  0  0  0  0  0  0  0
   -1.2272    1.1176    0.5697 C   0  0  0  0  0  0  0  0  0  0  0  0
   -0.8237    0.3336    1.2124 H   0  0  0  0  0  0  0  0  0  0  0  0
   -1.8931    1.7741    1.1306 H   0  0  0  0  0  0  0  0  0  0  0  0
   -0.1209    1.9420   -0.0885 C   0  0  0  0  0  0  0  0  0  0  0  0
    0.5927    2.4617    0.5542 H   0  0  0  0  0  0  0  0  0  0  0  0
   -0.2955    2.5163   -0.9982 H   0  0  0  0  0  0  0  0  0  0  0  0
    0.3724    0.5200   -0.4020 C   0  0  1  0  0  0  0  0  0  0  0  0
    0.8239    0.5134   -1.3943 H   0  0  0  0  0  0  0  0  0  0  0  0
    1.3983    0.0272    0.6323 C   0  0  0  0  0  0  0  0  0  0  0  0
    2.6026    0.1777    0.4367 O   0  0  0  0  0  0  0  0  0  0  0  0
    0.9184   -0.5971    1.7147 N   0  0  0  0  0  0  0  0  0  0  0  0
   -0.0817   -0.6284    1.8318 H   0  0  0  0  0  0  0  0  0  0  0  0
    1.7551   -1.1321    2.7862 C   0  0  0  0  0  0  0  0  0  0  0  0
    2.2717   -0.3117    3.2891 H   0  0  0  0  0  0  0  0  0  0  0  0
    1.1441   -1.6719    3.5103 H   0  0  0  0  0  0  0  0  0  0  0  0
    2.5039   -1.8083    2.3678 H   0  0  0  0  0  0  0  0  0  0  0  0
  5  6  2  0  0  0  0
  5  7  1  0  0  0  0
  2  3  1  0  0  0  0
  2  4  1  0  0  0  0
  2  5  1  0  0  0  0
  1  2  1  0  0  0  0
 19 20  2  0  0  0  0
 19 21  1  0  0  0  0
 17 18  1  0  0  0  0
 17 19  1  0  0  0  0
 14 15  1  0  0  0  0
 14 16  1  0  0  0  0
 14 17  1  0  0  0  0
 11 12  1  0  0  0  0
 11 13  1  0  0  0  0
 11 14  1  0  0  0  0
  8  9  1  0  0  0  0
  8 10  1  0  0  0  0
  8 11  1  0  0  0  0
  7  8  1  0  0  0  0
  7 17  1  0  0  0  0
 23 24  1  0  0  0  0
 23 25  1  0  0  0  0
 23 26  1  0  0  0  0
 21 22  1  0  0  0  0
 21 23  1  0  0  0  0
M  END
$$$$
default_name
  -OEChem-11182114113D

 26 26  0     1  0  0  0  0  0999 V2000
   -1.8446   -3.5060   -0.3010 H   0  0  0  0  0  0  0  0  0  0  0  0
   -2.0746   -2.4490   -0.4240 C   0  0  0  0  0  0  0  0  0  0  0  0
   -2.6906   -2.1160    0.4090 H   0  0  0  0  0  0  0  0  0  0  0  0
   -2.5986   -2.2980   -1.3650 H   0  0  0  0  0  0  0  0  0  0  0  0
   -0.7756   -1.6630   -0.4350 C   0  0  0  0  0  0  0  0  0  0  0  0
    0.2844   -2.2800   -0.4550 O   0  0  0  0  0  0  0  0  0  0  0  0
   -0.8246   -0.3180   -0.4350 N   0  0  0  0  0  0  0  0  0  0  0  0
   -2.0106    0.5080   -0.5910 C   0  0  0  0  0  0  0  0  0  0  0  0
   -2.9830    0.1578   -0.2410 H   0  0  0  0  0  0  0  0  0  0  0  0
   -2.1351    1.2455   -1.3831 H   0  0  0  0  0  0  0  0  0  0  0  0
   -1.2272    1.1176    0.5697 C   0  0  0  0  0  0  0  0  0  0  0  0
   -0.8237    0.3336    1.2124 H   0  0  0  0  0  0  0  0  0  0  0  0
   -1.8931    1.7741    1.1306 H   0  0  0  0  0  0  0  0  0  0  0  0
   -0.1209    1.9420   -0.0885 C   0  0  0  0  0  0  0  0  0  0  0  0
    0.5927    2.4617    0.5542 H   0  0  0  0  0  0  0  0  0  0  0  0
   -0.2955    2.5163   -0.9982 H   0  0  0  0  0  0  0  0  0  0  0  0
    0.3724    0.5200   -0.4020 C   0  0  1  0  0  0  0  0  0  0  0  0
    0.8239    0.5134   -1.3943 H   0  0  0  0  0  0  0  0  0  0  0  0
    1.3983    0.0272    0.6323 C   0  0  0  0  0  0  0  0  0  0  0  0
    2.5658    0.4092    0.5835 O   0  0  0  0  0  0  0  0  0  0  0  0
    0.9674   -0.8529    1.5441 N   0  0  0  0  0  0  0  0  0  0  0  0
   -0.0160   -1.0711    1.5557 H   0  0  0  0  0  0  0  0  0  0  0  0
    1.8129   -1.4248    2.5894 C   0  0  0  0  0  0  0  0  0  0  0  0
    2.1369   -0.6339    3.2692 H   0  0  0  0  0  0  0  0  0  0  0  0
    1.2624   -2.1804    3.1507 H   0  0  0  0  0  0  0  0  0  0  0  0
    2.6984   -1.8801    2.1406 H   0  0  0  0  0  0  0  0  0  0  0  0
  5  6  2  0  0  0  0
  5  7  1  0  0  0  0
  2  3  1  0  0  0  0
  2  4  1  0  0  0  0
  2  5  1  0  0  0  0
  1  2  1  0  0  0  0
 19 20  2  0  0  0  0
 19 21  1  0  0  0  0
 17 18  1  0  0  0  0
 17 19  1  0  0  0  0
 14 15  1  0  0  0  0
 14 16  1  0  0  0  0
 14 17  1  0  0  0  0
 11 12  1  0  0  0  0
 11 13  1  0  0  0  0
 11 14  1  0  0  0  0
  8  9  1  0  0  0  0
  8 10  1  0  0  0  0
  8 11  1  0  0  0  0
  7  8  1  0  0  0  0
  7 17  1  0  0  0  0
 23 24  1  0  0  0  0
 23 25  1  0  0  0  0
 23 26  1  0  0  0  0
 21 22  1  0  0  0  0
 21 23  1  0  0  0  0
M  END
$$$$
default_name
  -OEChem-11182114113D

 26 26  0     1  0  0  0  0  0999 V2000
   -1.8446   -3.5060   -0.3010 H   0  0  0  0  0  0  0  0  0  0  0  0
   -2.0746   -2.4490   -0.4240 C   0  0  0  0  0  0  0  0  0  0  0  0
   -2.6906   -2.1160    0.4090 H   0  0  0  0  0  0  0  0  0  0  0  0
   -2.5986   -2.2980   -1.3650 H   0  0  0  0  0  0  0  0  0  0  0  0
   -0.7756   -1.6630   -0.4350 C   0  0  0  0  0  0  0  0  0  0  0  0
    0.2844   -2.2800   -0.4550 O   0  0  0  0  0  0  0  0  0  0  0  0
   -0.8246   -0.3180   -0.4350 N   0  0  0  0  0  0  0  0  0  0  0  0
   -2.0106    0.5080   -0.5910 C   0  0  0  0  0  0  0  0  0  0  0  0
   -2.9830    0.1578   -0.2410 H   0  0  0  0  0  0  0  0  0  0  0  0
   -2.1351    1.2455   -1.3831 H   0  0  0  0  0  0  0  0  0  0  0  0
   -1.2272    1.1176    0.5697 C   0  0  0  0  0  0  0  0  0  0  0  0
   -0.8237    0.3336    1.2124 H   0  0  0  0  0  0  0  0  0  0  0  0
   -1.8931    1.7741    1.1306 H   0  0  0  0  0  0  0  0  0  0  0  0
   -0.1209    1.9420   -0.0885 C   0  0  0  0  0  0  0  0  0  0  0  0
    0.5927    2.4617    0.5542 H   0  0  0  0  0  0  0  0  0  0  0  0
   -0.2955    2.5163   -0.9982 H   0  0  0  0  0  0  0  0  0  0  0  0
    0.3724    0.5200   -0.4020 C   0  0  1  0  0  0  0  0  0  0  0  0
    0.8239    0.5134   -1.3943 H   0  0  0  0  0  0  0  0  0  0  0  0
    1.3983    0.0272    0.6323 C   0  0  0  0  0  0  0  0  0  0  0  0
    2.4778    0.6010    0.7622 O   0  0  0  0  0  0  0  0  0  0  0  0
    1.0735   -1.0619    1.3393 N   0  0  0  0  0  0  0  0  0  0  0  0
    0.1475   -1.4396    1.2180 H   0  0  0  0  0  0  0  0  0  0  0  0
    1.9360   -1.6635    2.3536 C   0  0  0  0  0  0  0  0  0  0  0  0
    2.0645   -0.9651    3.1833 H   0  0  0  0  0  0  0  0  0  0  0  0
    1.4950   -2.5889    2.7254 H   0  0  0  0  0  0  0  0  0  0  0  0
    2.9177   -1.8765    1.9249 H   0  0  0  0  0  0  0  0  0  0  0  0
  5  6  2  0  0  0  0
  5  7  1  0  0  0  0
  2  3  1  0  0  0  0
  2  4  1  0  0  0  0
  2  5  1  0  0  0  0
  1  2  1  0  0  0  0
 19 20  2  0  0  0  0
 19 21  1  0  0  0  0
 17 18  1  0  0  0  0
 17 19  1  0  0  0  0
 14 15  1  0  0  0  0
 14 16  1  0  0  0  0
 14 17  1  0  0  0  0
 11 12  1  0  0  0  0
 11 13  1  0  0  0  0
 11 14  1  0  0  0  0
  8  9  1  0  0  0  0
  8 10  1  0  0  0  0
  8 11  1  0  0  0  0
  7  8  1  0  0  0  0
  7 17  1  0  0  0  0
 23 24  1  0  0  0  0
 23 25  1  0  0  0  0
 23 26  1  0  0  0  0
 21 22  1  0  0  0  0
 21 23  1  0  0  0  0
M  END
$$$$
default_name
  -OEChem-11182114113D

 26 26  0     1  0  0  0  0  0999 V2000
   -1.8446   -3.5060   -0.3010 H   0  0  0  0  0  0  0  0  0  0  0  0
   -2.0746   -2.4490   -0.4240 C   0  0  0  0  0  0  0  0  0  0  0  0
   -2.6906   -2.1160    0.4090 H   0  0  0  0  0  0  0  0  0  0  0  0
   -2.5986   -2.2980   -1.3650 H   0  0  0  0  0  0  0  0  0  0  0  0
   -0.7756   -1.6630   -0.4350 C   0  0  0  0  0  0  0  0  0  0  0  0
    0.2844   -2.2800   -0.4550 O   0  0  0  0  0  0  0  0  0  0  0  0
   -0.8246   -0.3180   -0.4350 N   0  0  0  0  0  0  0  0  0  0  0  0
   -2.0106    0.5080   -0.5910 C   0  0  0  0  0  0  0  0  0  0  0  0
   -2.9830    0.1578   -0.2410 H   0  0  0  0  0  0  0  0  0  0  0  0
   -2.1351    1.2455   -1.3831 H   0  0  0  0  0  0  0  0  0  0  0  0
   -1.2272    1.1176    0.5697 C   0  0  0  0  0  0  0  0  0  0  0  0
   -0.8237    0.3336    1.2124 H   0  0  0  0  0  0  0  0  0  0  0  0
   -1.8931    1.7741    1.1306 H   0  0  0  0  0  0  0  0  0  0  0  0
   -0.1209    1.9420   -0.0885 C   0  0  0  0  0  0  0  0  0  0  0  0
    0.5927    2.4617    0.5542 H   0  0  0  0  0  0  0  0  0  0  0  0
   -0.2955    2.5163   -0.9982 H   0  0  0  0  0  0  0  0  0  0  0  0
    0.3724    0.5200   -0.4020 C   0  0  1  0  0  0  0  0  0  0  0  0
    0.8239    0.5134   -1.3943 H   0  0  0  0  0  0  0  0  0  0  0  0
    1.3983    0.0272    0.6323 C   0  0  0  0  0  0  0  0  0  0  0  0
    2.3445    0.7401    0.9607 O   0  0  0  0  0  0  0  0  0  0  0  0
    1.2294   -1.2100    1.1142 N   0  0  0  0  0  0  0  0  0  0  0  0
    0.3975   -1.7088    0.8417 H   0  0  0  0  0  0  0  0  0  0  0  0
    2.1161   -1.8320    2.0948 C   0  0  0  0  0  0  0  0  0  0  0  0
    2.0593   -1.2828    3.0371 H   0  0  0  0  0  0  0  0  0  0  0  0
    1.8260   -2.8695    2.2634 H   0  0  0  0  0  0  0  0  0  0  0  0
    3.1468   -1.7975    1.7353 H   0  0  0  0  0  0  0  0  0  0  0  0
  5  6  2  0  0  0  0
  5  7  1  0  0  0  0
  2  3  1  0  0  0  0
  2  4  1  0  0  0  0
  2  5  1  0  0  0  0
  1  2  1  0  0  0  0
 19 20  2  0  0  0  0
 19 21  1  0  0  0  0
 17 18  1  0  0  0  0
 17 19  1  0  0  0  0
 14 15  1  0  0  0  0
 14 16  1  0  0  0  0
 14 17  1  0  0  0  0
 11 12  1  0  0  0  0
 11 13  1  0  0  0  0
 11 14  1  0  0  0  0
  8  9  1  0  0  0  0
  8 10  1  0  0  0  0
  8 11  1  0  0  0  0
  7  8  1  0  0  0  0
  7 17  1  0  0  0  0
 23 24  1  0  0  0  0
 23 25  1  0  0  0  0
 23 26  1  0  0  0  0
 21 22  1  0  0  0  0
 21 23  1  0  0  0  0
M  END
$$$$
default_name
  -OEChem-11182114113D

 26 26  0     1  0  0  0  0  0999 V2000
   -1.8446   -3.5060   -0.3010 H   0  0  0  0  0  0  0  0  0  0  0  0
   -2.0746   -2.4490   -0.4240 C   0  0  0  0  0  0  0  0  0  0  0  0
   -2.6906   -2.1160    0.4090 H   0  0  0  0  0  0  0  0  0  0  0  0
   -2.5986   -2.2980   -1.3650 H   0  0  0  0  0  0  0  0  0  0  0  0
   -0.7756   -1.6630   -0.4350 C   0  0  0  0  0  0  0  0  0  0  0  0
    0.2844   -2.2800   -0.4550 O   0  0  0  0  0  0  0  0  0  0  0  0
   -0.8246   -0.3180   -0.4350 N   0  0  0  0  0  0  0  0  0  0  0  0
   -2.0106    0.5080   -0.5910 C   0  0  0  0  0  0  0  0  0  0  0  0
   -2.9830    0.1578   -0.2410 H   0  0  0  0  0  0  0  0  0  0  0  0
   -2.1351    1.2455   -1.3831 H   0  0  0  0  0  0  0  0  0  0  0  0
   -1.2272    1.1176    0.5697 C   0  0  0  0  0  0  0  0  0  0  0  0
   -0.8237    0.3336    1.2124 H   0  0  0  0  0  0  0  0  0  0  0  0
   -1.8931    1.7741    1.1306 H   0  0  0  0  0  0  0  0  0  0  0  0
   -0.1209    1.9420   -0.0885 C   0  0  0  0  0  0  0  0  0  0  0  0
    0.5927    2.4617    0.5542 H   0  0  0  0  0  0  0  0  0  0  0  0
   -0.2955    2.5163   -0.9982 H   0  0  0  0  0  0  0  0  0  0  0  0
    0.3724    0.5200   -0.4020 C   0  0  1  0  0  0  0  0  0  0  0  0
    0.8239    0.5134   -1.3943 H   0  0  0  0  0  0  0  0  0  0  0  0
    1.3983    0.0272    0.6323 C   0  0  0  0  0  0  0  0  0  0  0  0
    2.1751    0.8171    1.1653 O   0  0  0  0  0  0  0  0  0  0  0  0
    1.4244   -1.2871    0.8841 N   0  0  0  0  0  0  0  0  0  0  0  0
    0.7171   -1.8603    0.4526 H   0  0  0  0  0  0  0  0  0  0  0  0
    2.3407   -1.9186    1.8306 C   0  0  0  0  0  0  0  0  0  0  0  0
    2.1217   -1.5654    2.8405 H   0  0  0  0  0  0  0  0  0  0  0  0
    2.2329   -3.0032    1.7961 H   0  0  0  0  0  0  0  0  0  0  0  0
    3.3701   -1.6486    1.5848 H   0  0  0  0  0  0  0  0  0  0  0  0
  5  6  2  0  0  0  0
  5  7  1  0  0  0  0
  2  3  1  0  0  0  0
  2  4  1  0  0  0  0
  2  5  1  0  0  0  0
  1  2  1  0  0  0  0
 19 20  2  0  0  0  0
 19 21  1  0  0  0  0
 17 18  1  0  0  0  0
 17 19  1  0  0  0  0
 14 15  1  0  0  0  0
 14 16  1  0  0  0  0
 14 17  1  0  0  0  0
 11 12  1  0  0  0  0
 11 13  1  0  0  0  0
 11 14  1  0  0  0  0
  8  9  1  0  0  0  0
  8 10  1  0  0  0  0
  8 11  1  0  0  0  0
  7  8  1  0  0  0  0
  7 17  1  0  0  0  0
 23 24  1  0  0  0  0
 23 25  1  0  0  0  0
 23 26  1  0  0  0  0
 21 22  1  0  0  0  0
 21 23  1  0  0  0  0
M  END
$$$$
default_name
  -OEChem-11182114113D

 26 26  0     1  0  0  0  0  0999 V2000
   -1.8446   -3.5060   -0.3010 H   0  0  0  0  0  0  0  0  0  0  0  0
   -2.0746   -2.4490   -0.4240 C   0  0  0  0  0  0  0  0  0  0  0  0
   -2.6906   -2.1160    0.4090 H   0  0  0  0  0  0  0  0  0  0  0  0
   -2.5986   -2.2980   -1.3650 H   0  0  0  0  0  0  0  0  0  0  0  0
   -0.7756   -1.6630   -0.4350 C   0  0  0  0  0  0  0  0  0  0  0  0
    0.2844   -2.2800   -0.4550 O   0  0  0  0  0  0  0  0  0  0  0  0
   -0.8246   -0.3180   -0.4350 N   0  0  0  0  0  0  0  0  0  0  0  0
   -2.0106    0.5080   -0.5910 C   0  0  0  0  0  0  0  0  0  0  0  0
   -2.9830    0.1578   -0.2410 H   0  0  0  0  0  0  0  0  0  0  0  0
   -2.1351    1.2455   -1.3831 H   0  0  0  0  0  0  0  0  0  0  0  0
   -1.2272    1.1176    0.5697 C   0  0  0  0  0  0  0  0  0  0  0  0
   -0.8237    0.3336    1.2124 H   0  0  0  0  0  0  0  0  0  0  0  0
   -1.8931    1.7741    1.1306 H   0  0  0  0  0  0  0  0  0  0  0  0
   -0.1209    1.9420   -0.0885 C   0  0  0  0  0  0  0  0  0  0  0  0
    0.5927    2.4617    0.5542 H   0  0  0  0  0  0  0  0  0  0  0  0
   -0.2955    2.5163   -0.9982 H   0  0  0  0  0  0  0  0  0  0  0  0
    0.3724    0.5200   -0.4020 C   0  0  1  0  0  0  0  0  0  0  0  0
    0.8239    0.5134   -1.3943 H   0  0  0  0  0  0  0  0  0  0  0  0
    1.3983    0.0272    0.6323 C   0  0  0  0  0  0  0  0  0  0  0  0
    1.9811    0.8265    1.3623 O   0  0  0  0  0  0  0  0  0  0  0  0
    1.6452   -1.2879    0.6646 N   0  0  0  0  0  0  0  0  0  0  0  0
    1.0845   -1.8838    0.0770 H   0  0  0  0  0  0  0  0  0  0  0  0
    2.5947   -1.9176    1.5791 C   0  0  0  0  0  0  0  0  0  0  0  0
    2.2475   -1.7935    2.6071 H   0  0  0  0  0  0  0  0  0  0  0  0
    2.6880   -2.9808    1.3554 H   0  0  0  0  0  0  0  0  0  0  0  0
    3.5723   -1.4399    1.4836 H   0  0  0  0  0  0  0  0  0  0  0  0
  5  6  2  0  0  0  0
  5  7  1  0  0  0  0
  2  3  1  0  0  0  0
  2  4  1  0  0  0  0
  2  5  1  0  0  0  0
  1  2  1  0  0  0  0
 19 20  2  0  0  0  0
 19 21  1  0  0  0  0
 17 18  1  0  0  0  0
 17 19  1  0  0  0  0
 14 15  1  0  0  0  0
 14 16  1  0  0  0  0
 14 17  1  0  0  0  0
 11 12  1  0  0  0  0
 11 13  1  0  0  0  0
 11 14  1  0  0  0  0
  8  9  1  0  0  0  0
  8 10  1  0  0  0  0
  8 11  1  0  0  0  0
  7  8  1  0  0  0  0
  7 17  1  0  0  0  0
 23 24  1  0  0  0  0
 23 25  1  0  0  0  0
 23 26  1  0  0  0  0
 21 22  1  0  0  0  0
 21 23  1  0  0  0  0
M  END
$$$$
default_name
  -OEChem-11182114113D

 26 26  0     1  0  0  0  0  0999 V2000
   -1.8446   -3.5060   -0.3010 H   0  0  0  0  0  0  0  0  0  0  0  0
   -2.0746   -2.4490   -0.4240 C   0  0  0  0  0  0  0  0  0  0  0  0
   -2.6906   -2.1160    0.4090 H   0  0  0  0  0  0  0  0  0  0  0  0
   -2.5986   -2.2980   -1.3650 H   0  0  0  0  0  0  0  0  0  0  0  0
   -0.7756   -1.6630   -0.4350 C   0  0  0  0  0  0  0  0  0  0  0  0
    0.2844   -2.2800   -0.4550 O   0  0  0  0  0  0  0  0  0  0  0  0
   -0.8246   -0.3180   -0.4350 N   0  0  0  0  0  0  0  0  0  0  0  0
   -2.0106    0.5080   -0.5910 C   0  0  0  0  0  0  0  0  0  0  0  0
   -2.9830    0.1578   -0.2410 H   0  0  0  0  0  0  0  0  0  0  0  0
   -2.1351    1.2455   -1.3831 H   0  0  0  0  0  0  0  0  0  0  0  0
   -1.2272    1.1176    0.5697 C   0  0  0  0  0  0  0  0  0  0  0  0
   -0.8237    0.3336    1.2124 H   0  0  0  0  0  0  0  0  0  0  0  0
   -1.8931    1.7741    1.1306 H   0  0  0  0  0  0  0  0  0  0  0  0
   -0.1209    1.9420   -0.0885 C   0  0  0  0  0  0  0  0  0  0  0  0
    0.5927    2.4617    0.5542 H   0  0  0  0  0  0  0  0  0  0  0  0
   -0.2955    2.5163   -0.9982 H   0  0  0  0  0  0  0  0  0  0  0  0
    0.3724    0.5200   -0.4020 C   0  0  1  0  0  0  0  0  0  0  0  0
    0.8239    0.5134   -1.3943 H   0  0  0  0  0  0  0  0  0  0  0  0
    1.3983    0.0272    0.6323 C   0  0  0  0  0  0  0  0  0  0  0  0
    1.7758    0.7679    1.5380 O   0  0  0  0  0  0  0  0  0  0  0  0
    1.8769   -1.2123    0.4709 N   0  0  0  0  0  0  0  0  0  0  0  0
    1.4746   -1.7778   -0.2594 H   0  0  0  0  0  0  0  0  0  0  0  0
    2.8608   -1.8290    1.3575 C   0  0  0  0  0  0  0  0  0  0  0  0
    2.4280   -1.9516    2.3527 H   0  0  0  0  0  0  0  0  0  0  0  0
    3.1602   -2.8039    0.9713 H   0  0  0  0  0  0  0  0  0  0  0  0
    3.7396   -1.1857    1.4387 H   0  0  0  0  0  0  0  0  0  0  0  0
  5  6  2  0  0  0  0
  5  7  1  0  0  0  0
  2  3  1  0  0  0  0
  2  4  1  0  0  0  0
  2  5  1  0  0  0  0
  1  2  1  0  0  0  0
 19 20  2  0  0  0  0
 19 21  1  0  0  0  0
 17 18  1  0  0  0  0
 17 19  1  0  0  0  0
 14 15  1  0  0  0  0
 14 16  1  0  0  0  0
 14 17  1  0  0  0  0
 11 12  1  0  0  0  0
 11 13  1  0  0  0  0
 11 14  1  0  0  0  0
  8  9  1  0  0  0  0
  8 10  1  0  0  0  0
  8 11  1  0  0  0  0
  7  8  1  0  0  0  0
  7 17  1  0  0  0  0
 23 24  1  0  0  0  0
 23 25  1  0  0  0  0
 23 26  1  0  0  0  0
 21 22  1  0  0  0  0
 21 23  1  0  0  0  0
M  END
$$$$
default_name
  -OEChem-11182114113D

 26 26  0     1  0  0  0  0  0999 V2000
   -1.8446   -3.5060   -0.3010 H   0  0  0  0  0  0  0  0  0  0  0  0
   -2.0746   -2.4490   -0.4240 C   0  0  0  0  0  0  0  0  0  0  0  0
   -2.6906   -2.1160    0.4090 H   0  0  0  0  0  0  0  0  0  0  0  0
   -2.5986   -2.2980   -1.3650 H   0  0  0  0  0  0  0  0  0  0  0  0
   -0.7756   -1.6630   -0.4350 C   0  0  0  0  0  0  0  0  0  0  0  0
    0.2844   -2.2800   -0.4550 O   0  0  0  0  0  0  0  0  0  0  0  0
   -0.8246   -0.3180   -0.4350 N   0  0  0  0  0  0  0  0  0  0  0  0
   -2.0106    0.5080   -0.5910 C   0  0  0  0  0  0  0  0  0  0  0  0
   -2.9830    0.1578   -0.2410 H   0  0  0  0  0  0  0  0  0  0  0  0
   -2.1351    1.2455   -1.3831 H   0  0  0  0  0  0  0  0  0  0  0  0
   -1.2272    1.1176    0.5697 C   0  0  0  0  0  0  0  0  0  0  0  0
   -0.8237    0.3336    1.2124 H   0  0  0  0  0  0  0  0  0  0  0  0
   -1.8931    1.7741    1.1306 H   0  0  0  0  0  0  0  0  0  0  0  0
   -0.1209    1.9420   -0.0885 C   0  0  0  0  0  0  0  0  0  0  0  0
    0.5927    2.4617    0.5542 H   0  0  0  0  0  0  0  0  0  0  0  0
   -0.2955    2.5163   -0.9982 H   0  0  0  0  0  0  0  0  0  0  0  0
    0.3724    0.5200   -0.4020 C   0  0  1  0  0  0  0  0  0  0  0  0
    0.8239    0.5134   -1.3943 H   0  0  0  0  0  0  0  0  0  0  0  0
    1.3983    0.0272    0.6323 C   0  0  0  0  0  0  0  0  0  0  0  0
    1.5730    0.6452    1.6806 O   0  0  0  0  0  0  0  0  0  0  0  0
    2.1035   -1.0655    0.3160 N   0  0  0  0  0  0  0  0  0  0  0  0
    1.8608   -1.5494   -0.5337 H   0  0  0  0  0  0  0  0  0  0  0  0
    3.1207   -1.6589    1.1807 C   0  0  0  0  0  0  0  0  0  0  0  0
    2.6511   -2.0290    2.0946 H   0  0  0  0  0  0  0  0  0  0  0  0
    3.6174   -2.4845    0.6700 H   0  0  0  0  0  0  0  0  0  0  0  0
    3.8608   -0.9032    1.4531 H   0  0  0  0  0  0  0  0  0  0  0  0
  5  6  2  0  0  0  0
  5  7  1  0  0  0  0
  2  3  1  0  0  0  0
  2  4  1  0  0  0  0
  2  5  1  0  0  0  0
  1  2  1  0  0  0  0
 19 20  2  0  0  0  0
 19 21  1  0  0  0  0
 17 18  1  0  0  0  0
 17 19  1  0  0  0  0
 14 15  1  0  0  0  0
 14 16  1  0  0  0  0
 14 17  1  0  0  0  0
 11 12  1  0  0  0  0
 11 13  1  0  0  0  0
 11 14  1  0  0  0  0
  8  9  1  0  0  0  0
  8 10  1  0  0  0  0
  8 11  1  0  0  0  0
  7  8  1  0  0  0  0
  7 17  1  0  0  0  0
 23 24  1  0  0  0  0
 23 25  1  0  0  0  0
 23 26  1  0  0  0  0
 21 22  1  0  0  0  0
 21 23  1  0  0  0  0
M  END
$$$$
default_name
  -OEChem-11182114113D

 26 26  0     1  0  0  0  0  0999 V2000
   -1.8446   -3.5060   -0.3010 H   0  0  0  0  0  0  0  0  0  0  0  0
   -2.0746   -2.4490   -0.4240 C   0  0  0  0  0  0  0  0  0  0  0  0
   -2.6906   -2.1160    0.4090 H   0  0  0  0  0  0  0  0  0  0  0  0
   -2.5986   -2.2980   -1.3650 H   0  0  0  0  0  0  0  0  0  0  0  0
   -0.7756   -1.6630   -0.4350 C   0  0  0  0  0  0  0  0  0  0  0  0
    0.2844   -2.2800   -0.4550 O   0  0  0  0  0  0  0  0  0  0  0  0
   -0.8246   -0.3180   -0.4350 N   0  0  0  0  0  0  0  0  0  0  0  0
   -2.0106    0.5080   -0.5910 C   0  0  0  0  0  0  0  0  0  0  0  0
   -2.9830    0.1578   -0.2410 H   0  0  0  0  0  0  0  0  0  0  0  0
   -2.1351    1.2455   -1.3831 H   0  0  0  0  0  0  0  0  0  0  0  0
   -1.2272    1.1176    0.5697 C   0  0  0  0  0  0  0  0  0  0  0  0
   -0.8237    0.3336    1.2124 H   0  0  0  0  0  0  0  0  0  0  0  0
   -1.8931    1.7741    1.1306 H   0  0  0  0  0  0  0  0  0  0  0  0
   -0.1209    1.9420   -0.0885 C   0  0  0  0  0  0  0  0  0  0  0  0
    0.5927    2.4617    0.5542 H   0  0  0  0  0  0  0  0  0  0  0  0
   -0.2955    2.5163   -0.9982 H   0  0  0  0  0  0  0  0  0  0  0  0
    0.3724    0.5200   -0.4020 C   0  0  1  0  0  0  0  0  0  0  0  0
    0.8239    0.5134   -1.3943 H   0  0  0  0  0  0  0  0  0  0  0  0
    1.3983    0.0272    0.6323 C   0  0  0  0  0  0  0  0  0  0  0  0
    1.3868    0.4668    1.7804 O   0  0  0  0  0  0  0  0  0  0  0  0
    2.3098   -0.8576    0.2105 N   0  0  0  0  0  0  0  0  0  0  0  0
    2.2168   -1.2141   -0.7271 H   0  0  0  0  0  0  0  0  0  0  0  0
    3.3568   -1.4188    1.0609 C   0  0  0  0  0  0  0  0  0  0  0  0
    2.9014   -2.0204    1.8504 H   0  0  0  0  0  0  0  0  0  0  0  0
    4.0284   -2.0443    0.4721 H   0  0  0  0  0  0  0  0  0  0  0  0
    3.9274   -0.6118    1.5259 H   0  0  0  0  0  0  0  0  0  0  0  0
  5  6  2  0  0  0  0
  5  7  1  0  0  0  0
  2  3  1  0  0  0  0
  2  4  1  0  0  0  0
  2  5  1  0  0  0  0
  1  2  1  0  0  0  0
 19 20  2  0  0  0  0
 19 21  1  0  0  0  0
 17 18  1  0  0  0  0
 17 19  1  0  0  0  0
 14 15  1  0  0  0  0
 14 16  1  0  0  0  0
 14 17  1  0  0  0  0
 11 12  1  0  0  0  0
 11 13  1  0  0  0  0
 11 14  1  0  0  0  0
  8  9  1  0  0  0  0
  8 10  1  0  0  0  0
  8 11  1  0  0  0  0
  7  8  1  0  0  0  0
  7 17  1  0  0  0  0
 23 24  1  0  0  0  0
 23 25  1  0  0  0  0
 23 26  1  0  0  0  0
 21 22  1  0  0  0  0
 21 23  1  0  0  0  0
M  END
$$$$
default_name
  -OEChem-11182114113D

 26 26  0     1  0  0  0  0  0999 V2000
   -1.8446   -3.5060   -0.3010 H   0  0  0  0  0  0  0  0  0  0  0  0
   -2.0746   -2.4490   -0.4240 C   0  0  0  0  0  0  0  0  0  0  0  0
   -2.6906   -2.1160    0.4090 H   0  0  0  0  0  0  0  0  0  0  0  0
   -2.5986   -2.2980   -1.3650 H   0  0  0  0  0  0  0  0  0  0  0  0
   -0.7756   -1.6630   -0.4350 C   0  0  0  0  0  0  0  0  0  0  0  0
    0.2844   -2.2800   -0.4550 O   0  0  0  0  0  0  0  0  0  0  0  0
   -0.8246   -0.3180   -0.4350 N   0  0  0  0  0  0  0  0  0  0  0  0
   -2.0106    0.5080   -0.5910 C   0  0  0  0  0  0  0  0  0  0  0  0
   -2.9830    0.1578   -0.2410 H   0  0  0  0  0  0  0  0  0  0  0  0
   -2.1351    1.2455   -1.3831 H   0  0  0  0  0  0  0  0  0  0  0  0
   -1.2272    1.1176    0.5697 C   0  0  0  0  0  0  0  0  0  0  0  0
   -0.8237    0.3336    1.2124 H   0  0  0  0  0  0  0  0  0  0  0  0
   -1.8931    1.7741    1.1306 H   0  0  0  0  0  0  0  0  0  0  0  0
   -0.1209    1.9420   -0.0885 C   0  0  0  0  0  0  0  0  0  0  0  0
    0.5927    2.4617    0.5542 H   0  0  0  0  0  0  0  0  0  0  0  0
   -0.2955    2.5163   -0.9982 H   0  0  0  0  0  0  0  0  0  0  0  0
    0.3724    0.5200   -0.4020 C   0  0  1  0  0  0  0  0  0  0  0  0
    0.8239    0.5134   -1.3943 H   0  0  0  0  0  0  0  0  0  0  0  0
    1.3983    0.0272    0.6323 C   0  0  0  0  0  0  0  0  0  0  0  0
    1.2296    0.2448    1.8305 O   0  0  0  0  0  0  0  0  0  0  0  0
    2.4815   -0.6026    0.1616 N   0  0  0  0  0  0  0  0  0  0  0  0
    2.5184   -0.7950   -0.8266 H   0  0  0  0  0  0  0  0  0  0  0  0
    3.5530   -1.1250    1.0063 C   0  0  0  0  0  0  0  0  0  0  0  0
    3.1619   -1.9264    1.6368 H   0  0  0  0  0  0  0  0  0  0  0  0
    4.3652   -1.5135    0.3909 H   0  0  0  0  0  0  0  0  0  0  0  0
    3.9351   -0.3313    1.6520 H   0  0  0  0  0  0  0  0  0  0  0  0
  5  6  2  0  0  0  0
  5  7  1  0  0  0  0
  2  3  1  0  0  0  0
  2  4  1  0  0  0  0
  2  5  1  0  0  0  0
  1  2  1  0  0  0  0
 19 20  2  0  0  0  0
 19 21  1  0  0  0  0
 17 18  1  0  0  0  0
 17 19  1  0  0  0  0
 14 15  1  0  0  0  0
 14 16  1  0  0  0  0
 14 17  1  0  0  0  0
 11 12  1  0  0  0  0
 11 13  1  0  0  0  0
 11 14  1  0  0  0  0
  8  9  1  0  0  0  0
  8 10  1  0  0  0  0
  8 11  1  0  0  0  0
  7  8  1  0  0  0  0
  7 17  1  0  0  0  0
 23 24  1  0  0  0  0
 23 25  1  0  0  0  0
 23 26  1  0  0  0  0
 21 22  1  0  0  0  0
 21 23  1  0  0  0  0
M  END
$$$$
default_name
  -OEChem-11182114113D

 26 26  0     1  0  0  0  0  0999 V2000
   -1.8446   -3.5060   -0.3010 H   0  0  0  0  0  0  0  0  0  0  0  0
   -2.0746   -2.4490   -0.4240 C   0  0  0  0  0  0  0  0  0  0  0  0
   -2.6906   -2.1160    0.4090 H   0  0  0  0  0  0  0  0  0  0  0  0
   -2.5986   -2.2980   -1.3650 H   0  0  0  0  0  0  0  0  0  0  0  0
   -0.7756   -1.6630   -0.4350 C   0  0  0  0  0  0  0  0  0  0  0  0
    0.2844   -2.2800   -0.4550 O   0  0  0  0  0  0  0  0  0  0  0  0
   -0.8246   -0.3180   -0.4350 N   0  0  0  0  0  0  0  0  0  0  0  0
   -2.0106    0.5080   -0.5910 C   0  0  0  0  0  0  0  0  0  0  0  0
   -2.9830    0.1578   -0.2410 H   0  0  0  0  0  0  0  0  0  0  0  0
   -2.1351    1.2455   -1.3831 H   0  0  0  0  0  0  0  0  0  0  0  0
   -1.2272    1.1176    0.5697 C   0  0  0  0  0  0  0  0  0  0  0  0
   -0.8237    0.3336    1.2124 H   0  0  0  0  0  0  0  0  0  0  0  0
   -1.8931    1.7741    1.1306 H   0  0  0  0  0  0  0  0  0  0  0  0
   -0.1209    1.9420   -0.0885 C   0  0  0  0  0  0  0  0  0  0  0  0
    0.5927    2.4617    0.5542 H   0  0  0  0  0  0  0  0  0  0  0  0
   -0.2955    2.5163   -0.9982 H   0  0  0  0  0  0  0  0  0  0  0  0
    0.3724    0.5200   -0.4020 C   0  0  1  0  0  0  0  0  0  0  0  0
    0.8239    0.5134   -1.3943 H   0  0  0  0  0  0  0  0  0  0  0  0
    1.3983    0.0272    0.6323 C   0  0  0  0  0  0  0  0  0  0  0  0
    1.1123   -0.0057    1.8275 O   0  0  0  0  0  0  0  0  0  0  0  0
    2.6071   -0.3179    0.1727 N   0  0  0  0  0  0  0  0  0  0  0  0
    2.7450   -0.3204   -0.8252 H   0  0  0  0  0  0  0  0  0  0  0  0
    3.6960   -0.7977    1.0204 C   0  0  0  0  0  0  0  0  0  0  0  0
    3.4149   -1.7533    1.4684 H   0  0  0  0  0  0  0  0  0  0  0  0
    4.6048   -0.9281    0.4321 H   0  0  0  0  0  0  0  0  0  0  0  0
    3.8831   -0.0808    1.8228 H   0  0  0  0  0  0  0  0  0  0  0  0
  5  6  2  0  0  0  0
  5  7  1  0  0  0  0
  2  3  1  0  0  0  0
  2  4  1  0  0  0  0
  2  5  1  0  0  0  0
  1  2  1  0  0  0  0
 19 20  2  0  0  0  0
 19 21  1  0  0  0  0
 17 18  1  0  0  0  0
 17 19  1  0  0  0  0
 14 15  1  0  0  0  0
 14 16  1  0  0  0  0
 14 17  1  0  0  0  0
 11 12  1  0  0  0  0
 11 13  1  0  0  0  0
 11 14  1  0  0  0  0
  8  9  1  0  0  0  0
  8 10  1  0  0  0  0
  8 11  1  0  0  0  0
  7  8  1  0  0  0  0
  7 17  1  0  0  0  0
 23 24  1  0  0  0  0
 23 25  1  0  0  0  0
 23 26  1  0  0  0  0
 21 22  1  0  0  0  0
 21 23  1  0  0  0  0
M  END
$$$$
default_name
  -OEChem-11182114113D

 26 26  0     1  0  0  0  0  0999 V2000
   -1.8446   -3.5060   -0.3010 H   0  0  0  0  0  0  0  0  0  0  0  0
   -2.0746   -2.4490   -0.4240 C   0  0  0  0  0  0  0  0  0  0  0  0
   -2.6906   -2.1160    0.4090 H   0  0  0  0  0  0  0  0  0  0  0  0
   -2.5986   -2.2980   -1.3650 H   0  0  0  0  0  0  0  0  0  0  0  0
   -0.7756   -1.6630   -0.4350 C   0  0  0  0  0  0  0  0  0  0  0  0
    0.2844   -2.2800   -0.4550 O   0  0  0  0  0  0  0  0  0  0  0  0
   -0.8246   -0.3180   -0.4350 N   0  0  0  0  0  0  0  0  0  0  0  0
   -2.0106    0.5080   -0.5910 C   0  0  0  0  0  0  0  0  0  0  0  0
   -2.9830    0.1578   -0.2410 H   0  0  0  0  0  0  0  0  0  0  0  0
   -2.1351    1.2455   -1.3831 H   0  0  0  0  0  0  0  0  0  0  0  0
   -1.2272    1.1176    0.5697 C   0  0  0  0  0  0  0  0  0  0  0  0
   -0.8237    0.3336    1.2124 H   0  0  0  0  0  0  0  0  0  0  0  0
   -1.8931    1.7741    1.1306 H   0  0  0  0  0  0  0  0  0  0  0  0
   -0.1209    1.9420   -0.0885 C   0  0  0  0  0  0  0  0  0  0  0  0
    0.5927    2.4617    0.5542 H   0  0  0  0  0  0  0  0  0  0  0  0
   -0.2955    2.5163   -0.9982 H   0  0  0  0  0  0  0  0  0  0  0  0
    0.3724    0.5200   -0.4020 C   0  0  1  0  0  0  0  0  0  0  0  0
    0.8239    0.5134   -1.3943 H   0  0  0  0  0  0  0  0  0  0  0  0
    1.3983    0.0272    0.6323 C   0  0  0  0  0  0  0  0  0  0  0  0
    1.0428   -0.2675    1.7717 O   0  0  0  0  0  0  0  0  0  0  0  0
    2.6779   -0.0230    0.2429 N   0  0  0  0  0  0  0  0  0  0  0  0
    2.8812    0.1772   -0.7232 H   0  0  0  0  0  0  0  0  0  0  0  0
    3.7759   -0.4591    1.1025 C   0  0  0  0  0  0  0  0  0  0  0  0
    3.6431   -1.5130    1.3565 H   0  0  0  0  0  0  0  0  0  0  0  0
    4.7310   -0.3280    0.5929 H   0  0  0  0  0  0  0  0  0  0  0  0
    3.7752    0.1227    2.0268 H   0  0  0  0  0  0  0  0  0  0  0  0
  5  6  2  0  0  0  0
  5  7  1  0  0  0  0
  2  3  1  0  0  0  0
  2  4  1  0  0  0  0
  2  5  1  0  0  0  0
  1  2  1  0  0  0  0
 19 20  2  0  0  0  0
 19 21  1  0  0  0  0
 17 18  1  0  0  0  0
 17 19  1  0  0  0  0
 14 15  1  0  0  0  0
 14 16  1  0  0  0  0
 14 17  1  0  0  0  0
 11 12  1  0  0  0  0
 11 13  1  0  0  0  0
 11 14  1  0  0  0  0
  8  9  1  0  0  0  0
  8 10  1  0  0  0  0
  8 11  1  0  0  0  0
  7  8  1  0  0  0  0
  7 17  1  0  0  0  0
 23 24  1  0  0  0  0
 23 25  1  0  0  0  0
 23 26  1  0  0  0  0
 21 22  1  0  0  0  0
 21 23  1  0  0  0  0
M  END
$$$$
default_name
  -OEChem-11182114113D

 26 26  0     1  0  0  0  0  0999 V2000
   -1.8446   -3.5060   -0.3010 H   0  0  0  0  0  0  0  0  0  0  0  0
   -2.0746   -2.4490   -0.4240 C   0  0  0  0  0  0  0  0  0  0  0  0
   -2.6906   -2.1160    0.4090 H   0  0  0  0  0  0  0  0  0  0  0  0
   -2.5986   -2.2980   -1.3650 H   0  0  0  0  0  0  0  0  0  0  0  0
   -0.7756   -1.6630   -0.4350 C   0  0  0  0  0  0  0  0  0  0  0  0
    0.2844   -2.2800   -0.4550 O   0  0  0  0  0  0  0  0  0  0  0  0
   -0.8246   -0.3180   -0.4350 N   0  0  0  0  0  0  0  0  0  0  0  0
   -2.0106    0.5080   -0.5910 C   0  0  0  0  0  0  0  0  0  0  0  0
   -2.9830    0.1578   -0.2410 H   0  0  0  0  0  0  0  0  0  0  0  0
   -2.1351    1.2455   -1.3831 H   0  0  0  0  0  0  0  0  0  0  0  0
   -1.2272    1.1176    0.5697 C   0  0  0  0  0  0  0  0  0  0  0  0
   -0.8237    0.3336    1.2124 H   0  0  0  0  0  0  0  0  0  0  0  0
   -1.8931    1.7741    1.1306 H   0  0  0  0  0  0  0  0  0  0  0  0
   -0.1209    1.9420   -0.0885 C   0  0  0  0  0  0  0  0  0  0  0  0
    0.5927    2.4617    0.5542 H   0  0  0  0  0  0  0  0  0  0  0  0
   -0.2955    2.5163   -0.9982 H   0  0  0  0  0  0  0  0  0  0  0  0
    0.3724    0.5200   -0.4020 C   0  0  1  0  0  0  0  0  0  0  0  0
    0.8239    0.5134   -1.3943 H   0  0  0  0  0  0  0  0  0  0  0  0
    1.3983    0.0272    0.6323 C   0  0  0  0  0  0  0  0  0  0  0  0
    1.0260   -0.5229    1.6668 O   0  0  0  0  0  0  0  0  0  0  0  0
    2.6892    0.2620    0.3676 N   0  0  0  0  0  0  0  0  0  0  0  0
    2.9177    0.6639   -0.5275 H   0  0  0  0  0  0  0  0  0  0  0  0
    3.7873   -0.1323    1.2468 C   0  0  0  0  0  0  0  0  0  0  0  0
    3.8310   -1.2218    1.3088 H   0  0  0  0  0  0  0  0  0  0  0  0
    4.7350    0.2458    0.8622 H   0  0  0  0  0  0  0  0  0  0  0  0
    3.6186    0.2652    2.2500 H   0  0  0  0  0  0  0  0  0  0  0  0
  5  6  2  0  0  0  0
  5  7  1  0  0  0  0
  2  3  1  0  0  0  0
  2  4  1  0  0  0  0
  2  5  1  0  0  0  0
  1  2  1  0  0  0  0
 19 20  2  0  0  0  0
 19 21  1  0  0  0  0
 17 18  1  0  0  0  0
 17 19  1  0  0  0  0
 14 15  1  0  0  0  0
 14 16  1  0  0  0  0
 14 17  1  0  0  0  0
 11 12  1  0  0  0  0
 11 13  1  0  0  0  0
 11 14  1  0  0  0  0
  8  9  1  0  0  0  0
  8 10  1  0  0  0  0
  8 11  1  0  0  0  0
  7  8  1  0  0  0  0
  7 17  1  0  0  0  0
 23 24  1  0  0  0  0
 23 25  1  0  0  0  0
 23 26  1  0  0  0  0
 21 22  1  0  0  0  0
 21 23  1  0  0  0  0
M  END
$$$$
default_name
  -OEChem-11182114113D

 26 26  0     1  0  0  0  0  0999 V2000
   -1.8446   -3.5060   -0.3010 H   0  0  0  0  0  0  0  0  0  0  0  0
   -2.0746   -2.4490   -0.4240 C   0  0  0  0  0  0  0  0  0  0  0  0
   -2.6906   -2.1160    0.4090 H   0  0  0  0  0  0  0  0  0  0  0  0
   -2.5986   -2.2980   -1.3650 H   0  0  0  0  0  0  0  0  0  0  0  0
   -0.7756   -1.6630   -0.4350 C   0  0  0  0  0  0  0  0  0  0  0  0
    0.2844   -2.2800   -0.4550 O   0  0  0  0  0  0  0  0  0  0  0  0
   -0.8246   -0.3180   -0.4350 N   0  0  0  0  0  0  0  0  0  0  0  0
   -2.0106    0.5080   -0.5910 C   0  0  0  0  0  0  0  0  0  0  0  0
   -2.9830    0.1578   -0.2410 H   0  0  0  0  0  0  0  0  0  0  0  0
   -2.1351    1.2455   -1.3831 H   0  0  0  0  0  0  0  0  0  0  0  0
   -1.2272    1.1176    0.5697 C   0  0  0  0  0  0  0  0  0  0  0  0
   -0.8237    0.3336    1.2124 H   0  0  0  0  0  0  0  0  0  0  0  0
   -1.8931    1.7741    1.1306 H   0  0  0  0  0  0  0  0  0  0  0  0
   -0.1209    1.9420   -0.0885 C   0  0  0  0  0  0  0  0  0  0  0  0
    0.5927    2.4617    0.5542 H   0  0  0  0  0  0  0  0  0  0  0  0
   -0.2955    2.5163   -0.9982 H   0  0  0  0  0  0  0  0  0  0  0  0
    0.3724    0.5200   -0.4020 C   0  0  1  0  0  0  0  0  0  0  0  0
    0.8239    0.5134   -1.3943 H   0  0  0  0  0  0  0  0  0  0  0  0
    1.3983    0.0272    0.6323 C   0  0  0  0  0  0  0  0  0  0  0  0
    1.0628   -0.7543    1.5200 O   0  0  0  0  0  0  0  0  0  0  0  0
    2.6401    0.5178    0.5381 N   0  0  0  0  0  0  0  0  0  0  0  0
    2.8519    1.1066   -0.2514 H   0  0  0  0  0  0  0  0  0  0  0  0
    3.7295    0.1604    1.4436 C   0  0  0  0  0  0  0  0  0  0  0  0
    3.9658   -0.8996    1.3287 H   0  0  0  0  0  0  0  0  0  0  0  0
    4.6168    0.7542    1.2218 H   0  0  0  0  0  0  0  0  0  0  0  0
    3.4241    0.3371    2.4772 H   0  0  0  0  0  0  0  0  0  0  0  0
  5  6  2  0  0  0  0
  5  7  1  0  0  0  0
  2  3  1  0  0  0  0
  2  4  1  0  0  0  0
  2  5  1  0  0  0  0
  1  2  1  0  0  0  0
 19 20  2  0  0  0  0
 19 21  1  0  0  0  0
 17 18  1  0  0  0  0
 17 19  1  0  0  0  0
 14 15  1  0  0  0  0
 14 16  1  0  0  0  0
 14 17  1  0  0  0  0
 11 12  1  0  0  0  0
 11 13  1  0  0  0  0
 11 14  1  0  0  0  0
  8  9  1  0  0  0  0
  8 10  1  0  0  0  0
  8 11  1  0  0  0  0
  7  8  1  0  0  0  0
  7 17  1  0  0  0  0
 23 24  1  0  0  0  0
 23 25  1  0  0  0  0
 23 26  1  0  0  0  0
 21 22  1  0  0  0  0
 21 23  1  0  0  0  0
M  END
$$$$
default_name
  -OEChem-11182114113D

 26 26  0     1  0  0  0  0  0999 V2000
   -1.8446   -3.5060   -0.3010 H   0  0  0  0  0  0  0  0  0  0  0  0
   -2.0746   -2.4490   -0.4240 C   0  0  0  0  0  0  0  0  0  0  0  0
   -2.6906   -2.1160    0.4090 H   0  0  0  0  0  0  0  0  0  0  0  0
   -2.5986   -2.2980   -1.3650 H   0  0  0  0  0  0  0  0  0  0  0  0
   -0.7756   -1.6630   -0.4350 C   0  0  0  0  0  0  0  0  0  0  0  0
    0.2844   -2.2800   -0.4550 O   0  0  0  0  0  0  0  0  0  0  0  0
   -0.8246   -0.3180   -0.4350 N   0  0  0  0  0  0  0  0  0  0  0  0
   -2.0106    0.5080   -0.5910 C   0  0  0  0  0  0  0  0  0  0  0  0
   -2.9830    0.1578   -0.2410 H   0  0  0  0  0  0  0  0  0  0  0  0
   -2.1351    1.2455   -1.3831 H   0  0  0  0  0  0  0  0  0  0  0  0
   -1.2272    1.1176    0.5697 C   0  0  0  0  0  0  0  0  0  0  0  0
   -0.8237    0.3336    1.2124 H   0  0  0  0  0  0  0  0  0  0  0  0
   -1.8931    1.7741    1.1306 H   0  0  0  0  0  0  0  0  0  0  0  0
   -0.1209    1.9420   -0.0885 C   0  0  0  0  0  0  0  0  0  0  0  0
    0.5927    2.4617    0.5542 H   0  0  0  0  0  0  0  0  0  0  0  0
   -0.2955    2.5163   -0.9982 H   0  0  0  0  0  0  0  0  0  0  0  0
    0.3724    0.5200   -0.4020 C   0  0  1  0  0  0  0  0  0  0  0  0
    0.8239    0.5134   -1.3943 H   0  0  0  0  0  0  0  0  0  0  0  0
    1.3983    0.0272    0.6323 C   0  0  0  0  0  0  0  0  0  0  0  0
    1.1508   -0.9462    1.3412 O   0  0  0  0  0  0  0  0  0  0  0  0
    2.5340    0.7269    0.7429 N   0  0  0  0  0  0  0  0  0  0  0  0
    2.6885    1.4752    0.0863 H   0  0  0  0  0  0  0  0  0  0  0  0
    3.6064    0.3991    1.6795 C   0  0  0  0  0  0  0  0  0  0  0  0
    4.0382   -0.5684    1.4146 H   0  0  0  0  0  0  0  0  0  0  0  0
    4.3842    1.1627    1.6471 H   0  0  0  0  0  0  0  0  0  0  0  0
    3.2048    0.3334    2.6930 H   0  0  0  0  0  0  0  0  0  0  0  0
  5  6  2  0  0  0  0
  5  7  1  0  0  0  0
  2  3  1  0  0  0  0
  2  4  1  0  0  0  0
  2  5  1  0  0  0  0
  1  2  1  0  0  0  0
 19 20  2  0  0  0  0
 19 21  1  0  0  0  0
 17 18  1  0  0  0  0
 17 19  1  0  0  0  0
 14 15  1  0  0  0  0
 14 16  1  0  0  0  0
 14 17  1  0  0  0  0
 11 12  1  0  0  0  0
 11 13  1  0  0  0  0
 11 14  1  0  0  0  0
  8  9  1  0  0  0  0
  8 10  1  0  0  0  0
  8 11  1  0  0  0  0
  7  8  1  0  0  0  0
  7 17  1  0  0  0  0
 23 24  1  0  0  0  0
 23 25  1  0  0  0  0
 23 26  1  0  0  0  0
 21 22  1  0  0  0  0
 21 23  1  0  0  0  0
M  END
$$$$
default_name
  -OEChem-11182114113D

 26 26  0     1  0  0  0  0  0999 V2000
   -1.8446   -3.5060   -0.3010 H   0  0  0  0  0  0  0  0  0  0  0  0
   -2.0746   -2.4490   -0.4240 C   0  0  0  0  0  0  0  0  0  0  0  0
   -2.6906   -2.1160    0.4090 H   0  0  0  0  0  0  0  0  0  0  0  0
   -2.5986   -2.2980   -1.3650 H   0  0  0  0  0  0  0  0  0  0  0  0
   -0.7756   -1.6630   -0.4350 C   0  0  0  0  0  0  0  0  0  0  0  0
    0.2844   -2.2800   -0.4550 O   0  0  0  0  0  0  0  0  0  0  0  0
   -0.8246   -0.3180   -0.4350 N   0  0  0  0  0  0  0  0  0  0  0  0
   -2.0106    0.5080   -0.5910 C   0  0  0  0  0  0  0  0  0  0  0  0
   -2.9830    0.1578   -0.2410 H   0  0  0  0  0  0  0  0  0  0  0  0
   -2.1351    1.2455   -1.3831 H   0  0  0  0  0  0  0  0  0  0  0  0
   -1.2272    1.1176    0.5697 C   0  0  0  0  0  0  0  0  0  0  0  0
   -0.8237    0.3336    1.2124 H   0  0  0  0  0  0  0  0  0  0  0  0
   -1.8931    1.7741    1.1306 H   0  0  0  0  0  0  0  0  0  0  0  0
   -0.1209    1.9420   -0.0885 C   0  0  0  0  0  0  0  0  0  0  0  0
    0.5927    2.4617    0.5542 H   0  0  0  0  0  0  0  0  0  0  0  0
   -0.2955    2.5163   -0.9982 H   0  0  0  0  0  0  0  0  0  0  0  0
    0.3724    0.5200   -0.4020 C   0  0  1  0  0  0  0  0  0  0  0  0
    0.8239    0.5134   -1.3943 H   0  0  0  0  0  0  0  0  0  0  0  0
    1.3983    0.0272    0.6323 C   0  0  0  0  0  0  0  0  0  0  0  0
    1.2841   -1.0853    1.1428 O   0  0  0  0  0  0  0  0  0  0  0  0
    2.3782    0.8750    0.9681 N   0  0  0  0  0  0  0  0  0  0  0  0
    2.4384    1.7443    0.4626 H   0  0  0  0  0  0  0  0  0  0  0  0
    3.4264    0.5675    1.9383 C   0  0  0  0  0  0  0  0  0  0  0  0
    4.0434   -0.2507    1.5608 H   0  0  0  0  0  0  0  0  0  0  0  0
    4.0531    1.4434    2.1091 H   0  0  0  0  0  0  0  0  0  0  0  0
    2.9757    0.2544    2.8826 H   0  0  0  0  0  0  0  0  0  0  0  0
  5  6  2  0  0  0  0
  5  7  1  0  0  0  0
  2  3  1  0  0  0  0
  2  4  1  0  0  0  0
  2  5  1  0  0  0  0
  1  2  1  0  0  0  0
 19 20  2  0  0  0  0
 19 21  1  0  0  0  0
 17 18  1  0  0  0  0
 17 19  1  0  0  0  0
 14 15  1  0  0  0  0
 14 16  1  0  0  0  0
 14 17  1  0  0  0  0
 11 12  1  0  0  0  0
 11 13  1  0  0  0  0
 11 14  1  0  0  0  0
  8  9  1  0  0  0  0
  8 10  1  0  0  0  0
  8 11  1  0  0  0  0
  7  8  1  0  0  0  0
  7 17  1  0  0  0  0
 23 24  1  0  0  0  0
 23 25  1  0  0  0  0
 23 26  1  0  0  0  0
 21 22  1  0  0  0  0
 21 23  1  0  0  0  0
M  END
$$$$
default_name
  -OEChem-11182114113D

 26 26  0     1  0  0  0  0  0999 V2000
   -1.8446   -3.5060   -0.3010 H   0  0  0  0  0  0  0  0  0  0  0  0
   -2.0746   -2.4490   -0.4240 C   0  0  0  0  0  0  0  0  0  0  0  0
   -2.6906   -2.1160    0.4090 H   0  0  0  0  0  0  0  0  0  0  0  0
   -2.5986   -2.2980   -1.3650 H   0  0  0  0  0  0  0  0  0  0  0  0
   -0.7756   -1.6630   -0.4350 C   0  0  0  0  0  0  0  0  0  0  0  0
    0.2844   -2.2800   -0.4550 O   0  0  0  0  0  0  0  0  0  0  0  0
   -0.8246   -0.3180   -0.4350 N   0  0  0  0  0  0  0  0  0  0  0  0
   -2.0106    0.5080   -0.5910 C   0  0  0  0  0  0  0  0  0  0  0  0
   -2.9830    0.1578   -0.2410 H   0  0  0  0  0  0  0  0  0  0  0  0
   -2.1351    1.2455   -1.3831 H   0  0  0  0  0  0  0  0  0  0  0  0
   -1.2272    1.1176    0.5697 C   0  0  0  0  0  0  0  0  0  0  0  0
   -0.8237    0.3336    1.2124 H   0  0  0  0  0  0  0  0  0  0  0  0
   -1.8931    1.7741    1.1306 H   0  0  0  0  0  0  0  0  0  0  0  0
   -0.1209    1.9420   -0.0885 C   0  0  0  0  0  0  0  0  0  0  0  0
    0.5927    2.4617    0.5542 H   0  0  0  0  0  0  0  0  0  0  0  0
   -0.2955    2.5163   -0.9982 H   0  0  0  0  0  0  0  0  0  0  0  0
    0.3724    0.5200   -0.4020 C   0  0  1  0  0  0  0  0  0  0  0  0
    0.8239    0.5134   -1.3943 H   0  0  0  0  0  0  0  0  0  0  0  0
    1.3983    0.0272    0.6323 C   0  0  0  0  0  0  0  0  0  0  0  0
    1.4535   -1.1622    0.9381 O   0  0  0  0  0  0  0  0  0  0  0  0
    2.1832    0.9521    1.1982 N   0  0  0  0  0  0  0  0  0  0  0  0
    2.1188    1.8959    0.8518 H   0  0  0  0  0  0  0  0  0  0  0  0
    3.2017    0.6542    2.2024 C   0  0  0  0  0  0  0  0  0  0  0  0
    3.9810    0.0318    1.7574 H   0  0  0  0  0  0  0  0  0  0  0  0
    3.6462    1.5770    2.5764 H   0  0  0  0  0  0  0  0  0  0  0  0
    2.7524    0.1055    3.0331 H   0  0  0  0  0  0  0  0  0  0  0  0
  5  6  2  0  0  0  0
  5  7  1  0  0  0  0
  2  3  1  0  0  0  0
  2  4  1  0  0  0  0
  2  5  1  0  0  0  0
  1  2  1  0  0  0  0
 19 20  2  0  0  0  0
 19 21  1  0  0  0  0
 17 18  1  0  0  0  0
 17 19  1  0  0  0  0
 14 15  1  0  0  0  0
 14 16  1  0  0  0  0
 14 17  1  0  0  0  0
 11 12  1  0  0  0  0
 11 13  1  0  0  0  0
 11 14  1  0  0  0  0
  8  9  1  0  0  0  0
  8 10  1  0  0  0  0
  8 11  1  0  0  0  0
  7  8  1  0  0  0  0
  7 17  1  0  0  0  0
 23 24  1  0  0  0  0
 23 25  1  0  0  0  0
 23 26  1  0  0  0  0
 21 22  1  0  0  0  0
 21 23  1  0  0  0  0
M  END
$$$$
default_name
  -OEChem-11182114113D

 26 26  0     1  0  0  0  0  0999 V2000
   -1.8446   -3.5060   -0.3010 H   0  0  0  0  0  0  0  0  0  0  0  0
   -2.0746   -2.4490   -0.4240 C   0  0  0  0  0  0  0  0  0  0  0  0
   -2.6906   -2.1160    0.4090 H   0  0  0  0  0  0  0  0  0  0  0  0
   -2.5986   -2.2980   -1.3650 H   0  0  0  0  0  0  0  0  0  0  0  0
   -0.7756   -1.6630   -0.4350 C   0  0  0  0  0  0  0  0  0  0  0  0
    0.2844   -2.2800   -0.4550 O   0  0  0  0  0  0  0  0  0  0  0  0
   -0.8246   -0.3180   -0.4350 N   0  0  0  0  0  0  0  0  0  0  0  0
   -2.0106    0.5080   -0.5910 C   0  0  0  0  0  0  0  0  0  0  0  0
   -2.9830    0.1578   -0.2410 H   0  0  0  0  0  0  0  0  0  0  0  0
   -2.1351    1.2455   -1.3831 H   0  0  0  0  0  0  0  0  0  0  0  0
   -1.2272    1.1176    0.5697 C   0  0  0  0  0  0  0  0  0  0  0  0
   -0.8237    0.3336    1.2124 H   0  0  0  0  0  0  0  0  0  0  0  0
   -1.8931    1.7741    1.1306 H   0  0  0  0  0  0  0  0  0  0  0  0
   -0.1209    1.9420   -0.0885 C   0  0  0  0  0  0  0  0  0  0  0  0
    0.5927    2.4617    0.5542 H   0  0  0  0  0  0  0  0  0  0  0  0
   -0.2955    2.5163   -0.9982 H   0  0  0  0  0  0  0  0  0  0  0  0
    0.3724    0.5200   -0.4020 C   0  0  1  0  0  0  0  0  0  0  0  0
    0.8239    0.5134   -1.3943 H   0  0  0  0  0  0  0  0  0  0  0  0
    1.3983    0.0272    0.6323 C   0  0  0  0  0  0  0  0  0  0  0  0
    1.6475   -1.1717    0.7412 O   0  0  0  0  0  0  0  0  0  0  0  0
    1.9623    0.9529    1.4176 N   0  0  0  0  0  0  0  0  0  0  0  0
    1.7515    1.9194    1.2274 H   0  0  0  0  0  0  0  0  0  0  0  0
    2.9477    0.6532    2.4539 C   0  0  0  0  0  0  0  0  0  0  0  0
    3.8552    0.2599    1.9908 H   0  0  0  0  0  0  0  0  0  0  0  0
    3.1912    1.5546    3.0171 H   0  0  0  0  0  0  0  0  0  0  0  0
    2.5502   -0.1031    3.1342 H   0  0  0  0  0  0  0  0  0  0  0  0
  5  6  2  0  0  0  0
  5  7  1  0  0  0  0
  2  3  1  0  0  0  0
  2  4  1  0  0  0  0
  2  5  1  0  0  0  0
  1  2  1  0  0  0  0
 19 20  2  0  0  0  0
 19 21  1  0  0  0  0
 17 18  1  0  0  0  0
 17 19  1  0  0  0  0
 14 15  1  0  0  0  0
 14 16  1  0  0  0  0
 14 17  1  0  0  0  0
 11 12  1  0  0  0  0
 11 13  1  0  0  0  0
 11 14  1  0  0  0  0
  8  9  1  0  0  0  0
  8 10  1  0  0  0  0
  8 11  1  0  0  0  0
  7  8  1  0  0  0  0
  7 17  1  0  0  0  0
 23 24  1  0  0  0  0
 23 25  1  0  0  0  0
 23 26  1  0  0  0  0
 21 22  1  0  0  0  0
 21 23  1  0  0  0  0
M  END
$$$$
default_name
  -OEChem-11182114113D

 26 26  0     1  0  0  0  0  0999 V2000
   -1.8446   -3.5060   -0.3010 H   0  0  0  0  0  0  0  0  0  0  0  0
   -2.0746   -2.4490   -0.4240 C   0  0  0  0  0  0  0  0  0  0  0  0
   -2.6906   -2.1160    0.4090 H   0  0  0  0  0  0  0  0  0  0  0  0
   -2.5986   -2.2980   -1.3650 H   0  0  0  0  0  0  0  0  0  0  0  0
   -0.7756   -1.6630   -0.4350 C   0  0  0  0  0  0  0  0  0  0  0  0
    0.2844   -2.2800   -0.4550 O   0  0  0  0  0  0  0  0  0  0  0  0
   -0.8246   -0.3180   -0.4350 N   0  0  0  0  0  0  0  0  0  0  0  0
   -2.0106    0.5080   -0.5910 C   0  0  0  0  0  0  0  0  0  0  0  0
   -2.9830    0.1578   -0.2410 H   0  0  0  0  0  0  0  0  0  0  0  0
   -2.1351    1.2455   -1.3831 H   0  0  0  0  0  0  0  0  0  0  0  0
   -1.2272    1.1176    0.5697 C   0  0  0  0  0  0  0  0  0  0  0  0
   -0.8237    0.3336    1.2124 H   0  0  0  0  0  0  0  0  0  0  0  0
   -1.8931    1.7741    1.1306 H   0  0  0  0  0  0  0  0  0  0  0  0
   -0.1209    1.9420   -0.0885 C   0  0  0  0  0  0  0  0  0  0  0  0
    0.5927    2.4617    0.5542 H   0  0  0  0  0  0  0  0  0  0  0  0
   -0.2955    2.5163   -0.9982 H   0  0  0  0  0  0  0  0  0  0  0  0
    0.3724    0.5200   -0.4020 C   0  0  1  0  0  0  0  0  0  0  0  0
    0.8239    0.5134   -1.3943 H   0  0  0  0  0  0  0  0  0  0  0  0
    1.3983    0.0272    0.6323 C   0  0  0  0  0  0  0  0  0  0  0  0
    1.8528   -1.1131    0.5655 O   0  0  0  0  0  0  0  0  0  0  0  0
    1.7307    0.8773    1.6114 N   0  0  0  0  0  0  0  0  0  0  0  0
    1.3614    1.8134    1.5637 H   0  0  0  0  0  0  0  0  0  0  0  0
    2.6816    0.5646    2.6756 C   0  0  0  0  0  0  0  0  0  0  0  0
    3.6746    0.4181    2.2452 H   0  0  0  0  0  0  0  0  0  0  0  0
    2.7189    1.3777    3.4012 H   0  0  0  0  0  0  0  0  0  0  0  0
    2.3829   -0.3574    3.1791 H   0  0  0  0  0  0  0  0  0  0  0  0
  5  6  2  0  0  0  0
  5  7  1  0  0  0  0
  2  3  1  0  0  0  0
  2  4  1  0  0  0  0
  2  5  1  0  0  0  0
  1  2  1  0  0  0  0
 19 20  2  0  0  0  0
 19 21  1  0  0  0  0
 17 18  1  0  0  0  0
 17 19  1  0  0  0  0
 14 15  1  0  0  0  0
 14 16  1  0  0  0  0
 14 17  1  0  0  0  0
 11 12  1  0  0  0  0
 11 13  1  0  0  0  0
 11 14  1  0  0  0  0
  8  9  1  0  0  0  0
  8 10  1  0  0  0  0
  8 11  1  0  0  0  0
  7  8  1  0  0  0  0
  7 17  1  0  0  0  0
 23 24  1  0  0  0  0
 23 25  1  0  0  0  0
 23 26  1  0  0  0  0
 21 22  1  0  0  0  0
 21 23  1  0  0  0  0
M  END
$$$$
default_name
  -OEChem-11182114113D

 26 26  0     1  0  0  0  0  0999 V2000
   -1.8446   -3.5060   -0.3010 H   0  0  0  0  0  0  0  0  0  0  0  0
   -2.0746   -2.4490   -0.4240 C   0  0  0  0  0  0  0  0  0  0  0  0
   -2.6906   -2.1160    0.4090 H   0  0  0  0  0  0  0  0  0  0  0  0
   -2.5986   -2.2980   -1.3650 H   0  0  0  0  0  0  0  0  0  0  0  0
   -0.7756   -1.6630   -0.4350 C   0  0  0  0  0  0  0  0  0  0  0  0
    0.2844   -2.2800   -0.4550 O   0  0  0  0  0  0  0  0  0  0  0  0
   -0.8246   -0.3180   -0.4350 N   0  0  0  0  0  0  0  0  0  0  0  0
   -2.0106    0.5080   -0.5910 C   0  0  0  0  0  0  0  0  0  0  0  0
   -2.9830    0.1578   -0.2410 H   0  0  0  0  0  0  0  0  0  0  0  0
   -2.1351    1.2455   -1.3831 H   0  0  0  0  0  0  0  0  0  0  0  0
   -1.2272    1.1176    0.5697 C   0  0  0  0  0  0  0  0  0  0  0  0
   -0.8237    0.3336    1.2124 H   0  0  0  0  0  0  0  0  0  0  0  0
   -1.8931    1.7741    1.1306 H   0  0  0  0  0  0  0  0  0  0  0  0
   -0.1209    1.9420   -0.0885 C   0  0  0  0  0  0  0  0  0  0  0  0
    0.5927    2.4617    0.5542 H   0  0  0  0  0  0  0  0  0  0  0  0
   -0.2955    2.5163   -0.9982 H   0  0  0  0  0  0  0  0  0  0  0  0
    0.3724    0.5200   -0.4020 C   0  0  1  0  0  0  0  0  0  0  0  0
    0.8239    0.5134   -1.3943 H   0  0  0  0  0  0  0  0  0  0  0  0
    1.3983    0.0272    0.6323 C   0  0  0  0  0  0  0  0  0  0  0  0
    2.0555   -0.9903    0.4229 O   0  0  0  0  0  0  0  0  0  0  0  0
    1.5040    0.7305    1.7663 N   0  0  0  0  0  0  0  0  0  0  0  0
    0.9752    1.5849    1.8380 H   0  0  0  0  0  0  0  0  0  0  0  0
    2.4217    0.3945    2.8523 C   0  0  0  0  0  0  0  0  0  0  0  0
    3.4516    0.4955    2.5033 H   0  0  0  0  0  0  0  0  0  0  0  0
    2.2617    1.0583    3.7025 H   0  0  0  0  0  0  0  0  0  0  0  0
    2.2617   -0.6398    3.1647 H   0  0  0  0  0  0  0  0  0  0  0  0
  5  6  2  0  0  0  0
  5  7  1  0  0  0  0
  2  3  1  0  0  0  0
  2  4  1  0  0  0  0
  2  5  1  0  0  0  0
  1  2  1  0  0  0  0
 19 20  2  0  0  0  0
 19 21  1  0  0  0  0
 17 18  1  0  0  0  0
 17 19  1  0  0  0  0
 14 15  1  0  0  0  0
 14 16  1  0  0  0  0
 14 17  1  0  0  0  0
 11 12  1  0  0  0  0
 11 13  1  0  0  0  0
 11 14  1  0  0  0  0
  8  9  1  0  0  0  0
  8 10  1  0  0  0  0
  8 11  1  0  0  0  0
  7  8  1  0  0  0  0
  7 17  1  0  0  0  0
 23 24  1  0  0  0  0
 23 25  1  0  0  0  0
 23 26  1  0  0  0  0
 21 22  1  0  0  0  0
 21 23  1  0  0  0  0
M  END
$$$$
default_name
  -OEChem-11182114113D

 26 26  0     1  0  0  0  0  0999 V2000
   -1.8446   -3.5060   -0.3010 H   0  0  0  0  0  0  0  0  0  0  0  0
   -2.0746   -2.4490   -0.4240 C   0  0  0  0  0  0  0  0  0  0  0  0
   -2.6906   -2.1160    0.4090 H   0  0  0  0  0  0  0  0  0  0  0  0
   -2.5986   -2.2980   -1.3650 H   0  0  0  0  0  0  0  0  0  0  0  0
   -0.7756   -1.6630   -0.4350 C   0  0  0  0  0  0  0  0  0  0  0  0
    0.2844   -2.2800   -0.4550 O   0  0  0  0  0  0  0  0  0  0  0  0
   -0.8246   -0.3180   -0.4350 N   0  0  0  0  0  0  0  0  0  0  0  0
   -2.0106    0.5080   -0.5910 C   0  0  0  0  0  0  0  0  0  0  0  0
   -2.9830    0.1578   -0.2410 H   0  0  0  0  0  0  0  0  0  0  0  0
   -2.1351    1.2455   -1.3831 H   0  0  0  0  0  0  0  0  0  0  0  0
   -1.2272    1.1176    0.5697 C   0  0  0  0  0  0  0  0  0  0  0  0
   -0.8237    0.3336    1.2124 H   0  0  0  0  0  0  0  0  0  0  0  0
   -1.8931    1.7741    1.1306 H   0  0  0  0  0  0  0  0  0  0  0  0
   -0.1209    1.9420   -0.0885 C   0  0  0  0  0  0  0  0  0  0  0  0
    0.5927    2.4617    0.5542 H   0  0  0  0  0  0  0  0  0  0  0  0
   -0.2955    2.5163   -0.9982 H   0  0  0  0  0  0  0  0  0  0  0  0
    0.3724    0.5200   -0.4020 C   0  0  1  0  0  0  0  0  0  0  0  0
    0.8239    0.5134   -1.3943 H   0  0  0  0  0  0  0  0  0  0  0  0
    1.3983    0.0272    0.6323 C   0  0  0  0  0  0  0  0  0  0  0  0
    2.2418   -0.8119    0.3231 O   0  0  0  0  0  0  0  0  0  0  0  0
    1.2978    0.5225    1.8718 N   0  0  0  0  0  0  0  0  0  0  0  0
    0.6191    1.2497    2.0314 H   0  0  0  0  0  0  0  0  0  0  0  0
    2.1856    0.1543    2.9721 C   0  0  0  0  0  0  0  0  0  0  0  0
    3.2013    0.4869    2.7475 H   0  0  0  0  0  0  0  0  0  0  0  0
    1.8508    0.6182    3.9005 H   0  0  0  0  0  0  0  0  0  0  0  0
    2.1951   -0.9312    3.0920 H   0  0  0  0  0  0  0  0  0  0  0  0
  5  6  2  0  0  0  0
  5  7  1  0  0  0  0
  2  3  1  0  0  0  0
  2  4  1  0  0  0  0
  2  5  1  0  0  0  0
  1  2  1  0  0  0  0
 19 20  2  0  0  0  0
 19 21  1  0  0  0  0
 17 18  1  0  0  0  0
 17 19  1  0  0  0  0
 14 15  1  0  0  0  0
 14 16  1  0  0  0  0
 14 17  1  0  0  0  0
 11 12  1  0  0  0  0
 11 13  1  0  0  0  0
 11 14  1  0  0  0  0
  8  9  1  0  0  0  0
  8 10  1  0  0  0  0
  8 11  1  0  0  0  0
  7  8  1  0  0  0  0
  7 17  1  0  0  0  0
 23 24  1  0  0  0  0
 23 25  1  0  0  0  0
 23 26  1  0  0  0  0
 21 22  1  0  0  0  0
 21 23  1  0  0  0  0
M  END
$$$$
default_name
  -OEChem-11182114113D

 26 26  0     1  0  0  0  0  0999 V2000
   -1.8446   -3.5060   -0.3010 H   0  0  0  0  0  0  0  0  0  0  0  0
   -2.0746   -2.4490   -0.4240 C   0  0  0  0  0  0  0  0  0  0  0  0
   -2.6906   -2.1160    0.4090 H   0  0  0  0  0  0  0  0  0  0  0  0
   -2.5986   -2.2980   -1.3650 H   0  0  0  0  0  0  0  0  0  0  0  0
   -0.7756   -1.6630   -0.4350 C   0  0  0  0  0  0  0  0  0  0  0  0
    0.2844   -2.2800   -0.4550 O   0  0  0  0  0  0  0  0  0  0  0  0
   -0.8246   -0.3180   -0.4350 N   0  0  0  0  0  0  0  0  0  0  0  0
   -2.0106    0.5080   -0.5910 C   0  0  0  0  0  0  0  0  0  0  0  0
   -2.9830    0.1578   -0.2410 H   0  0  0  0  0  0  0  0  0  0  0  0
   -2.1351    1.2455   -1.3831 H   0  0  0  0  0  0  0  0  0  0  0  0
   -1.2272    1.1176    0.5697 C   0  0  0  0  0  0  0  0  0  0  0  0
   -0.8237    0.3336    1.2124 H   0  0  0  0  0  0  0  0  0  0  0  0
   -1.8931    1.7741    1.1306 H   0  0  0  0  0  0  0  0  0  0  0  0
   -0.1209    1.9420   -0.0885 C   0  0  0  0  0  0  0  0  0  0  0  0
    0.5927    2.4617    0.5542 H   0  0  0  0  0  0  0  0  0  0  0  0
   -0.2955    2.5163   -0.9982 H   0  0  0  0  0  0  0  0  0  0  0  0
    0.3724    0.5200   -0.4020 C   0  0  1  0  0  0  0  0  0  0  0  0
    0.8239    0.5134   -1.3943 H   0  0  0  0  0  0  0  0  0  0  0  0
    1.3983    0.0272    0.6323 C   0  0  0  0  0  0  0  0  0  0  0  0
    2.3990   -0.5899    0.2730 O   0  0  0  0  0  0  0  0  0  0  0  0
    1.1260    0.2675    1.9206 N   0  0  0  0  0  0  0  0  0  0  0  0
    0.3175    0.8306    2.1309 H   0  0  0  0  0  0  0  0  0  0  0  0
    1.9894   -0.1394    3.0268 C   0  0  0  0  0  0  0  0  0  0  0  0
    2.9408    0.3928    2.9611 H   0  0  0  0  0  0  0  0  0  0  0  0
    1.5140    0.0873    3.9816 H   0  0  0  0  0  0  0  0  0  0  0  0
    2.1874   -1.2118    2.9659 H   0  0  0  0  0  0  0  0  0  0  0  0
  5  6  2  0  0  0  0
  5  7  1  0  0  0  0
  2  3  1  0  0  0  0
  2  4  1  0  0  0  0
  2  5  1  0  0  0  0
  1  2  1  0  0  0  0
 19 20  2  0  0  0  0
 19 21  1  0  0  0  0
 17 18  1  0  0  0  0
 17 19  1  0  0  0  0
 14 15  1  0  0  0  0
 14 16  1  0  0  0  0
 14 17  1  0  0  0  0
 11 12  1  0  0  0  0
 11 13  1  0  0  0  0
 11 14  1  0  0  0  0
  8  9  1  0  0  0  0
  8 10  1  0  0  0  0
  8 11  1  0  0  0  0
  7  8  1  0  0  0  0
  7 17  1  0  0  0  0
 23 24  1  0  0  0  0
 23 25  1  0  0  0  0
 23 26  1  0  0  0  0
 21 22  1  0  0  0  0
 21 23  1  0  0  0  0
M  END
$$$$
default_name
  -OEChem-11182114113D

 26 26  0     1  0  0  0  0  0999 V2000
   -1.8446   -3.5060   -0.3010 H   0  0  0  0  0  0  0  0  0  0  0  0
   -2.0746   -2.4490   -0.4240 C   0  0  0  0  0  0  0  0  0  0  0  0
   -2.6906   -2.1160    0.4090 H   0  0  0  0  0  0  0  0  0  0  0  0
   -2.5986   -2.2980   -1.3650 H   0  0  0  0  0  0  0  0  0  0  0  0
   -0.7756   -1.6630   -0.4350 C   0  0  0  0  0  0  0  0  0  0  0  0
    0.2844   -2.2800   -0.4550 O   0  0  0  0  0  0  0  0  0  0  0  0
   -0.8246   -0.3180   -0.4350 N   0  0  0  0  0  0  0  0  0  0  0  0
   -2.0106    0.5080   -0.5910 C   0  0  0  0  0  0  0  0  0  0  0  0
   -2.9830    0.1578   -0.2410 H   0  0  0  0  0  0  0  0  0  0  0  0
   -2.1351    1.2455   -1.3831 H   0  0  0  0  0  0  0  0  0  0  0  0
   -1.2272    1.1176    0.5697 C   0  0  0  0  0  0  0  0  0  0  0  0
   -0.8237    0.3336    1.2124 H   0  0  0  0  0  0  0  0  0  0  0  0
   -1.8931    1.7741    1.1306 H   0  0  0  0  0  0  0  0  0  0  0  0
   -0.1209    1.9420   -0.0885 C   0  0  0  0  0  0  0  0  0  0  0  0
    0.5927    2.4617    0.5542 H   0  0  0  0  0  0  0  0  0  0  0  0
   -0.2955    2.5163   -0.9982 H   0  0  0  0  0  0  0  0  0  0  0  0
    0.3724    0.5200   -0.4020 C   0  0  1  0  0  0  0  0  0  0  0  0
    0.8239    0.5134   -1.3943 H   0  0  0  0  0  0  0  0  0  0  0  0
    1.3983    0.0272    0.6323 C   0  0  0  0  0  0  0  0  0  0  0  0
    2.5163   -0.3395    0.2760 O   0  0  0  0  0  0  0  0  0  0  0  0
    1.0004   -0.0171    1.9096 N   0  0  0  0  0  0  0  0  0  0  0  0
    0.0909    0.3560    2.1296 H   0  0  0  0  0  0  0  0  0  0  0  0
    1.8465   -0.4667    3.0126 C   0  0  0  0  0  0  0  0  0  0  0  0
    2.6878    0.2197    3.1295 H   0  0  0  0  0  0  0  0  0  0  0  0
    1.2743   -0.4981    3.9404 H   0  0  0  0  0  0  0  0  0  0  0  0
    2.2393   -1.4623    2.7950 H   0  0  0  0  0  0  0  0  0  0  0  0
  5  6  2  0  0  0  0
  5  7  1  0  0  0  0
  2  3  1  0  0  0  0
  2  4  1  0  0  0  0
  2  5  1  0  0  0  0
  1  2  1  0  0  0  0
 19 20  2  0  0  0  0
 19 21  1  0  0  0  0
 17 18  1  0  0  0  0
 17 19  1  0  0  0  0
 14 15  1  0  0  0  0
 14 16  1  0  0  0  0
 14 17  1  0  0  0  0
 11 12  1  0  0  0  0
 11 13  1  0  0  0  0
 11 14  1  0  0  0  0
  8  9  1  0  0  0  0
  8 10  1  0  0  0  0
  8 11  1  0  0  0  0
  7  8  1  0  0  0  0
  7 17  1  0  0  0  0
 23 24  1  0  0  0  0
 23 25  1  0  0  0  0
 23 26  1  0  0  0  0
 21 22  1  0  0  0  0
 21 23  1  0  0  0  0
M  END
$$$$
default_name
  -OEChem-11182114113D

 26 26  0     1  0  0  0  0  0999 V2000
   -1.8446   -3.5060   -0.3010 H   0  0  0  0  0  0  0  0  0  0  0  0
   -2.0746   -2.4490   -0.4240 C   0  0  0  0  0  0  0  0  0  0  0  0
   -2.6906   -2.1160    0.4090 H   0  0  0  0  0  0  0  0  0  0  0  0
   -2.5986   -2.2980   -1.3650 H   0  0  0  0  0  0  0  0  0  0  0  0
   -0.7756   -1.6630   -0.4350 C   0  0  0  0  0  0  0  0  0  0  0  0
    0.2844   -2.2800   -0.4550 O   0  0  0  0  0  0  0  0  0  0  0  0
   -0.8246   -0.3180   -0.4350 N   0  0  0  0  0  0  0  0  0  0  0  0
   -2.0106    0.5080   -0.5910 C   0  0  0  0  0  0  0  0  0  0  0  0
   -2.9830    0.1578   -0.2410 H   0  0  0  0  0  0  0  0  0  0  0  0
   -2.1351    1.2455   -1.3831 H   0  0  0  0  0  0  0  0  0  0  0  0
   -1.2272    1.1176    0.5697 C   0  0  0  0  0  0  0  0  0  0  0  0
   -0.8237    0.3336    1.2124 H   0  0  0  0  0  0  0  0  0  0  0  0
   -1.8931    1.7741    1.1306 H   0  0  0  0  0  0  0  0  0  0  0  0
   -0.1209    1.9420   -0.0885 C   0  0  0  0  0  0  0  0  0  0  0  0
    0.5927    2.4617    0.5542 H   0  0  0  0  0  0  0  0  0  0  0  0
   -0.2955    2.5163   -0.9982 H   0  0  0  0  0  0  0  0  0  0  0  0
    0.3724    0.5200   -0.4020 C   0  0  1  0  0  0  0  0  0  0  0  0
    0.8239    0.5134   -1.3943 H   0  0  0  0  0  0  0  0  0  0  0  0
    1.3983    0.0272    0.6323 C   0  0  0  0  0  0  0  0  0  0  0  0
    2.5857   -0.0776    0.3318 O   0  0  0  0  0  0  0  0  0  0  0  0
    0.9296   -0.3120    1.8393 N   0  0  0  0  0  0  0  0  0  0  0  0
   -0.0453   -0.1416    2.0276 H   0  0  0  0  0  0  0  0  0  0  0  0
    1.7666   -0.8053    2.9305 C   0  0  0  0  0  0  0  0  0  0  0  0
    2.4596   -0.0206    3.2414 H   0  0  0  0  0  0  0  0  0  0  0  0
    1.1482   -1.0981    3.7796 H   0  0  0  0  0  0  0  0  0  0  0  0
    2.3473   -1.6657    2.5911 H   0  0  0  0  0  0  0  0  0  0  0  0
  5  6  2  0  0  0  0
  5  7  1  0  0  0  0
  2  3  1  0  0  0  0
  2  4  1  0  0  0  0
  2  5  1  0  0  0  0
  1  2  1  0  0  0  0
 19 20  2  0  0  0  0
 19 21  1  0  0  0  0
 17 18  1  0  0  0  0
 17 19  1  0  0  0  0
 14 15  1  0  0  0  0
 14 16  1  0  0  0  0
 14 17  1  0  0  0  0
 11 12  1  0  0  0  0
 11 13  1  0  0  0  0
 11 14  1  0  0  0  0
  8  9  1  0  0  0  0
  8 10  1  0  0  0  0
  8 11  1  0  0  0  0
  7  8  1  0  0  0  0
  7 17  1  0  0  0  0
 23 24  1  0  0  0  0
 23 25  1  0  0  0  0
 23 26  1  0  0  0  0
 21 22  1  0  0  0  0
 21 23  1  0  0  0  0
M  END
$$$$
default_name
  -OEChem-11182114113D

 26 26  0     1  0  0  0  0  0999 V2000
   -1.8446   -3.5060   -0.3010 H   0  0  0  0  0  0  0  0  0  0  0  0
   -2.0746   -2.4490   -0.4240 C   0  0  0  0  0  0  0  0  0  0  0  0
   -2.6906   -2.1160    0.4090 H   0  0  0  0  0  0  0  0  0  0  0  0
   -2.5986   -2.2980   -1.3650 H   0  0  0  0  0  0  0  0  0  0  0  0
   -0.7756   -1.6630   -0.4350 C   0  0  0  0  0  0  0  0  0  0  0  0
    0.2844   -2.2800   -0.4550 O   0  0  0  0  0  0  0  0  0  0  0  0
   -0.8246   -0.3180   -0.4350 N   0  0  0  0  0  0  0  0  0  0  0  0
   -2.0106    0.5080   -0.5910 C   0  0  0  0  0  0  0  0  0  0  0  0
   -2.9830    0.1578   -0.2410 H   0  0  0  0  0  0  0  0  0  0  0  0
   -2.1351    1.2455   -1.3831 H   0  0  0  0  0  0  0  0  0  0  0  0
   -1.2272    1.1176    0.5697 C   0  0  0  0  0  0  0  0  0  0  0  0
   -0.8237    0.3336    1.2124 H   0  0  0  0  0  0  0  0  0  0  0  0
   -1.8931    1.7741    1.1306 H   0  0  0  0  0  0  0  0  0  0  0  0
   -0.1209    1.9420   -0.0885 C   0  0  0  0  0  0  0  0  0  0  0  0
    0.5927    2.4617    0.5542 H   0  0  0  0  0  0  0  0  0  0  0  0
   -0.2955    2.5163   -0.9982 H   0  0  0  0  0  0  0  0  0  0  0  0
    0.3724    0.5200   -0.4020 C   0  0  1  0  0  0  0  0  0  0  0  0
    0.8239    0.5134   -1.3943 H   0  0  0  0  0  0  0  0  0  0  0  0
    1.3983    0.0272    0.6323 C   0  0  0  0  0  0  0  0  0  0  0  0
    2.6026    0.1777    0.4367 O   0  0  0  0  0  0  0  0  0  0  0  0
    0.9184   -0.5971    1.7147 N   0  0  0  0  0  0  0  0  0  0  0  0
   -0.0817   -0.6284    1.8318 H   0  0  0  0  0  0  0  0  0  0  0  0
    1.7551   -1.1321    2.7862 C   0  0  0  0  0  0  0  0  0  0  0  0
    2.2717   -0.3117    3.2891 H   0  0  0  0  0  0  0  0  0  0  0  0
    1.1441   -1.6719    3.5103 H   0  0  0  0  0  0  0  0  0  0  0  0
    2.5039   -1.8083    2.3678 H   0  0  0  0  0  0  0  0  0  0  0  0
  5  6  2  0  0  0  0
  5  7  1  0  0  0  0
  2  3  1  0  0  0  0
  2  4  1  0  0  0  0
  2  5  1  0  0  0  0
  1  2  1  0  0  0  0
 19 20  2  0  0  0  0
 19 21  1  0  0  0  0
 17 18  1  0  0  0  0
 17 19  1  0  0  0  0
 14 15  1  0  0  0  0
 14 16  1  0  0  0  0
 14 17  1  0  0  0  0
 11 12  1  0  0  0  0
 11 13  1  0  0  0  0
 11 14  1  0  0  0  0
  8  9  1  0  0  0  0
  8 10  1  0  0  0  0
  8 11  1  0  0  0  0
  7  8  1  0  0  0  0
  7 17  1  0  0  0  0
 23 24  1  0  0  0  0
 23 25  1  0  0  0  0
 23 26  1  0  0  0  0
 21 22  1  0  0  0  0
 21 23  1  0  0  0  0
M  END
$$$$
default_name
  -OEChem-11182114113D

 26 26  0     1  0  0  0  0  0999 V2000
   -1.8446   -3.5060   -0.3010 H   0  0  0  0  0  0  0  0  0  0  0  0
   -2.0746   -2.4490   -0.4240 C   0  0  0  0  0  0  0  0  0  0  0  0
   -2.6906   -2.1160    0.4090 H   0  0  0  0  0  0  0  0  0  0  0  0
   -2.5986   -2.2980   -1.3650 H   0  0  0  0  0  0  0  0  0  0  0  0
   -0.7756   -1.6630   -0.4350 C   0  0  0  0  0  0  0  0  0  0  0  0
    0.2844   -2.2800   -0.4550 O   0  0  0  0  0  0  0  0  0  0  0  0
   -0.8246   -0.3180   -0.4350 N   0  0  0  0  0  0  0  0  0  0  0  0
   -2.0106    0.5080   -0.5910 C   0  0  0  0  0  0  0  0  0  0  0  0
   -2.9830    0.1578   -0.2410 H   0  0  0  0  0  0  0  0  0  0  0  0
   -2.1351    1.2455   -1.3831 H   0  0  0  0  0  0  0  0  0  0  0  0
   -1.2272    1.1176    0.5697 C   0  0  0  0  0  0  0  0  0  0  0  0
   -0.8237    0.3336    1.2124 H   0  0  0  0  0  0  0  0  0  0  0  0
   -1.8931    1.7741    1.1306 H   0  0  0  0  0  0  0  0  0  0  0  0
   -0.1209    1.9420   -0.0885 C   0  0  0  0  0  0  0  0  0  0  0  0
    0.5927    2.4617    0.5542 H   0  0  0  0  0  0  0  0  0  0  0  0
   -0.2955    2.5163   -0.9982 H   0  0  0  0  0  0  0  0  0  0  0  0
    0.3724    0.5200   -0.4020 C   0  0  1  0  0  0  0  0  0  0  0  0
    0.8239    0.5134   -1.3943 H   0  0  0  0  0  0  0  0  0  0  0  0
    1.3983    0.0272    0.6323 C   0  0  0  0  0  0  0  0  0  0  0  0
    2.5658    0.4092    0.5835 O   0  0  0  0  0  0  0  0  0  0  0  0
    0.9674   -0.8529    1.5441 N   0  0  0  0  0  0  0  0  0  0  0  0
   -0.0160   -1.0711    1.5557 H   0  0  0  0  0  0  0  0  0  0  0  0
    1.8129   -1.4248    2.5894 C   0  0  0  0  0  0  0  0  0  0  0  0
    2.1369   -0.6339    3.2692 H   0  0  0  0  0  0  0  0  0  0  0  0
    1.2624   -2.1804    3.1507 H   0  0  0  0  0  0  0  0  0  0  0  0
    2.6984   -1.8801    2.1406 H   0  0  0  0  0  0  0  0  0  0  0  0
  5  6  2  0  0  0  0
  5  7  1  0  0  0  0
  2  3  1  0  0  0  0
  2  4  1  0  0  0  0
  2  5  1  0  0  0  0
  1  2  1  0  0  0  0
 19 20  2  0  0  0  0
 19 21  1  0  0  0  0
 17 18  1  0  0  0  0
 17 19  1  0  0  0  0
 14 15  1  0  0  0  0
 14 16  1  0  0  0  0
 14 17  1  0  0  0  0
 11 12  1  0  0  0  0
 11 13  1  0  0  0  0
 11 14  1  0  0  0  0
  8  9  1  0  0  0  0
  8 10  1  0  0  0  0
  8 11  1  0  0  0  0
  7  8  1  0  0  0  0
  7 17  1  0  0  0  0
 23 24  1  0  0  0  0
 23 25  1  0  0  0  0
 23 26  1  0  0  0  0
 21 22  1  0  0  0  0
 21 23  1  0  0  0  0
M  END
$$$$
default_name
  -OEChem-11182114113D

 26 26  0     1  0  0  0  0  0999 V2000
   -1.8446   -3.5060   -0.3010 H   0  0  0  0  0  0  0  0  0  0  0  0
   -2.0746   -2.4490   -0.4240 C   0  0  0  0  0  0  0  0  0  0  0  0
   -2.6906   -2.1160    0.4090 H   0  0  0  0  0  0  0  0  0  0  0  0
   -2.5986   -2.2980   -1.3650 H   0  0  0  0  0  0  0  0  0  0  0  0
   -0.7756   -1.6630   -0.4350 C   0  0  0  0  0  0  0  0  0  0  0  0
    0.2844   -2.2800   -0.4550 O   0  0  0  0  0  0  0  0  0  0  0  0
   -0.8246   -0.3180   -0.4350 N   0  0  0  0  0  0  0  0  0  0  0  0
   -2.0106    0.5080   -0.5910 C   0  0  0  0  0  0  0  0  0  0  0  0
   -2.9830    0.1578   -0.2410 H   0  0  0  0  0  0  0  0  0  0  0  0
   -2.1351    1.2455   -1.3831 H   0  0  0  0  0  0  0  0  0  0  0  0
   -1.2272    1.1176    0.5697 C   0  0  0  0  0  0  0  0  0  0  0  0
   -0.8237    0.3336    1.2124 H   0  0  0  0  0  0  0  0  0  0  0  0
   -1.8931    1.7741    1.1306 H   0  0  0  0  0  0  0  0  0  0  0  0
   -0.1209    1.9420   -0.0885 C   0  0  0  0  0  0  0  0  0  0  0  0
    0.5927    2.4617    0.5542 H   0  0  0  0  0  0  0  0  0  0  0  0
   -0.2955    2.5163   -0.9982 H   0  0  0  0  0  0  0  0  0  0  0  0
    0.3724    0.5200   -0.4020 C   0  0  1  0  0  0  0  0  0  0  0  0
    0.8239    0.5134   -1.3943 H   0  0  0  0  0  0  0  0  0  0  0  0
    1.3983    0.0272    0.6323 C   0  0  0  0  0  0  0  0  0  0  0  0
    2.4778    0.6010    0.7622 O   0  0  0  0  0  0  0  0  0  0  0  0
    1.0735   -1.0619    1.3393 N   0  0  0  0  0  0  0  0  0  0  0  0
    0.1475   -1.4396    1.2180 H   0  0  0  0  0  0  0  0  0  0  0  0
    1.9360   -1.6635    2.3536 C   0  0  0  0  0  0  0  0  0  0  0  0
    2.0645   -0.9651    3.1833 H   0  0  0  0  0  0  0  0  0  0  0  0
    1.4950   -2.5889    2.7254 H   0  0  0  0  0  0  0  0  0  0  0  0
    2.9177   -1.8765    1.9249 H   0  0  0  0  0  0  0  0  0  0  0  0
  5  6  2  0  0  0  0
  5  7  1  0  0  0  0
  2  3  1  0  0  0  0
  2  4  1  0  0  0  0
  2  5  1  0  0  0  0
  1  2  1  0  0  0  0
 19 20  2  0  0  0  0
 19 21  1  0  0  0  0
 17 18  1  0  0  0  0
 17 19  1  0  0  0  0
 14 15  1  0  0  0  0
 14 16  1  0  0  0  0
 14 17  1  0  0  0  0
 11 12  1  0  0  0  0
 11 13  1  0  0  0  0
 11 14  1  0  0  0  0
  8  9  1  0  0  0  0
  8 10  1  0  0  0  0
  8 11  1  0  0  0  0
  7  8  1  0  0  0  0
  7 17  1  0  0  0  0
 23 24  1  0  0  0  0
 23 25  1  0  0  0  0
 23 26  1  0  0  0  0
 21 22  1  0  0  0  0
 21 23  1  0  0  0  0
M  END
$$$$
default_name
  -OEChem-11182114113D

 26 26  0     1  0  0  0  0  0999 V2000
   -1.8446   -3.5060   -0.3010 H   0  0  0  0  0  0  0  0  0  0  0  0
   -2.0746   -2.4490   -0.4240 C   0  0  0  0  0  0  0  0  0  0  0  0
   -2.6906   -2.1160    0.4090 H   0  0  0  0  0  0  0  0  0  0  0  0
   -2.5986   -2.2980   -1.3650 H   0  0  0  0  0  0  0  0  0  0  0  0
   -0.7756   -1.6630   -0.4350 C   0  0  0  0  0  0  0  0  0  0  0  0
    0.2844   -2.2800   -0.4550 O   0  0  0  0  0  0  0  0  0  0  0  0
   -0.8246   -0.3180   -0.4350 N   0  0  0  0  0  0  0  0  0  0  0  0
   -2.0106    0.5080   -0.5910 C   0  0  0  0  0  0  0  0  0  0  0  0
   -2.9830    0.1578   -0.2410 H   0  0  0  0  0  0  0  0  0  0  0  0
   -2.1351    1.2455   -1.3831 H   0  0  0  0  0  0  0  0  0  0  0  0
   -1.2272    1.1176    0.5697 C   0  0  0  0  0  0  0  0  0  0  0  0
   -0.8237    0.3336    1.2124 H   0  0  0  0  0  0  0  0  0  0  0  0
   -1.8931    1.7741    1.1306 H   0  0  0  0  0  0  0  0  0  0  0  0
   -0.1209    1.9420   -0.0885 C   0  0  0  0  0  0  0  0  0  0  0  0
    0.5927    2.4617    0.5542 H   0  0  0  0  0  0  0  0  0  0  0  0
   -0.2955    2.5163   -0.9982 H   0  0  0  0  0  0  0  0  0  0  0  0
    0.3724    0.5200   -0.4020 C   0  0  1  0  0  0  0  0  0  0  0  0
    0.8239    0.5134   -1.3943 H   0  0  0  0  0  0  0  0  0  0  0  0
    1.3983    0.0272    0.6323 C   0  0  0  0  0  0  0  0  0  0  0  0
    2.3445    0.7401    0.9607 O   0  0  0  0  0  0  0  0  0  0  0  0
    1.2294   -1.2100    1.1142 N   0  0  0  0  0  0  0  0  0  0  0  0
    0.3975   -1.7088    0.8417 H   0  0  0  0  0  0  0  0  0  0  0  0
    2.1161   -1.8320    2.0948 C   0  0  0  0  0  0  0  0  0  0  0  0
    2.0593   -1.2828    3.0371 H   0  0  0  0  0  0  0  0  0  0  0  0
    1.8260   -2.8695    2.2634 H   0  0  0  0  0  0  0  0  0  0  0  0
    3.1468   -1.7975    1.7353 H   0  0  0  0  0  0  0  0  0  0  0  0
  5  6  2  0  0  0  0
  5  7  1  0  0  0  0
  2  3  1  0  0  0  0
  2  4  1  0  0  0  0
  2  5  1  0  0  0  0
  1  2  1  0  0  0  0
 19 20  2  0  0  0  0
 19 21  1  0  0  0  0
 17 18  1  0  0  0  0
 17 19  1  0  0  0  0
 14 15  1  0  0  0  0
 14 16  1  0  0  0  0
 14 17  1  0  0  0  0
 11 12  1  0  0  0  0
 11 13  1  0  0  0  0
 11 14  1  0  0  0  0
  8  9  1  0  0  0  0
  8 10  1  0  0  0  0
  8 11  1  0  0  0  0
  7  8  1  0  0  0  0
  7 17  1  0  0  0  0
 23 24  1  0  0  0  0
 23 25  1  0  0  0  0
 23 26  1  0  0  0  0
 21 22  1  0  0  0  0
 21 23  1  0  0  0  0
M  END
$$$$
default_name
  -OEChem-11182114113D

 26 26  0     1  0  0  0  0  0999 V2000
   -1.8446   -3.5060   -0.3010 H   0  0  0  0  0  0  0  0  0  0  0  0
   -2.0746   -2.4490   -0.4240 C   0  0  0  0  0  0  0  0  0  0  0  0
   -2.6906   -2.1160    0.4090 H   0  0  0  0  0  0  0  0  0  0  0  0
   -2.5986   -2.2980   -1.3650 H   0  0  0  0  0  0  0  0  0  0  0  0
   -0.7756   -1.6630   -0.4350 C   0  0  0  0  0  0  0  0  0  0  0  0
    0.2844   -2.2800   -0.4550 O   0  0  0  0  0  0  0  0  0  0  0  0
   -0.8246   -0.3180   -0.4350 N   0  0  0  0  0  0  0  0  0  0  0  0
   -2.0106    0.5080   -0.5910 C   0  0  0  0  0  0  0  0  0  0  0  0
   -2.9830    0.1578   -0.2410 H   0  0  0  0  0  0  0  0  0  0  0  0
   -2.1351    1.2455   -1.3831 H   0  0  0  0  0  0  0  0  0  0  0  0
   -1.2272    1.1176    0.5697 C   0  0  0  0  0  0  0  0  0  0  0  0
   -0.8237    0.3336    1.2124 H   0  0  0  0  0  0  0  0  0  0  0  0
   -1.8931    1.7741    1.1306 H   0  0  0  0  0  0  0  0  0  0  0  0
   -0.1209    1.9420   -0.0885 C   0  0  0  0  0  0  0  0  0  0  0  0
    0.5927    2.4617    0.5542 H   0  0  0  0  0  0  0  0  0  0  0  0
   -0.2955    2.5163   -0.9982 H   0  0  0  0  0  0  0  0  0  0  0  0
    0.3724    0.5200   -0.4020 C   0  0  1  0  0  0  0  0  0  0  0  0
    0.8239    0.5134   -1.3943 H   0  0  0  0  0  0  0  0  0  0  0  0
    1.3983    0.0272    0.6323 C   0  0  0  0  0  0  0  0  0  0  0  0
    2.1751    0.8171    1.1653 O   0  0  0  0  0  0  0  0  0  0  0  0
    1.4244   -1.2871    0.8841 N   0  0  0  0  0  0  0  0  0  0  0  0
    0.7171   -1.8603    0.4526 H   0  0  0  0  0  0  0  0  0  0  0  0
    2.3407   -1.9186    1.8306 C   0  0  0  0  0  0  0  0  0  0  0  0
    2.1217   -1.5654    2.8405 H   0  0  0  0  0  0  0  0  0  0  0  0
    2.2329   -3.0032    1.7961 H   0  0  0  0  0  0  0  0  0  0  0  0
    3.3701   -1.6486    1.5848 H   0  0  0  0  0  0  0  0  0  0  0  0
  5  6  2  0  0  0  0
  5  7  1  0  0  0  0
  2  3  1  0  0  0  0
  2  4  1  0  0  0  0
  2  5  1  0  0  0  0
  1  2  1  0  0  0  0
 19 20  2  0  0  0  0
 19 21  1  0  0  0  0
 17 18  1  0  0  0  0
 17 19  1  0  0  0  0
 14 15  1  0  0  0  0
 14 16  1  0  0  0  0
 14 17  1  0  0  0  0
 11 12  1  0  0  0  0
 11 13  1  0  0  0  0
 11 14  1  0  0  0  0
  8  9  1  0  0  0  0
  8 10  1  0  0  0  0
  8 11  1  0  0  0  0
  7  8  1  0  0  0  0
  7 17  1  0  0  0  0
 23 24  1  0  0  0  0
 23 25  1  0  0  0  0
 23 26  1  0  0  0  0
 21 22  1  0  0  0  0
 21 23  1  0  0  0  0
M  END
$$$$
default_name
  -OEChem-11182114113D

 26 26  0     1  0  0  0  0  0999 V2000
   -1.8446   -3.5060   -0.3010 H   0  0  0  0  0  0  0  0  0  0  0  0
   -2.0746   -2.4490   -0.4240 C   0  0  0  0  0  0  0  0  0  0  0  0
   -2.6906   -2.1160    0.4090 H   0  0  0  0  0  0  0  0  0  0  0  0
   -2.5986   -2.2980   -1.3650 H   0  0  0  0  0  0  0  0  0  0  0  0
   -0.7756   -1.6630   -0.4350 C   0  0  0  0  0  0  0  0  0  0  0  0
    0.2844   -2.2800   -0.4550 O   0  0  0  0  0  0  0  0  0  0  0  0
   -0.8246   -0.3180   -0.4350 N   0  0  0  0  0  0  0  0  0  0  0  0
   -2.0106    0.5080   -0.5910 C   0  0  0  0  0  0  0  0  0  0  0  0
   -2.9830    0.1578   -0.2410 H   0  0  0  0  0  0  0  0  0  0  0  0
   -2.1351    1.2455   -1.3831 H   0  0  0  0  0  0  0  0  0  0  0  0
   -1.2272    1.1176    0.5697 C   0  0  0  0  0  0  0  0  0  0  0  0
   -0.8237    0.3336    1.2124 H   0  0  0  0  0  0  0  0  0  0  0  0
   -1.8931    1.7741    1.1306 H   0  0  0  0  0  0  0  0  0  0  0  0
   -0.1209    1.9420   -0.0885 C   0  0  0  0  0  0  0  0  0  0  0  0
    0.5927    2.4617    0.5542 H   0  0  0  0  0  0  0  0  0  0  0  0
   -0.2955    2.5163   -0.9982 H   0  0  0  0  0  0  0  0  0  0  0  0
    0.3724    0.5200   -0.4020 C   0  0  1  0  0  0  0  0  0  0  0  0
    0.8239    0.5134   -1.3943 H   0  0  0  0  0  0  0  0  0  0  0  0
    1.3983    0.0272    0.6323 C   0  0  0  0  0  0  0  0  0  0  0  0
    1.9811    0.8265    1.3623 O   0  0  0  0  0  0  0  0  0  0  0  0
    1.6452   -1.2879    0.6646 N   0  0  0  0  0  0  0  0  0  0  0  0
    1.0845   -1.8838    0.0770 H   0  0  0  0  0  0  0  0  0  0  0  0
    2.5947   -1.9176    1.5791 C   0  0  0  0  0  0  0  0  0  0  0  0
    2.2475   -1.7935    2.6071 H   0  0  0  0  0  0  0  0  0  0  0  0
    2.6880   -2.9808    1.3554 H   0  0  0  0  0  0  0  0  0  0  0  0
    3.5723   -1.4399    1.4836 H   0  0  0  0  0  0  0  0  0  0  0  0
  5  6  2  0  0  0  0
  5  7  1  0  0  0  0
  2  3  1  0  0  0  0
  2  4  1  0  0  0  0
  2  5  1  0  0  0  0
  1  2  1  0  0  0  0
 19 20  2  0  0  0  0
 19 21  1  0  0  0  0
 17 18  1  0  0  0  0
 17 19  1  0  0  0  0
 14 15  1  0  0  0  0
 14 16  1  0  0  0  0
 14 17  1  0  0  0  0
 11 12  1  0  0  0  0
 11 13  1  0  0  0  0
 11 14  1  0  0  0  0
  8  9  1  0  0  0  0
  8 10  1  0  0  0  0
  8 11  1  0  0  0  0
  7  8  1  0  0  0  0
  7 17  1  0  0  0  0
 23 24  1  0  0  0  0
 23 25  1  0  0  0  0
 23 26  1  0  0  0  0
 21 22  1  0  0  0  0
 21 23  1  0  0  0  0
M  END
$$$$
default_name
  -OEChem-11182114113D

 26 26  0     1  0  0  0  0  0999 V2000
   -1.8446   -3.5060   -0.3010 H   0  0  0  0  0  0  0  0  0  0  0  0
   -2.0746   -2.4490   -0.4240 C   0  0  0  0  0  0  0  0  0  0  0  0
   -2.6906   -2.1160    0.4090 H   0  0  0  0  0  0  0  0  0  0  0  0
   -2.5986   -2.2980   -1.3650 H   0  0  0  0  0  0  0  0  0  0  0  0
   -0.7756   -1.6630   -0.4350 C   0  0  0  0  0  0  0  0  0  0  0  0
    0.2844   -2.2800   -0.4550 O   0  0  0  0  0  0  0  0  0  0  0  0
   -0.8246   -0.3180   -0.4350 N   0  0  0  0  0  0  0  0  0  0  0  0
   -2.0106    0.5080   -0.5910 C   0  0  0  0  0  0  0  0  0  0  0  0
   -2.9830    0.1578   -0.2410 H   0  0  0  0  0  0  0  0  0  0  0  0
   -2.1351    1.2455   -1.3831 H   0  0  0  0  0  0  0  0  0  0  0  0
   -1.2272    1.1176    0.5697 C   0  0  0  0  0  0  0  0  0  0  0  0
   -0.8237    0.3336    1.2124 H   0  0  0  0  0  0  0  0  0  0  0  0
   -1.8931    1.7741    1.1306 H   0  0  0  0  0  0  0  0  0  0  0  0
   -0.1209    1.9420   -0.0885 C   0  0  0  0  0  0  0  0  0  0  0  0
    0.5927    2.4617    0.5542 H   0  0  0  0  0  0  0  0  0  0  0  0
   -0.2955    2.5163   -0.9982 H   0  0  0  0  0  0  0  0  0  0  0  0
    0.3724    0.5200   -0.4020 C   0  0  1  0  0  0  0  0  0  0  0  0
    0.8239    0.5134   -1.3943 H   0  0  0  0  0  0  0  0  0  0  0  0
    1.3983    0.0272    0.6323 C   0  0  0  0  0  0  0  0  0  0  0  0
    1.7758    0.7679    1.5380 O   0  0  0  0  0  0  0  0  0  0  0  0
    1.8769   -1.2123    0.4709 N   0  0  0  0  0  0  0  0  0  0  0  0
    1.4746   -1.7778   -0.2594 H   0  0  0  0  0  0  0  0  0  0  0  0
    2.8608   -1.8290    1.3575 C   0  0  0  0  0  0  0  0  0  0  0  0
    2.4280   -1.9516    2.3527 H   0  0  0  0  0  0  0  0  0  0  0  0
    3.1602   -2.8039    0.9713 H   0  0  0  0  0  0  0  0  0  0  0  0
    3.7396   -1.1857    1.4387 H   0  0  0  0  0  0  0  0  0  0  0  0
  5  6  2  0  0  0  0
  5  7  1  0  0  0  0
  2  3  1  0  0  0  0
  2  4  1  0  0  0  0
  2  5  1  0  0  0  0
  1  2  1  0  0  0  0
 19 20  2  0  0  0  0
 19 21  1  0  0  0  0
 17 18  1  0  0  0  0
 17 19  1  0  0  0  0
 14 15  1  0  0  0  0
 14 16  1  0  0  0  0
 14 17  1  0  0  0  0
 11 12  1  0  0  0  0
 11 13  1  0  0  0  0
 11 14  1  0  0  0  0
  8  9  1  0  0  0  0
  8 10  1  0  0  0  0
  8 11  1  0  0  0  0
  7  8  1  0  0  0  0
  7 17  1  0  0  0  0
 23 24  1  0  0  0  0
 23 25  1  0  0  0  0
 23 26  1  0  0  0  0
 21 22  1  0  0  0  0
 21 23  1  0  0  0  0
M  END
$$$$
default_name
  -OEChem-11182114113D

 26 26  0     1  0  0  0  0  0999 V2000
   -1.8446   -3.5060   -0.3010 H   0  0  0  0  0  0  0  0  0  0  0  0
   -2.0746   -2.4490   -0.4240 C   0  0  0  0  0  0  0  0  0  0  0  0
   -2.6906   -2.1160    0.4090 H   0  0  0  0  0  0  0  0  0  0  0  0
   -2.5986   -2.2980   -1.3650 H   0  0  0  0  0  0  0  0  0  0  0  0
   -0.7756   -1.6630   -0.4350 C   0  0  0  0  0  0  0  0  0  0  0  0
    0.2844   -2.2800   -0.4550 O   0  0  0  0  0  0  0  0  0  0  0  0
   -0.8246   -0.3180   -0.4350 N   0  0  0  0  0  0  0  0  0  0  0  0
   -2.0106    0.5080   -0.5910 C   0  0  0  0  0  0  0  0  0  0  0  0
   -2.9830    0.1578   -0.2410 H   0  0  0  0  0  0  0  0  0  0  0  0
   -2.1351    1.2455   -1.3831 H   0  0  0  0  0  0  0  0  0  0  0  0
   -1.2272    1.1176    0.5697 C   0  0  0  0  0  0  0  0  0  0  0  0
   -0.8237    0.3336    1.2124 H   0  0  0  0  0  0  0  0  0  0  0  0
   -1.8931    1.7741    1.1306 H   0  0  0  0  0  0  0  0  0  0  0  0
   -0.1209    1.9420   -0.0885 C   0  0  0  0  0  0  0  0  0  0  0  0
    0.5927    2.4617    0.5542 H   0  0  0  0  0  0  0  0  0  0  0  0
   -0.2955    2.5163   -0.9982 H   0  0  0  0  0  0  0  0  0  0  0  0
    0.3724    0.5200   -0.4020 C   0  0  1  0  0  0  0  0  0  0  0  0
    0.8239    0.5134   -1.3943 H   0  0  0  0  0  0  0  0  0  0  0  0
    1.3983    0.0272    0.6323 C   0  0  0  0  0  0  0  0  0  0  0  0
    1.5730    0.6452    1.6806 O   0  0  0  0  0  0  0  0  0  0  0  0
    2.1035   -1.0655    0.3160 N   0  0  0  0  0  0  0  0  0  0  0  0
    1.8608   -1.5494   -0.5337 H   0  0  0  0  0  0  0  0  0  0  0  0
    3.1207   -1.6589    1.1807 C   0  0  0  0  0  0  0  0  0  0  0  0
    2.6511   -2.0290    2.0946 H   0  0  0  0  0  0  0  0  0  0  0  0
    3.6174   -2.4845    0.6700 H   0  0  0  0  0  0  0  0  0  0  0  0
    3.8608   -0.9032    1.4531 H   0  0  0  0  0  0  0  0  0  0  0  0
  5  6  2  0  0  0  0
  5  7  1  0  0  0  0
  2  3  1  0  0  0  0
  2  4  1  0  0  0  0
  2  5  1  0  0  0  0
  1  2  1  0  0  0  0
 19 20  2  0  0  0  0
 19 21  1  0  0  0  0
 17 18  1  0  0  0  0
 17 19  1  0  0  0  0
 14 15  1  0  0  0  0
 14 16  1  0  0  0  0
 14 17  1  0  0  0  0
 11 12  1  0  0  0  0
 11 13  1  0  0  0  0
 11 14  1  0  0  0  0
  8  9  1  0  0  0  0
  8 10  1  0  0  0  0
  8 11  1  0  0  0  0
  7  8  1  0  0  0  0
  7 17  1  0  0  0  0
 23 24  1  0  0  0  0
 23 25  1  0  0  0  0
 23 26  1  0  0  0  0
 21 22  1  0  0  0  0
 21 23  1  0  0  0  0
M  END
$$$$
default_name
  -OEChem-11182114113D

 26 26  0     1  0  0  0  0  0999 V2000
   -1.8446   -3.5060   -0.3010 H   0  0  0  0  0  0  0  0  0  0  0  0
   -2.0746   -2.4490   -0.4240 C   0  0  0  0  0  0  0  0  0  0  0  0
   -2.6906   -2.1160    0.4090 H   0  0  0  0  0  0  0  0  0  0  0  0
   -2.5986   -2.2980   -1.3650 H   0  0  0  0  0  0  0  0  0  0  0  0
   -0.7756   -1.6630   -0.4350 C   0  0  0  0  0  0  0  0  0  0  0  0
    0.2844   -2.2800   -0.4550 O   0  0  0  0  0  0  0  0  0  0  0  0
   -0.8246   -0.3180   -0.4350 N   0  0  0  0  0  0  0  0  0  0  0  0
   -2.0106    0.5080   -0.5910 C   0  0  0  0  0  0  0  0  0  0  0  0
   -2.9830    0.1578   -0.2410 H   0  0  0  0  0  0  0  0  0  0  0  0
   -2.1351    1.2455   -1.3831 H   0  0  0  0  0  0  0  0  0  0  0  0
   -1.2272    1.1176    0.5697 C   0  0  0  0  0  0  0  0  0  0  0  0
   -0.8237    0.3336    1.2124 H   0  0  0  0  0  0  0  0  0  0  0  0
   -1.8931    1.7741    1.1306 H   0  0  0  0  0  0  0  0  0  0  0  0
   -0.1209    1.9420   -0.0885 C   0  0  0  0  0  0  0  0  0  0  0  0
    0.5927    2.4617    0.5542 H   0  0  0  0  0  0  0  0  0  0  0  0
   -0.2955    2.5163   -0.9982 H   0  0  0  0  0  0  0  0  0  0  0  0
    0.3724    0.5200   -0.4020 C   0  0  1  0  0  0  0  0  0  0  0  0
    0.8239    0.5134   -1.3943 H   0  0  0  0  0  0  0  0  0  0  0  0
    1.3983    0.0272    0.6323 C   0  0  0  0  0  0  0  0  0  0  0  0
    1.3868    0.4668    1.7804 O   0  0  0  0  0  0  0  0  0  0  0  0
    2.3098   -0.8576    0.2105 N   0  0  0  0  0  0  0  0  0  0  0  0
    2.2168   -1.2141   -0.7271 H   0  0  0  0  0  0  0  0  0  0  0  0
    3.3568   -1.4188    1.0609 C   0  0  0  0  0  0  0  0  0  0  0  0
    2.9014   -2.0204    1.8504 H   0  0  0  0  0  0  0  0  0  0  0  0
    4.0284   -2.0443    0.4721 H   0  0  0  0  0  0  0  0  0  0  0  0
    3.9274   -0.6118    1.5259 H   0  0  0  0  0  0  0  0  0  0  0  0
  5  6  2  0  0  0  0
  5  7  1  0  0  0  0
  2  3  1  0  0  0  0
  2  4  1  0  0  0  0
  2  5  1  0  0  0  0
  1  2  1  0  0  0  0
 19 20  2  0  0  0  0
 19 21  1  0  0  0  0
 17 18  1  0  0  0  0
 17 19  1  0  0  0  0
 14 15  1  0  0  0  0
 14 16  1  0  0  0  0
 14 17  1  0  0  0  0
 11 12  1  0  0  0  0
 11 13  1  0  0  0  0
 11 14  1  0  0  0  0
  8  9  1  0  0  0  0
  8 10  1  0  0  0  0
  8 11  1  0  0  0  0
  7  8  1  0  0  0  0
  7 17  1  0  0  0  0
 23 24  1  0  0  0  0
 23 25  1  0  0  0  0
 23 26  1  0  0  0  0
 21 22  1  0  0  0  0
 21 23  1  0  0  0  0
M  END
$$$$
default_name
  -OEChem-11182114113D

 26 26  0     1  0  0  0  0  0999 V2000
   -1.8446   -3.5060   -0.3010 H   0  0  0  0  0  0  0  0  0  0  0  0
   -2.0746   -2.4490   -0.4240 C   0  0  0  0  0  0  0  0  0  0  0  0
   -2.6906   -2.1160    0.4090 H   0  0  0  0  0  0  0  0  0  0  0  0
   -2.5986   -2.2980   -1.3650 H   0  0  0  0  0  0  0  0  0  0  0  0
   -0.7756   -1.6630   -0.4350 C   0  0  0  0  0  0  0  0  0  0  0  0
    0.2844   -2.2800   -0.4550 O   0  0  0  0  0  0  0  0  0  0  0  0
   -0.8246   -0.3180   -0.4350 N   0  0  0  0  0  0  0  0  0  0  0  0
   -2.0106    0.5080   -0.5910 C   0  0  0  0  0  0  0  0  0  0  0  0
   -2.9830    0.1578   -0.2410 H   0  0  0  0  0  0  0  0  0  0  0  0
   -2.1351    1.2455   -1.3831 H   0  0  0  0  0  0  0  0  0  0  0  0
   -1.2272    1.1176    0.5697 C   0  0  0  0  0  0  0  0  0  0  0  0
   -0.8237    0.3336    1.2124 H   0  0  0  0  0  0  0  0  0  0  0  0
   -1.8931    1.7741    1.1306 H   0  0  0  0  0  0  0  0  0  0  0  0
   -0.1209    1.9420   -0.0885 C   0  0  0  0  0  0  0  0  0  0  0  0
    0.5927    2.4617    0.5542 H   0  0  0  0  0  0  0  0  0  0  0  0
   -0.2955    2.5163   -0.9982 H   0  0  0  0  0  0  0  0  0  0  0  0
    0.3724    0.5200   -0.4020 C   0  0  1  0  0  0  0  0  0  0  0  0
    0.8239    0.5134   -1.3943 H   0  0  0  0  0  0  0  0  0  0  0  0
    1.3983    0.0272    0.6323 C   0  0  0  0  0  0  0  0  0  0  0  0
    1.2296    0.2448    1.8305 O   0  0  0  0  0  0  0  0  0  0  0  0
    2.4815   -0.6026    0.1616 N   0  0  0  0  0  0  0  0  0  0  0  0
    2.5184   -0.7950   -0.8266 H   0  0  0  0  0  0  0  0  0  0  0  0
    3.5530   -1.1250    1.0063 C   0  0  0  0  0  0  0  0  0  0  0  0
    3.1619   -1.9264    1.6368 H   0  0  0  0  0  0  0  0  0  0  0  0
    4.3652   -1.5135    0.3909 H   0  0  0  0  0  0  0  0  0  0  0  0
    3.9351   -0.3313    1.6520 H   0  0  0  0  0  0  0  0  0  0  0  0
  5  6  2  0  0  0  0
  5  7  1  0  0  0  0
  2  3  1  0  0  0  0
  2  4  1  0  0  0  0
  2  5  1  0  0  0  0
  1  2  1  0  0  0  0
 19 20  2  0  0  0  0
 19 21  1  0  0  0  0
 17 18  1  0  0  0  0
 17 19  1  0  0  0  0
 14 15  1  0  0  0  0
 14 16  1  0  0  0  0
 14 17  1  0  0  0  0
 11 12  1  0  0  0  0
 11 13  1  0  0  0  0
 11 14  1  0  0  0  0
  8  9  1  0  0  0  0
  8 10  1  0  0  0  0
  8 11  1  0  0  0  0
  7  8  1  0  0  0  0
  7 17  1  0  0  0  0
 23 24  1  0  0  0  0
 23 25  1  0  0  0  0
 23 26  1  0  0  0  0
 21 22  1  0  0  0  0
 21 23  1  0  0  0  0
M  END
$$$$
default_name
  -OEChem-11182114113D

 26 26  0     1  0  0  0  0  0999 V2000
   -1.8446   -3.5060   -0.3010 H   0  0  0  0  0  0  0  0  0  0  0  0
   -2.0746   -2.4490   -0.4240 C   0  0  0  0  0  0  0  0  0  0  0  0
   -2.6906   -2.1160    0.4090 H   0  0  0  0  0  0  0  0  0  0  0  0
   -2.5986   -2.2980   -1.3650 H   0  0  0  0  0  0  0  0  0  0  0  0
   -0.7756   -1.6630   -0.4350 C   0  0  0  0  0  0  0  0  0  0  0  0
    0.2844   -2.2800   -0.4550 O   0  0  0  0  0  0  0  0  0  0  0  0
   -0.8246   -0.3180   -0.4350 N   0  0  0  0  0  0  0  0  0  0  0  0
   -2.0106    0.5080   -0.5910 C   0  0  0  0  0  0  0  0  0  0  0  0
   -2.9830    0.1578   -0.2410 H   0  0  0  0  0  0  0  0  0  0  0  0
   -2.1351    1.2455   -1.3831 H   0  0  0  0  0  0  0  0  0  0  0  0
   -1.2272    1.1176    0.5697 C   0  0  0  0  0  0  0  0  0  0  0  0
   -0.8237    0.3336    1.2124 H   0  0  0  0  0  0  0  0  0  0  0  0
   -1.8931    1.7741    1.1306 H   0  0  0  0  0  0  0  0  0  0  0  0
   -0.1209    1.9420   -0.0885 C   0  0  0  0  0  0  0  0  0  0  0  0
    0.5927    2.4617    0.5542 H   0  0  0  0  0  0  0  0  0  0  0  0
   -0.2955    2.5163   -0.9982 H   0  0  0  0  0  0  0  0  0  0  0  0
    0.3724    0.5200   -0.4020 C   0  0  1  0  0  0  0  0  0  0  0  0
    0.8239    0.5134   -1.3943 H   0  0  0  0  0  0  0  0  0  0  0  0
    1.3983    0.0272    0.6323 C   0  0  0  0  0  0  0  0  0  0  0  0
    1.1123   -0.0057    1.8275 O   0  0  0  0  0  0  0  0  0  0  0  0
    2.6071   -0.3179    0.1727 N   0  0  0  0  0  0  0  0  0  0  0  0
    2.7450   -0.3204   -0.8252 H   0  0  0  0  0  0  0  0  0  0  0  0
    3.6960   -0.7977    1.0204 C   0  0  0  0  0  0  0  0  0  0  0  0
    3.4149   -1.7533    1.4684 H   0  0  0  0  0  0  0  0  0  0  0  0
    4.6048   -0.9281    0.4321 H   0  0  0  0  0  0  0  0  0  0  0  0
    3.8831   -0.0808    1.8228 H   0  0  0  0  0  0  0  0  0  0  0  0
  5  6  2  0  0  0  0
  5  7  1  0  0  0  0
  2  3  1  0  0  0  0
  2  4  1  0  0  0  0
  2  5  1  0  0  0  0
  1  2  1  0  0  0  0
 19 20  2  0  0  0  0
 19 21  1  0  0  0  0
 17 18  1  0  0  0  0
 17 19  1  0  0  0  0
 14 15  1  0  0  0  0
 14 16  1  0  0  0  0
 14 17  1  0  0  0  0
 11 12  1  0  0  0  0
 11 13  1  0  0  0  0
 11 14  1  0  0  0  0
  8  9  1  0  0  0  0
  8 10  1  0  0  0  0
  8 11  1  0  0  0  0
  7  8  1  0  0  0  0
  7 17  1  0  0  0  0
 23 24  1  0  0  0  0
 23 25  1  0  0  0  0
 23 26  1  0  0  0  0
 21 22  1  0  0  0  0
 21 23  1  0  0  0  0
M  END
$$$$
default_name
  -OEChem-11182114113D

 26 26  0     1  0  0  0  0  0999 V2000
   -1.8446   -3.5060   -0.3010 H   0  0  0  0  0  0  0  0  0  0  0  0
   -2.0746   -2.4490   -0.4240 C   0  0  0  0  0  0  0  0  0  0  0  0
   -2.6906   -2.1160    0.4090 H   0  0  0  0  0  0  0  0  0  0  0  0
   -2.5986   -2.2980   -1.3650 H   0  0  0  0  0  0  0  0  0  0  0  0
   -0.7756   -1.6630   -0.4350 C   0  0  0  0  0  0  0  0  0  0  0  0
    0.2844   -2.2800   -0.4550 O   0  0  0  0  0  0  0  0  0  0  0  0
   -0.8246   -0.3180   -0.4350 N   0  0  0  0  0  0  0  0  0  0  0  0
   -2.0106    0.5080   -0.5910 C   0  0  0  0  0  0  0  0  0  0  0  0
   -2.9830    0.1578   -0.2410 H   0  0  0  0  0  0  0  0  0  0  0  0
   -2.1351    1.2455   -1.3831 H   0  0  0  0  0  0  0  0  0  0  0  0
   -1.2272    1.1176    0.5697 C   0  0  0  0  0  0  0  0  0  0  0  0
   -0.8237    0.3336    1.2124 H   0  0  0  0  0  0  0  0  0  0  0  0
   -1.8931    1.7741    1.1306 H   0  0  0  0  0  0  0  0  0  0  0  0
   -0.1209    1.9420   -0.0885 C   0  0  0  0  0  0  0  0  0  0  0  0
    0.5927    2.4617    0.5542 H   0  0  0  0  0  0  0  0  0  0  0  0
   -0.2955    2.5163   -0.9982 H   0  0  0  0  0  0  0  0  0  0  0  0
    0.3724    0.5200   -0.4020 C   0  0  1  0  0  0  0  0  0  0  0  0
    0.8239    0.5134   -1.3943 H   0  0  0  0  0  0  0  0  0  0  0  0
    1.3983    0.0272    0.6323 C   0  0  0  0  0  0  0  0  0  0  0  0
    1.0428   -0.2675    1.7717 O   0  0  0  0  0  0  0  0  0  0  0  0
    2.6779   -0.0230    0.2429 N   0  0  0  0  0  0  0  0  0  0  0  0
    2.8812    0.1772   -0.7232 H   0  0  0  0  0  0  0  0  0  0  0  0
    3.7759   -0.4591    1.1025 C   0  0  0  0  0  0  0  0  0  0  0  0
    3.6431   -1.5130    1.3565 H   0  0  0  0  0  0  0  0  0  0  0  0
    4.7310   -0.3280    0.5929 H   0  0  0  0  0  0  0  0  0  0  0  0
    3.7752    0.1227    2.0268 H   0  0  0  0  0  0  0  0  0  0  0  0
  5  6  2  0  0  0  0
  5  7  1  0  0  0  0
  2  3  1  0  0  0  0
  2  4  1  0  0  0  0
  2  5  1  0  0  0  0
  1  2  1  0  0  0  0
 19 20  2  0  0  0  0
 19 21  1  0  0  0  0
 17 18  1  0  0  0  0
 17 19  1  0  0  0  0
 14 15  1  0  0  0  0
 14 16  1  0  0  0  0
 14 17  1  0  0  0  0
 11 12  1  0  0  0  0
 11 13  1  0  0  0  0
 11 14  1  0  0  0  0
  8  9  1  0  0  0  0
  8 10  1  0  0  0  0
  8 11  1  0  0  0  0
  7  8  1  0  0  0  0
  7 17  1  0  0  0  0
 23 24  1  0  0  0  0
 23 25  1  0  0  0  0
 23 26  1  0  0  0  0
 21 22  1  0  0  0  0
 21 23  1  0  0  0  0
M  END
$$$$
default_name
  -OEChem-11182114113D

 26 26  0     1  0  0  0  0  0999 V2000
   -1.8446   -3.5060   -0.3010 H   0  0  0  0  0  0  0  0  0  0  0  0
   -2.0746   -2.4490   -0.4240 C   0  0  0  0  0  0  0  0  0  0  0  0
   -2.6906   -2.1160    0.4090 H   0  0  0  0  0  0  0  0  0  0  0  0
   -2.5986   -2.2980   -1.3650 H   0  0  0  0  0  0  0  0  0  0  0  0
   -0.7756   -1.6630   -0.4350 C   0  0  0  0  0  0  0  0  0  0  0  0
    0.2844   -2.2800   -0.4550 O   0  0  0  0  0  0  0  0  0  0  0  0
   -0.8246   -0.3180   -0.4350 N   0  0  0  0  0  0  0  0  0  0  0  0
   -2.0106    0.5080   -0.5910 C   0  0  0  0  0  0  0  0  0  0  0  0
   -2.9830    0.1578   -0.2410 H   0  0  0  0  0  0  0  0  0  0  0  0
   -2.1351    1.2455   -1.3831 H   0  0  0  0  0  0  0  0  0  0  0  0
   -1.2272    1.1176    0.5697 C   0  0  0  0  0  0  0  0  0  0  0  0
   -0.8237    0.3336    1.2124 H   0  0  0  0  0  0  0  0  0  0  0  0
   -1.8931    1.7741    1.1306 H   0  0  0  0  0  0  0  0  0  0  0  0
   -0.1209    1.9420   -0.0885 C   0  0  0  0  0  0  0  0  0  0  0  0
    0.5927    2.4617    0.5542 H   0  0  0  0  0  0  0  0  0  0  0  0
   -0.2955    2.5163   -0.9982 H   0  0  0  0  0  0  0  0  0  0  0  0
    0.3724    0.5200   -0.4020 C   0  0  1  0  0  0  0  0  0  0  0  0
    0.8239    0.5134   -1.3943 H   0  0  0  0  0  0  0  0  0  0  0  0
    1.3983    0.0272    0.6323 C   0  0  0  0  0  0  0  0  0  0  0  0
    1.0260   -0.5229    1.6668 O   0  0  0  0  0  0  0  0  0  0  0  0
    2.6892    0.2620    0.3676 N   0  0  0  0  0  0  0  0  0  0  0  0
    2.9177    0.6639   -0.5275 H   0  0  0  0  0  0  0  0  0  0  0  0
    3.7873   -0.1323    1.2468 C   0  0  0  0  0  0  0  0  0  0  0  0
    3.8310   -1.2218    1.3088 H   0  0  0  0  0  0  0  0  0  0  0  0
    4.7350    0.2458    0.8622 H   0  0  0  0  0  0  0  0  0  0  0  0
    3.6186    0.2652    2.2500 H   0  0  0  0  0  0  0  0  0  0  0  0
  5  6  2  0  0  0  0
  5  7  1  0  0  0  0
  2  3  1  0  0  0  0
  2  4  1  0  0  0  0
  2  5  1  0  0  0  0
  1  2  1  0  0  0  0
 19 20  2  0  0  0  0
 19 21  1  0  0  0  0
 17 18  1  0  0  0  0
 17 19  1  0  0  0  0
 14 15  1  0  0  0  0
 14 16  1  0  0  0  0
 14 17  1  0  0  0  0
 11 12  1  0  0  0  0
 11 13  1  0  0  0  0
 11 14  1  0  0  0  0
  8  9  1  0  0  0  0
  8 10  1  0  0  0  0
  8 11  1  0  0  0  0
  7  8  1  0  0  0  0
  7 17  1  0  0  0  0
 23 24  1  0  0  0  0
 23 25  1  0  0  0  0
 23 26  1  0  0  0  0
 21 22  1  0  0  0  0
 21 23  1  0  0  0  0
M  END
$$$$
default_name
  -OEChem-11182114113D

 26 26  0     1  0  0  0  0  0999 V2000
   -1.8446   -3.5060   -0.3010 H   0  0  0  0  0  0  0  0  0  0  0  0
   -2.0746   -2.4490   -0.4240 C   0  0  0  0  0  0  0  0  0  0  0  0
   -2.6906   -2.1160    0.4090 H   0  0  0  0  0  0  0  0  0  0  0  0
   -2.5986   -2.2980   -1.3650 H   0  0  0  0  0  0  0  0  0  0  0  0
   -0.7756   -1.6630   -0.4350 C   0  0  0  0  0  0  0  0  0  0  0  0
    0.2844   -2.2800   -0.4550 O   0  0  0  0  0  0  0  0  0  0  0  0
   -0.8246   -0.3180   -0.4350 N   0  0  0  0  0  0  0  0  0  0  0  0
   -2.0106    0.5080   -0.5910 C   0  0  0  0  0  0  0  0  0  0  0  0
   -2.9830    0.1578   -0.2410 H   0  0  0  0  0  0  0  0  0  0  0  0
   -2.1351    1.2455   -1.3831 H   0  0  0  0  0  0  0  0  0  0  0  0
   -1.2272    1.1176    0.5697 C   0  0  0  0  0  0  0  0  0  0  0  0
   -0.8237    0.3336    1.2124 H   0  0  0  0  0  0  0  0  0  0  0  0
   -1.8931    1.7741    1.1306 H   0  0  0  0  0  0  0  0  0  0  0  0
   -0.1209    1.9420   -0.0885 C   0  0  0  0  0  0  0  0  0  0  0  0
    0.5927    2.4617    0.5542 H   0  0  0  0  0  0  0  0  0  0  0  0
   -0.2955    2.5163   -0.9982 H   0  0  0  0  0  0  0  0  0  0  0  0
    0.3724    0.5200   -0.4020 C   0  0  1  0  0  0  0  0  0  0  0  0
    0.8239    0.5134   -1.3943 H   0  0  0  0  0  0  0  0  0  0  0  0
    1.3983    0.0272    0.6323 C   0  0  0  0  0  0  0  0  0  0  0  0
    1.0628   -0.7543    1.5200 O   0  0  0  0  0  0  0  0  0  0  0  0
    2.6401    0.5178    0.5381 N   0  0  0  0  0  0  0  0  0  0  0  0
    2.8519    1.1066   -0.2514 H   0  0  0  0  0  0  0  0  0  0  0  0
    3.7295    0.1604    1.4436 C   0  0  0  0  0  0  0  0  0  0  0  0
    3.9658   -0.8996    1.3287 H   0  0  0  0  0  0  0  0  0  0  0  0
    4.6168    0.7542    1.2218 H   0  0  0  0  0  0  0  0  0  0  0  0
    3.4241    0.3371    2.4772 H   0  0  0  0  0  0  0  0  0  0  0  0
  5  6  2  0  0  0  0
  5  7  1  0  0  0  0
  2  3  1  0  0  0  0
  2  4  1  0  0  0  0
  2  5  1  0  0  0  0
  1  2  1  0  0  0  0
 19 20  2  0  0  0  0
 19 21  1  0  0  0  0
 17 18  1  0  0  0  0
 17 19  1  0  0  0  0
 14 15  1  0  0  0  0
 14 16  1  0  0  0  0
 14 17  1  0  0  0  0
 11 12  1  0  0  0  0
 11 13  1  0  0  0  0
 11 14  1  0  0  0  0
  8  9  1  0  0  0  0
  8 10  1  0  0  0  0
  8 11  1  0  0  0  0
  7  8  1  0  0  0  0
  7 17  1  0  0  0  0
 23 24  1  0  0  0  0
 23 25  1  0  0  0  0
 23 26  1  0  0  0  0
 21 22  1  0  0  0  0
 21 23  1  0  0  0  0
M  END
$$$$
default_name
  -OEChem-11182114113D

 26 26  0     1  0  0  0  0  0999 V2000
   -1.8446   -3.5060   -0.3010 H   0  0  0  0  0  0  0  0  0  0  0  0
   -2.0746   -2.4490   -0.4240 C   0  0  0  0  0  0  0  0  0  0  0  0
   -2.6906   -2.1160    0.4090 H   0  0  0  0  0  0  0  0  0  0  0  0
   -2.5986   -2.2980   -1.3650 H   0  0  0  0  0  0  0  0  0  0  0  0
   -0.7756   -1.6630   -0.4350 C   0  0  0  0  0  0  0  0  0  0  0  0
    0.2844   -2.2800   -0.4550 O   0  0  0  0  0  0  0  0  0  0  0  0
   -0.8246   -0.3180   -0.4350 N   0  0  0  0  0  0  0  0  0  0  0  0
   -2.0106    0.5080   -0.5910 C   0  0  0  0  0  0  0  0  0  0  0  0
   -2.9830    0.1578   -0.2410 H   0  0  0  0  0  0  0  0  0  0  0  0
   -2.1351    1.2455   -1.3831 H   0  0  0  0  0  0  0  0  0  0  0  0
   -1.2272    1.1176    0.5697 C   0  0  0  0  0  0  0  0  0  0  0  0
   -0.8237    0.3336    1.2124 H   0  0  0  0  0  0  0  0  0  0  0  0
   -1.8931    1.7741    1.1306 H   0  0  0  0  0  0  0  0  0  0  0  0
   -0.1209    1.9420   -0.0885 C   0  0  0  0  0  0  0  0  0  0  0  0
    0.5927    2.4617    0.5542 H   0  0  0  0  0  0  0  0  0  0  0  0
   -0.2955    2.5163   -0.9982 H   0  0  0  0  0  0  0  0  0  0  0  0
    0.3724    0.5200   -0.4020 C   0  0  1  0  0  0  0  0  0  0  0  0
    0.8239    0.5134   -1.3943 H   0  0  0  0  0  0  0  0  0  0  0  0
    1.3983    0.0272    0.6323 C   0  0  0  0  0  0  0  0  0  0  0  0
    1.1508   -0.9462    1.3412 O   0  0  0  0  0  0  0  0  0  0  0  0
    2.5340    0.7269    0.7429 N   0  0  0  0  0  0  0  0  0  0  0  0
    2.6885    1.4752    0.0863 H   0  0  0  0  0  0  0  0  0  0  0  0
    3.6064    0.3991    1.6795 C   0  0  0  0  0  0  0  0  0  0  0  0
    4.0382   -0.5684    1.4146 H   0  0  0  0  0  0  0  0  0  0  0  0
    4.3842    1.1627    1.6471 H   0  0  0  0  0  0  0  0  0  0  0  0
    3.2048    0.3334    2.6930 H   0  0  0  0  0  0  0  0  0  0  0  0
  5  6  2  0  0  0  0
  5  7  1  0  0  0  0
  2  3  1  0  0  0  0
  2  4  1  0  0  0  0
  2  5  1  0  0  0  0
  1  2  1  0  0  0  0
 19 20  2  0  0  0  0
 19 21  1  0  0  0  0
 17 18  1  0  0  0  0
 17 19  1  0  0  0  0
 14 15  1  0  0  0  0
 14 16  1  0  0  0  0
 14 17  1  0  0  0  0
 11 12  1  0  0  0  0
 11 13  1  0  0  0  0
 11 14  1  0  0  0  0
  8  9  1  0  0  0  0
  8 10  1  0  0  0  0
  8 11  1  0  0  0  0
  7  8  1  0  0  0  0
  7 17  1  0  0  0  0
 23 24  1  0  0  0  0
 23 25  1  0  0  0  0
 23 26  1  0  0  0  0
 21 22  1  0  0  0  0
 21 23  1  0  0  0  0
M  END
$$$$
default_name
  -OEChem-11182114113D

 26 26  0     1  0  0  0  0  0999 V2000
   -1.8446   -3.5060   -0.3010 H   0  0  0  0  0  0  0  0  0  0  0  0
   -2.0746   -2.4490   -0.4240 C   0  0  0  0  0  0  0  0  0  0  0  0
   -2.6906   -2.1160    0.4090 H   0  0  0  0  0  0  0  0  0  0  0  0
   -2.5986   -2.2980   -1.3650 H   0  0  0  0  0  0  0  0  0  0  0  0
   -0.7756   -1.6630   -0.4350 C   0  0  0  0  0  0  0  0  0  0  0  0
    0.2844   -2.2800   -0.4550 O   0  0  0  0  0  0  0  0  0  0  0  0
   -0.8246   -0.3180   -0.4350 N   0  0  0  0  0  0  0  0  0  0  0  0
   -2.0106    0.5080   -0.5910 C   0  0  0  0  0  0  0  0  0  0  0  0
   -2.9830    0.1578   -0.2410 H   0  0  0  0  0  0  0  0  0  0  0  0
   -2.1351    1.2455   -1.3831 H   0  0  0  0  0  0  0  0  0  0  0  0
   -1.2272    1.1176    0.5697 C   0  0  0  0  0  0  0  0  0  0  0  0
   -0.8237    0.3336    1.2124 H   0  0  0  0  0  0  0  0  0  0  0  0
   -1.8931    1.7741    1.1306 H   0  0  0  0  0  0  0  0  0  0  0  0
   -0.1209    1.9420   -0.0885 C   0  0  0  0  0  0  0  0  0  0  0  0
    0.5927    2.4617    0.5542 H   0  0  0  0  0  0  0  0  0  0  0  0
   -0.2955    2.5163   -0.9982 H   0  0  0  0  0  0  0  0  0  0  0  0
    0.3724    0.5200   -0.4020 C   0  0  1  0  0  0  0  0  0  0  0  0
    0.8239    0.5134   -1.3943 H   0  0  0  0  0  0  0  0  0  0  0  0
    1.3983    0.0272    0.6323 C   0  0  0  0  0  0  0  0  0  0  0  0
    1.2841   -1.0853    1.1428 O   0  0  0  0  0  0  0  0  0  0  0  0
    2.3782    0.8750    0.9681 N   0  0  0  0  0  0  0  0  0  0  0  0
    2.4384    1.7443    0.4626 H   0  0  0  0  0  0  0  0  0  0  0  0
    3.4264    0.5675    1.9383 C   0  0  0  0  0  0  0  0  0  0  0  0
    4.0434   -0.2507    1.5608 H   0  0  0  0  0  0  0  0  0  0  0  0
    4.0531    1.4434    2.1091 H   0  0  0  0  0  0  0  0  0  0  0  0
    2.9757    0.2544    2.8826 H   0  0  0  0  0  0  0  0  0  0  0  0
  5  6  2  0  0  0  0
  5  7  1  0  0  0  0
  2  3  1  0  0  0  0
  2  4  1  0  0  0  0
  2  5  1  0  0  0  0
  1  2  1  0  0  0  0
 19 20  2  0  0  0  0
 19 21  1  0  0  0  0
 17 18  1  0  0  0  0
 17 19  1  0  0  0  0
 14 15  1  0  0  0  0
 14 16  1  0  0  0  0
 14 17  1  0  0  0  0
 11 12  1  0  0  0  0
 11 13  1  0  0  0  0
 11 14  1  0  0  0  0
  8  9  1  0  0  0  0
  8 10  1  0  0  0  0
  8 11  1  0  0  0  0
  7  8  1  0  0  0  0
  7 17  1  0  0  0  0
 23 24  1  0  0  0  0
 23 25  1  0  0  0  0
 23 26  1  0  0  0  0
 21 22  1  0  0  0  0
 21 23  1  0  0  0  0
M  END
$$$$
default_name
  -OEChem-11182114113D

 26 26  0     1  0  0  0  0  0999 V2000
   -1.8446   -3.5060   -0.3010 H   0  0  0  0  0  0  0  0  0  0  0  0
   -2.0746   -2.4490   -0.4240 C   0  0  0  0  0  0  0  0  0  0  0  0
   -2.6906   -2.1160    0.4090 H   0  0  0  0  0  0  0  0  0  0  0  0
   -2.5986   -2.2980   -1.3650 H   0  0  0  0  0  0  0  0  0  0  0  0
   -0.7756   -1.6630   -0.4350 C   0  0  0  0  0  0  0  0  0  0  0  0
    0.2844   -2.2800   -0.4550 O   0  0  0  0  0  0  0  0  0  0  0  0
   -0.8246   -0.3180   -0.4350 N   0  0  0  0  0  0  0  0  0  0  0  0
   -2.0106    0.5080   -0.5910 C   0  0  0  0  0  0  0  0  0  0  0  0
   -2.9830    0.1578   -0.2410 H   0  0  0  0  0  0  0  0  0  0  0  0
   -2.1351    1.2455   -1.3831 H   0  0  0  0  0  0  0  0  0  0  0  0
   -1.2272    1.1176    0.5697 C   0  0  0  0  0  0  0  0  0  0  0  0
   -0.8237    0.3336    1.2124 H   0  0  0  0  0  0  0  0  0  0  0  0
   -1.8931    1.7741    1.1306 H   0  0  0  0  0  0  0  0  0  0  0  0
   -0.1209    1.9420   -0.0885 C   0  0  0  0  0  0  0  0  0  0  0  0
    0.5927    2.4617    0.5542 H   0  0  0  0  0  0  0  0  0  0  0  0
   -0.2955    2.5163   -0.9982 H   0  0  0  0  0  0  0  0  0  0  0  0
    0.3724    0.5200   -0.4020 C   0  0  1  0  0  0  0  0  0  0  0  0
    0.8239    0.5134   -1.3943 H   0  0  0  0  0  0  0  0  0  0  0  0
    1.3983    0.0272    0.6323 C   0  0  0  0  0  0  0  0  0  0  0  0
    1.4535   -1.1622    0.9381 O   0  0  0  0  0  0  0  0  0  0  0  0
    2.1832    0.9521    1.1982 N   0  0  0  0  0  0  0  0  0  0  0  0
    2.1188    1.8959    0.8518 H   0  0  0  0  0  0  0  0  0  0  0  0
    3.2017    0.6542    2.2024 C   0  0  0  0  0  0  0  0  0  0  0  0
    3.9810    0.0318    1.7574 H   0  0  0  0  0  0  0  0  0  0  0  0
    3.6462    1.5770    2.5764 H   0  0  0  0  0  0  0  0  0  0  0  0
    2.7524    0.1055    3.0331 H   0  0  0  0  0  0  0  0  0  0  0  0
  5  6  2  0  0  0  0
  5  7  1  0  0  0  0
  2  3  1  0  0  0  0
  2  4  1  0  0  0  0
  2  5  1  0  0  0  0
  1  2  1  0  0  0  0
 19 20  2  0  0  0  0
 19 21  1  0  0  0  0
 17 18  1  0  0  0  0
 17 19  1  0  0  0  0
 14 15  1  0  0  0  0
 14 16  1  0  0  0  0
 14 17  1  0  0  0  0
 11 12  1  0  0  0  0
 11 13  1  0  0  0  0
 11 14  1  0  0  0  0
  8  9  1  0  0  0  0
  8 10  1  0  0  0  0
  8 11  1  0  0  0  0
  7  8  1  0  0  0  0
  7 17  1  0  0  0  0
 23 24  1  0  0  0  0
 23 25  1  0  0  0  0
 23 26  1  0  0  0  0
 21 22  1  0  0  0  0
 21 23  1  0  0  0  0
M  END
$$$$
default_name
  -OEChem-11182114113D

 26 26  0     1  0  0  0  0  0999 V2000
   -1.8446   -3.5060   -0.3010 H   0  0  0  0  0  0  0  0  0  0  0  0
   -2.0746   -2.4490   -0.4240 C   0  0  0  0  0  0  0  0  0  0  0  0
   -2.6906   -2.1160    0.4090 H   0  0  0  0  0  0  0  0  0  0  0  0
   -2.5986   -2.2980   -1.3650 H   0  0  0  0  0  0  0  0  0  0  0  0
   -0.7756   -1.6630   -0.4350 C   0  0  0  0  0  0  0  0  0  0  0  0
    0.2844   -2.2800   -0.4550 O   0  0  0  0  0  0  0  0  0  0  0  0
   -0.8246   -0.3180   -0.4350 N   0  0  0  0  0  0  0  0  0  0  0  0
   -2.0106    0.5080   -0.5910 C   0  0  0  0  0  0  0  0  0  0  0  0
   -2.9830    0.1578   -0.2410 H   0  0  0  0  0  0  0  0  0  0  0  0
   -2.1351    1.2455   -1.3831 H   0  0  0  0  0  0  0  0  0  0  0  0
   -1.2272    1.1176    0.5697 C   0  0  0  0  0  0  0  0  0  0  0  0
   -0.8237    0.3336    1.2124 H   0  0  0  0  0  0  0  0  0  0  0  0
   -1.8931    1.7741    1.1306 H   0  0  0  0  0  0  0  0  0  0  0  0
   -0.1209    1.9420   -0.0885 C   0  0  0  0  0  0  0  0  0  0  0  0
    0.5927    2.4617    0.5542 H   0  0  0  0  0  0  0  0  0  0  0  0
   -0.2955    2.5163   -0.9982 H   0  0  0  0  0  0  0  0  0  0  0  0
    0.3724    0.5200   -0.4020 C   0  0  1  0  0  0  0  0  0  0  0  0
    0.8239    0.5134   -1.3943 H   0  0  0  0  0  0  0  0  0  0  0  0
    1.3983    0.0272    0.6323 C   0  0  0  0  0  0  0  0  0  0  0  0
    1.6475   -1.1717    0.7412 O   0  0  0  0  0  0  0  0  0  0  0  0
    1.9623    0.9529    1.4176 N   0  0  0  0  0  0  0  0  0  0  0  0
    1.7515    1.9194    1.2274 H   0  0  0  0  0  0  0  0  0  0  0  0
    2.9477    0.6532    2.4539 C   0  0  0  0  0  0  0  0  0  0  0  0
    3.8552    0.2599    1.9908 H   0  0  0  0  0  0  0  0  0  0  0  0
    3.1912    1.5546    3.0171 H   0  0  0  0  0  0  0  0  0  0  0  0
    2.5502   -0.1031    3.1342 H   0  0  0  0  0  0  0  0  0  0  0  0
  5  6  2  0  0  0  0
  5  7  1  0  0  0  0
  2  3  1  0  0  0  0
  2  4  1  0  0  0  0
  2  5  1  0  0  0  0
  1  2  1  0  0  0  0
 19 20  2  0  0  0  0
 19 21  1  0  0  0  0
 17 18  1  0  0  0  0
 17 19  1  0  0  0  0
 14 15  1  0  0  0  0
 14 16  1  0  0  0  0
 14 17  1  0  0  0  0
 11 12  1  0  0  0  0
 11 13  1  0  0  0  0
 11 14  1  0  0  0  0
  8  9  1  0  0  0  0
  8 10  1  0  0  0  0
  8 11  1  0  0  0  0
  7  8  1  0  0  0  0
  7 17  1  0  0  0  0
 23 24  1  0  0  0  0
 23 25  1  0  0  0  0
 23 26  1  0  0  0  0
 21 22  1  0  0  0  0
 21 23  1  0  0  0  0
M  END
$$$$
default_name
  -OEChem-11182114113D

 26 26  0     1  0  0  0  0  0999 V2000
   -1.8446   -3.5060   -0.3010 H   0  0  0  0  0  0  0  0  0  0  0  0
   -2.0746   -2.4490   -0.4240 C   0  0  0  0  0  0  0  0  0  0  0  0
   -2.6906   -2.1160    0.4090 H   0  0  0  0  0  0  0  0  0  0  0  0
   -2.5986   -2.2980   -1.3650 H   0  0  0  0  0  0  0  0  0  0  0  0
   -0.7756   -1.6630   -0.4350 C   0  0  0  0  0  0  0  0  0  0  0  0
    0.2844   -2.2800   -0.4550 O   0  0  0  0  0  0  0  0  0  0  0  0
   -0.8246   -0.3180   -0.4350 N   0  0  0  0  0  0  0  0  0  0  0  0
   -2.0106    0.5080   -0.5910 C   0  0  0  0  0  0  0  0  0  0  0  0
   -2.9830    0.1578   -0.2410 H   0  0  0  0  0  0  0  0  0  0  0  0
   -2.1351    1.2455   -1.3831 H   0  0  0  0  0  0  0  0  0  0  0  0
   -1.2272    1.1176    0.5697 C   0  0  0  0  0  0  0  0  0  0  0  0
   -0.8237    0.3336    1.2124 H   0  0  0  0  0  0  0  0  0  0  0  0
   -1.8931    1.7741    1.1306 H   0  0  0  0  0  0  0  0  0  0  0  0
   -0.1209    1.9420   -0.0885 C   0  0  0  0  0  0  0  0  0  0  0  0
    0.5927    2.4617    0.5542 H   0  0  0  0  0  0  0  0  0  0  0  0
   -0.2955    2.5163   -0.9982 H   0  0  0  0  0  0  0  0  0  0  0  0
    0.3724    0.5200   -0.4020 C   0  0  1  0  0  0  0  0  0  0  0  0
    0.8239    0.5134   -1.3943 H   0  0  0  0  0  0  0  0  0  0  0  0
    1.3983    0.0272    0.6323 C   0  0  0  0  0  0  0  0  0  0  0  0
    1.8528   -1.1131    0.5655 O   0  0  0  0  0  0  0  0  0  0  0  0
    1.7307    0.8773    1.6114 N   0  0  0  0  0  0  0  0  0  0  0  0
    1.3614    1.8134    1.5637 H   0  0  0  0  0  0  0  0  0  0  0  0
    2.6816    0.5646    2.6756 C   0  0  0  0  0  0  0  0  0  0  0  0
    3.6746    0.4181    2.2452 H   0  0  0  0  0  0  0  0  0  0  0  0
    2.7189    1.3777    3.4012 H   0  0  0  0  0  0  0  0  0  0  0  0
    2.3829   -0.3574    3.1791 H   0  0  0  0  0  0  0  0  0  0  0  0
  5  6  2  0  0  0  0
  5  7  1  0  0  0  0
  2  3  1  0  0  0  0
  2  4  1  0  0  0  0
  2  5  1  0  0  0  0
  1  2  1  0  0  0  0
 19 20  2  0  0  0  0
 19 21  1  0  0  0  0
 17 18  1  0  0  0  0
 17 19  1  0  0  0  0
 14 15  1  0  0  0  0
 14 16  1  0  0  0  0
 14 17  1  0  0  0  0
 11 12  1  0  0  0  0
 11 13  1  0  0  0  0
 11 14  1  0  0  0  0
  8  9  1  0  0  0  0
  8 10  1  0  0  0  0
  8 11  1  0  0  0  0
  7  8  1  0  0  0  0
  7 17  1  0  0  0  0
 23 24  1  0  0  0  0
 23 25  1  0  0  0  0
 23 26  1  0  0  0  0
 21 22  1  0  0  0  0
 21 23  1  0  0  0  0
M  END
$$$$
default_name
  -OEChem-11182114113D

 26 26  0     1  0  0  0  0  0999 V2000
   -1.8446   -3.5060   -0.3010 H   0  0  0  0  0  0  0  0  0  0  0  0
   -2.0746   -2.4490   -0.4240 C   0  0  0  0  0  0  0  0  0  0  0  0
   -2.6906   -2.1160    0.4090 H   0  0  0  0  0  0  0  0  0  0  0  0
   -2.5986   -2.2980   -1.3650 H   0  0  0  0  0  0  0  0  0  0  0  0
   -0.7756   -1.6630   -0.4350 C   0  0  0  0  0  0  0  0  0  0  0  0
    0.2844   -2.2800   -0.4550 O   0  0  0  0  0  0  0  0  0  0  0  0
   -0.8246   -0.3180   -0.4350 N   0  0  0  0  0  0  0  0  0  0  0  0
   -2.0106    0.5080   -0.5910 C   0  0  0  0  0  0  0  0  0  0  0  0
   -2.9830    0.1578   -0.2410 H   0  0  0  0  0  0  0  0  0  0  0  0
   -2.1351    1.2455   -1.3831 H   0  0  0  0  0  0  0  0  0  0  0  0
   -1.2272    1.1176    0.5697 C   0  0  0  0  0  0  0  0  0  0  0  0
   -0.8237    0.3336    1.2124 H   0  0  0  0  0  0  0  0  0  0  0  0
   -1.8931    1.7741    1.1306 H   0  0  0  0  0  0  0  0  0  0  0  0
   -0.1209    1.9420   -0.0885 C   0  0  0  0  0  0  0  0  0  0  0  0
    0.5927    2.4617    0.5542 H   0  0  0  0  0  0  0  0  0  0  0  0
   -0.2955    2.5163   -0.9982 H   0  0  0  0  0  0  0  0  0  0  0  0
    0.3724    0.5200   -0.4020 C   0  0  1  0  0  0  0  0  0  0  0  0
    0.8239    0.5134   -1.3943 H   0  0  0  0  0  0  0  0  0  0  0  0
    1.3983    0.0272    0.6323 C   0  0  0  0  0  0  0  0  0  0  0  0
    2.0555   -0.9903    0.4229 O   0  0  0  0  0  0  0  0  0  0  0  0
    1.5040    0.7305    1.7663 N   0  0  0  0  0  0  0  0  0  0  0  0
    0.9752    1.5849    1.8380 H   0  0  0  0  0  0  0  0  0  0  0  0
    2.4217    0.3945    2.8523 C   0  0  0  0  0  0  0  0  0  0  0  0
    3.4516    0.4955    2.5033 H   0  0  0  0  0  0  0  0  0  0  0  0
    2.2617    1.0583    3.7025 H   0  0  0  0  0  0  0  0  0  0  0  0
    2.2617   -0.6398    3.1647 H   0  0  0  0  0  0  0  0  0  0  0  0
  5  6  2  0  0  0  0
  5  7  1  0  0  0  0
  2  3  1  0  0  0  0
  2  4  1  0  0  0  0
  2  5  1  0  0  0  0
  1  2  1  0  0  0  0
 19 20  2  0  0  0  0
 19 21  1  0  0  0  0
 17 18  1  0  0  0  0
 17 19  1  0  0  0  0
 14 15  1  0  0  0  0
 14 16  1  0  0  0  0
 14 17  1  0  0  0  0
 11 12  1  0  0  0  0
 11 13  1  0  0  0  0
 11 14  1  0  0  0  0
  8  9  1  0  0  0  0
  8 10  1  0  0  0  0
  8 11  1  0  0  0  0
  7  8  1  0  0  0  0
  7 17  1  0  0  0  0
 23 24  1  0  0  0  0
 23 25  1  0  0  0  0
 23 26  1  0  0  0  0
 21 22  1  0  0  0  0
 21 23  1  0  0  0  0
M  END
$$$$
default_name
  -OEChem-11182114113D

 26 26  0     1  0  0  0  0  0999 V2000
   -1.8446   -3.5060   -0.3010 H   0  0  0  0  0  0  0  0  0  0  0  0
   -2.0746   -2.4490   -0.4240 C   0  0  0  0  0  0  0  0  0  0  0  0
   -2.6906   -2.1160    0.4090 H   0  0  0  0  0  0  0  0  0  0  0  0
   -2.5986   -2.2980   -1.3650 H   0  0  0  0  0  0  0  0  0  0  0  0
   -0.7756   -1.6630   -0.4350 C   0  0  0  0  0  0  0  0  0  0  0  0
    0.2844   -2.2800   -0.4550 O   0  0  0  0  0  0  0  0  0  0  0  0
   -0.8246   -0.3180   -0.4350 N   0  0  0  0  0  0  0  0  0  0  0  0
   -2.0106    0.5080   -0.5910 C   0  0  0  0  0  0  0  0  0  0  0  0
   -2.9830    0.1578   -0.2410 H   0  0  0  0  0  0  0  0  0  0  0  0
   -2.1351    1.2455   -1.3831 H   0  0  0  0  0  0  0  0  0  0  0  0
   -1.2272    1.1176    0.5697 C   0  0  0  0  0  0  0  0  0  0  0  0
   -0.8237    0.3336    1.2124 H   0  0  0  0  0  0  0  0  0  0  0  0
   -1.8931    1.7741    1.1306 H   0  0  0  0  0  0  0  0  0  0  0  0
   -0.1209    1.9420   -0.0885 C   0  0  0  0  0  0  0  0  0  0  0  0
    0.5927    2.4617    0.5542 H   0  0  0  0  0  0  0  0  0  0  0  0
   -0.2955    2.5163   -0.9982 H   0  0  0  0  0  0  0  0  0  0  0  0
    0.3724    0.5200   -0.4020 C   0  0  1  0  0  0  0  0  0  0  0  0
    0.8239    0.5134   -1.3943 H   0  0  0  0  0  0  0  0  0  0  0  0
    1.3983    0.0272    0.6323 C   0  0  0  0  0  0  0  0  0  0  0  0
    2.2418   -0.8119    0.3231 O   0  0  0  0  0  0  0  0  0  0  0  0
    1.2978    0.5225    1.8718 N   0  0  0  0  0  0  0  0  0  0  0  0
    0.6191    1.2497    2.0314 H   0  0  0  0  0  0  0  0  0  0  0  0
    2.1856    0.1543    2.9721 C   0  0  0  0  0  0  0  0  0  0  0  0
    3.2013    0.4869    2.7475 H   0  0  0  0  0  0  0  0  0  0  0  0
    1.8508    0.6182    3.9005 H   0  0  0  0  0  0  0  0  0  0  0  0
    2.1951   -0.9312    3.0920 H   0  0  0  0  0  0  0  0  0  0  0  0
  5  6  2  0  0  0  0
  5  7  1  0  0  0  0
  2  3  1  0  0  0  0
  2  4  1  0  0  0  0
  2  5  1  0  0  0  0
  1  2  1  0  0  0  0
 19 20  2  0  0  0  0
 19 21  1  0  0  0  0
 17 18  1  0  0  0  0
 17 19  1  0  0  0  0
 14 15  1  0  0  0  0
 14 16  1  0  0  0  0
 14 17  1  0  0  0  0
 11 12  1  0  0  0  0
 11 13  1  0  0  0  0
 11 14  1  0  0  0  0
  8  9  1  0  0  0  0
  8 10  1  0  0  0  0
  8 11  1  0  0  0  0
  7  8  1  0  0  0  0
  7 17  1  0  0  0  0
 23 24  1  0  0  0  0
 23 25  1  0  0  0  0
 23 26  1  0  0  0  0
 21 22  1  0  0  0  0
 21 23  1  0  0  0  0
M  END
$$$$
default_name
  -OEChem-11182114113D

 26 26  0     1  0  0  0  0  0999 V2000
   -1.8446   -3.5060   -0.3010 H   0  0  0  0  0  0  0  0  0  0  0  0
   -2.0746   -2.4490   -0.4240 C   0  0  0  0  0  0  0  0  0  0  0  0
   -2.6906   -2.1160    0.4090 H   0  0  0  0  0  0  0  0  0  0  0  0
   -2.5986   -2.2980   -1.3650 H   0  0  0  0  0  0  0  0  0  0  0  0
   -0.7756   -1.6630   -0.4350 C   0  0  0  0  0  0  0  0  0  0  0  0
    0.2844   -2.2800   -0.4550 O   0  0  0  0  0  0  0  0  0  0  0  0
   -0.8246   -0.3180   -0.4350 N   0  0  0  0  0  0  0  0  0  0  0  0
   -2.0106    0.5080   -0.5910 C   0  0  0  0  0  0  0  0  0  0  0  0
   -2.9830    0.1578   -0.2410 H   0  0  0  0  0  0  0  0  0  0  0  0
   -2.1351    1.2455   -1.3831 H   0  0  0  0  0  0  0  0  0  0  0  0
   -1.2272    1.1176    0.5697 C   0  0  0  0  0  0  0  0  0  0  0  0
   -0.8237    0.3336    1.2124 H   0  0  0  0  0  0  0  0  0  0  0  0
   -1.8931    1.7741    1.1306 H   0  0  0  0  0  0  0  0  0  0  0  0
   -0.1209    1.9420   -0.0885 C   0  0  0  0  0  0  0  0  0  0  0  0
    0.5927    2.4617    0.5542 H   0  0  0  0  0  0  0  0  0  0  0  0
   -0.2955    2.5163   -0.9982 H   0  0  0  0  0  0  0  0  0  0  0  0
    0.3724    0.5200   -0.4020 C   0  0  1  0  0  0  0  0  0  0  0  0
    0.8239    0.5134   -1.3943 H   0  0  0  0  0  0  0  0  0  0  0  0
    1.3983    0.0272    0.6323 C   0  0  0  0  0  0  0  0  0  0  0  0
    2.3990   -0.5899    0.2730 O   0  0  0  0  0  0  0  0  0  0  0  0
    1.1260    0.2675    1.9206 N   0  0  0  0  0  0  0  0  0  0  0  0
    0.3175    0.8306    2.1309 H   0  0  0  0  0  0  0  0  0  0  0  0
    1.9894   -0.1394    3.0268 C   0  0  0  0  0  0  0  0  0  0  0  0
    2.9408    0.3928    2.9611 H   0  0  0  0  0  0  0  0  0  0  0  0
    1.5140    0.0873    3.9816 H   0  0  0  0  0  0  0  0  0  0  0  0
    2.1874   -1.2118    2.9659 H   0  0  0  0  0  0  0  0  0  0  0  0
  5  6  2  0  0  0  0
  5  7  1  0  0  0  0
  2  3  1  0  0  0  0
  2  4  1  0  0  0  0
  2  5  1  0  0  0  0
  1  2  1  0  0  0  0
 19 20  2  0  0  0  0
 19 21  1  0  0  0  0
 17 18  1  0  0  0  0
 17 19  1  0  0  0  0
 14 15  1  0  0  0  0
 14 16  1  0  0  0  0
 14 17  1  0  0  0  0
 11 12  1  0  0  0  0
 11 13  1  0  0  0  0
 11 14  1  0  0  0  0
  8  9  1  0  0  0  0
  8 10  1  0  0  0  0
  8 11  1  0  0  0  0
  7  8  1  0  0  0  0
  7 17  1  0  0  0  0
 23 24  1  0  0  0  0
 23 25  1  0  0  0  0
 23 26  1  0  0  0  0
 21 22  1  0  0  0  0
 21 23  1  0  0  0  0
M  END
$$$$
default_name
  -OEChem-11182114113D

 26 26  0     1  0  0  0  0  0999 V2000
   -1.8446   -3.5060   -0.3010 H   0  0  0  0  0  0  0  0  0  0  0  0
   -2.0746   -2.4490   -0.4240 C   0  0  0  0  0  0  0  0  0  0  0  0
   -2.6906   -2.1160    0.4090 H   0  0  0  0  0  0  0  0  0  0  0  0
   -2.5986   -2.2980   -1.3650 H   0  0  0  0  0  0  0  0  0  0  0  0
   -0.7756   -1.6630   -0.4350 C   0  0  0  0  0  0  0  0  0  0  0  0
    0.2844   -2.2800   -0.4550 O   0  0  0  0  0  0  0  0  0  0  0  0
   -0.8246   -0.3180   -0.4350 N   0  0  0  0  0  0  0  0  0  0  0  0
   -2.0106    0.5080   -0.5910 C   0  0  0  0  0  0  0  0  0  0  0  0
   -2.9830    0.1578   -0.2410 H   0  0  0  0  0  0  0  0  0  0  0  0
   -2.1351    1.2455   -1.3831 H   0  0  0  0  0  0  0  0  0  0  0  0
   -1.2272    1.1176    0.5697 C   0  0  0  0  0  0  0  0  0  0  0  0
   -0.8237    0.3336    1.2124 H   0  0  0  0  0  0  0  0  0  0  0  0
   -1.8931    1.7741    1.1306 H   0  0  0  0  0  0  0  0  0  0  0  0
   -0.1209    1.9420   -0.0885 C   0  0  0  0  0  0  0  0  0  0  0  0
    0.5927    2.4617    0.5542 H   0  0  0  0  0  0  0  0  0  0  0  0
   -0.2955    2.5163   -0.9982 H   0  0  0  0  0  0  0  0  0  0  0  0
    0.3724    0.5200   -0.4020 C   0  0  1  0  0  0  0  0  0  0  0  0
    0.8239    0.5134   -1.3943 H   0  0  0  0  0  0  0  0  0  0  0  0
    1.3983    0.0272    0.6323 C   0  0  0  0  0  0  0  0  0  0  0  0
    2.5163   -0.3395    0.2760 O   0  0  0  0  0  0  0  0  0  0  0  0
    1.0004   -0.0171    1.9096 N   0  0  0  0  0  0  0  0  0  0  0  0
    0.0909    0.3560    2.1296 H   0  0  0  0  0  0  0  0  0  0  0  0
    1.8465   -0.4667    3.0126 C   0  0  0  0  0  0  0  0  0  0  0  0
    2.6878    0.2197    3.1295 H   0  0  0  0  0  0  0  0  0  0  0  0
    1.2743   -0.4981    3.9404 H   0  0  0  0  0  0  0  0  0  0  0  0
    2.2393   -1.4623    2.7950 H   0  0  0  0  0  0  0  0  0  0  0  0
  5  6  2  0  0  0  0
  5  7  1  0  0  0  0
  2  3  1  0  0  0  0
  2  4  1  0  0  0  0
  2  5  1  0  0  0  0
  1  2  1  0  0  0  0
 19 20  2  0  0  0  0
 19 21  1  0  0  0  0
 17 18  1  0  0  0  0
 17 19  1  0  0  0  0
 14 15  1  0  0  0  0
 14 16  1  0  0  0  0
 14 17  1  0  0  0  0
 11 12  1  0  0  0  0
 11 13  1  0  0  0  0
 11 14  1  0  0  0  0
  8  9  1  0  0  0  0
  8 10  1  0  0  0  0
  8 11  1  0  0  0  0
  7  8  1  0  0  0  0
  7 17  1  0  0  0  0
 23 24  1  0  0  0  0
 23 25  1  0  0  0  0
 23 26  1  0  0  0  0
 21 22  1  0  0  0  0
 21 23  1  0  0  0  0
M  END
$$$$
default_name
  -OEChem-11182114113D

 26 26  0     1  0  0  0  0  0999 V2000
   -1.8446   -3.5060   -0.3010 H   0  0  0  0  0  0  0  0  0  0  0  0
   -2.0746   -2.4490   -0.4240 C   0  0  0  0  0  0  0  0  0  0  0  0
   -2.6906   -2.1160    0.4090 H   0  0  0  0  0  0  0  0  0  0  0  0
   -2.5986   -2.2980   -1.3650 H   0  0  0  0  0  0  0  0  0  0  0  0
   -0.7756   -1.6630   -0.4350 C   0  0  0  0  0  0  0  0  0  0  0  0
    0.2844   -2.2800   -0.4550 O   0  0  0  0  0  0  0  0  0  0  0  0
   -0.8246   -0.3180   -0.4350 N   0  0  0  0  0  0  0  0  0  0  0  0
   -2.0106    0.5080   -0.5910 C   0  0  0  0  0  0  0  0  0  0  0  0
   -2.9830    0.1578   -0.2410 H   0  0  0  0  0  0  0  0  0  0  0  0
   -2.1351    1.2455   -1.3831 H   0  0  0  0  0  0  0  0  0  0  0  0
   -1.2272    1.1176    0.5697 C   0  0  0  0  0  0  0  0  0  0  0  0
   -0.8237    0.3336    1.2124 H   0  0  0  0  0  0  0  0  0  0  0  0
   -1.8931    1.7741    1.1306 H   0  0  0  0  0  0  0  0  0  0  0  0
   -0.1209    1.9420   -0.0885 C   0  0  0  0  0  0  0  0  0  0  0  0
    0.5927    2.4617    0.5542 H   0  0  0  0  0  0  0  0  0  0  0  0
   -0.2955    2.5163   -0.9982 H   0  0  0  0  0  0  0  0  0  0  0  0
    0.3724    0.5200   -0.4020 C   0  0  1  0  0  0  0  0  0  0  0  0
    0.8239    0.5134   -1.3943 H   0  0  0  0  0  0  0  0  0  0  0  0
    1.3983    0.0272    0.6323 C   0  0  0  0  0  0  0  0  0  0  0  0
    2.5857   -0.0776    0.3318 O   0  0  0  0  0  0  0  0  0  0  0  0
    0.9296   -0.3120    1.8393 N   0  0  0  0  0  0  0  0  0  0  0  0
   -0.0453   -0.1416    2.0276 H   0  0  0  0  0  0  0  0  0  0  0  0
    1.7666   -0.8053    2.9305 C   0  0  0  0  0  0  0  0  0  0  0  0
    2.4596   -0.0206    3.2414 H   0  0  0  0  0  0  0  0  0  0  0  0
    1.1482   -1.0981    3.7796 H   0  0  0  0  0  0  0  0  0  0  0  0
    2.3473   -1.6657    2.5911 H   0  0  0  0  0  0  0  0  0  0  0  0
  5  6  2  0  0  0  0
  5  7  1  0  0  0  0
  2  3  1  0  0  0  0
  2  4  1  0  0  0  0
  2  5  1  0  0  0  0
  1  2  1  0  0  0  0
 19 20  2  0  0  0  0
 19 21  1  0  0  0  0
 17 18  1  0  0  0  0
 17 19  1  0  0  0  0
 14 15  1  0  0  0  0
 14 16  1  0  0  0  0
 14 17  1  0  0  0  0
 11 12  1  0  0  0  0
 11 13  1  0  0  0  0
 11 14  1  0  0  0  0
  8  9  1  0  0  0  0
  8 10  1  0  0  0  0
  8 11  1  0  0  0  0
  7  8  1  0  0  0  0
  7 17  1  0  0  0  0
 23 24  1  0  0  0  0
 23 25  1  0  0  0  0
 23 26  1  0  0  0  0
 21 22  1  0  0  0  0
 21 23  1  0  0  0  0
M  END
$$$$
default_name
  -OEChem-11182114113D

 26 26  0     1  0  0  0  0  0999 V2000
   -1.8446   -3.5060   -0.3010 H   0  0  0  0  0  0  0  0  0  0  0  0
   -2.0746   -2.4490   -0.4240 C   0  0  0  0  0  0  0  0  0  0  0  0
   -2.6906   -2.1160    0.4090 H   0  0  0  0  0  0  0  0  0  0  0  0
   -2.5986   -2.2980   -1.3650 H   0  0  0  0  0  0  0  0  0  0  0  0
   -0.7756   -1.6630   -0.4350 C   0  0  0  0  0  0  0  0  0  0  0  0
    0.2844   -2.2800   -0.4550 O   0  0  0  0  0  0  0  0  0  0  0  0
   -0.8246   -0.3180   -0.4350 N   0  0  0  0  0  0  0  0  0  0  0  0
   -2.0106    0.5080   -0.5910 C   0  0  0  0  0  0  0  0  0  0  0  0
   -2.9830    0.1578   -0.2410 H   0  0  0  0  0  0  0  0  0  0  0  0
   -2.1351    1.2455   -1.3831 H   0  0  0  0  0  0  0  0  0  0  0  0
   -1.2272    1.1176    0.5697 C   0  0  0  0  0  0  0  0  0  0  0  0
   -0.8237    0.3336    1.2124 H   0  0  0  0  0  0  0  0  0  0  0  0
   -1.8931    1.7741    1.1306 H   0  0  0  0  0  0  0  0  0  0  0  0
   -0.1209    1.9420   -0.0885 C   0  0  0  0  0  0  0  0  0  0  0  0
    0.5927    2.4617    0.5542 H   0  0  0  0  0  0  0  0  0  0  0  0
   -0.2955    2.5163   -0.9982 H   0  0  0  0  0  0  0  0  0  0  0  0
    0.3724    0.5200   -0.4020 C   0  0  1  0  0  0  0  0  0  0  0  0
    0.8239    0.5134   -1.3943 H   0  0  0  0  0  0  0  0  0  0  0  0
    1.3983    0.0272    0.6323 C   0  0  0  0  0  0  0  0  0  0  0  0
    2.6026    0.1777    0.4367 O   0  0  0  0  0  0  0  0  0  0  0  0
    0.9184   -0.5971    1.7147 N   0  0  0  0  0  0  0  0  0  0  0  0
   -0.0817   -0.6284    1.8318 H   0  0  0  0  0  0  0  0  0  0  0  0
    1.7551   -1.1321    2.7862 C   0  0  0  0  0  0  0  0  0  0  0  0
    2.2717   -0.3117    3.2891 H   0  0  0  0  0  0  0  0  0  0  0  0
    1.1441   -1.6719    3.5103 H   0  0  0  0  0  0  0  0  0  0  0  0
    2.5039   -1.8083    2.3678 H   0  0  0  0  0  0  0  0  0  0  0  0
  5  6  2  0  0  0  0
  5  7  1  0  0  0  0
  2  3  1  0  0  0  0
  2  4  1  0  0  0  0
  2  5  1  0  0  0  0
  1  2  1  0  0  0  0
 19 20  2  0  0  0  0
 19 21  1  0  0  0  0
 17 18  1  0  0  0  0
 17 19  1  0  0  0  0
 14 15  1  0  0  0  0
 14 16  1  0  0  0  0
 14 17  1  0  0  0  0
 11 12  1  0  0  0  0
 11 13  1  0  0  0  0
 11 14  1  0  0  0  0
  8  9  1  0  0  0  0
  8 10  1  0  0  0  0
  8 11  1  0  0  0  0
  7  8  1  0  0  0  0
  7 17  1  0  0  0  0
 23 24  1  0  0  0  0
 23 25  1  0  0  0  0
 23 26  1  0  0  0  0
 21 22  1  0  0  0  0
 21 23  1  0  0  0  0
M  END
$$$$
default_name
  -OEChem-11182114113D

 26 26  0     1  0  0  0  0  0999 V2000
   -1.8446   -3.5060   -0.3010 H   0  0  0  0  0  0  0  0  0  0  0  0
   -2.0746   -2.4490   -0.4240 C   0  0  0  0  0  0  0  0  0  0  0  0
   -2.6906   -2.1160    0.4090 H   0  0  0  0  0  0  0  0  0  0  0  0
   -2.5986   -2.2980   -1.3650 H   0  0  0  0  0  0  0  0  0  0  0  0
   -0.7756   -1.6630   -0.4350 C   0  0  0  0  0  0  0  0  0  0  0  0
    0.2844   -2.2800   -0.4550 O   0  0  0  0  0  0  0  0  0  0  0  0
   -0.8246   -0.3180   -0.4350 N   0  0  0  0  0  0  0  0  0  0  0  0
   -2.0106    0.5080   -0.5910 C   0  0  0  0  0  0  0  0  0  0  0  0
   -2.9830    0.1578   -0.2410 H   0  0  0  0  0  0  0  0  0  0  0  0
   -2.1351    1.2455   -1.3831 H   0  0  0  0  0  0  0  0  0  0  0  0
   -1.2272    1.1176    0.5697 C   0  0  0  0  0  0  0  0  0  0  0  0
   -0.8237    0.3336    1.2124 H   0  0  0  0  0  0  0  0  0  0  0  0
   -1.8931    1.7741    1.1306 H   0  0  0  0  0  0  0  0  0  0  0  0
   -0.1209    1.9420   -0.0885 C   0  0  0  0  0  0  0  0  0  0  0  0
    0.5927    2.4617    0.5542 H   0  0  0  0  0  0  0  0  0  0  0  0
   -0.2955    2.5163   -0.9982 H   0  0  0  0  0  0  0  0  0  0  0  0
    0.3724    0.5200   -0.4020 C   0  0  1  0  0  0  0  0  0  0  0  0
    0.8239    0.5134   -1.3943 H   0  0  0  0  0  0  0  0  0  0  0  0
    1.3983    0.0272    0.6323 C   0  0  0  0  0  0  0  0  0  0  0  0
    2.5658    0.4092    0.5835 O   0  0  0  0  0  0  0  0  0  0  0  0
    0.9674   -0.8529    1.5441 N   0  0  0  0  0  0  0  0  0  0  0  0
   -0.0160   -1.0711    1.5557 H   0  0  0  0  0  0  0  0  0  0  0  0
    1.8129   -1.4248    2.5894 C   0  0  0  0  0  0  0  0  0  0  0  0
    2.1369   -0.6339    3.2692 H   0  0  0  0  0  0  0  0  0  0  0  0
    1.2624   -2.1804    3.1507 H   0  0  0  0  0  0  0  0  0  0  0  0
    2.6984   -1.8801    2.1406 H   0  0  0  0  0  0  0  0  0  0  0  0
  5  6  2  0  0  0  0
  5  7  1  0  0  0  0
  2  3  1  0  0  0  0
  2  4  1  0  0  0  0
  2  5  1  0  0  0  0
  1  2  1  0  0  0  0
 19 20  2  0  0  0  0
 19 21  1  0  0  0  0
 17 18  1  0  0  0  0
 17 19  1  0  0  0  0
 14 15  1  0  0  0  0
 14 16  1  0  0  0  0
 14 17  1  0  0  0  0
 11 12  1  0  0  0  0
 11 13  1  0  0  0  0
 11 14  1  0  0  0  0
  8  9  1  0  0  0  0
  8 10  1  0  0  0  0
  8 11  1  0  0  0  0
  7  8  1  0  0  0  0
  7 17  1  0  0  0  0
 23 24  1  0  0  0  0
 23 25  1  0  0  0  0
 23 26  1  0  0  0  0
 21 22  1  0  0  0  0
 21 23  1  0  0  0  0
M  END
$$$$
default_name
  -OEChem-11182114113D

 26 26  0     1  0  0  0  0  0999 V2000
   -1.8446   -3.5060   -0.3010 H   0  0  0  0  0  0  0  0  0  0  0  0
   -2.0746   -2.4490   -0.4240 C   0  0  0  0  0  0  0  0  0  0  0  0
   -2.6906   -2.1160    0.4090 H   0  0  0  0  0  0  0  0  0  0  0  0
   -2.5986   -2.2980   -1.3650 H   0  0  0  0  0  0  0  0  0  0  0  0
   -0.7756   -1.6630   -0.4350 C   0  0  0  0  0  0  0  0  0  0  0  0
    0.2844   -2.2800   -0.4550 O   0  0  0  0  0  0  0  0  0  0  0  0
   -0.8246   -0.3180   -0.4350 N   0  0  0  0  0  0  0  0  0  0  0  0
   -2.0106    0.5080   -0.5910 C   0  0  0  0  0  0  0  0  0  0  0  0
   -2.9830    0.1578   -0.2410 H   0  0  0  0  0  0  0  0  0  0  0  0
   -2.1351    1.2455   -1.3831 H   0  0  0  0  0  0  0  0  0  0  0  0
   -1.2272    1.1176    0.5697 C   0  0  0  0  0  0  0  0  0  0  0  0
   -0.8237    0.3336    1.2124 H   0  0  0  0  0  0  0  0  0  0  0  0
   -1.8931    1.7741    1.1306 H   0  0  0  0  0  0  0  0  0  0  0  0
   -0.1209    1.9420   -0.0885 C   0  0  0  0  0  0  0  0  0  0  0  0
    0.5927    2.4617    0.5542 H   0  0  0  0  0  0  0  0  0  0  0  0
   -0.2955    2.5163   -0.9982 H   0  0  0  0  0  0  0  0  0  0  0  0
    0.3724    0.5200   -0.4020 C   0  0  1  0  0  0  0  0  0  0  0  0
    0.8239    0.5134   -1.3943 H   0  0  0  0  0  0  0  0  0  0  0  0
    1.3983    0.0272    0.6323 C   0  0  0  0  0  0  0  0  0  0  0  0
    2.4778    0.6010    0.7622 O   0  0  0  0  0  0  0  0  0  0  0  0
    1.0735   -1.0619    1.3393 N   0  0  0  0  0  0  0  0  0  0  0  0
    0.1475   -1.4396    1.2180 H   0  0  0  0  0  0  0  0  0  0  0  0
    1.9360   -1.6635    2.3536 C   0  0  0  0  0  0  0  0  0  0  0  0
    2.0645   -0.9651    3.1833 H   0  0  0  0  0  0  0  0  0  0  0  0
    1.4950   -2.5889    2.7254 H   0  0  0  0  0  0  0  0  0  0  0  0
    2.9177   -1.8765    1.9249 H   0  0  0  0  0  0  0  0  0  0  0  0
  5  6  2  0  0  0  0
  5  7  1  0  0  0  0
  2  3  1  0  0  0  0
  2  4  1  0  0  0  0
  2  5  1  0  0  0  0
  1  2  1  0  0  0  0
 19 20  2  0  0  0  0
 19 21  1  0  0  0  0
 17 18  1  0  0  0  0
 17 19  1  0  0  0  0
 14 15  1  0  0  0  0
 14 16  1  0  0  0  0
 14 17  1  0  0  0  0
 11 12  1  0  0  0  0
 11 13  1  0  0  0  0
 11 14  1  0  0  0  0
  8  9  1  0  0  0  0
  8 10  1  0  0  0  0
  8 11  1  0  0  0  0
  7  8  1  0  0  0  0
  7 17  1  0  0  0  0
 23 24  1  0  0  0  0
 23 25  1  0  0  0  0
 23 26  1  0  0  0  0
 21 22  1  0  0  0  0
 21 23  1  0  0  0  0
M  END
$$$$
default_name
  -OEChem-11182114113D

 26 26  0     1  0  0  0  0  0999 V2000
   -1.8446   -3.5060   -0.3010 H   0  0  0  0  0  0  0  0  0  0  0  0
   -2.0746   -2.4490   -0.4240 C   0  0  0  0  0  0  0  0  0  0  0  0
   -2.6906   -2.1160    0.4090 H   0  0  0  0  0  0  0  0  0  0  0  0
   -2.5986   -2.2980   -1.3650 H   0  0  0  0  0  0  0  0  0  0  0  0
   -0.7756   -1.6630   -0.4350 C   0  0  0  0  0  0  0  0  0  0  0  0
    0.2844   -2.2800   -0.4550 O   0  0  0  0  0  0  0  0  0  0  0  0
   -0.8246   -0.3180   -0.4350 N   0  0  0  0  0  0  0  0  0  0  0  0
   -2.0106    0.5080   -0.5910 C   0  0  0  0  0  0  0  0  0  0  0  0
   -2.9830    0.1578   -0.2410 H   0  0  0  0  0  0  0  0  0  0  0  0
   -2.1351    1.2455   -1.3831 H   0  0  0  0  0  0  0  0  0  0  0  0
   -1.2272    1.1176    0.5697 C   0  0  0  0  0  0  0  0  0  0  0  0
   -0.8237    0.3336    1.2124 H   0  0  0  0  0  0  0  0  0  0  0  0
   -1.8931    1.7741    1.1306 H   0  0  0  0  0  0  0  0  0  0  0  0
   -0.1209    1.9420   -0.0885 C   0  0  0  0  0  0  0  0  0  0  0  0
    0.5927    2.4617    0.5542 H   0  0  0  0  0  0  0  0  0  0  0  0
   -0.2955    2.5163   -0.9982 H   0  0  0  0  0  0  0  0  0  0  0  0
    0.3724    0.5200   -0.4020 C   0  0  1  0  0  0  0  0  0  0  0  0
    0.8239    0.5134   -1.3943 H   0  0  0  0  0  0  0  0  0  0  0  0
    1.3983    0.0272    0.6323 C   0  0  0  0  0  0  0  0  0  0  0  0
    2.3445    0.7401    0.9607 O   0  0  0  0  0  0  0  0  0  0  0  0
    1.2294   -1.2100    1.1142 N   0  0  0  0  0  0  0  0  0  0  0  0
    0.3975   -1.7088    0.8417 H   0  0  0  0  0  0  0  0  0  0  0  0
    2.1161   -1.8320    2.0948 C   0  0  0  0  0  0  0  0  0  0  0  0
    2.0593   -1.2828    3.0371 H   0  0  0  0  0  0  0  0  0  0  0  0
    1.8260   -2.8695    2.2634 H   0  0  0  0  0  0  0  0  0  0  0  0
    3.1468   -1.7975    1.7353 H   0  0  0  0  0  0  0  0  0  0  0  0
  5  6  2  0  0  0  0
  5  7  1  0  0  0  0
  2  3  1  0  0  0  0
  2  4  1  0  0  0  0
  2  5  1  0  0  0  0
  1  2  1  0  0  0  0
 19 20  2  0  0  0  0
 19 21  1  0  0  0  0
 17 18  1  0  0  0  0
 17 19  1  0  0  0  0
 14 15  1  0  0  0  0
 14 16  1  0  0  0  0
 14 17  1  0  0  0  0
 11 12  1  0  0  0  0
 11 13  1  0  0  0  0
 11 14  1  0  0  0  0
  8  9  1  0  0  0  0
  8 10  1  0  0  0  0
  8 11  1  0  0  0  0
  7  8  1  0  0  0  0
  7 17  1  0  0  0  0
 23 24  1  0  0  0  0
 23 25  1  0  0  0  0
 23 26  1  0  0  0  0
 21 22  1  0  0  0  0
 21 23  1  0  0  0  0
M  END
$$$$
default_name
  -OEChem-11182114113D

 26 26  0     1  0  0  0  0  0999 V2000
   -1.8446   -3.5060   -0.3010 H   0  0  0  0  0  0  0  0  0  0  0  0
   -2.0746   -2.4490   -0.4240 C   0  0  0  0  0  0  0  0  0  0  0  0
   -2.6906   -2.1160    0.4090 H   0  0  0  0  0  0  0  0  0  0  0  0
   -2.5986   -2.2980   -1.3650 H   0  0  0  0  0  0  0  0  0  0  0  0
   -0.7756   -1.6630   -0.4350 C   0  0  0  0  0  0  0  0  0  0  0  0
    0.2844   -2.2800   -0.4550 O   0  0  0  0  0  0  0  0  0  0  0  0
   -0.8246   -0.3180   -0.4350 N   0  0  0  0  0  0  0  0  0  0  0  0
   -2.0106    0.5080   -0.5910 C   0  0  0  0  0  0  0  0  0  0  0  0
   -2.9830    0.1578   -0.2410 H   0  0  0  0  0  0  0  0  0  0  0  0
   -2.1351    1.2455   -1.3831 H   0  0  0  0  0  0  0  0  0  0  0  0
   -1.2272    1.1176    0.5697 C   0  0  0  0  0  0  0  0  0  0  0  0
   -0.8237    0.3336    1.2124 H   0  0  0  0  0  0  0  0  0  0  0  0
   -1.8931    1.7741    1.1306 H   0  0  0  0  0  0  0  0  0  0  0  0
   -0.1209    1.9420   -0.0885 C   0  0  0  0  0  0  0  0  0  0  0  0
    0.5927    2.4617    0.5542 H   0  0  0  0  0  0  0  0  0  0  0  0
   -0.2955    2.5163   -0.9982 H   0  0  0  0  0  0  0  0  0  0  0  0
    0.3724    0.5200   -0.4020 C   0  0  1  0  0  0  0  0  0  0  0  0
    0.8239    0.5134   -1.3943 H   0  0  0  0  0  0  0  0  0  0  0  0
    1.3983    0.0272    0.6323 C   0  0  0  0  0  0  0  0  0  0  0  0
    2.1751    0.8171    1.1653 O   0  0  0  0  0  0  0  0  0  0  0  0
    1.4244   -1.2871    0.8841 N   0  0  0  0  0  0  0  0  0  0  0  0
    0.7171   -1.8603    0.4526 H   0  0  0  0  0  0  0  0  0  0  0  0
    2.3407   -1.9186    1.8306 C   0  0  0  0  0  0  0  0  0  0  0  0
    2.1217   -1.5654    2.8405 H   0  0  0  0  0  0  0  0  0  0  0  0
    2.2329   -3.0032    1.7961 H   0  0  0  0  0  0  0  0  0  0  0  0
    3.3701   -1.6486    1.5848 H   0  0  0  0  0  0  0  0  0  0  0  0
  5  6  2  0  0  0  0
  5  7  1  0  0  0  0
  2  3  1  0  0  0  0
  2  4  1  0  0  0  0
  2  5  1  0  0  0  0
  1  2  1  0  0  0  0
 19 20  2  0  0  0  0
 19 21  1  0  0  0  0
 17 18  1  0  0  0  0
 17 19  1  0  0  0  0
 14 15  1  0  0  0  0
 14 16  1  0  0  0  0
 14 17  1  0  0  0  0
 11 12  1  0  0  0  0
 11 13  1  0  0  0  0
 11 14  1  0  0  0  0
  8  9  1  0  0  0  0
  8 10  1  0  0  0  0
  8 11  1  0  0  0  0
  7  8  1  0  0  0  0
  7 17  1  0  0  0  0
 23 24  1  0  0  0  0
 23 25  1  0  0  0  0
 23 26  1  0  0  0  0
 21 22  1  0  0  0  0
 21 23  1  0  0  0  0
M  END
$$$$
default_name
  -OEChem-11182114113D

 26 26  0     1  0  0  0  0  0999 V2000
   -1.8446   -3.5060   -0.3010 H   0  0  0  0  0  0  0  0  0  0  0  0
   -2.0746   -2.4490   -0.4240 C   0  0  0  0  0  0  0  0  0  0  0  0
   -2.6906   -2.1160    0.4090 H   0  0  0  0  0  0  0  0  0  0  0  0
   -2.5986   -2.2980   -1.3650 H   0  0  0  0  0  0  0  0  0  0  0  0
   -0.7756   -1.6630   -0.4350 C   0  0  0  0  0  0  0  0  0  0  0  0
    0.2844   -2.2800   -0.4550 O   0  0  0  0  0  0  0  0  0  0  0  0
   -0.8246   -0.3180   -0.4350 N   0  0  0  0  0  0  0  0  0  0  0  0
   -2.0106    0.5080   -0.5910 C   0  0  0  0  0  0  0  0  0  0  0  0
   -2.9830    0.1578   -0.2410 H   0  0  0  0  0  0  0  0  0  0  0  0
   -2.1351    1.2455   -1.3831 H   0  0  0  0  0  0  0  0  0  0  0  0
   -1.2272    1.1176    0.5697 C   0  0  0  0  0  0  0  0  0  0  0  0
   -0.8237    0.3336    1.2124 H   0  0  0  0  0  0  0  0  0  0  0  0
   -1.8931    1.7741    1.1306 H   0  0  0  0  0  0  0  0  0  0  0  0
   -0.1209    1.9420   -0.0885 C   0  0  0  0  0  0  0  0  0  0  0  0
    0.5927    2.4617    0.5542 H   0  0  0  0  0  0  0  0  0  0  0  0
   -0.2955    2.5163   -0.9982 H   0  0  0  0  0  0  0  0  0  0  0  0
    0.3724    0.5200   -0.4020 C   0  0  1  0  0  0  0  0  0  0  0  0
    0.8239    0.5134   -1.3943 H   0  0  0  0  0  0  0  0  0  0  0  0
    1.3983    0.0272    0.6323 C   0  0  0  0  0  0  0  0  0  0  0  0
    1.9811    0.8265    1.3623 O   0  0  0  0  0  0  0  0  0  0  0  0
    1.6452   -1.2879    0.6646 N   0  0  0  0  0  0  0  0  0  0  0  0
    1.0845   -1.8838    0.0770 H   0  0  0  0  0  0  0  0  0  0  0  0
    2.5947   -1.9176    1.5791 C   0  0  0  0  0  0  0  0  0  0  0  0
    2.2475   -1.7935    2.6071 H   0  0  0  0  0  0  0  0  0  0  0  0
    2.6880   -2.9808    1.3554 H   0  0  0  0  0  0  0  0  0  0  0  0
    3.5723   -1.4399    1.4836 H   0  0  0  0  0  0  0  0  0  0  0  0
  5  6  2  0  0  0  0
  5  7  1  0  0  0  0
  2  3  1  0  0  0  0
  2  4  1  0  0  0  0
  2  5  1  0  0  0  0
  1  2  1  0  0  0  0
 19 20  2  0  0  0  0
 19 21  1  0  0  0  0
 17 18  1  0  0  0  0
 17 19  1  0  0  0  0
 14 15  1  0  0  0  0
 14 16  1  0  0  0  0
 14 17  1  0  0  0  0
 11 12  1  0  0  0  0
 11 13  1  0  0  0  0
 11 14  1  0  0  0  0
  8  9  1  0  0  0  0
  8 10  1  0  0  0  0
  8 11  1  0  0  0  0
  7  8  1  0  0  0  0
  7 17  1  0  0  0  0
 23 24  1  0  0  0  0
 23 25  1  0  0  0  0
 23 26  1  0  0  0  0
 21 22  1  0  0  0  0
 21 23  1  0  0  0  0
M  END
$$$$
default_name
  -OEChem-11182114113D

 26 26  0     1  0  0  0  0  0999 V2000
   -1.8446   -3.5060   -0.3010 H   0  0  0  0  0  0  0  0  0  0  0  0
   -2.0746   -2.4490   -0.4240 C   0  0  0  0  0  0  0  0  0  0  0  0
   -2.6906   -2.1160    0.4090 H   0  0  0  0  0  0  0  0  0  0  0  0
   -2.5986   -2.2980   -1.3650 H   0  0  0  0  0  0  0  0  0  0  0  0
   -0.7756   -1.6630   -0.4350 C   0  0  0  0  0  0  0  0  0  0  0  0
    0.2844   -2.2800   -0.4550 O   0  0  0  0  0  0  0  0  0  0  0  0
   -0.8246   -0.3180   -0.4350 N   0  0  0  0  0  0  0  0  0  0  0  0
   -2.0106    0.5080   -0.5910 C   0  0  0  0  0  0  0  0  0  0  0  0
   -2.9830    0.1578   -0.2410 H   0  0  0  0  0  0  0  0  0  0  0  0
   -2.1351    1.2455   -1.3831 H   0  0  0  0  0  0  0  0  0  0  0  0
   -1.2272    1.1176    0.5697 C   0  0  0  0  0  0  0  0  0  0  0  0
   -0.8237    0.3336    1.2124 H   0  0  0  0  0  0  0  0  0  0  0  0
   -1.8931    1.7741    1.1306 H   0  0  0  0  0  0  0  0  0  0  0  0
   -0.1209    1.9420   -0.0885 C   0  0  0  0  0  0  0  0  0  0  0  0
    0.5927    2.4617    0.5542 H   0  0  0  0  0  0  0  0  0  0  0  0
   -0.2955    2.5163   -0.9982 H   0  0  0  0  0  0  0  0  0  0  0  0
    0.3724    0.5200   -0.4020 C   0  0  1  0  0  0  0  0  0  0  0  0
    0.8239    0.5134   -1.3943 H   0  0  0  0  0  0  0  0  0  0  0  0
    1.3983    0.0272    0.6323 C   0  0  0  0  0  0  0  0  0  0  0  0
    1.7758    0.7679    1.5380 O   0  0  0  0  0  0  0  0  0  0  0  0
    1.8769   -1.2123    0.4709 N   0  0  0  0  0  0  0  0  0  0  0  0
    1.4746   -1.7778   -0.2594 H   0  0  0  0  0  0  0  0  0  0  0  0
    2.8608   -1.8290    1.3575 C   0  0  0  0  0  0  0  0  0  0  0  0
    2.4280   -1.9516    2.3527 H   0  0  0  0  0  0  0  0  0  0  0  0
    3.1602   -2.8039    0.9713 H   0  0  0  0  0  0  0  0  0  0  0  0
    3.7396   -1.1857    1.4387 H   0  0  0  0  0  0  0  0  0  0  0  0
  5  6  2  0  0  0  0
  5  7  1  0  0  0  0
  2  3  1  0  0  0  0
  2  4  1  0  0  0  0
  2  5  1  0  0  0  0
  1  2  1  0  0  0  0
 19 20  2  0  0  0  0
 19 21  1  0  0  0  0
 17 18  1  0  0  0  0
 17 19  1  0  0  0  0
 14 15  1  0  0  0  0
 14 16  1  0  0  0  0
 14 17  1  0  0  0  0
 11 12  1  0  0  0  0
 11 13  1  0  0  0  0
 11 14  1  0  0  0  0
  8  9  1  0  0  0  0
  8 10  1  0  0  0  0
  8 11  1  0  0  0  0
  7  8  1  0  0  0  0
  7 17  1  0  0  0  0
 23 24  1  0  0  0  0
 23 25  1  0  0  0  0
 23 26  1  0  0  0  0
 21 22  1  0  0  0  0
 21 23  1  0  0  0  0
M  END
$$$$
default_name
  -OEChem-11182114113D

 26 26  0     1  0  0  0  0  0999 V2000
   -1.8446   -3.5060   -0.3010 H   0  0  0  0  0  0  0  0  0  0  0  0
   -2.0746   -2.4490   -0.4240 C   0  0  0  0  0  0  0  0  0  0  0  0
   -2.6906   -2.1160    0.4090 H   0  0  0  0  0  0  0  0  0  0  0  0
   -2.5986   -2.2980   -1.3650 H   0  0  0  0  0  0  0  0  0  0  0  0
   -0.7756   -1.6630   -0.4350 C   0  0  0  0  0  0  0  0  0  0  0  0
    0.2844   -2.2800   -0.4550 O   0  0  0  0  0  0  0  0  0  0  0  0
   -0.8246   -0.3180   -0.4350 N   0  0  0  0  0  0  0  0  0  0  0  0
   -2.0106    0.5080   -0.5910 C   0  0  0  0  0  0  0  0  0  0  0  0
   -2.9830    0.1578   -0.2410 H   0  0  0  0  0  0  0  0  0  0  0  0
   -2.1351    1.2455   -1.3831 H   0  0  0  0  0  0  0  0  0  0  0  0
   -1.2272    1.1176    0.5697 C   0  0  0  0  0  0  0  0  0  0  0  0
   -0.8237    0.3336    1.2124 H   0  0  0  0  0  0  0  0  0  0  0  0
   -1.8931    1.7741    1.1306 H   0  0  0  0  0  0  0  0  0  0  0  0
   -0.1209    1.9420   -0.0885 C   0  0  0  0  0  0  0  0  0  0  0  0
    0.5927    2.4617    0.5542 H   0  0  0  0  0  0  0  0  0  0  0  0
   -0.2955    2.5163   -0.9982 H   0  0  0  0  0  0  0  0  0  0  0  0
    0.3724    0.5200   -0.4020 C   0  0  1  0  0  0  0  0  0  0  0  0
    0.8239    0.5134   -1.3943 H   0  0  0  0  0  0  0  0  0  0  0  0
    1.3983    0.0272    0.6323 C   0  0  0  0  0  0  0  0  0  0  0  0
    1.5730    0.6452    1.6806 O   0  0  0  0  0  0  0  0  0  0  0  0
    2.1035   -1.0655    0.3160 N   0  0  0  0  0  0  0  0  0  0  0  0
    1.8608   -1.5494   -0.5337 H   0  0  0  0  0  0  0  0  0  0  0  0
    3.1207   -1.6589    1.1807 C   0  0  0  0  0  0  0  0  0  0  0  0
    2.6511   -2.0290    2.0946 H   0  0  0  0  0  0  0  0  0  0  0  0
    3.6174   -2.4845    0.6700 H   0  0  0  0  0  0  0  0  0  0  0  0
    3.8608   -0.9032    1.4531 H   0  0  0  0  0  0  0  0  0  0  0  0
  5  6  2  0  0  0  0
  5  7  1  0  0  0  0
  2  3  1  0  0  0  0
  2  4  1  0  0  0  0
  2  5  1  0  0  0  0
  1  2  1  0  0  0  0
 19 20  2  0  0  0  0
 19 21  1  0  0  0  0
 17 18  1  0  0  0  0
 17 19  1  0  0  0  0
 14 15  1  0  0  0  0
 14 16  1  0  0  0  0
 14 17  1  0  0  0  0
 11 12  1  0  0  0  0
 11 13  1  0  0  0  0
 11 14  1  0  0  0  0
  8  9  1  0  0  0  0
  8 10  1  0  0  0  0
  8 11  1  0  0  0  0
  7  8  1  0  0  0  0
  7 17  1  0  0  0  0
 23 24  1  0  0  0  0
 23 25  1  0  0  0  0
 23 26  1  0  0  0  0
 21 22  1  0  0  0  0
 21 23  1  0  0  0  0
M  END
$$$$
default_name
  -OEChem-11182114113D

 26 26  0     1  0  0  0  0  0999 V2000
   -1.8446   -3.5060   -0.3010 H   0  0  0  0  0  0  0  0  0  0  0  0
   -2.0746   -2.4490   -0.4240 C   0  0  0  0  0  0  0  0  0  0  0  0
   -2.6906   -2.1160    0.4090 H   0  0  0  0  0  0  0  0  0  0  0  0
   -2.5986   -2.2980   -1.3650 H   0  0  0  0  0  0  0  0  0  0  0  0
   -0.7756   -1.6630   -0.4350 C   0  0  0  0  0  0  0  0  0  0  0  0
    0.2844   -2.2800   -0.4550 O   0  0  0  0  0  0  0  0  0  0  0  0
   -0.8246   -0.3180   -0.4350 N   0  0  0  0  0  0  0  0  0  0  0  0
   -2.0106    0.5080   -0.5910 C   0  0  0  0  0  0  0  0  0  0  0  0
   -2.9830    0.1578   -0.2410 H   0  0  0  0  0  0  0  0  0  0  0  0
   -2.1351    1.2455   -1.3831 H   0  0  0  0  0  0  0  0  0  0  0  0
   -1.2272    1.1176    0.5697 C   0  0  0  0  0  0  0  0  0  0  0  0
   -0.8237    0.3336    1.2124 H   0  0  0  0  0  0  0  0  0  0  0  0
   -1.8931    1.7741    1.1306 H   0  0  0  0  0  0  0  0  0  0  0  0
   -0.1209    1.9420   -0.0885 C   0  0  0  0  0  0  0  0  0  0  0  0
    0.5927    2.4617    0.5542 H   0  0  0  0  0  0  0  0  0  0  0  0
   -0.2955    2.5163   -0.9982 H   0  0  0  0  0  0  0  0  0  0  0  0
    0.3724    0.5200   -0.4020 C   0  0  1  0  0  0  0  0  0  0  0  0
    0.8239    0.5134   -1.3943 H   0  0  0  0  0  0  0  0  0  0  0  0
    1.3983    0.0272    0.6323 C   0  0  0  0  0  0  0  0  0  0  0  0
    1.3868    0.4668    1.7804 O   0  0  0  0  0  0  0  0  0  0  0  0
    2.3098   -0.8576    0.2105 N   0  0  0  0  0  0  0  0  0  0  0  0
    2.2168   -1.2141   -0.7271 H   0  0  0  0  0  0  0  0  0  0  0  0
    3.3568   -1.4188    1.0609 C   0  0  0  0  0  0  0  0  0  0  0  0
    2.9014   -2.0204    1.8504 H   0  0  0  0  0  0  0  0  0  0  0  0
    4.0284   -2.0443    0.4721 H   0  0  0  0  0  0  0  0  0  0  0  0
    3.9274   -0.6118    1.5259 H   0  0  0  0  0  0  0  0  0  0  0  0
  5  6  2  0  0  0  0
  5  7  1  0  0  0  0
  2  3  1  0  0  0  0
  2  4  1  0  0  0  0
  2  5  1  0  0  0  0
  1  2  1  0  0  0  0
 19 20  2  0  0  0  0
 19 21  1  0  0  0  0
 17 18  1  0  0  0  0
 17 19  1  0  0  0  0
 14 15  1  0  0  0  0
 14 16  1  0  0  0  0
 14 17  1  0  0  0  0
 11 12  1  0  0  0  0
 11 13  1  0  0  0  0
 11 14  1  0  0  0  0
  8  9  1  0  0  0  0
  8 10  1  0  0  0  0
  8 11  1  0  0  0  0
  7  8  1  0  0  0  0
  7 17  1  0  0  0  0
 23 24  1  0  0  0  0
 23 25  1  0  0  0  0
 23 26  1  0  0  0  0
 21 22  1  0  0  0  0
 21 23  1  0  0  0  0
M  END
$$$$
default_name
  -OEChem-11182114113D

 26 26  0     1  0  0  0  0  0999 V2000
   -1.8446   -3.5060   -0.3010 H   0  0  0  0  0  0  0  0  0  0  0  0
   -2.0746   -2.4490   -0.4240 C   0  0  0  0  0  0  0  0  0  0  0  0
   -2.6906   -2.1160    0.4090 H   0  0  0  0  0  0  0  0  0  0  0  0
   -2.5986   -2.2980   -1.3650 H   0  0  0  0  0  0  0  0  0  0  0  0
   -0.7756   -1.6630   -0.4350 C   0  0  0  0  0  0  0  0  0  0  0  0
    0.2844   -2.2800   -0.4550 O   0  0  0  0  0  0  0  0  0  0  0  0
   -0.8246   -0.3180   -0.4350 N   0  0  0  0  0  0  0  0  0  0  0  0
   -2.0106    0.5080   -0.5910 C   0  0  0  0  0  0  0  0  0  0  0  0
   -2.9830    0.1578   -0.2410 H   0  0  0  0  0  0  0  0  0  0  0  0
   -2.1351    1.2455   -1.3831 H   0  0  0  0  0  0  0  0  0  0  0  0
   -1.2272    1.1176    0.5697 C   0  0  0  0  0  0  0  0  0  0  0  0
   -0.8237    0.3336    1.2124 H   0  0  0  0  0  0  0  0  0  0  0  0
   -1.8931    1.7741    1.1306 H   0  0  0  0  0  0  0  0  0  0  0  0
   -0.1209    1.9420   -0.0885 C   0  0  0  0  0  0  0  0  0  0  0  0
    0.5927    2.4617    0.5542 H   0  0  0  0  0  0  0  0  0  0  0  0
   -0.2955    2.5163   -0.9982 H   0  0  0  0  0  0  0  0  0  0  0  0
    0.3724    0.5200   -0.4020 C   0  0  1  0  0  0  0  0  0  0  0  0
    0.8239    0.5134   -1.3943 H   0  0  0  0  0  0  0  0  0  0  0  0
    1.3983    0.0272    0.6323 C   0  0  0  0  0  0  0  0  0  0  0  0
    1.2296    0.2448    1.8305 O   0  0  0  0  0  0  0  0  0  0  0  0
    2.4815   -0.6026    0.1616 N   0  0  0  0  0  0  0  0  0  0  0  0
    2.5184   -0.7950   -0.8266 H   0  0  0  0  0  0  0  0  0  0  0  0
    3.5530   -1.1250    1.0063 C   0  0  0  0  0  0  0  0  0  0  0  0
    3.1619   -1.9264    1.6368 H   0  0  0  0  0  0  0  0  0  0  0  0
    4.3652   -1.5135    0.3909 H   0  0  0  0  0  0  0  0  0  0  0  0
    3.9351   -0.3313    1.6520 H   0  0  0  0  0  0  0  0  0  0  0  0
  5  6  2  0  0  0  0
  5  7  1  0  0  0  0
  2  3  1  0  0  0  0
  2  4  1  0  0  0  0
  2  5  1  0  0  0  0
  1  2  1  0  0  0  0
 19 20  2  0  0  0  0
 19 21  1  0  0  0  0
 17 18  1  0  0  0  0
 17 19  1  0  0  0  0
 14 15  1  0  0  0  0
 14 16  1  0  0  0  0
 14 17  1  0  0  0  0
 11 12  1  0  0  0  0
 11 13  1  0  0  0  0
 11 14  1  0  0  0  0
  8  9  1  0  0  0  0
  8 10  1  0  0  0  0
  8 11  1  0  0  0  0
  7  8  1  0  0  0  0
  7 17  1  0  0  0  0
 23 24  1  0  0  0  0
 23 25  1  0  0  0  0
 23 26  1  0  0  0  0
 21 22  1  0  0  0  0
 21 23  1  0  0  0  0
M  END
$$$$
default_name
  -OEChem-11182114113D

 26 26  0     1  0  0  0  0  0999 V2000
   -1.8446   -3.5060   -0.3010 H   0  0  0  0  0  0  0  0  0  0  0  0
   -2.0746   -2.4490   -0.4240 C   0  0  0  0  0  0  0  0  0  0  0  0
   -2.6906   -2.1160    0.4090 H   0  0  0  0  0  0  0  0  0  0  0  0
   -2.5986   -2.2980   -1.3650 H   0  0  0  0  0  0  0  0  0  0  0  0
   -0.7756   -1.6630   -0.4350 C   0  0  0  0  0  0  0  0  0  0  0  0
    0.2844   -2.2800   -0.4550 O   0  0  0  0  0  0  0  0  0  0  0  0
   -0.8246   -0.3180   -0.4350 N   0  0  0  0  0  0  0  0  0  0  0  0
   -2.0106    0.5080   -0.5910 C   0  0  0  0  0  0  0  0  0  0  0  0
   -2.9830    0.1578   -0.2410 H   0  0  0  0  0  0  0  0  0  0  0  0
   -2.1351    1.2455   -1.3831 H   0  0  0  0  0  0  0  0  0  0  0  0
   -1.2272    1.1176    0.5697 C   0  0  0  0  0  0  0  0  0  0  0  0
   -0.8237    0.3336    1.2124 H   0  0  0  0  0  0  0  0  0  0  0  0
   -1.8931    1.7741    1.1306 H   0  0  0  0  0  0  0  0  0  0  0  0
   -0.1209    1.9420   -0.0885 C   0  0  0  0  0  0  0  0  0  0  0  0
    0.5927    2.4617    0.5542 H   0  0  0  0  0  0  0  0  0  0  0  0
   -0.2955    2.5163   -0.9982 H   0  0  0  0  0  0  0  0  0  0  0  0
    0.3724    0.5200   -0.4020 C   0  0  1  0  0  0  0  0  0  0  0  0
    0.8239    0.5134   -1.3943 H   0  0  0  0  0  0  0  0  0  0  0  0
    1.3983    0.0272    0.6323 C   0  0  0  0  0  0  0  0  0  0  0  0
    1.1123   -0.0057    1.8275 O   0  0  0  0  0  0  0  0  0  0  0  0
    2.6071   -0.3179    0.1727 N   0  0  0  0  0  0  0  0  0  0  0  0
    2.7450   -0.3204   -0.8252 H   0  0  0  0  0  0  0  0  0  0  0  0
    3.6960   -0.7977    1.0204 C   0  0  0  0  0  0  0  0  0  0  0  0
    3.4149   -1.7533    1.4684 H   0  0  0  0  0  0  0  0  0  0  0  0
    4.6048   -0.9281    0.4321 H   0  0  0  0  0  0  0  0  0  0  0  0
    3.8831   -0.0808    1.8228 H   0  0  0  0  0  0  0  0  0  0  0  0
  5  6  2  0  0  0  0
  5  7  1  0  0  0  0
  2  3  1  0  0  0  0
  2  4  1  0  0  0  0
  2  5  1  0  0  0  0
  1  2  1  0  0  0  0
 19 20  2  0  0  0  0
 19 21  1  0  0  0  0
 17 18  1  0  0  0  0
 17 19  1  0  0  0  0
 14 15  1  0  0  0  0
 14 16  1  0  0  0  0
 14 17  1  0  0  0  0
 11 12  1  0  0  0  0
 11 13  1  0  0  0  0
 11 14  1  0  0  0  0
  8  9  1  0  0  0  0
  8 10  1  0  0  0  0
  8 11  1  0  0  0  0
  7  8  1  0  0  0  0
  7 17  1  0  0  0  0
 23 24  1  0  0  0  0
 23 25  1  0  0  0  0
 23 26  1  0  0  0  0
 21 22  1  0  0  0  0
 21 23  1  0  0  0  0
M  END
$$$$
default_name
  -OEChem-11182114113D

 26 26  0     1  0  0  0  0  0999 V2000
   -1.8446   -3.5060   -0.3010 H   0  0  0  0  0  0  0  0  0  0  0  0
   -2.0746   -2.4490   -0.4240 C   0  0  0  0  0  0  0  0  0  0  0  0
   -2.6906   -2.1160    0.4090 H   0  0  0  0  0  0  0  0  0  0  0  0
   -2.5986   -2.2980   -1.3650 H   0  0  0  0  0  0  0  0  0  0  0  0
   -0.7756   -1.6630   -0.4350 C   0  0  0  0  0  0  0  0  0  0  0  0
    0.2844   -2.2800   -0.4550 O   0  0  0  0  0  0  0  0  0  0  0  0
   -0.8246   -0.3180   -0.4350 N   0  0  0  0  0  0  0  0  0  0  0  0
   -2.0106    0.5080   -0.5910 C   0  0  0  0  0  0  0  0  0  0  0  0
   -2.9830    0.1578   -0.2410 H   0  0  0  0  0  0  0  0  0  0  0  0
   -2.1351    1.2455   -1.3831 H   0  0  0  0  0  0  0  0  0  0  0  0
   -1.2272    1.1176    0.5697 C   0  0  0  0  0  0  0  0  0  0  0  0
   -0.8237    0.3336    1.2124 H   0  0  0  0  0  0  0  0  0  0  0  0
   -1.8931    1.7741    1.1306 H   0  0  0  0  0  0  0  0  0  0  0  0
   -0.1209    1.9420   -0.0885 C   0  0  0  0  0  0  0  0  0  0  0  0
    0.5927    2.4617    0.5542 H   0  0  0  0  0  0  0  0  0  0  0  0
   -0.2955    2.5163   -0.9982 H   0  0  0  0  0  0  0  0  0  0  0  0
    0.3724    0.5200   -0.4020 C   0  0  1  0  0  0  0  0  0  0  0  0
    0.8239    0.5134   -1.3943 H   0  0  0  0  0  0  0  0  0  0  0  0
    1.3983    0.0272    0.6323 C   0  0  0  0  0  0  0  0  0  0  0  0
    1.0428   -0.2675    1.7717 O   0  0  0  0  0  0  0  0  0  0  0  0
    2.6779   -0.0230    0.2429 N   0  0  0  0  0  0  0  0  0  0  0  0
    2.8812    0.1772   -0.7232 H   0  0  0  0  0  0  0  0  0  0  0  0
    3.7759   -0.4591    1.1025 C   0  0  0  0  0  0  0  0  0  0  0  0
    3.6431   -1.5130    1.3565 H   0  0  0  0  0  0  0  0  0  0  0  0
    4.7310   -0.3280    0.5929 H   0  0  0  0  0  0  0  0  0  0  0  0
    3.7752    0.1227    2.0268 H   0  0  0  0  0  0  0  0  0  0  0  0
  5  6  2  0  0  0  0
  5  7  1  0  0  0  0
  2  3  1  0  0  0  0
  2  4  1  0  0  0  0
  2  5  1  0  0  0  0
  1  2  1  0  0  0  0
 19 20  2  0  0  0  0
 19 21  1  0  0  0  0
 17 18  1  0  0  0  0
 17 19  1  0  0  0  0
 14 15  1  0  0  0  0
 14 16  1  0  0  0  0
 14 17  1  0  0  0  0
 11 12  1  0  0  0  0
 11 13  1  0  0  0  0
 11 14  1  0  0  0  0
  8  9  1  0  0  0  0
  8 10  1  0  0  0  0
  8 11  1  0  0  0  0
  7  8  1  0  0  0  0
  7 17  1  0  0  0  0
 23 24  1  0  0  0  0
 23 25  1  0  0  0  0
 23 26  1  0  0  0  0
 21 22  1  0  0  0  0
 21 23  1  0  0  0  0
M  END
$$$$
default_name
  -OEChem-11182114113D

 26 26  0     1  0  0  0  0  0999 V2000
   -1.8446   -3.5060   -0.3010 H   0  0  0  0  0  0  0  0  0  0  0  0
   -2.0746   -2.4490   -0.4240 C   0  0  0  0  0  0  0  0  0  0  0  0
   -2.6906   -2.1160    0.4090 H   0  0  0  0  0  0  0  0  0  0  0  0
   -2.5986   -2.2980   -1.3650 H   0  0  0  0  0  0  0  0  0  0  0  0
   -0.7756   -1.6630   -0.4350 C   0  0  0  0  0  0  0  0  0  0  0  0
    0.2844   -2.2800   -0.4550 O   0  0  0  0  0  0  0  0  0  0  0  0
   -0.8246   -0.3180   -0.4350 N   0  0  0  0  0  0  0  0  0  0  0  0
   -2.0106    0.5080   -0.5910 C   0  0  0  0  0  0  0  0  0  0  0  0
   -2.9830    0.1578   -0.2410 H   0  0  0  0  0  0  0  0  0  0  0  0
   -2.1351    1.2455   -1.3831 H   0  0  0  0  0  0  0  0  0  0  0  0
   -1.2272    1.1176    0.5697 C   0  0  0  0  0  0  0  0  0  0  0  0
   -0.8237    0.3336    1.2124 H   0  0  0  0  0  0  0  0  0  0  0  0
   -1.8931    1.7741    1.1306 H   0  0  0  0  0  0  0  0  0  0  0  0
   -0.1209    1.9420   -0.0885 C   0  0  0  0  0  0  0  0  0  0  0  0
    0.5927    2.4617    0.5542 H   0  0  0  0  0  0  0  0  0  0  0  0
   -0.2955    2.5163   -0.9982 H   0  0  0  0  0  0  0  0  0  0  0  0
    0.3724    0.5200   -0.4020 C   0  0  1  0  0  0  0  0  0  0  0  0
    0.8239    0.5134   -1.3943 H   0  0  0  0  0  0  0  0  0  0  0  0
    1.3983    0.0272    0.6323 C   0  0  0  0  0  0  0  0  0  0  0  0
    1.0260   -0.5229    1.6668 O   0  0  0  0  0  0  0  0  0  0  0  0
    2.6892    0.2620    0.3676 N   0  0  0  0  0  0  0  0  0  0  0  0
    2.9177    0.6639   -0.5275 H   0  0  0  0  0  0  0  0  0  0  0  0
    3.7873   -0.1323    1.2468 C   0  0  0  0  0  0  0  0  0  0  0  0
    3.8310   -1.2218    1.3088 H   0  0  0  0  0  0  0  0  0  0  0  0
    4.7350    0.2458    0.8622 H   0  0  0  0  0  0  0  0  0  0  0  0
    3.6186    0.2652    2.2500 H   0  0  0  0  0  0  0  0  0  0  0  0
  5  6  2  0  0  0  0
  5  7  1  0  0  0  0
  2  3  1  0  0  0  0
  2  4  1  0  0  0  0
  2  5  1  0  0  0  0
  1  2  1  0  0  0  0
 19 20  2  0  0  0  0
 19 21  1  0  0  0  0
 17 18  1  0  0  0  0
 17 19  1  0  0  0  0
 14 15  1  0  0  0  0
 14 16  1  0  0  0  0
 14 17  1  0  0  0  0
 11 12  1  0  0  0  0
 11 13  1  0  0  0  0
 11 14  1  0  0  0  0
  8  9  1  0  0  0  0
  8 10  1  0  0  0  0
  8 11  1  0  0  0  0
  7  8  1  0  0  0  0
  7 17  1  0  0  0  0
 23 24  1  0  0  0  0
 23 25  1  0  0  0  0
 23 26  1  0  0  0  0
 21 22  1  0  0  0  0
 21 23  1  0  0  0  0
M  END
$$$$
default_name
  -OEChem-11182114113D

 26 26  0     1  0  0  0  0  0999 V2000
   -1.8446   -3.5060   -0.3010 H   0  0  0  0  0  0  0  0  0  0  0  0
   -2.0746   -2.4490   -0.4240 C   0  0  0  0  0  0  0  0  0  0  0  0
   -2.6906   -2.1160    0.4090 H   0  0  0  0  0  0  0  0  0  0  0  0
   -2.5986   -2.2980   -1.3650 H   0  0  0  0  0  0  0  0  0  0  0  0
   -0.7756   -1.6630   -0.4350 C   0  0  0  0  0  0  0  0  0  0  0  0
    0.2844   -2.2800   -0.4550 O   0  0  0  0  0  0  0  0  0  0  0  0
   -0.8246   -0.3180   -0.4350 N   0  0  0  0  0  0  0  0  0  0  0  0
   -2.0106    0.5080   -0.5910 C   0  0  0  0  0  0  0  0  0  0  0  0
   -2.9830    0.1578   -0.2410 H   0  0  0  0  0  0  0  0  0  0  0  0
   -2.1351    1.2455   -1.3831 H   0  0  0  0  0  0  0  0  0  0  0  0
   -1.2272    1.1176    0.5697 C   0  0  0  0  0  0  0  0  0  0  0  0
   -0.8237    0.3336    1.2124 H   0  0  0  0  0  0  0  0  0  0  0  0
   -1.8931    1.7741    1.1306 H   0  0  0  0  0  0  0  0  0  0  0  0
   -0.1209    1.9420   -0.0885 C   0  0  0  0  0  0  0  0  0  0  0  0
    0.5927    2.4617    0.5542 H   0  0  0  0  0  0  0  0  0  0  0  0
   -0.2955    2.5163   -0.9982 H   0  0  0  0  0  0  0  0  0  0  0  0
    0.3724    0.5200   -0.4020 C   0  0  1  0  0  0  0  0  0  0  0  0
    0.8239    0.5134   -1.3943 H   0  0  0  0  0  0  0  0  0  0  0  0
    1.3983    0.0272    0.6323 C   0  0  0  0  0  0  0  0  0  0  0  0
    1.0628   -0.7543    1.5200 O   0  0  0  0  0  0  0  0  0  0  0  0
    2.6401    0.5178    0.5381 N   0  0  0  0  0  0  0  0  0  0  0  0
    2.8519    1.1066   -0.2514 H   0  0  0  0  0  0  0  0  0  0  0  0
    3.7295    0.1604    1.4436 C   0  0  0  0  0  0  0  0  0  0  0  0
    3.9658   -0.8996    1.3287 H   0  0  0  0  0  0  0  0  0  0  0  0
    4.6168    0.7542    1.2218 H   0  0  0  0  0  0  0  0  0  0  0  0
    3.4241    0.3371    2.4772 H   0  0  0  0  0  0  0  0  0  0  0  0
  5  6  2  0  0  0  0
  5  7  1  0  0  0  0
  2  3  1  0  0  0  0
  2  4  1  0  0  0  0
  2  5  1  0  0  0  0
  1  2  1  0  0  0  0
 19 20  2  0  0  0  0
 19 21  1  0  0  0  0
 17 18  1  0  0  0  0
 17 19  1  0  0  0  0
 14 15  1  0  0  0  0
 14 16  1  0  0  0  0
 14 17  1  0  0  0  0
 11 12  1  0  0  0  0
 11 13  1  0  0  0  0
 11 14  1  0  0  0  0
  8  9  1  0  0  0  0
  8 10  1  0  0  0  0
  8 11  1  0  0  0  0
  7  8  1  0  0  0  0
  7 17  1  0  0  0  0
 23 24  1  0  0  0  0
 23 25  1  0  0  0  0
 23 26  1  0  0  0  0
 21 22  1  0  0  0  0
 21 23  1  0  0  0  0
M  END
$$$$
default_name
  -OEChem-11182114113D

 26 26  0     1  0  0  0  0  0999 V2000
   -1.8446   -3.5060   -0.3010 H   0  0  0  0  0  0  0  0  0  0  0  0
   -2.0746   -2.4490   -0.4240 C   0  0  0  0  0  0  0  0  0  0  0  0
   -2.6906   -2.1160    0.4090 H   0  0  0  0  0  0  0  0  0  0  0  0
   -2.5986   -2.2980   -1.3650 H   0  0  0  0  0  0  0  0  0  0  0  0
   -0.7756   -1.6630   -0.4350 C   0  0  0  0  0  0  0  0  0  0  0  0
    0.2844   -2.2800   -0.4550 O   0  0  0  0  0  0  0  0  0  0  0  0
   -0.8246   -0.3180   -0.4350 N   0  0  0  0  0  0  0  0  0  0  0  0
   -2.0106    0.5080   -0.5910 C   0  0  0  0  0  0  0  0  0  0  0  0
   -2.9830    0.1578   -0.2410 H   0  0  0  0  0  0  0  0  0  0  0  0
   -2.1351    1.2455   -1.3831 H   0  0  0  0  0  0  0  0  0  0  0  0
   -1.2272    1.1176    0.5697 C   0  0  0  0  0  0  0  0  0  0  0  0
   -0.8237    0.3336    1.2124 H   0  0  0  0  0  0  0  0  0  0  0  0
   -1.8931    1.7741    1.1306 H   0  0  0  0  0  0  0  0  0  0  0  0
   -0.1209    1.9420   -0.0885 C   0  0  0  0  0  0  0  0  0  0  0  0
    0.5927    2.4617    0.5542 H   0  0  0  0  0  0  0  0  0  0  0  0
   -0.2955    2.5163   -0.9982 H   0  0  0  0  0  0  0  0  0  0  0  0
    0.3724    0.5200   -0.4020 C   0  0  1  0  0  0  0  0  0  0  0  0
    0.8239    0.5134   -1.3943 H   0  0  0  0  0  0  0  0  0  0  0  0
    1.3983    0.0272    0.6323 C   0  0  0  0  0  0  0  0  0  0  0  0
    1.1508   -0.9462    1.3412 O   0  0  0  0  0  0  0  0  0  0  0  0
    2.5340    0.7269    0.7429 N   0  0  0  0  0  0  0  0  0  0  0  0
    2.6885    1.4752    0.0863 H   0  0  0  0  0  0  0  0  0  0  0  0
    3.6064    0.3991    1.6795 C   0  0  0  0  0  0  0  0  0  0  0  0
    4.0382   -0.5684    1.4146 H   0  0  0  0  0  0  0  0  0  0  0  0
    4.3842    1.1627    1.6471 H   0  0  0  0  0  0  0  0  0  0  0  0
    3.2048    0.3334    2.6930 H   0  0  0  0  0  0  0  0  0  0  0  0
  5  6  2  0  0  0  0
  5  7  1  0  0  0  0
  2  3  1  0  0  0  0
  2  4  1  0  0  0  0
  2  5  1  0  0  0  0
  1  2  1  0  0  0  0
 19 20  2  0  0  0  0
 19 21  1  0  0  0  0
 17 18  1  0  0  0  0
 17 19  1  0  0  0  0
 14 15  1  0  0  0  0
 14 16  1  0  0  0  0
 14 17  1  0  0  0  0
 11 12  1  0  0  0  0
 11 13  1  0  0  0  0
 11 14  1  0  0  0  0
  8  9  1  0  0  0  0
  8 10  1  0  0  0  0
  8 11  1  0  0  0  0
  7  8  1  0  0  0  0
  7 17  1  0  0  0  0
 23 24  1  0  0  0  0
 23 25  1  0  0  0  0
 23 26  1  0  0  0  0
 21 22  1  0  0  0  0
 21 23  1  0  0  0  0
M  END
$$$$
default_name
  -OEChem-11182114113D

 26 26  0     1  0  0  0  0  0999 V2000
   -1.8446   -3.5060   -0.3010 H   0  0  0  0  0  0  0  0  0  0  0  0
   -2.0746   -2.4490   -0.4240 C   0  0  0  0  0  0  0  0  0  0  0  0
   -2.6906   -2.1160    0.4090 H   0  0  0  0  0  0  0  0  0  0  0  0
   -2.5986   -2.2980   -1.3650 H   0  0  0  0  0  0  0  0  0  0  0  0
   -0.7756   -1.6630   -0.4350 C   0  0  0  0  0  0  0  0  0  0  0  0
    0.2844   -2.2800   -0.4550 O   0  0  0  0  0  0  0  0  0  0  0  0
   -0.8246   -0.3180   -0.4350 N   0  0  0  0  0  0  0  0  0  0  0  0
   -2.0106    0.5080   -0.5910 C   0  0  0  0  0  0  0  0  0  0  0  0
   -2.9830    0.1578   -0.2410 H   0  0  0  0  0  0  0  0  0  0  0  0
   -2.1351    1.2455   -1.3831 H   0  0  0  0  0  0  0  0  0  0  0  0
   -1.2272    1.1176    0.5697 C   0  0  0  0  0  0  0  0  0  0  0  0
   -0.8237    0.3336    1.2124 H   0  0  0  0  0  0  0  0  0  0  0  0
   -1.8931    1.7741    1.1306 H   0  0  0  0  0  0  0  0  0  0  0  0
   -0.1209    1.9420   -0.0885 C   0  0  0  0  0  0  0  0  0  0  0  0
    0.5927    2.4617    0.5542 H   0  0  0  0  0  0  0  0  0  0  0  0
   -0.2955    2.5163   -0.9982 H   0  0  0  0  0  0  0  0  0  0  0  0
    0.3724    0.5200   -0.4020 C   0  0  1  0  0  0  0  0  0  0  0  0
    0.8239    0.5134   -1.3943 H   0  0  0  0  0  0  0  0  0  0  0  0
    1.3983    0.0272    0.6323 C   0  0  0  0  0  0  0  0  0  0  0  0
    1.2841   -1.0853    1.1428 O   0  0  0  0  0  0  0  0  0  0  0  0
    2.3782    0.8750    0.9681 N   0  0  0  0  0  0  0  0  0  0  0  0
    2.4384    1.7443    0.4626 H   0  0  0  0  0  0  0  0  0  0  0  0
    3.4264    0.5675    1.9383 C   0  0  0  0  0  0  0  0  0  0  0  0
    4.0434   -0.2507    1.5608 H   0  0  0  0  0  0  0  0  0  0  0  0
    4.0531    1.4434    2.1091 H   0  0  0  0  0  0  0  0  0  0  0  0
    2.9757    0.2544    2.8826 H   0  0  0  0  0  0  0  0  0  0  0  0
  5  6  2  0  0  0  0
  5  7  1  0  0  0  0
  2  3  1  0  0  0  0
  2  4  1  0  0  0  0
  2  5  1  0  0  0  0
  1  2  1  0  0  0  0
 19 20  2  0  0  0  0
 19 21  1  0  0  0  0
 17 18  1  0  0  0  0
 17 19  1  0  0  0  0
 14 15  1  0  0  0  0
 14 16  1  0  0  0  0
 14 17  1  0  0  0  0
 11 12  1  0  0  0  0
 11 13  1  0  0  0  0
 11 14  1  0  0  0  0
  8  9  1  0  0  0  0
  8 10  1  0  0  0  0
  8 11  1  0  0  0  0
  7  8  1  0  0  0  0
  7 17  1  0  0  0  0
 23 24  1  0  0  0  0
 23 25  1  0  0  0  0
 23 26  1  0  0  0  0
 21 22  1  0  0  0  0
 21 23  1  0  0  0  0
M  END
$$$$
default_name
  -OEChem-11182114113D

 26 26  0     1  0  0  0  0  0999 V2000
   -1.8446   -3.5060   -0.3010 H   0  0  0  0  0  0  0  0  0  0  0  0
   -2.0746   -2.4490   -0.4240 C   0  0  0  0  0  0  0  0  0  0  0  0
   -2.6906   -2.1160    0.4090 H   0  0  0  0  0  0  0  0  0  0  0  0
   -2.5986   -2.2980   -1.3650 H   0  0  0  0  0  0  0  0  0  0  0  0
   -0.7756   -1.6630   -0.4350 C   0  0  0  0  0  0  0  0  0  0  0  0
    0.2844   -2.2800   -0.4550 O   0  0  0  0  0  0  0  0  0  0  0  0
   -0.8246   -0.3180   -0.4350 N   0  0  0  0  0  0  0  0  0  0  0  0
   -2.0106    0.5080   -0.5910 C   0  0  0  0  0  0  0  0  0  0  0  0
   -2.9830    0.1578   -0.2410 H   0  0  0  0  0  0  0  0  0  0  0  0
   -2.1351    1.2455   -1.3831 H   0  0  0  0  0  0  0  0  0  0  0  0
   -1.2272    1.1176    0.5697 C   0  0  0  0  0  0  0  0  0  0  0  0
   -0.8237    0.3336    1.2124 H   0  0  0  0  0  0  0  0  0  0  0  0
   -1.8931    1.7741    1.1306 H   0  0  0  0  0  0  0  0  0  0  0  0
   -0.1209    1.9420   -0.0885 C   0  0  0  0  0  0  0  0  0  0  0  0
    0.5927    2.4617    0.5542 H   0  0  0  0  0  0  0  0  0  0  0  0
   -0.2955    2.5163   -0.9982 H   0  0  0  0  0  0  0  0  0  0  0  0
    0.3724    0.5200   -0.4020 C   0  0  1  0  0  0  0  0  0  0  0  0
    0.8239    0.5134   -1.3943 H   0  0  0  0  0  0  0  0  0  0  0  0
    1.3983    0.0272    0.6323 C   0  0  0  0  0  0  0  0  0  0  0  0
    1.4535   -1.1622    0.9381 O   0  0  0  0  0  0  0  0  0  0  0  0
    2.1832    0.9521    1.1982 N   0  0  0  0  0  0  0  0  0  0  0  0
    2.1188    1.8959    0.8518 H   0  0  0  0  0  0  0  0  0  0  0  0
    3.2017    0.6542    2.2024 C   0  0  0  0  0  0  0  0  0  0  0  0
    3.9810    0.0318    1.7574 H   0  0  0  0  0  0  0  0  0  0  0  0
    3.6462    1.5770    2.5764 H   0  0  0  0  0  0  0  0  0  0  0  0
    2.7524    0.1055    3.0331 H   0  0  0  0  0  0  0  0  0  0  0  0
  5  6  2  0  0  0  0
  5  7  1  0  0  0  0
  2  3  1  0  0  0  0
  2  4  1  0  0  0  0
  2  5  1  0  0  0  0
  1  2  1  0  0  0  0
 19 20  2  0  0  0  0
 19 21  1  0  0  0  0
 17 18  1  0  0  0  0
 17 19  1  0  0  0  0
 14 15  1  0  0  0  0
 14 16  1  0  0  0  0
 14 17  1  0  0  0  0
 11 12  1  0  0  0  0
 11 13  1  0  0  0  0
 11 14  1  0  0  0  0
  8  9  1  0  0  0  0
  8 10  1  0  0  0  0
  8 11  1  0  0  0  0
  7  8  1  0  0  0  0
  7 17  1  0  0  0  0
 23 24  1  0  0  0  0
 23 25  1  0  0  0  0
 23 26  1  0  0  0  0
 21 22  1  0  0  0  0
 21 23  1  0  0  0  0
M  END
$$$$
default_name
  -OEChem-11182114113D

 26 26  0     1  0  0  0  0  0999 V2000
   -1.8446   -3.5060   -0.3010 H   0  0  0  0  0  0  0  0  0  0  0  0
   -2.0746   -2.4490   -0.4240 C   0  0  0  0  0  0  0  0  0  0  0  0
   -2.6906   -2.1160    0.4090 H   0  0  0  0  0  0  0  0  0  0  0  0
   -2.5986   -2.2980   -1.3650 H   0  0  0  0  0  0  0  0  0  0  0  0
   -0.7756   -1.6630   -0.4350 C   0  0  0  0  0  0  0  0  0  0  0  0
    0.2844   -2.2800   -0.4550 O   0  0  0  0  0  0  0  0  0  0  0  0
   -0.8246   -0.3180   -0.4350 N   0  0  0  0  0  0  0  0  0  0  0  0
   -2.0106    0.5080   -0.5910 C   0  0  0  0  0  0  0  0  0  0  0  0
   -2.9830    0.1578   -0.2410 H   0  0  0  0  0  0  0  0  0  0  0  0
   -2.1351    1.2455   -1.3831 H   0  0  0  0  0  0  0  0  0  0  0  0
   -1.2272    1.1176    0.5697 C   0  0  0  0  0  0  0  0  0  0  0  0
   -0.8237    0.3336    1.2124 H   0  0  0  0  0  0  0  0  0  0  0  0
   -1.8931    1.7741    1.1306 H   0  0  0  0  0  0  0  0  0  0  0  0
   -0.1209    1.9420   -0.0885 C   0  0  0  0  0  0  0  0  0  0  0  0
    0.5927    2.4617    0.5542 H   0  0  0  0  0  0  0  0  0  0  0  0
   -0.2955    2.5163   -0.9982 H   0  0  0  0  0  0  0  0  0  0  0  0
    0.3724    0.5200   -0.4020 C   0  0  1  0  0  0  0  0  0  0  0  0
    0.8239    0.5134   -1.3943 H   0  0  0  0  0  0  0  0  0  0  0  0
    1.3983    0.0272    0.6323 C   0  0  0  0  0  0  0  0  0  0  0  0
    1.6475   -1.1717    0.7412 O   0  0  0  0  0  0  0  0  0  0  0  0
    1.9623    0.9529    1.4176 N   0  0  0  0  0  0  0  0  0  0  0  0
    1.7515    1.9194    1.2274 H   0  0  0  0  0  0  0  0  0  0  0  0
    2.9477    0.6532    2.4539 C   0  0  0  0  0  0  0  0  0  0  0  0
    3.8552    0.2599    1.9908 H   0  0  0  0  0  0  0  0  0  0  0  0
    3.1912    1.5546    3.0171 H   0  0  0  0  0  0  0  0  0  0  0  0
    2.5502   -0.1031    3.1342 H   0  0  0  0  0  0  0  0  0  0  0  0
  5  6  2  0  0  0  0
  5  7  1  0  0  0  0
  2  3  1  0  0  0  0
  2  4  1  0  0  0  0
  2  5  1  0  0  0  0
  1  2  1  0  0  0  0
 19 20  2  0  0  0  0
 19 21  1  0  0  0  0
 17 18  1  0  0  0  0
 17 19  1  0  0  0  0
 14 15  1  0  0  0  0
 14 16  1  0  0  0  0
 14 17  1  0  0  0  0
 11 12  1  0  0  0  0
 11 13  1  0  0  0  0
 11 14  1  0  0  0  0
  8  9  1  0  0  0  0
  8 10  1  0  0  0  0
  8 11  1  0  0  0  0
  7  8  1  0  0  0  0
  7 17  1  0  0  0  0
 23 24  1  0  0  0  0
 23 25  1  0  0  0  0
 23 26  1  0  0  0  0
 21 22  1  0  0  0  0
 21 23  1  0  0  0  0
M  END
$$$$
default_name
  -OEChem-11182114113D

 26 26  0     1  0  0  0  0  0999 V2000
   -1.8446   -3.5060   -0.3010 H   0  0  0  0  0  0  0  0  0  0  0  0
   -2.0746   -2.4490   -0.4240 C   0  0  0  0  0  0  0  0  0  0  0  0
   -2.6906   -2.1160    0.4090 H   0  0  0  0  0  0  0  0  0  0  0  0
   -2.5986   -2.2980   -1.3650 H   0  0  0  0  0  0  0  0  0  0  0  0
   -0.7756   -1.6630   -0.4350 C   0  0  0  0  0  0  0  0  0  0  0  0
    0.2844   -2.2800   -0.4550 O   0  0  0  0  0  0  0  0  0  0  0  0
   -0.8246   -0.3180   -0.4350 N   0  0  0  0  0  0  0  0  0  0  0  0
   -2.0106    0.5080   -0.5910 C   0  0  0  0  0  0  0  0  0  0  0  0
   -2.9830    0.1578   -0.2410 H   0  0  0  0  0  0  0  0  0  0  0  0
   -2.1351    1.2455   -1.3831 H   0  0  0  0  0  0  0  0  0  0  0  0
   -1.2272    1.1176    0.5697 C   0  0  0  0  0  0  0  0  0  0  0  0
   -0.8237    0.3336    1.2124 H   0  0  0  0  0  0  0  0  0  0  0  0
   -1.8931    1.7741    1.1306 H   0  0  0  0  0  0  0  0  0  0  0  0
   -0.1209    1.9420   -0.0885 C   0  0  0  0  0  0  0  0  0  0  0  0
    0.5927    2.4617    0.5542 H   0  0  0  0  0  0  0  0  0  0  0  0
   -0.2955    2.5163   -0.9982 H   0  0  0  0  0  0  0  0  0  0  0  0
    0.3724    0.5200   -0.4020 C   0  0  1  0  0  0  0  0  0  0  0  0
    0.8239    0.5134   -1.3943 H   0  0  0  0  0  0  0  0  0  0  0  0
    1.3983    0.0272    0.6323 C   0  0  0  0  0  0  0  0  0  0  0  0
    1.8528   -1.1131    0.5655 O   0  0  0  0  0  0  0  0  0  0  0  0
    1.7307    0.8773    1.6114 N   0  0  0  0  0  0  0  0  0  0  0  0
    1.3614    1.8134    1.5637 H   0  0  0  0  0  0  0  0  0  0  0  0
    2.6816    0.5646    2.6756 C   0  0  0  0  0  0  0  0  0  0  0  0
    3.6746    0.4181    2.2452 H   0  0  0  0  0  0  0  0  0  0  0  0
    2.7189    1.3777    3.4012 H   0  0  0  0  0  0  0  0  0  0  0  0
    2.3829   -0.3574    3.1791 H   0  0  0  0  0  0  0  0  0  0  0  0
  5  6  2  0  0  0  0
  5  7  1  0  0  0  0
  2  3  1  0  0  0  0
  2  4  1  0  0  0  0
  2  5  1  0  0  0  0
  1  2  1  0  0  0  0
 19 20  2  0  0  0  0
 19 21  1  0  0  0  0
 17 18  1  0  0  0  0
 17 19  1  0  0  0  0
 14 15  1  0  0  0  0
 14 16  1  0  0  0  0
 14 17  1  0  0  0  0
 11 12  1  0  0  0  0
 11 13  1  0  0  0  0
 11 14  1  0  0  0  0
  8  9  1  0  0  0  0
  8 10  1  0  0  0  0
  8 11  1  0  0  0  0
  7  8  1  0  0  0  0
  7 17  1  0  0  0  0
 23 24  1  0  0  0  0
 23 25  1  0  0  0  0
 23 26  1  0  0  0  0
 21 22  1  0  0  0  0
 21 23  1  0  0  0  0
M  END
$$$$
default_name
  -OEChem-11182114113D

 26 26  0     1  0  0  0  0  0999 V2000
   -1.8446   -3.5060   -0.3010 H   0  0  0  0  0  0  0  0  0  0  0  0
   -2.0746   -2.4490   -0.4240 C   0  0  0  0  0  0  0  0  0  0  0  0
   -2.6906   -2.1160    0.4090 H   0  0  0  0  0  0  0  0  0  0  0  0
   -2.5986   -2.2980   -1.3650 H   0  0  0  0  0  0  0  0  0  0  0  0
   -0.7756   -1.6630   -0.4350 C   0  0  0  0  0  0  0  0  0  0  0  0
    0.2844   -2.2800   -0.4550 O   0  0  0  0  0  0  0  0  0  0  0  0
   -0.8246   -0.3180   -0.4350 N   0  0  0  0  0  0  0  0  0  0  0  0
   -2.0106    0.5080   -0.5910 C   0  0  0  0  0  0  0  0  0  0  0  0
   -2.9830    0.1578   -0.2410 H   0  0  0  0  0  0  0  0  0  0  0  0
   -2.1351    1.2455   -1.3831 H   0  0  0  0  0  0  0  0  0  0  0  0
   -1.2272    1.1176    0.5697 C   0  0  0  0  0  0  0  0  0  0  0  0
   -0.8237    0.3336    1.2124 H   0  0  0  0  0  0  0  0  0  0  0  0
   -1.8931    1.7741    1.1306 H   0  0  0  0  0  0  0  0  0  0  0  0
   -0.1209    1.9420   -0.0885 C   0  0  0  0  0  0  0  0  0  0  0  0
    0.5927    2.4617    0.5542 H   0  0  0  0  0  0  0  0  0  0  0  0
   -0.2955    2.5163   -0.9982 H   0  0  0  0  0  0  0  0  0  0  0  0
    0.3724    0.5200   -0.4020 C   0  0  1  0  0  0  0  0  0  0  0  0
    0.8239    0.5134   -1.3943 H   0  0  0  0  0  0  0  0  0  0  0  0
    1.3983    0.0272    0.6323 C   0  0  0  0  0  0  0  0  0  0  0  0
    2.0555   -0.9903    0.4229 O   0  0  0  0  0  0  0  0  0  0  0  0
    1.5040    0.7305    1.7663 N   0  0  0  0  0  0  0  0  0  0  0  0
    0.9752    1.5849    1.8380 H   0  0  0  0  0  0  0  0  0  0  0  0
    2.4217    0.3945    2.8523 C   0  0  0  0  0  0  0  0  0  0  0  0
    3.4516    0.4955    2.5033 H   0  0  0  0  0  0  0  0  0  0  0  0
    2.2617    1.0583    3.7025 H   0  0  0  0  0  0  0  0  0  0  0  0
    2.2617   -0.6398    3.1647 H   0  0  0  0  0  0  0  0  0  0  0  0
  5  6  2  0  0  0  0
  5  7  1  0  0  0  0
  2  3  1  0  0  0  0
  2  4  1  0  0  0  0
  2  5  1  0  0  0  0
  1  2  1  0  0  0  0
 19 20  2  0  0  0  0
 19 21  1  0  0  0  0
 17 18  1  0  0  0  0
 17 19  1  0  0  0  0
 14 15  1  0  0  0  0
 14 16  1  0  0  0  0
 14 17  1  0  0  0  0
 11 12  1  0  0  0  0
 11 13  1  0  0  0  0
 11 14  1  0  0  0  0
  8  9  1  0  0  0  0
  8 10  1  0  0  0  0
  8 11  1  0  0  0  0
  7  8  1  0  0  0  0
  7 17  1  0  0  0  0
 23 24  1  0  0  0  0
 23 25  1  0  0  0  0
 23 26  1  0  0  0  0
 21 22  1  0  0  0  0
 21 23  1  0  0  0  0
M  END
$$$$
default_name
  -OEChem-11182114113D

 26 26  0     1  0  0  0  0  0999 V2000
   -1.8446   -3.5060   -0.3010 H   0  0  0  0  0  0  0  0  0  0  0  0
   -2.0746   -2.4490   -0.4240 C   0  0  0  0  0  0  0  0  0  0  0  0
   -2.6906   -2.1160    0.4090 H   0  0  0  0  0  0  0  0  0  0  0  0
   -2.5986   -2.2980   -1.3650 H   0  0  0  0  0  0  0  0  0  0  0  0
   -0.7756   -1.6630   -0.4350 C   0  0  0  0  0  0  0  0  0  0  0  0
    0.2844   -2.2800   -0.4550 O   0  0  0  0  0  0  0  0  0  0  0  0
   -0.8246   -0.3180   -0.4350 N   0  0  0  0  0  0  0  0  0  0  0  0
   -2.0106    0.5080   -0.5910 C   0  0  0  0  0  0  0  0  0  0  0  0
   -2.9830    0.1578   -0.2410 H   0  0  0  0  0  0  0  0  0  0  0  0
   -2.1351    1.2455   -1.3831 H   0  0  0  0  0  0  0  0  0  0  0  0
   -1.2272    1.1176    0.5697 C   0  0  0  0  0  0  0  0  0  0  0  0
   -0.8237    0.3336    1.2124 H   0  0  0  0  0  0  0  0  0  0  0  0
   -1.8931    1.7741    1.1306 H   0  0  0  0  0  0  0  0  0  0  0  0
   -0.1209    1.9420   -0.0885 C   0  0  0  0  0  0  0  0  0  0  0  0
    0.5927    2.4617    0.5542 H   0  0  0  0  0  0  0  0  0  0  0  0
   -0.2955    2.5163   -0.9982 H   0  0  0  0  0  0  0  0  0  0  0  0
    0.3724    0.5200   -0.4020 C   0  0  1  0  0  0  0  0  0  0  0  0
    0.8239    0.5134   -1.3943 H   0  0  0  0  0  0  0  0  0  0  0  0
    1.3983    0.0272    0.6323 C   0  0  0  0  0  0  0  0  0  0  0  0
    2.2418   -0.8119    0.3231 O   0  0  0  0  0  0  0  0  0  0  0  0
    1.2978    0.5225    1.8718 N   0  0  0  0  0  0  0  0  0  0  0  0
    0.6191    1.2497    2.0314 H   0  0  0  0  0  0  0  0  0  0  0  0
    2.1856    0.1543    2.9721 C   0  0  0  0  0  0  0  0  0  0  0  0
    3.2013    0.4869    2.7475 H   0  0  0  0  0  0  0  0  0  0  0  0
    1.8508    0.6182    3.9005 H   0  0  0  0  0  0  0  0  0  0  0  0
    2.1951   -0.9312    3.0920 H   0  0  0  0  0  0  0  0  0  0  0  0
  5  6  2  0  0  0  0
  5  7  1  0  0  0  0
  2  3  1  0  0  0  0
  2  4  1  0  0  0  0
  2  5  1  0  0  0  0
  1  2  1  0  0  0  0
 19 20  2  0  0  0  0
 19 21  1  0  0  0  0
 17 18  1  0  0  0  0
 17 19  1  0  0  0  0
 14 15  1  0  0  0  0
 14 16  1  0  0  0  0
 14 17  1  0  0  0  0
 11 12  1  0  0  0  0
 11 13  1  0  0  0  0
 11 14  1  0  0  0  0
  8  9  1  0  0  0  0
  8 10  1  0  0  0  0
  8 11  1  0  0  0  0
  7  8  1  0  0  0  0
  7 17  1  0  0  0  0
 23 24  1  0  0  0  0
 23 25  1  0  0  0  0
 23 26  1  0  0  0  0
 21 22  1  0  0  0  0
 21 23  1  0  0  0  0
M  END
$$$$
default_name
  -OEChem-11182114113D

 26 26  0     1  0  0  0  0  0999 V2000
   -1.8446   -3.5060   -0.3010 H   0  0  0  0  0  0  0  0  0  0  0  0
   -2.0746   -2.4490   -0.4240 C   0  0  0  0  0  0  0  0  0  0  0  0
   -2.6906   -2.1160    0.4090 H   0  0  0  0  0  0  0  0  0  0  0  0
   -2.5986   -2.2980   -1.3650 H   0  0  0  0  0  0  0  0  0  0  0  0
   -0.7756   -1.6630   -0.4350 C   0  0  0  0  0  0  0  0  0  0  0  0
    0.2844   -2.2800   -0.4550 O   0  0  0  0  0  0  0  0  0  0  0  0
   -0.8246   -0.3180   -0.4350 N   0  0  0  0  0  0  0  0  0  0  0  0
   -2.0106    0.5080   -0.5910 C   0  0  0  0  0  0  0  0  0  0  0  0
   -2.9830    0.1578   -0.2410 H   0  0  0  0  0  0  0  0  0  0  0  0
   -2.1351    1.2455   -1.3831 H   0  0  0  0  0  0  0  0  0  0  0  0
   -1.2272    1.1176    0.5697 C   0  0  0  0  0  0  0  0  0  0  0  0
   -0.8237    0.3336    1.2124 H   0  0  0  0  0  0  0  0  0  0  0  0
   -1.8931    1.7741    1.1306 H   0  0  0  0  0  0  0  0  0  0  0  0
   -0.1209    1.9420   -0.0885 C   0  0  0  0  0  0  0  0  0  0  0  0
    0.5927    2.4617    0.5542 H   0  0  0  0  0  0  0  0  0  0  0  0
   -0.2955    2.5163   -0.9982 H   0  0  0  0  0  0  0  0  0  0  0  0
    0.3724    0.5200   -0.4020 C   0  0  1  0  0  0  0  0  0  0  0  0
    0.8239    0.5134   -1.3943 H   0  0  0  0  0  0  0  0  0  0  0  0
    1.3983    0.0272    0.6323 C   0  0  0  0  0  0  0  0  0  0  0  0
    2.3990   -0.5899    0.2730 O   0  0  0  0  0  0  0  0  0  0  0  0
    1.1260    0.2675    1.9206 N   0  0  0  0  0  0  0  0  0  0  0  0
    0.3175    0.8306    2.1309 H   0  0  0  0  0  0  0  0  0  0  0  0
    1.9894   -0.1394    3.0268 C   0  0  0  0  0  0  0  0  0  0  0  0
    2.9408    0.3928    2.9611 H   0  0  0  0  0  0  0  0  0  0  0  0
    1.5140    0.0873    3.9816 H   0  0  0  0  0  0  0  0  0  0  0  0
    2.1874   -1.2118    2.9659 H   0  0  0  0  0  0  0  0  0  0  0  0
  5  6  2  0  0  0  0
  5  7  1  0  0  0  0
  2  3  1  0  0  0  0
  2  4  1  0  0  0  0
  2  5  1  0  0  0  0
  1  2  1  0  0  0  0
 19 20  2  0  0  0  0
 19 21  1  0  0  0  0
 17 18  1  0  0  0  0
 17 19  1  0  0  0  0
 14 15  1  0  0  0  0
 14 16  1  0  0  0  0
 14 17  1  0  0  0  0
 11 12  1  0  0  0  0
 11 13  1  0  0  0  0
 11 14  1  0  0  0  0
  8  9  1  0  0  0  0
  8 10  1  0  0  0  0
  8 11  1  0  0  0  0
  7  8  1  0  0  0  0
  7 17  1  0  0  0  0
 23 24  1  0  0  0  0
 23 25  1  0  0  0  0
 23 26  1  0  0  0  0
 21 22  1  0  0  0  0
 21 23  1  0  0  0  0
M  END
$$$$
default_name
  -OEChem-11182114113D

 26 26  0     1  0  0  0  0  0999 V2000
   -1.8446   -3.5060   -0.3010 H   0  0  0  0  0  0  0  0  0  0  0  0
   -2.0746   -2.4490   -0.4240 C   0  0  0  0  0  0  0  0  0  0  0  0
   -2.6906   -2.1160    0.4090 H   0  0  0  0  0  0  0  0  0  0  0  0
   -2.5986   -2.2980   -1.3650 H   0  0  0  0  0  0  0  0  0  0  0  0
   -0.7756   -1.6630   -0.4350 C   0  0  0  0  0  0  0  0  0  0  0  0
    0.2844   -2.2800   -0.4550 O   0  0  0  0  0  0  0  0  0  0  0  0
   -0.8246   -0.3180   -0.4350 N   0  0  0  0  0  0  0  0  0  0  0  0
   -2.0106    0.5080   -0.5910 C   0  0  0  0  0  0  0  0  0  0  0  0
   -2.9830    0.1578   -0.2410 H   0  0  0  0  0  0  0  0  0  0  0  0
   -2.1351    1.2455   -1.3831 H   0  0  0  0  0  0  0  0  0  0  0  0
   -1.2272    1.1176    0.5697 C   0  0  0  0  0  0  0  0  0  0  0  0
   -0.8237    0.3336    1.2124 H   0  0  0  0  0  0  0  0  0  0  0  0
   -1.8931    1.7741    1.1306 H   0  0  0  0  0  0  0  0  0  0  0  0
   -0.1209    1.9420   -0.0885 C   0  0  0  0  0  0  0  0  0  0  0  0
    0.5927    2.4617    0.5542 H   0  0  0  0  0  0  0  0  0  0  0  0
   -0.2955    2.5163   -0.9982 H   0  0  0  0  0  0  0  0  0  0  0  0
    0.3724    0.5200   -0.4020 C   0  0  1  0  0  0  0  0  0  0  0  0
    0.8239    0.5134   -1.3943 H   0  0  0  0  0  0  0  0  0  0  0  0
    1.3983    0.0272    0.6323 C   0  0  0  0  0  0  0  0  0  0  0  0
    2.5163   -0.3395    0.2760 O   0  0  0  0  0  0  0  0  0  0  0  0
    1.0004   -0.0171    1.9096 N   0  0  0  0  0  0  0  0  0  0  0  0
    0.0909    0.3560    2.1296 H   0  0  0  0  0  0  0  0  0  0  0  0
    1.8465   -0.4667    3.0126 C   0  0  0  0  0  0  0  0  0  0  0  0
    2.6878    0.2197    3.1295 H   0  0  0  0  0  0  0  0  0  0  0  0
    1.2743   -0.4981    3.9404 H   0  0  0  0  0  0  0  0  0  0  0  0
    2.2393   -1.4623    2.7950 H   0  0  0  0  0  0  0  0  0  0  0  0
  5  6  2  0  0  0  0
  5  7  1  0  0  0  0
  2  3  1  0  0  0  0
  2  4  1  0  0  0  0
  2  5  1  0  0  0  0
  1  2  1  0  0  0  0
 19 20  2  0  0  0  0
 19 21  1  0  0  0  0
 17 18  1  0  0  0  0
 17 19  1  0  0  0  0
 14 15  1  0  0  0  0
 14 16  1  0  0  0  0
 14 17  1  0  0  0  0
 11 12  1  0  0  0  0
 11 13  1  0  0  0  0
 11 14  1  0  0  0  0
  8  9  1  0  0  0  0
  8 10  1  0  0  0  0
  8 11  1  0  0  0  0
  7  8  1  0  0  0  0
  7 17  1  0  0  0  0
 23 24  1  0  0  0  0
 23 25  1  0  0  0  0
 23 26  1  0  0  0  0
 21 22  1  0  0  0  0
 21 23  1  0  0  0  0
M  END
$$$$
default_name
  -OEChem-11182114113D

 26 26  0     1  0  0  0  0  0999 V2000
   -1.8446   -3.5060   -0.3010 H   0  0  0  0  0  0  0  0  0  0  0  0
   -2.0746   -2.4490   -0.4240 C   0  0  0  0  0  0  0  0  0  0  0  0
   -2.6906   -2.1160    0.4090 H   0  0  0  0  0  0  0  0  0  0  0  0
   -2.5986   -2.2980   -1.3650 H   0  0  0  0  0  0  0  0  0  0  0  0
   -0.7756   -1.6630   -0.4350 C   0  0  0  0  0  0  0  0  0  0  0  0
    0.2844   -2.2800   -0.4550 O   0  0  0  0  0  0  0  0  0  0  0  0
   -0.8246   -0.3180   -0.4350 N   0  0  0  0  0  0  0  0  0  0  0  0
   -2.0106    0.5080   -0.5910 C   0  0  0  0  0  0  0  0  0  0  0  0
   -2.9830    0.1578   -0.2410 H   0  0  0  0  0  0  0  0  0  0  0  0
   -2.1351    1.2455   -1.3831 H   0  0  0  0  0  0  0  0  0  0  0  0
   -1.2272    1.1176    0.5697 C   0  0  0  0  0  0  0  0  0  0  0  0
   -0.8237    0.3336    1.2124 H   0  0  0  0  0  0  0  0  0  0  0  0
   -1.8931    1.7741    1.1306 H   0  0  0  0  0  0  0  0  0  0  0  0
   -0.1209    1.9420   -0.0885 C   0  0  0  0  0  0  0  0  0  0  0  0
    0.5927    2.4617    0.5542 H   0  0  0  0  0  0  0  0  0  0  0  0
   -0.2955    2.5163   -0.9982 H   0  0  0  0  0  0  0  0  0  0  0  0
    0.3724    0.5200   -0.4020 C   0  0  1  0  0  0  0  0  0  0  0  0
    0.8239    0.5134   -1.3943 H   0  0  0  0  0  0  0  0  0  0  0  0
    1.3983    0.0272    0.6323 C   0  0  0  0  0  0  0  0  0  0  0  0
    2.5857   -0.0776    0.3318 O   0  0  0  0  0  0  0  0  0  0  0  0
    0.9296   -0.3120    1.8393 N   0  0  0  0  0  0  0  0  0  0  0  0
   -0.0453   -0.1416    2.0276 H   0  0  0  0  0  0  0  0  0  0  0  0
    1.7666   -0.8053    2.9305 C   0  0  0  0  0  0  0  0  0  0  0  0
    2.4596   -0.0206    3.2414 H   0  0  0  0  0  0  0  0  0  0  0  0
    1.1482   -1.0981    3.7796 H   0  0  0  0  0  0  0  0  0  0  0  0
    2.3473   -1.6657    2.5911 H   0  0  0  0  0  0  0  0  0  0  0  0
  5  6  2  0  0  0  0
  5  7  1  0  0  0  0
  2  3  1  0  0  0  0
  2  4  1  0  0  0  0
  2  5  1  0  0  0  0
  1  2  1  0  0  0  0
 19 20  2  0  0  0  0
 19 21  1  0  0  0  0
 17 18  1  0  0  0  0
 17 19  1  0  0  0  0
 14 15  1  0  0  0  0
 14 16  1  0  0  0  0
 14 17  1  0  0  0  0
 11 12  1  0  0  0  0
 11 13  1  0  0  0  0
 11 14  1  0  0  0  0
  8  9  1  0  0  0  0
  8 10  1  0  0  0  0
  8 11  1  0  0  0  0
  7  8  1  0  0  0  0
  7 17  1  0  0  0  0
 23 24  1  0  0  0  0
 23 25  1  0  0  0  0
 23 26  1  0  0  0  0
 21 22  1  0  0  0  0
 21 23  1  0  0  0  0
M  END
$$$$
default_name
  -OEChem-11182114113D

 26 26  0     1  0  0  0  0  0999 V2000
   -1.8446   -3.5060   -0.3010 H   0  0  0  0  0  0  0  0  0  0  0  0
   -2.0746   -2.4490   -0.4240 C   0  0  0  0  0  0  0  0  0  0  0  0
   -2.6906   -2.1160    0.4090 H   0  0  0  0  0  0  0  0  0  0  0  0
   -2.5986   -2.2980   -1.3650 H   0  0  0  0  0  0  0  0  0  0  0  0
   -0.7756   -1.6630   -0.4350 C   0  0  0  0  0  0  0  0  0  0  0  0
    0.2844   -2.2800   -0.4550 O   0  0  0  0  0  0  0  0  0  0  0  0
   -0.8246   -0.3180   -0.4350 N   0  0  0  0  0  0  0  0  0  0  0  0
   -2.0106    0.5080   -0.5910 C   0  0  0  0  0  0  0  0  0  0  0  0
   -2.9830    0.1578   -0.2410 H   0  0  0  0  0  0  0  0  0  0  0  0
   -2.1351    1.2455   -1.3831 H   0  0  0  0  0  0  0  0  0  0  0  0
   -1.2272    1.1176    0.5697 C   0  0  0  0  0  0  0  0  0  0  0  0
   -0.8237    0.3336    1.2124 H   0  0  0  0  0  0  0  0  0  0  0  0
   -1.8931    1.7741    1.1306 H   0  0  0  0  0  0  0  0  0  0  0  0
   -0.1209    1.9420   -0.0885 C   0  0  0  0  0  0  0  0  0  0  0  0
    0.5927    2.4617    0.5542 H   0  0  0  0  0  0  0  0  0  0  0  0
   -0.2955    2.5163   -0.9982 H   0  0  0  0  0  0  0  0  0  0  0  0
    0.3724    0.5200   -0.4020 C   0  0  1  0  0  0  0  0  0  0  0  0
    0.8239    0.5134   -1.3943 H   0  0  0  0  0  0  0  0  0  0  0  0
    1.3983    0.0272    0.6323 C   0  0  0  0  0  0  0  0  0  0  0  0
    2.6026    0.1777    0.4367 O   0  0  0  0  0  0  0  0  0  0  0  0
    0.9184   -0.5971    1.7147 N   0  0  0  0  0  0  0  0  0  0  0  0
   -0.0817   -0.6284    1.8318 H   0  0  0  0  0  0  0  0  0  0  0  0
    1.7551   -1.1321    2.7862 C   0  0  0  0  0  0  0  0  0  0  0  0
    2.2717   -0.3117    3.2891 H   0  0  0  0  0  0  0  0  0  0  0  0
    1.1441   -1.6719    3.5103 H   0  0  0  0  0  0  0  0  0  0  0  0
    2.5039   -1.8083    2.3678 H   0  0  0  0  0  0  0  0  0  0  0  0
  5  6  2  0  0  0  0
  5  7  1  0  0  0  0
  2  3  1  0  0  0  0
  2  4  1  0  0  0  0
  2  5  1  0  0  0  0
  1  2  1  0  0  0  0
 19 20  2  0  0  0  0
 19 21  1  0  0  0  0
 17 18  1  0  0  0  0
 17 19  1  0  0  0  0
 14 15  1  0  0  0  0
 14 16  1  0  0  0  0
 14 17  1  0  0  0  0
 11 12  1  0  0  0  0
 11 13  1  0  0  0  0
 11 14  1  0  0  0  0
  8  9  1  0  0  0  0
  8 10  1  0  0  0  0
  8 11  1  0  0  0  0
  7  8  1  0  0  0  0
  7 17  1  0  0  0  0
 23 24  1  0  0  0  0
 23 25  1  0  0  0  0
 23 26  1  0  0  0  0
 21 22  1  0  0  0  0
 21 23  1  0  0  0  0
M  END
$$$$
default_name
  -OEChem-11182114113D

 26 26  0     1  0  0  0  0  0999 V2000
   -1.8446   -3.5060   -0.3010 H   0  0  0  0  0  0  0  0  0  0  0  0
   -2.0746   -2.4490   -0.4240 C   0  0  0  0  0  0  0  0  0  0  0  0
   -2.6906   -2.1160    0.4090 H   0  0  0  0  0  0  0  0  0  0  0  0
   -2.5986   -2.2980   -1.3650 H   0  0  0  0  0  0  0  0  0  0  0  0
   -0.7756   -1.6630   -0.4350 C   0  0  0  0  0  0  0  0  0  0  0  0
    0.2844   -2.2800   -0.4550 O   0  0  0  0  0  0  0  0  0  0  0  0
   -0.8246   -0.3180   -0.4350 N   0  0  0  0  0  0  0  0  0  0  0  0
   -2.0106    0.5080   -0.5910 C   0  0  0  0  0  0  0  0  0  0  0  0
   -2.9830    0.1578   -0.2410 H   0  0  0  0  0  0  0  0  0  0  0  0
   -2.1351    1.2455   -1.3831 H   0  0  0  0  0  0  0  0  0  0  0  0
   -1.2272    1.1176    0.5697 C   0  0  0  0  0  0  0  0  0  0  0  0
   -0.8237    0.3336    1.2124 H   0  0  0  0  0  0  0  0  0  0  0  0
   -1.8931    1.7741    1.1306 H   0  0  0  0  0  0  0  0  0  0  0  0
   -0.1209    1.9420   -0.0885 C   0  0  0  0  0  0  0  0  0  0  0  0
    0.5927    2.4617    0.5542 H   0  0  0  0  0  0  0  0  0  0  0  0
   -0.2955    2.5163   -0.9982 H   0  0  0  0  0  0  0  0  0  0  0  0
    0.3724    0.5200   -0.4020 C   0  0  1  0  0  0  0  0  0  0  0  0
    0.8239    0.5134   -1.3943 H   0  0  0  0  0  0  0  0  0  0  0  0
    1.3983    0.0272    0.6323 C   0  0  0  0  0  0  0  0  0  0  0  0
    2.5658    0.4092    0.5835 O   0  0  0  0  0  0  0  0  0  0  0  0
    0.9674   -0.8529    1.5441 N   0  0  0  0  0  0  0  0  0  0  0  0
   -0.0160   -1.0711    1.5557 H   0  0  0  0  0  0  0  0  0  0  0  0
    1.8129   -1.4248    2.5894 C   0  0  0  0  0  0  0  0  0  0  0  0
    2.1369   -0.6339    3.2692 H   0  0  0  0  0  0  0  0  0  0  0  0
    1.2624   -2.1804    3.1507 H   0  0  0  0  0  0  0  0  0  0  0  0
    2.6984   -1.8801    2.1406 H   0  0  0  0  0  0  0  0  0  0  0  0
  5  6  2  0  0  0  0
  5  7  1  0  0  0  0
  2  3  1  0  0  0  0
  2  4  1  0  0  0  0
  2  5  1  0  0  0  0
  1  2  1  0  0  0  0
 19 20  2  0  0  0  0
 19 21  1  0  0  0  0
 17 18  1  0  0  0  0
 17 19  1  0  0  0  0
 14 15  1  0  0  0  0
 14 16  1  0  0  0  0
 14 17  1  0  0  0  0
 11 12  1  0  0  0  0
 11 13  1  0  0  0  0
 11 14  1  0  0  0  0
  8  9  1  0  0  0  0
  8 10  1  0  0  0  0
  8 11  1  0  0  0  0
  7  8  1  0  0  0  0
  7 17  1  0  0  0  0
 23 24  1  0  0  0  0
 23 25  1  0  0  0  0
 23 26  1  0  0  0  0
 21 22  1  0  0  0  0
 21 23  1  0  0  0  0
M  END
$$$$
default_name
  -OEChem-11182114113D

 26 26  0     1  0  0  0  0  0999 V2000
   -1.8446   -3.5060   -0.3010 H   0  0  0  0  0  0  0  0  0  0  0  0
   -2.0746   -2.4490   -0.4240 C   0  0  0  0  0  0  0  0  0  0  0  0
   -2.6906   -2.1160    0.4090 H   0  0  0  0  0  0  0  0  0  0  0  0
   -2.5986   -2.2980   -1.3650 H   0  0  0  0  0  0  0  0  0  0  0  0
   -0.7756   -1.6630   -0.4350 C   0  0  0  0  0  0  0  0  0  0  0  0
    0.2844   -2.2800   -0.4550 O   0  0  0  0  0  0  0  0  0  0  0  0
   -0.8246   -0.3180   -0.4350 N   0  0  0  0  0  0  0  0  0  0  0  0
   -2.0106    0.5080   -0.5910 C   0  0  0  0  0  0  0  0  0  0  0  0
   -2.9830    0.1578   -0.2410 H   0  0  0  0  0  0  0  0  0  0  0  0
   -2.1351    1.2455   -1.3831 H   0  0  0  0  0  0  0  0  0  0  0  0
   -1.2272    1.1176    0.5697 C   0  0  0  0  0  0  0  0  0  0  0  0
   -0.8237    0.3336    1.2124 H   0  0  0  0  0  0  0  0  0  0  0  0
   -1.8931    1.7741    1.1306 H   0  0  0  0  0  0  0  0  0  0  0  0
   -0.1209    1.9420   -0.0885 C   0  0  0  0  0  0  0  0  0  0  0  0
    0.5927    2.4617    0.5542 H   0  0  0  0  0  0  0  0  0  0  0  0
   -0.2955    2.5163   -0.9982 H   0  0  0  0  0  0  0  0  0  0  0  0
    0.3724    0.5200   -0.4020 C   0  0  1  0  0  0  0  0  0  0  0  0
    0.8239    0.5134   -1.3943 H   0  0  0  0  0  0  0  0  0  0  0  0
    1.3983    0.0272    0.6323 C   0  0  0  0  0  0  0  0  0  0  0  0
    2.4778    0.6010    0.7622 O   0  0  0  0  0  0  0  0  0  0  0  0
    1.0735   -1.0619    1.3393 N   0  0  0  0  0  0  0  0  0  0  0  0
    0.1475   -1.4396    1.2180 H   0  0  0  0  0  0  0  0  0  0  0  0
    1.9360   -1.6635    2.3536 C   0  0  0  0  0  0  0  0  0  0  0  0
    2.0645   -0.9651    3.1833 H   0  0  0  0  0  0  0  0  0  0  0  0
    1.4950   -2.5889    2.7254 H   0  0  0  0  0  0  0  0  0  0  0  0
    2.9177   -1.8765    1.9249 H   0  0  0  0  0  0  0  0  0  0  0  0
  5  6  2  0  0  0  0
  5  7  1  0  0  0  0
  2  3  1  0  0  0  0
  2  4  1  0  0  0  0
  2  5  1  0  0  0  0
  1  2  1  0  0  0  0
 19 20  2  0  0  0  0
 19 21  1  0  0  0  0
 17 18  1  0  0  0  0
 17 19  1  0  0  0  0
 14 15  1  0  0  0  0
 14 16  1  0  0  0  0
 14 17  1  0  0  0  0
 11 12  1  0  0  0  0
 11 13  1  0  0  0  0
 11 14  1  0  0  0  0
  8  9  1  0  0  0  0
  8 10  1  0  0  0  0
  8 11  1  0  0  0  0
  7  8  1  0  0  0  0
  7 17  1  0  0  0  0
 23 24  1  0  0  0  0
 23 25  1  0  0  0  0
 23 26  1  0  0  0  0
 21 22  1  0  0  0  0
 21 23  1  0  0  0  0
M  END
$$$$
default_name
  -OEChem-11182114113D

 26 26  0     1  0  0  0  0  0999 V2000
   -1.8446   -3.5060   -0.3010 H   0  0  0  0  0  0  0  0  0  0  0  0
   -2.0746   -2.4490   -0.4240 C   0  0  0  0  0  0  0  0  0  0  0  0
   -2.6906   -2.1160    0.4090 H   0  0  0  0  0  0  0  0  0  0  0  0
   -2.5986   -2.2980   -1.3650 H   0  0  0  0  0  0  0  0  0  0  0  0
   -0.7756   -1.6630   -0.4350 C   0  0  0  0  0  0  0  0  0  0  0  0
    0.2844   -2.2800   -0.4550 O   0  0  0  0  0  0  0  0  0  0  0  0
   -0.8246   -0.3180   -0.4350 N   0  0  0  0  0  0  0  0  0  0  0  0
   -2.0106    0.5080   -0.5910 C   0  0  0  0  0  0  0  0  0  0  0  0
   -2.9830    0.1578   -0.2410 H   0  0  0  0  0  0  0  0  0  0  0  0
   -2.1351    1.2455   -1.3831 H   0  0  0  0  0  0  0  0  0  0  0  0
   -1.2272    1.1176    0.5697 C   0  0  0  0  0  0  0  0  0  0  0  0
   -0.8237    0.3336    1.2124 H   0  0  0  0  0  0  0  0  0  0  0  0
   -1.8931    1.7741    1.1306 H   0  0  0  0  0  0  0  0  0  0  0  0
   -0.1209    1.9420   -0.0885 C   0  0  0  0  0  0  0  0  0  0  0  0
    0.5927    2.4617    0.5542 H   0  0  0  0  0  0  0  0  0  0  0  0
   -0.2955    2.5163   -0.9982 H   0  0  0  0  0  0  0  0  0  0  0  0
    0.3724    0.5200   -0.4020 C   0  0  1  0  0  0  0  0  0  0  0  0
    0.8239    0.5134   -1.3943 H   0  0  0  0  0  0  0  0  0  0  0  0
    1.3983    0.0272    0.6323 C   0  0  0  0  0  0  0  0  0  0  0  0
    2.3445    0.7401    0.9607 O   0  0  0  0  0  0  0  0  0  0  0  0
    1.2294   -1.2100    1.1142 N   0  0  0  0  0  0  0  0  0  0  0  0
    0.3975   -1.7088    0.8417 H   0  0  0  0  0  0  0  0  0  0  0  0
    2.1161   -1.8320    2.0948 C   0  0  0  0  0  0  0  0  0  0  0  0
    2.0593   -1.2828    3.0371 H   0  0  0  0  0  0  0  0  0  0  0  0
    1.8260   -2.8695    2.2634 H   0  0  0  0  0  0  0  0  0  0  0  0
    3.1468   -1.7975    1.7353 H   0  0  0  0  0  0  0  0  0  0  0  0
  5  6  2  0  0  0  0
  5  7  1  0  0  0  0
  2  3  1  0  0  0  0
  2  4  1  0  0  0  0
  2  5  1  0  0  0  0
  1  2  1  0  0  0  0
 19 20  2  0  0  0  0
 19 21  1  0  0  0  0
 17 18  1  0  0  0  0
 17 19  1  0  0  0  0
 14 15  1  0  0  0  0
 14 16  1  0  0  0  0
 14 17  1  0  0  0  0
 11 12  1  0  0  0  0
 11 13  1  0  0  0  0
 11 14  1  0  0  0  0
  8  9  1  0  0  0  0
  8 10  1  0  0  0  0
  8 11  1  0  0  0  0
  7  8  1  0  0  0  0
  7 17  1  0  0  0  0
 23 24  1  0  0  0  0
 23 25  1  0  0  0  0
 23 26  1  0  0  0  0
 21 22  1  0  0  0  0
 21 23  1  0  0  0  0
M  END
$$$$
default_name
  -OEChem-11182114113D

 26 26  0     1  0  0  0  0  0999 V2000
   -1.8446   -3.5060   -0.3010 H   0  0  0  0  0  0  0  0  0  0  0  0
   -2.0746   -2.4490   -0.4240 C   0  0  0  0  0  0  0  0  0  0  0  0
   -2.6906   -2.1160    0.4090 H   0  0  0  0  0  0  0  0  0  0  0  0
   -2.5986   -2.2980   -1.3650 H   0  0  0  0  0  0  0  0  0  0  0  0
   -0.7756   -1.6630   -0.4350 C   0  0  0  0  0  0  0  0  0  0  0  0
    0.2844   -2.2800   -0.4550 O   0  0  0  0  0  0  0  0  0  0  0  0
   -0.8246   -0.3180   -0.4350 N   0  0  0  0  0  0  0  0  0  0  0  0
   -2.0106    0.5080   -0.5910 C   0  0  0  0  0  0  0  0  0  0  0  0
   -2.9830    0.1578   -0.2410 H   0  0  0  0  0  0  0  0  0  0  0  0
   -2.1351    1.2455   -1.3831 H   0  0  0  0  0  0  0  0  0  0  0  0
   -1.2272    1.1176    0.5697 C   0  0  0  0  0  0  0  0  0  0  0  0
   -0.8237    0.3336    1.2124 H   0  0  0  0  0  0  0  0  0  0  0  0
   -1.8931    1.7741    1.1306 H   0  0  0  0  0  0  0  0  0  0  0  0
   -0.1209    1.9420   -0.0885 C   0  0  0  0  0  0  0  0  0  0  0  0
    0.5927    2.4617    0.5542 H   0  0  0  0  0  0  0  0  0  0  0  0
   -0.2955    2.5163   -0.9982 H   0  0  0  0  0  0  0  0  0  0  0  0
    0.3724    0.5200   -0.4020 C   0  0  1  0  0  0  0  0  0  0  0  0
    0.8239    0.5134   -1.3943 H   0  0  0  0  0  0  0  0  0  0  0  0
    1.3983    0.0272    0.6323 C   0  0  0  0  0  0  0  0  0  0  0  0
    2.1751    0.8171    1.1653 O   0  0  0  0  0  0  0  0  0  0  0  0
    1.4244   -1.2871    0.8841 N   0  0  0  0  0  0  0  0  0  0  0  0
    0.7171   -1.8603    0.4526 H   0  0  0  0  0  0  0  0  0  0  0  0
    2.3407   -1.9186    1.8306 C   0  0  0  0  0  0  0  0  0  0  0  0
    2.1217   -1.5654    2.8405 H   0  0  0  0  0  0  0  0  0  0  0  0
    2.2329   -3.0032    1.7961 H   0  0  0  0  0  0  0  0  0  0  0  0
    3.3701   -1.6486    1.5848 H   0  0  0  0  0  0  0  0  0  0  0  0
  5  6  2  0  0  0  0
  5  7  1  0  0  0  0
  2  3  1  0  0  0  0
  2  4  1  0  0  0  0
  2  5  1  0  0  0  0
  1  2  1  0  0  0  0
 19 20  2  0  0  0  0
 19 21  1  0  0  0  0
 17 18  1  0  0  0  0
 17 19  1  0  0  0  0
 14 15  1  0  0  0  0
 14 16  1  0  0  0  0
 14 17  1  0  0  0  0
 11 12  1  0  0  0  0
 11 13  1  0  0  0  0
 11 14  1  0  0  0  0
  8  9  1  0  0  0  0
  8 10  1  0  0  0  0
  8 11  1  0  0  0  0
  7  8  1  0  0  0  0
  7 17  1  0  0  0  0
 23 24  1  0  0  0  0
 23 25  1  0  0  0  0
 23 26  1  0  0  0  0
 21 22  1  0  0  0  0
 21 23  1  0  0  0  0
M  END
$$$$
default_name
  -OEChem-11182114113D

 26 26  0     1  0  0  0  0  0999 V2000
   -1.8446   -3.5060   -0.3010 H   0  0  0  0  0  0  0  0  0  0  0  0
   -2.0746   -2.4490   -0.4240 C   0  0  0  0  0  0  0  0  0  0  0  0
   -2.6906   -2.1160    0.4090 H   0  0  0  0  0  0  0  0  0  0  0  0
   -2.5986   -2.2980   -1.3650 H   0  0  0  0  0  0  0  0  0  0  0  0
   -0.7756   -1.6630   -0.4350 C   0  0  0  0  0  0  0  0  0  0  0  0
    0.2844   -2.2800   -0.4550 O   0  0  0  0  0  0  0  0  0  0  0  0
   -0.8246   -0.3180   -0.4350 N   0  0  0  0  0  0  0  0  0  0  0  0
   -2.0106    0.5080   -0.5910 C   0  0  0  0  0  0  0  0  0  0  0  0
   -2.9830    0.1578   -0.2410 H   0  0  0  0  0  0  0  0  0  0  0  0
   -2.1351    1.2455   -1.3831 H   0  0  0  0  0  0  0  0  0  0  0  0
   -1.2272    1.1176    0.5697 C   0  0  0  0  0  0  0  0  0  0  0  0
   -0.8237    0.3336    1.2124 H   0  0  0  0  0  0  0  0  0  0  0  0
   -1.8931    1.7741    1.1306 H   0  0  0  0  0  0  0  0  0  0  0  0
   -0.1209    1.9420   -0.0885 C   0  0  0  0  0  0  0  0  0  0  0  0
    0.5927    2.4617    0.5542 H   0  0  0  0  0  0  0  0  0  0  0  0
   -0.2955    2.5163   -0.9982 H   0  0  0  0  0  0  0  0  0  0  0  0
    0.3724    0.5200   -0.4020 C   0  0  1  0  0  0  0  0  0  0  0  0
    0.8239    0.5134   -1.3943 H   0  0  0  0  0  0  0  0  0  0  0  0
    1.3983    0.0272    0.6323 C   0  0  0  0  0  0  0  0  0  0  0  0
    1.9811    0.8265    1.3623 O   0  0  0  0  0  0  0  0  0  0  0  0
    1.6452   -1.2879    0.6646 N   0  0  0  0  0  0  0  0  0  0  0  0
    1.0845   -1.8838    0.0770 H   0  0  0  0  0  0  0  0  0  0  0  0
    2.5947   -1.9176    1.5791 C   0  0  0  0  0  0  0  0  0  0  0  0
    2.2475   -1.7935    2.6071 H   0  0  0  0  0  0  0  0  0  0  0  0
    2.6880   -2.9808    1.3554 H   0  0  0  0  0  0  0  0  0  0  0  0
    3.5723   -1.4399    1.4836 H   0  0  0  0  0  0  0  0  0  0  0  0
  5  6  2  0  0  0  0
  5  7  1  0  0  0  0
  2  3  1  0  0  0  0
  2  4  1  0  0  0  0
  2  5  1  0  0  0  0
  1  2  1  0  0  0  0
 19 20  2  0  0  0  0
 19 21  1  0  0  0  0
 17 18  1  0  0  0  0
 17 19  1  0  0  0  0
 14 15  1  0  0  0  0
 14 16  1  0  0  0  0
 14 17  1  0  0  0  0
 11 12  1  0  0  0  0
 11 13  1  0  0  0  0
 11 14  1  0  0  0  0
  8  9  1  0  0  0  0
  8 10  1  0  0  0  0
  8 11  1  0  0  0  0
  7  8  1  0  0  0  0
  7 17  1  0  0  0  0
 23 24  1  0  0  0  0
 23 25  1  0  0  0  0
 23 26  1  0  0  0  0
 21 22  1  0  0  0  0
 21 23  1  0  0  0  0
M  END
$$$$
default_name
  -OEChem-11182114113D

 26 26  0     1  0  0  0  0  0999 V2000
   -1.8446   -3.5060   -0.3010 H   0  0  0  0  0  0  0  0  0  0  0  0
   -2.0746   -2.4490   -0.4240 C   0  0  0  0  0  0  0  0  0  0  0  0
   -2.6906   -2.1160    0.4090 H   0  0  0  0  0  0  0  0  0  0  0  0
   -2.5986   -2.2980   -1.3650 H   0  0  0  0  0  0  0  0  0  0  0  0
   -0.7756   -1.6630   -0.4350 C   0  0  0  0  0  0  0  0  0  0  0  0
    0.2844   -2.2800   -0.4550 O   0  0  0  0  0  0  0  0  0  0  0  0
   -0.8246   -0.3180   -0.4350 N   0  0  0  0  0  0  0  0  0  0  0  0
   -2.0106    0.5080   -0.5910 C   0  0  0  0  0  0  0  0  0  0  0  0
   -2.9830    0.1578   -0.2410 H   0  0  0  0  0  0  0  0  0  0  0  0
   -2.1351    1.2455   -1.3831 H   0  0  0  0  0  0  0  0  0  0  0  0
   -1.2272    1.1176    0.5697 C   0  0  0  0  0  0  0  0  0  0  0  0
   -0.8237    0.3336    1.2124 H   0  0  0  0  0  0  0  0  0  0  0  0
   -1.8931    1.7741    1.1306 H   0  0  0  0  0  0  0  0  0  0  0  0
   -0.1209    1.9420   -0.0885 C   0  0  0  0  0  0  0  0  0  0  0  0
    0.5927    2.4617    0.5542 H   0  0  0  0  0  0  0  0  0  0  0  0
   -0.2955    2.5163   -0.9982 H   0  0  0  0  0  0  0  0  0  0  0  0
    0.3724    0.5200   -0.4020 C   0  0  1  0  0  0  0  0  0  0  0  0
    0.8239    0.5134   -1.3943 H   0  0  0  0  0  0  0  0  0  0  0  0
    1.3983    0.0272    0.6323 C   0  0  0  0  0  0  0  0  0  0  0  0
    1.7758    0.7679    1.5380 O   0  0  0  0  0  0  0  0  0  0  0  0
    1.8769   -1.2123    0.4709 N   0  0  0  0  0  0  0  0  0  0  0  0
    1.4746   -1.7778   -0.2594 H   0  0  0  0  0  0  0  0  0  0  0  0
    2.8608   -1.8290    1.3575 C   0  0  0  0  0  0  0  0  0  0  0  0
    2.4280   -1.9516    2.3527 H   0  0  0  0  0  0  0  0  0  0  0  0
    3.1602   -2.8039    0.9713 H   0  0  0  0  0  0  0  0  0  0  0  0
    3.7396   -1.1857    1.4387 H   0  0  0  0  0  0  0  0  0  0  0  0
  5  6  2  0  0  0  0
  5  7  1  0  0  0  0
  2  3  1  0  0  0  0
  2  4  1  0  0  0  0
  2  5  1  0  0  0  0
  1  2  1  0  0  0  0
 19 20  2  0  0  0  0
 19 21  1  0  0  0  0
 17 18  1  0  0  0  0
 17 19  1  0  0  0  0
 14 15  1  0  0  0  0
 14 16  1  0  0  0  0
 14 17  1  0  0  0  0
 11 12  1  0  0  0  0
 11 13  1  0  0  0  0
 11 14  1  0  0  0  0
  8  9  1  0  0  0  0
  8 10  1  0  0  0  0
  8 11  1  0  0  0  0
  7  8  1  0  0  0  0
  7 17  1  0  0  0  0
 23 24  1  0  0  0  0
 23 25  1  0  0  0  0
 23 26  1  0  0  0  0
 21 22  1  0  0  0  0
 21 23  1  0  0  0  0
M  END
$$$$
default_name
  -OEChem-11182114113D

 26 26  0     1  0  0  0  0  0999 V2000
   -1.8446   -3.5060   -0.3010 H   0  0  0  0  0  0  0  0  0  0  0  0
   -2.0746   -2.4490   -0.4240 C   0  0  0  0  0  0  0  0  0  0  0  0
   -2.6906   -2.1160    0.4090 H   0  0  0  0  0  0  0  0  0  0  0  0
   -2.5986   -2.2980   -1.3650 H   0  0  0  0  0  0  0  0  0  0  0  0
   -0.7756   -1.6630   -0.4350 C   0  0  0  0  0  0  0  0  0  0  0  0
    0.2844   -2.2800   -0.4550 O   0  0  0  0  0  0  0  0  0  0  0  0
   -0.8246   -0.3180   -0.4350 N   0  0  0  0  0  0  0  0  0  0  0  0
   -2.0106    0.5080   -0.5910 C   0  0  0  0  0  0  0  0  0  0  0  0
   -2.9830    0.1578   -0.2410 H   0  0  0  0  0  0  0  0  0  0  0  0
   -2.1351    1.2455   -1.3831 H   0  0  0  0  0  0  0  0  0  0  0  0
   -1.2272    1.1176    0.5697 C   0  0  0  0  0  0  0  0  0  0  0  0
   -0.8237    0.3336    1.2124 H   0  0  0  0  0  0  0  0  0  0  0  0
   -1.8931    1.7741    1.1306 H   0  0  0  0  0  0  0  0  0  0  0  0
   -0.1209    1.9420   -0.0885 C   0  0  0  0  0  0  0  0  0  0  0  0
    0.5927    2.4617    0.5542 H   0  0  0  0  0  0  0  0  0  0  0  0
   -0.2955    2.5163   -0.9982 H   0  0  0  0  0  0  0  0  0  0  0  0
    0.3724    0.5200   -0.4020 C   0  0  1  0  0  0  0  0  0  0  0  0
    0.8239    0.5134   -1.3943 H   0  0  0  0  0  0  0  0  0  0  0  0
    1.3983    0.0272    0.6323 C   0  0  0  0  0  0  0  0  0  0  0  0
    1.5730    0.6452    1.6806 O   0  0  0  0  0  0  0  0  0  0  0  0
    2.1035   -1.0655    0.3160 N   0  0  0  0  0  0  0  0  0  0  0  0
    1.8608   -1.5494   -0.5337 H   0  0  0  0  0  0  0  0  0  0  0  0
    3.1207   -1.6589    1.1807 C   0  0  0  0  0  0  0  0  0  0  0  0
    2.6511   -2.0290    2.0946 H   0  0  0  0  0  0  0  0  0  0  0  0
    3.6174   -2.4845    0.6700 H   0  0  0  0  0  0  0  0  0  0  0  0
    3.8608   -0.9032    1.4531 H   0  0  0  0  0  0  0  0  0  0  0  0
  5  6  2  0  0  0  0
  5  7  1  0  0  0  0
  2  3  1  0  0  0  0
  2  4  1  0  0  0  0
  2  5  1  0  0  0  0
  1  2  1  0  0  0  0
 19 20  2  0  0  0  0
 19 21  1  0  0  0  0
 17 18  1  0  0  0  0
 17 19  1  0  0  0  0
 14 15  1  0  0  0  0
 14 16  1  0  0  0  0
 14 17  1  0  0  0  0
 11 12  1  0  0  0  0
 11 13  1  0  0  0  0
 11 14  1  0  0  0  0
  8  9  1  0  0  0  0
  8 10  1  0  0  0  0
  8 11  1  0  0  0  0
  7  8  1  0  0  0  0
  7 17  1  0  0  0  0
 23 24  1  0  0  0  0
 23 25  1  0  0  0  0
 23 26  1  0  0  0  0
 21 22  1  0  0  0  0
 21 23  1  0  0  0  0
M  END
$$$$
default_name
  -OEChem-11182114113D

 26 26  0     1  0  0  0  0  0999 V2000
   -1.8446   -3.5060   -0.3010 H   0  0  0  0  0  0  0  0  0  0  0  0
   -2.0746   -2.4490   -0.4240 C   0  0  0  0  0  0  0  0  0  0  0  0
   -2.6906   -2.1160    0.4090 H   0  0  0  0  0  0  0  0  0  0  0  0
   -2.5986   -2.2980   -1.3650 H   0  0  0  0  0  0  0  0  0  0  0  0
   -0.7756   -1.6630   -0.4350 C   0  0  0  0  0  0  0  0  0  0  0  0
    0.2844   -2.2800   -0.4550 O   0  0  0  0  0  0  0  0  0  0  0  0
   -0.8246   -0.3180   -0.4350 N   0  0  0  0  0  0  0  0  0  0  0  0
   -2.0106    0.5080   -0.5910 C   0  0  0  0  0  0  0  0  0  0  0  0
   -2.9830    0.1578   -0.2410 H   0  0  0  0  0  0  0  0  0  0  0  0
   -2.1351    1.2455   -1.3831 H   0  0  0  0  0  0  0  0  0  0  0  0
   -1.2272    1.1176    0.5697 C   0  0  0  0  0  0  0  0  0  0  0  0
   -0.8237    0.3336    1.2124 H   0  0  0  0  0  0  0  0  0  0  0  0
   -1.8931    1.7741    1.1306 H   0  0  0  0  0  0  0  0  0  0  0  0
   -0.1209    1.9420   -0.0885 C   0  0  0  0  0  0  0  0  0  0  0  0
    0.5927    2.4617    0.5542 H   0  0  0  0  0  0  0  0  0  0  0  0
   -0.2955    2.5163   -0.9982 H   0  0  0  0  0  0  0  0  0  0  0  0
    0.3724    0.5200   -0.4020 C   0  0  1  0  0  0  0  0  0  0  0  0
    0.8239    0.5134   -1.3943 H   0  0  0  0  0  0  0  0  0  0  0  0
    1.3983    0.0272    0.6323 C   0  0  0  0  0  0  0  0  0  0  0  0
    1.3868    0.4668    1.7804 O   0  0  0  0  0  0  0  0  0  0  0  0
    2.3098   -0.8576    0.2105 N   0  0  0  0  0  0  0  0  0  0  0  0
    2.2168   -1.2141   -0.7271 H   0  0  0  0  0  0  0  0  0  0  0  0
    3.3568   -1.4188    1.0609 C   0  0  0  0  0  0  0  0  0  0  0  0
    2.9014   -2.0204    1.8504 H   0  0  0  0  0  0  0  0  0  0  0  0
    4.0284   -2.0443    0.4721 H   0  0  0  0  0  0  0  0  0  0  0  0
    3.9274   -0.6118    1.5259 H   0  0  0  0  0  0  0  0  0  0  0  0
  5  6  2  0  0  0  0
  5  7  1  0  0  0  0
  2  3  1  0  0  0  0
  2  4  1  0  0  0  0
  2  5  1  0  0  0  0
  1  2  1  0  0  0  0
 19 20  2  0  0  0  0
 19 21  1  0  0  0  0
 17 18  1  0  0  0  0
 17 19  1  0  0  0  0
 14 15  1  0  0  0  0
 14 16  1  0  0  0  0
 14 17  1  0  0  0  0
 11 12  1  0  0  0  0
 11 13  1  0  0  0  0
 11 14  1  0  0  0  0
  8  9  1  0  0  0  0
  8 10  1  0  0  0  0
  8 11  1  0  0  0  0
  7  8  1  0  0  0  0
  7 17  1  0  0  0  0
 23 24  1  0  0  0  0
 23 25  1  0  0  0  0
 23 26  1  0  0  0  0
 21 22  1  0  0  0  0
 21 23  1  0  0  0  0
M  END
$$$$
default_name
  -OEChem-11182114113D

 26 26  0     1  0  0  0  0  0999 V2000
   -1.8446   -3.5060   -0.3010 H   0  0  0  0  0  0  0  0  0  0  0  0
   -2.0746   -2.4490   -0.4240 C   0  0  0  0  0  0  0  0  0  0  0  0
   -2.6906   -2.1160    0.4090 H   0  0  0  0  0  0  0  0  0  0  0  0
   -2.5986   -2.2980   -1.3650 H   0  0  0  0  0  0  0  0  0  0  0  0
   -0.7756   -1.6630   -0.4350 C   0  0  0  0  0  0  0  0  0  0  0  0
    0.2844   -2.2800   -0.4550 O   0  0  0  0  0  0  0  0  0  0  0  0
   -0.8246   -0.3180   -0.4350 N   0  0  0  0  0  0  0  0  0  0  0  0
   -2.0106    0.5080   -0.5910 C   0  0  0  0  0  0  0  0  0  0  0  0
   -2.9830    0.1578   -0.2410 H   0  0  0  0  0  0  0  0  0  0  0  0
   -2.1351    1.2455   -1.3831 H   0  0  0  0  0  0  0  0  0  0  0  0
   -1.2272    1.1176    0.5697 C   0  0  0  0  0  0  0  0  0  0  0  0
   -0.8237    0.3336    1.2124 H   0  0  0  0  0  0  0  0  0  0  0  0
   -1.8931    1.7741    1.1306 H   0  0  0  0  0  0  0  0  0  0  0  0
   -0.1209    1.9420   -0.0885 C   0  0  0  0  0  0  0  0  0  0  0  0
    0.5927    2.4617    0.5542 H   0  0  0  0  0  0  0  0  0  0  0  0
   -0.2955    2.5163   -0.9982 H   0  0  0  0  0  0  0  0  0  0  0  0
    0.3724    0.5200   -0.4020 C   0  0  1  0  0  0  0  0  0  0  0  0
    0.8239    0.5134   -1.3943 H   0  0  0  0  0  0  0  0  0  0  0  0
    1.3983    0.0272    0.6323 C   0  0  0  0  0  0  0  0  0  0  0  0
    1.2296    0.2448    1.8305 O   0  0  0  0  0  0  0  0  0  0  0  0
    2.4815   -0.6026    0.1616 N   0  0  0  0  0  0  0  0  0  0  0  0
    2.5184   -0.7950   -0.8266 H   0  0  0  0  0  0  0  0  0  0  0  0
    3.5530   -1.1250    1.0063 C   0  0  0  0  0  0  0  0  0  0  0  0
    3.1619   -1.9264    1.6368 H   0  0  0  0  0  0  0  0  0  0  0  0
    4.3652   -1.5135    0.3909 H   0  0  0  0  0  0  0  0  0  0  0  0
    3.9351   -0.3313    1.6520 H   0  0  0  0  0  0  0  0  0  0  0  0
  5  6  2  0  0  0  0
  5  7  1  0  0  0  0
  2  3  1  0  0  0  0
  2  4  1  0  0  0  0
  2  5  1  0  0  0  0
  1  2  1  0  0  0  0
 19 20  2  0  0  0  0
 19 21  1  0  0  0  0
 17 18  1  0  0  0  0
 17 19  1  0  0  0  0
 14 15  1  0  0  0  0
 14 16  1  0  0  0  0
 14 17  1  0  0  0  0
 11 12  1  0  0  0  0
 11 13  1  0  0  0  0
 11 14  1  0  0  0  0
  8  9  1  0  0  0  0
  8 10  1  0  0  0  0
  8 11  1  0  0  0  0
  7  8  1  0  0  0  0
  7 17  1  0  0  0  0
 23 24  1  0  0  0  0
 23 25  1  0  0  0  0
 23 26  1  0  0  0  0
 21 22  1  0  0  0  0
 21 23  1  0  0  0  0
M  END
$$$$
default_name
  -OEChem-11182114113D

 26 26  0     1  0  0  0  0  0999 V2000
   -1.8446   -3.5060   -0.3010 H   0  0  0  0  0  0  0  0  0  0  0  0
   -2.0746   -2.4490   -0.4240 C   0  0  0  0  0  0  0  0  0  0  0  0
   -2.6906   -2.1160    0.4090 H   0  0  0  0  0  0  0  0  0  0  0  0
   -2.5986   -2.2980   -1.3650 H   0  0  0  0  0  0  0  0  0  0  0  0
   -0.7756   -1.6630   -0.4350 C   0  0  0  0  0  0  0  0  0  0  0  0
    0.2844   -2.2800   -0.4550 O   0  0  0  0  0  0  0  0  0  0  0  0
   -0.8246   -0.3180   -0.4350 N   0  0  0  0  0  0  0  0  0  0  0  0
   -2.0106    0.5080   -0.5910 C   0  0  0  0  0  0  0  0  0  0  0  0
   -2.9830    0.1578   -0.2410 H   0  0  0  0  0  0  0  0  0  0  0  0
   -2.1351    1.2455   -1.3831 H   0  0  0  0  0  0  0  0  0  0  0  0
   -1.2272    1.1176    0.5697 C   0  0  0  0  0  0  0  0  0  0  0  0
   -0.8237    0.3336    1.2124 H   0  0  0  0  0  0  0  0  0  0  0  0
   -1.8931    1.7741    1.1306 H   0  0  0  0  0  0  0  0  0  0  0  0
   -0.1209    1.9420   -0.0885 C   0  0  0  0  0  0  0  0  0  0  0  0
    0.5927    2.4617    0.5542 H   0  0  0  0  0  0  0  0  0  0  0  0
   -0.2955    2.5163   -0.9982 H   0  0  0  0  0  0  0  0  0  0  0  0
    0.3724    0.5200   -0.4020 C   0  0  1  0  0  0  0  0  0  0  0  0
    0.8239    0.5134   -1.3943 H   0  0  0  0  0  0  0  0  0  0  0  0
    1.3983    0.0272    0.6323 C   0  0  0  0  0  0  0  0  0  0  0  0
    1.1123   -0.0057    1.8275 O   0  0  0  0  0  0  0  0  0  0  0  0
    2.6071   -0.3179    0.1727 N   0  0  0  0  0  0  0  0  0  0  0  0
    2.7450   -0.3204   -0.8252 H   0  0  0  0  0  0  0  0  0  0  0  0
    3.6960   -0.7977    1.0204 C   0  0  0  0  0  0  0  0  0  0  0  0
    3.4149   -1.7533    1.4684 H   0  0  0  0  0  0  0  0  0  0  0  0
    4.6048   -0.9281    0.4321 H   0  0  0  0  0  0  0  0  0  0  0  0
    3.8831   -0.0808    1.8228 H   0  0  0  0  0  0  0  0  0  0  0  0
  5  6  2  0  0  0  0
  5  7  1  0  0  0  0
  2  3  1  0  0  0  0
  2  4  1  0  0  0  0
  2  5  1  0  0  0  0
  1  2  1  0  0  0  0
 19 20  2  0  0  0  0
 19 21  1  0  0  0  0
 17 18  1  0  0  0  0
 17 19  1  0  0  0  0
 14 15  1  0  0  0  0
 14 16  1  0  0  0  0
 14 17  1  0  0  0  0
 11 12  1  0  0  0  0
 11 13  1  0  0  0  0
 11 14  1  0  0  0  0
  8  9  1  0  0  0  0
  8 10  1  0  0  0  0
  8 11  1  0  0  0  0
  7  8  1  0  0  0  0
  7 17  1  0  0  0  0
 23 24  1  0  0  0  0
 23 25  1  0  0  0  0
 23 26  1  0  0  0  0
 21 22  1  0  0  0  0
 21 23  1  0  0  0  0
M  END
$$$$
default_name
  -OEChem-11182114113D

 26 26  0     1  0  0  0  0  0999 V2000
   -1.8446   -3.5060   -0.3010 H   0  0  0  0  0  0  0  0  0  0  0  0
   -2.0746   -2.4490   -0.4240 C   0  0  0  0  0  0  0  0  0  0  0  0
   -2.6906   -2.1160    0.4090 H   0  0  0  0  0  0  0  0  0  0  0  0
   -2.5986   -2.2980   -1.3650 H   0  0  0  0  0  0  0  0  0  0  0  0
   -0.7756   -1.6630   -0.4350 C   0  0  0  0  0  0  0  0  0  0  0  0
    0.2844   -2.2800   -0.4550 O   0  0  0  0  0  0  0  0  0  0  0  0
   -0.8246   -0.3180   -0.4350 N   0  0  0  0  0  0  0  0  0  0  0  0
   -2.0106    0.5080   -0.5910 C   0  0  0  0  0  0  0  0  0  0  0  0
   -2.9830    0.1578   -0.2410 H   0  0  0  0  0  0  0  0  0  0  0  0
   -2.1351    1.2455   -1.3831 H   0  0  0  0  0  0  0  0  0  0  0  0
   -1.2272    1.1176    0.5697 C   0  0  0  0  0  0  0  0  0  0  0  0
   -0.8237    0.3336    1.2124 H   0  0  0  0  0  0  0  0  0  0  0  0
   -1.8931    1.7741    1.1306 H   0  0  0  0  0  0  0  0  0  0  0  0
   -0.1209    1.9420   -0.0885 C   0  0  0  0  0  0  0  0  0  0  0  0
    0.5927    2.4617    0.5542 H   0  0  0  0  0  0  0  0  0  0  0  0
   -0.2955    2.5163   -0.9982 H   0  0  0  0  0  0  0  0  0  0  0  0
    0.3724    0.5200   -0.4020 C   0  0  1  0  0  0  0  0  0  0  0  0
    0.8239    0.5134   -1.3943 H   0  0  0  0  0  0  0  0  0  0  0  0
    1.3983    0.0272    0.6323 C   0  0  0  0  0  0  0  0  0  0  0  0
    1.0428   -0.2675    1.7717 O   0  0  0  0  0  0  0  0  0  0  0  0
    2.6779   -0.0230    0.2429 N   0  0  0  0  0  0  0  0  0  0  0  0
    2.8812    0.1772   -0.7232 H   0  0  0  0  0  0  0  0  0  0  0  0
    3.7759   -0.4591    1.1025 C   0  0  0  0  0  0  0  0  0  0  0  0
    3.6431   -1.5130    1.3565 H   0  0  0  0  0  0  0  0  0  0  0  0
    4.7310   -0.3280    0.5929 H   0  0  0  0  0  0  0  0  0  0  0  0
    3.7752    0.1227    2.0268 H   0  0  0  0  0  0  0  0  0  0  0  0
  5  6  2  0  0  0  0
  5  7  1  0  0  0  0
  2  3  1  0  0  0  0
  2  4  1  0  0  0  0
  2  5  1  0  0  0  0
  1  2  1  0  0  0  0
 19 20  2  0  0  0  0
 19 21  1  0  0  0  0
 17 18  1  0  0  0  0
 17 19  1  0  0  0  0
 14 15  1  0  0  0  0
 14 16  1  0  0  0  0
 14 17  1  0  0  0  0
 11 12  1  0  0  0  0
 11 13  1  0  0  0  0
 11 14  1  0  0  0  0
  8  9  1  0  0  0  0
  8 10  1  0  0  0  0
  8 11  1  0  0  0  0
  7  8  1  0  0  0  0
  7 17  1  0  0  0  0
 23 24  1  0  0  0  0
 23 25  1  0  0  0  0
 23 26  1  0  0  0  0
 21 22  1  0  0  0  0
 21 23  1  0  0  0  0
M  END
$$$$
default_name
  -OEChem-11182114113D

 26 26  0     1  0  0  0  0  0999 V2000
   -1.8446   -3.5060   -0.3010 H   0  0  0  0  0  0  0  0  0  0  0  0
   -2.0746   -2.4490   -0.4240 C   0  0  0  0  0  0  0  0  0  0  0  0
   -2.6906   -2.1160    0.4090 H   0  0  0  0  0  0  0  0  0  0  0  0
   -2.5986   -2.2980   -1.3650 H   0  0  0  0  0  0  0  0  0  0  0  0
   -0.7756   -1.6630   -0.4350 C   0  0  0  0  0  0  0  0  0  0  0  0
    0.2844   -2.2800   -0.4550 O   0  0  0  0  0  0  0  0  0  0  0  0
   -0.8246   -0.3180   -0.4350 N   0  0  0  0  0  0  0  0  0  0  0  0
   -2.0106    0.5080   -0.5910 C   0  0  0  0  0  0  0  0  0  0  0  0
   -2.9830    0.1578   -0.2410 H   0  0  0  0  0  0  0  0  0  0  0  0
   -2.1351    1.2455   -1.3831 H   0  0  0  0  0  0  0  0  0  0  0  0
   -1.2272    1.1176    0.5697 C   0  0  0  0  0  0  0  0  0  0  0  0
   -0.8237    0.3336    1.2124 H   0  0  0  0  0  0  0  0  0  0  0  0
   -1.8931    1.7741    1.1306 H   0  0  0  0  0  0  0  0  0  0  0  0
   -0.1209    1.9420   -0.0885 C   0  0  0  0  0  0  0  0  0  0  0  0
    0.5927    2.4617    0.5542 H   0  0  0  0  0  0  0  0  0  0  0  0
   -0.2955    2.5163   -0.9982 H   0  0  0  0  0  0  0  0  0  0  0  0
    0.3724    0.5200   -0.4020 C   0  0  1  0  0  0  0  0  0  0  0  0
    0.8239    0.5134   -1.3943 H   0  0  0  0  0  0  0  0  0  0  0  0
    1.3983    0.0272    0.6323 C   0  0  0  0  0  0  0  0  0  0  0  0
    1.0260   -0.5229    1.6668 O   0  0  0  0  0  0  0  0  0  0  0  0
    2.6892    0.2620    0.3676 N   0  0  0  0  0  0  0  0  0  0  0  0
    2.9177    0.6639   -0.5275 H   0  0  0  0  0  0  0  0  0  0  0  0
    3.7873   -0.1323    1.2468 C   0  0  0  0  0  0  0  0  0  0  0  0
    3.8310   -1.2218    1.3088 H   0  0  0  0  0  0  0  0  0  0  0  0
    4.7350    0.2458    0.8622 H   0  0  0  0  0  0  0  0  0  0  0  0
    3.6186    0.2652    2.2500 H   0  0  0  0  0  0  0  0  0  0  0  0
  5  6  2  0  0  0  0
  5  7  1  0  0  0  0
  2  3  1  0  0  0  0
  2  4  1  0  0  0  0
  2  5  1  0  0  0  0
  1  2  1  0  0  0  0
 19 20  2  0  0  0  0
 19 21  1  0  0  0  0
 17 18  1  0  0  0  0
 17 19  1  0  0  0  0
 14 15  1  0  0  0  0
 14 16  1  0  0  0  0
 14 17  1  0  0  0  0
 11 12  1  0  0  0  0
 11 13  1  0  0  0  0
 11 14  1  0  0  0  0
  8  9  1  0  0  0  0
  8 10  1  0  0  0  0
  8 11  1  0  0  0  0
  7  8  1  0  0  0  0
  7 17  1  0  0  0  0
 23 24  1  0  0  0  0
 23 25  1  0  0  0  0
 23 26  1  0  0  0  0
 21 22  1  0  0  0  0
 21 23  1  0  0  0  0
M  END
$$$$
default_name
  -OEChem-11182114113D

 26 26  0     1  0  0  0  0  0999 V2000
   -1.8446   -3.5060   -0.3010 H   0  0  0  0  0  0  0  0  0  0  0  0
   -2.0746   -2.4490   -0.4240 C   0  0  0  0  0  0  0  0  0  0  0  0
   -2.6906   -2.1160    0.4090 H   0  0  0  0  0  0  0  0  0  0  0  0
   -2.5986   -2.2980   -1.3650 H   0  0  0  0  0  0  0  0  0  0  0  0
   -0.7756   -1.6630   -0.4350 C   0  0  0  0  0  0  0  0  0  0  0  0
    0.2844   -2.2800   -0.4550 O   0  0  0  0  0  0  0  0  0  0  0  0
   -0.8246   -0.3180   -0.4350 N   0  0  0  0  0  0  0  0  0  0  0  0
   -2.0106    0.5080   -0.5910 C   0  0  0  0  0  0  0  0  0  0  0  0
   -2.9830    0.1578   -0.2410 H   0  0  0  0  0  0  0  0  0  0  0  0
   -2.1351    1.2455   -1.3831 H   0  0  0  0  0  0  0  0  0  0  0  0
   -1.2272    1.1176    0.5697 C   0  0  0  0  0  0  0  0  0  0  0  0
   -0.8237    0.3336    1.2124 H   0  0  0  0  0  0  0  0  0  0  0  0
   -1.8931    1.7741    1.1306 H   0  0  0  0  0  0  0  0  0  0  0  0
   -0.1209    1.9420   -0.0885 C   0  0  0  0  0  0  0  0  0  0  0  0
    0.5927    2.4617    0.5542 H   0  0  0  0  0  0  0  0  0  0  0  0
   -0.2955    2.5163   -0.9982 H   0  0  0  0  0  0  0  0  0  0  0  0
    0.3724    0.5200   -0.4020 C   0  0  1  0  0  0  0  0  0  0  0  0
    0.8239    0.5134   -1.3943 H   0  0  0  0  0  0  0  0  0  0  0  0
    1.3983    0.0272    0.6323 C   0  0  0  0  0  0  0  0  0  0  0  0
    1.0628   -0.7543    1.5200 O   0  0  0  0  0  0  0  0  0  0  0  0
    2.6401    0.5178    0.5381 N   0  0  0  0  0  0  0  0  0  0  0  0
    2.8519    1.1066   -0.2514 H   0  0  0  0  0  0  0  0  0  0  0  0
    3.7295    0.1604    1.4436 C   0  0  0  0  0  0  0  0  0  0  0  0
    3.9658   -0.8996    1.3287 H   0  0  0  0  0  0  0  0  0  0  0  0
    4.6168    0.7542    1.2218 H   0  0  0  0  0  0  0  0  0  0  0  0
    3.4241    0.3371    2.4772 H   0  0  0  0  0  0  0  0  0  0  0  0
  5  6  2  0  0  0  0
  5  7  1  0  0  0  0
  2  3  1  0  0  0  0
  2  4  1  0  0  0  0
  2  5  1  0  0  0  0
  1  2  1  0  0  0  0
 19 20  2  0  0  0  0
 19 21  1  0  0  0  0
 17 18  1  0  0  0  0
 17 19  1  0  0  0  0
 14 15  1  0  0  0  0
 14 16  1  0  0  0  0
 14 17  1  0  0  0  0
 11 12  1  0  0  0  0
 11 13  1  0  0  0  0
 11 14  1  0  0  0  0
  8  9  1  0  0  0  0
  8 10  1  0  0  0  0
  8 11  1  0  0  0  0
  7  8  1  0  0  0  0
  7 17  1  0  0  0  0
 23 24  1  0  0  0  0
 23 25  1  0  0  0  0
 23 26  1  0  0  0  0
 21 22  1  0  0  0  0
 21 23  1  0  0  0  0
M  END
$$$$
default_name
  -OEChem-11182114113D

 26 26  0     1  0  0  0  0  0999 V2000
   -1.8446   -3.5060   -0.3010 H   0  0  0  0  0  0  0  0  0  0  0  0
   -2.0746   -2.4490   -0.4240 C   0  0  0  0  0  0  0  0  0  0  0  0
   -2.6906   -2.1160    0.4090 H   0  0  0  0  0  0  0  0  0  0  0  0
   -2.5986   -2.2980   -1.3650 H   0  0  0  0  0  0  0  0  0  0  0  0
   -0.7756   -1.6630   -0.4350 C   0  0  0  0  0  0  0  0  0  0  0  0
    0.2844   -2.2800   -0.4550 O   0  0  0  0  0  0  0  0  0  0  0  0
   -0.8246   -0.3180   -0.4350 N   0  0  0  0  0  0  0  0  0  0  0  0
   -2.0106    0.5080   -0.5910 C   0  0  0  0  0  0  0  0  0  0  0  0
   -2.9830    0.1578   -0.2410 H   0  0  0  0  0  0  0  0  0  0  0  0
   -2.1351    1.2455   -1.3831 H   0  0  0  0  0  0  0  0  0  0  0  0
   -1.2272    1.1176    0.5697 C   0  0  0  0  0  0  0  0  0  0  0  0
   -0.8237    0.3336    1.2124 H   0  0  0  0  0  0  0  0  0  0  0  0
   -1.8931    1.7741    1.1306 H   0  0  0  0  0  0  0  0  0  0  0  0
   -0.1209    1.9420   -0.0885 C   0  0  0  0  0  0  0  0  0  0  0  0
    0.5927    2.4617    0.5542 H   0  0  0  0  0  0  0  0  0  0  0  0
   -0.2955    2.5163   -0.9982 H   0  0  0  0  0  0  0  0  0  0  0  0
    0.3724    0.5200   -0.4020 C   0  0  1  0  0  0  0  0  0  0  0  0
    0.8239    0.5134   -1.3943 H   0  0  0  0  0  0  0  0  0  0  0  0
    1.3983    0.0272    0.6323 C   0  0  0  0  0  0  0  0  0  0  0  0
    1.1508   -0.9462    1.3412 O   0  0  0  0  0  0  0  0  0  0  0  0
    2.5340    0.7269    0.7429 N   0  0  0  0  0  0  0  0  0  0  0  0
    2.6885    1.4752    0.0863 H   0  0  0  0  0  0  0  0  0  0  0  0
    3.6064    0.3991    1.6795 C   0  0  0  0  0  0  0  0  0  0  0  0
    4.0382   -0.5684    1.4146 H   0  0  0  0  0  0  0  0  0  0  0  0
    4.3842    1.1627    1.6471 H   0  0  0  0  0  0  0  0  0  0  0  0
    3.2048    0.3334    2.6930 H   0  0  0  0  0  0  0  0  0  0  0  0
  5  6  2  0  0  0  0
  5  7  1  0  0  0  0
  2  3  1  0  0  0  0
  2  4  1  0  0  0  0
  2  5  1  0  0  0  0
  1  2  1  0  0  0  0
 19 20  2  0  0  0  0
 19 21  1  0  0  0  0
 17 18  1  0  0  0  0
 17 19  1  0  0  0  0
 14 15  1  0  0  0  0
 14 16  1  0  0  0  0
 14 17  1  0  0  0  0
 11 12  1  0  0  0  0
 11 13  1  0  0  0  0
 11 14  1  0  0  0  0
  8  9  1  0  0  0  0
  8 10  1  0  0  0  0
  8 11  1  0  0  0  0
  7  8  1  0  0  0  0
  7 17  1  0  0  0  0
 23 24  1  0  0  0  0
 23 25  1  0  0  0  0
 23 26  1  0  0  0  0
 21 22  1  0  0  0  0
 21 23  1  0  0  0  0
M  END
$$$$
default_name
  -OEChem-11182114113D

 26 26  0     1  0  0  0  0  0999 V2000
   -1.8446   -3.5060   -0.3010 H   0  0  0  0  0  0  0  0  0  0  0  0
   -2.0746   -2.4490   -0.4240 C   0  0  0  0  0  0  0  0  0  0  0  0
   -2.6906   -2.1160    0.4090 H   0  0  0  0  0  0  0  0  0  0  0  0
   -2.5986   -2.2980   -1.3650 H   0  0  0  0  0  0  0  0  0  0  0  0
   -0.7756   -1.6630   -0.4350 C   0  0  0  0  0  0  0  0  0  0  0  0
    0.2844   -2.2800   -0.4550 O   0  0  0  0  0  0  0  0  0  0  0  0
   -0.8246   -0.3180   -0.4350 N   0  0  0  0  0  0  0  0  0  0  0  0
   -2.0106    0.5080   -0.5910 C   0  0  0  0  0  0  0  0  0  0  0  0
   -2.9830    0.1578   -0.2410 H   0  0  0  0  0  0  0  0  0  0  0  0
   -2.1351    1.2455   -1.3831 H   0  0  0  0  0  0  0  0  0  0  0  0
   -1.2272    1.1176    0.5697 C   0  0  0  0  0  0  0  0  0  0  0  0
   -0.8237    0.3336    1.2124 H   0  0  0  0  0  0  0  0  0  0  0  0
   -1.8931    1.7741    1.1306 H   0  0  0  0  0  0  0  0  0  0  0  0
   -0.1209    1.9420   -0.0885 C   0  0  0  0  0  0  0  0  0  0  0  0
    0.5927    2.4617    0.5542 H   0  0  0  0  0  0  0  0  0  0  0  0
   -0.2955    2.5163   -0.9982 H   0  0  0  0  0  0  0  0  0  0  0  0
    0.3724    0.5200   -0.4020 C   0  0  1  0  0  0  0  0  0  0  0  0
    0.8239    0.5134   -1.3943 H   0  0  0  0  0  0  0  0  0  0  0  0
    1.3983    0.0272    0.6323 C   0  0  0  0  0  0  0  0  0  0  0  0
    1.2841   -1.0853    1.1428 O   0  0  0  0  0  0  0  0  0  0  0  0
    2.3782    0.8750    0.9681 N   0  0  0  0  0  0  0  0  0  0  0  0
    2.4384    1.7443    0.4626 H   0  0  0  0  0  0  0  0  0  0  0  0
    3.4264    0.5675    1.9383 C   0  0  0  0  0  0  0  0  0  0  0  0
    4.0434   -0.2507    1.5608 H   0  0  0  0  0  0  0  0  0  0  0  0
    4.0531    1.4434    2.1091 H   0  0  0  0  0  0  0  0  0  0  0  0
    2.9757    0.2544    2.8826 H   0  0  0  0  0  0  0  0  0  0  0  0
  5  6  2  0  0  0  0
  5  7  1  0  0  0  0
  2  3  1  0  0  0  0
  2  4  1  0  0  0  0
  2  5  1  0  0  0  0
  1  2  1  0  0  0  0
 19 20  2  0  0  0  0
 19 21  1  0  0  0  0
 17 18  1  0  0  0  0
 17 19  1  0  0  0  0
 14 15  1  0  0  0  0
 14 16  1  0  0  0  0
 14 17  1  0  0  0  0
 11 12  1  0  0  0  0
 11 13  1  0  0  0  0
 11 14  1  0  0  0  0
  8  9  1  0  0  0  0
  8 10  1  0  0  0  0
  8 11  1  0  0  0  0
  7  8  1  0  0  0  0
  7 17  1  0  0  0  0
 23 24  1  0  0  0  0
 23 25  1  0  0  0  0
 23 26  1  0  0  0  0
 21 22  1  0  0  0  0
 21 23  1  0  0  0  0
M  END
$$$$
default_name
  -OEChem-11182114113D

 26 26  0     1  0  0  0  0  0999 V2000
   -1.8446   -3.5060   -0.3010 H   0  0  0  0  0  0  0  0  0  0  0  0
   -2.0746   -2.4490   -0.4240 C   0  0  0  0  0  0  0  0  0  0  0  0
   -2.6906   -2.1160    0.4090 H   0  0  0  0  0  0  0  0  0  0  0  0
   -2.5986   -2.2980   -1.3650 H   0  0  0  0  0  0  0  0  0  0  0  0
   -0.7756   -1.6630   -0.4350 C   0  0  0  0  0  0  0  0  0  0  0  0
    0.2844   -2.2800   -0.4550 O   0  0  0  0  0  0  0  0  0  0  0  0
   -0.8246   -0.3180   -0.4350 N   0  0  0  0  0  0  0  0  0  0  0  0
   -2.0106    0.5080   -0.5910 C   0  0  0  0  0  0  0  0  0  0  0  0
   -2.9830    0.1578   -0.2410 H   0  0  0  0  0  0  0  0  0  0  0  0
   -2.1351    1.2455   -1.3831 H   0  0  0  0  0  0  0  0  0  0  0  0
   -1.2272    1.1176    0.5697 C   0  0  0  0  0  0  0  0  0  0  0  0
   -0.8237    0.3336    1.2124 H   0  0  0  0  0  0  0  0  0  0  0  0
   -1.8931    1.7741    1.1306 H   0  0  0  0  0  0  0  0  0  0  0  0
   -0.1209    1.9420   -0.0885 C   0  0  0  0  0  0  0  0  0  0  0  0
    0.5927    2.4617    0.5542 H   0  0  0  0  0  0  0  0  0  0  0  0
   -0.2955    2.5163   -0.9982 H   0  0  0  0  0  0  0  0  0  0  0  0
    0.3724    0.5200   -0.4020 C   0  0  1  0  0  0  0  0  0  0  0  0
    0.8239    0.5134   -1.3943 H   0  0  0  0  0  0  0  0  0  0  0  0
    1.3983    0.0272    0.6323 C   0  0  0  0  0  0  0  0  0  0  0  0
    1.4535   -1.1622    0.9381 O   0  0  0  0  0  0  0  0  0  0  0  0
    2.1832    0.9521    1.1982 N   0  0  0  0  0  0  0  0  0  0  0  0
    2.1188    1.8959    0.8518 H   0  0  0  0  0  0  0  0  0  0  0  0
    3.2017    0.6542    2.2024 C   0  0  0  0  0  0  0  0  0  0  0  0
    3.9810    0.0318    1.7574 H   0  0  0  0  0  0  0  0  0  0  0  0
    3.6462    1.5770    2.5764 H   0  0  0  0  0  0  0  0  0  0  0  0
    2.7524    0.1055    3.0331 H   0  0  0  0  0  0  0  0  0  0  0  0
  5  6  2  0  0  0  0
  5  7  1  0  0  0  0
  2  3  1  0  0  0  0
  2  4  1  0  0  0  0
  2  5  1  0  0  0  0
  1  2  1  0  0  0  0
 19 20  2  0  0  0  0
 19 21  1  0  0  0  0
 17 18  1  0  0  0  0
 17 19  1  0  0  0  0
 14 15  1  0  0  0  0
 14 16  1  0  0  0  0
 14 17  1  0  0  0  0
 11 12  1  0  0  0  0
 11 13  1  0  0  0  0
 11 14  1  0  0  0  0
  8  9  1  0  0  0  0
  8 10  1  0  0  0  0
  8 11  1  0  0  0  0
  7  8  1  0  0  0  0
  7 17  1  0  0  0  0
 23 24  1  0  0  0  0
 23 25  1  0  0  0  0
 23 26  1  0  0  0  0
 21 22  1  0  0  0  0
 21 23  1  0  0  0  0
M  END
$$$$
default_name
  -OEChem-11182114113D

 26 26  0     1  0  0  0  0  0999 V2000
   -1.8446   -3.5060   -0.3010 H   0  0  0  0  0  0  0  0  0  0  0  0
   -2.0746   -2.4490   -0.4240 C   0  0  0  0  0  0  0  0  0  0  0  0
   -2.6906   -2.1160    0.4090 H   0  0  0  0  0  0  0  0  0  0  0  0
   -2.5986   -2.2980   -1.3650 H   0  0  0  0  0  0  0  0  0  0  0  0
   -0.7756   -1.6630   -0.4350 C   0  0  0  0  0  0  0  0  0  0  0  0
    0.2844   -2.2800   -0.4550 O   0  0  0  0  0  0  0  0  0  0  0  0
   -0.8246   -0.3180   -0.4350 N   0  0  0  0  0  0  0  0  0  0  0  0
   -2.0106    0.5080   -0.5910 C   0  0  0  0  0  0  0  0  0  0  0  0
   -2.9830    0.1578   -0.2410 H   0  0  0  0  0  0  0  0  0  0  0  0
   -2.1351    1.2455   -1.3831 H   0  0  0  0  0  0  0  0  0  0  0  0
   -1.2272    1.1176    0.5697 C   0  0  0  0  0  0  0  0  0  0  0  0
   -0.8237    0.3336    1.2124 H   0  0  0  0  0  0  0  0  0  0  0  0
   -1.8931    1.7741    1.1306 H   0  0  0  0  0  0  0  0  0  0  0  0
   -0.1209    1.9420   -0.0885 C   0  0  0  0  0  0  0  0  0  0  0  0
    0.5927    2.4617    0.5542 H   0  0  0  0  0  0  0  0  0  0  0  0
   -0.2955    2.5163   -0.9982 H   0  0  0  0  0  0  0  0  0  0  0  0
    0.3724    0.5200   -0.4020 C   0  0  1  0  0  0  0  0  0  0  0  0
    0.8239    0.5134   -1.3943 H   0  0  0  0  0  0  0  0  0  0  0  0
    1.3983    0.0272    0.6323 C   0  0  0  0  0  0  0  0  0  0  0  0
    1.6475   -1.1717    0.7412 O   0  0  0  0  0  0  0  0  0  0  0  0
    1.9623    0.9529    1.4176 N   0  0  0  0  0  0  0  0  0  0  0  0
    1.7515    1.9194    1.2274 H   0  0  0  0  0  0  0  0  0  0  0  0
    2.9477    0.6532    2.4539 C   0  0  0  0  0  0  0  0  0  0  0  0
    3.8552    0.2599    1.9908 H   0  0  0  0  0  0  0  0  0  0  0  0
    3.1912    1.5546    3.0171 H   0  0  0  0  0  0  0  0  0  0  0  0
    2.5502   -0.1031    3.1342 H   0  0  0  0  0  0  0  0  0  0  0  0
  5  6  2  0  0  0  0
  5  7  1  0  0  0  0
  2  3  1  0  0  0  0
  2  4  1  0  0  0  0
  2  5  1  0  0  0  0
  1  2  1  0  0  0  0
 19 20  2  0  0  0  0
 19 21  1  0  0  0  0
 17 18  1  0  0  0  0
 17 19  1  0  0  0  0
 14 15  1  0  0  0  0
 14 16  1  0  0  0  0
 14 17  1  0  0  0  0
 11 12  1  0  0  0  0
 11 13  1  0  0  0  0
 11 14  1  0  0  0  0
  8  9  1  0  0  0  0
  8 10  1  0  0  0  0
  8 11  1  0  0  0  0
  7  8  1  0  0  0  0
  7 17  1  0  0  0  0
 23 24  1  0  0  0  0
 23 25  1  0  0  0  0
 23 26  1  0  0  0  0
 21 22  1  0  0  0  0
 21 23  1  0  0  0  0
M  END
$$$$
default_name
  -OEChem-11182114113D

 26 26  0     1  0  0  0  0  0999 V2000
   -1.8446   -3.5060   -0.3010 H   0  0  0  0  0  0  0  0  0  0  0  0
   -2.0746   -2.4490   -0.4240 C   0  0  0  0  0  0  0  0  0  0  0  0
   -2.6906   -2.1160    0.4090 H   0  0  0  0  0  0  0  0  0  0  0  0
   -2.5986   -2.2980   -1.3650 H   0  0  0  0  0  0  0  0  0  0  0  0
   -0.7756   -1.6630   -0.4350 C   0  0  0  0  0  0  0  0  0  0  0  0
    0.2844   -2.2800   -0.4550 O   0  0  0  0  0  0  0  0  0  0  0  0
   -0.8246   -0.3180   -0.4350 N   0  0  0  0  0  0  0  0  0  0  0  0
   -2.0106    0.5080   -0.5910 C   0  0  0  0  0  0  0  0  0  0  0  0
   -2.9830    0.1578   -0.2410 H   0  0  0  0  0  0  0  0  0  0  0  0
   -2.1351    1.2455   -1.3831 H   0  0  0  0  0  0  0  0  0  0  0  0
   -1.2272    1.1176    0.5697 C   0  0  0  0  0  0  0  0  0  0  0  0
   -0.8237    0.3336    1.2124 H   0  0  0  0  0  0  0  0  0  0  0  0
   -1.8931    1.7741    1.1306 H   0  0  0  0  0  0  0  0  0  0  0  0
   -0.1209    1.9420   -0.0885 C   0  0  0  0  0  0  0  0  0  0  0  0
    0.5927    2.4617    0.5542 H   0  0  0  0  0  0  0  0  0  0  0  0
   -0.2955    2.5163   -0.9982 H   0  0  0  0  0  0  0  0  0  0  0  0
    0.3724    0.5200   -0.4020 C   0  0  1  0  0  0  0  0  0  0  0  0
    0.8239    0.5134   -1.3943 H   0  0  0  0  0  0  0  0  0  0  0  0
    1.3983    0.0272    0.6323 C   0  0  0  0  0  0  0  0  0  0  0  0
    1.8528   -1.1131    0.5655 O   0  0  0  0  0  0  0  0  0  0  0  0
    1.7307    0.8773    1.6114 N   0  0  0  0  0  0  0  0  0  0  0  0
    1.3614    1.8134    1.5637 H   0  0  0  0  0  0  0  0  0  0  0  0
    2.6816    0.5646    2.6756 C   0  0  0  0  0  0  0  0  0  0  0  0
    3.6746    0.4181    2.2452 H   0  0  0  0  0  0  0  0  0  0  0  0
    2.7189    1.3777    3.4012 H   0  0  0  0  0  0  0  0  0  0  0  0
    2.3829   -0.3574    3.1791 H   0  0  0  0  0  0  0  0  0  0  0  0
  5  6  2  0  0  0  0
  5  7  1  0  0  0  0
  2  3  1  0  0  0  0
  2  4  1  0  0  0  0
  2  5  1  0  0  0  0
  1  2  1  0  0  0  0
 19 20  2  0  0  0  0
 19 21  1  0  0  0  0
 17 18  1  0  0  0  0
 17 19  1  0  0  0  0
 14 15  1  0  0  0  0
 14 16  1  0  0  0  0
 14 17  1  0  0  0  0
 11 12  1  0  0  0  0
 11 13  1  0  0  0  0
 11 14  1  0  0  0  0
  8  9  1  0  0  0  0
  8 10  1  0  0  0  0
  8 11  1  0  0  0  0
  7  8  1  0  0  0  0
  7 17  1  0  0  0  0
 23 24  1  0  0  0  0
 23 25  1  0  0  0  0
 23 26  1  0  0  0  0
 21 22  1  0  0  0  0
 21 23  1  0  0  0  0
M  END
$$$$
default_name
  -OEChem-11182114113D

 26 26  0     1  0  0  0  0  0999 V2000
   -1.8446   -3.5060   -0.3010 H   0  0  0  0  0  0  0  0  0  0  0  0
   -2.0746   -2.4490   -0.4240 C   0  0  0  0  0  0  0  0  0  0  0  0
   -2.6906   -2.1160    0.4090 H   0  0  0  0  0  0  0  0  0  0  0  0
   -2.5986   -2.2980   -1.3650 H   0  0  0  0  0  0  0  0  0  0  0  0
   -0.7756   -1.6630   -0.4350 C   0  0  0  0  0  0  0  0  0  0  0  0
    0.2844   -2.2800   -0.4550 O   0  0  0  0  0  0  0  0  0  0  0  0
   -0.8246   -0.3180   -0.4350 N   0  0  0  0  0  0  0  0  0  0  0  0
   -2.0106    0.5080   -0.5910 C   0  0  0  0  0  0  0  0  0  0  0  0
   -2.9830    0.1578   -0.2410 H   0  0  0  0  0  0  0  0  0  0  0  0
   -2.1351    1.2455   -1.3831 H   0  0  0  0  0  0  0  0  0  0  0  0
   -1.2272    1.1176    0.5697 C   0  0  0  0  0  0  0  0  0  0  0  0
   -0.8237    0.3336    1.2124 H   0  0  0  0  0  0  0  0  0  0  0  0
   -1.8931    1.7741    1.1306 H   0  0  0  0  0  0  0  0  0  0  0  0
   -0.1209    1.9420   -0.0885 C   0  0  0  0  0  0  0  0  0  0  0  0
    0.5927    2.4617    0.5542 H   0  0  0  0  0  0  0  0  0  0  0  0
   -0.2955    2.5163   -0.9982 H   0  0  0  0  0  0  0  0  0  0  0  0
    0.3724    0.5200   -0.4020 C   0  0  1  0  0  0  0  0  0  0  0  0
    0.8239    0.5134   -1.3943 H   0  0  0  0  0  0  0  0  0  0  0  0
    1.3983    0.0272    0.6323 C   0  0  0  0  0  0  0  0  0  0  0  0
    2.0555   -0.9903    0.4229 O   0  0  0  0  0  0  0  0  0  0  0  0
    1.5040    0.7305    1.7663 N   0  0  0  0  0  0  0  0  0  0  0  0
    0.9752    1.5849    1.8380 H   0  0  0  0  0  0  0  0  0  0  0  0
    2.4217    0.3945    2.8523 C   0  0  0  0  0  0  0  0  0  0  0  0
    3.4516    0.4955    2.5033 H   0  0  0  0  0  0  0  0  0  0  0  0
    2.2617    1.0583    3.7025 H   0  0  0  0  0  0  0  0  0  0  0  0
    2.2617   -0.6398    3.1647 H   0  0  0  0  0  0  0  0  0  0  0  0
  5  6  2  0  0  0  0
  5  7  1  0  0  0  0
  2  3  1  0  0  0  0
  2  4  1  0  0  0  0
  2  5  1  0  0  0  0
  1  2  1  0  0  0  0
 19 20  2  0  0  0  0
 19 21  1  0  0  0  0
 17 18  1  0  0  0  0
 17 19  1  0  0  0  0
 14 15  1  0  0  0  0
 14 16  1  0  0  0  0
 14 17  1  0  0  0  0
 11 12  1  0  0  0  0
 11 13  1  0  0  0  0
 11 14  1  0  0  0  0
  8  9  1  0  0  0  0
  8 10  1  0  0  0  0
  8 11  1  0  0  0  0
  7  8  1  0  0  0  0
  7 17  1  0  0  0  0
 23 24  1  0  0  0  0
 23 25  1  0  0  0  0
 23 26  1  0  0  0  0
 21 22  1  0  0  0  0
 21 23  1  0  0  0  0
M  END
$$$$
default_name
  -OEChem-11182114113D

 26 26  0     1  0  0  0  0  0999 V2000
   -1.8446   -3.5060   -0.3010 H   0  0  0  0  0  0  0  0  0  0  0  0
   -2.0746   -2.4490   -0.4240 C   0  0  0  0  0  0  0  0  0  0  0  0
   -2.6906   -2.1160    0.4090 H   0  0  0  0  0  0  0  0  0  0  0  0
   -2.5986   -2.2980   -1.3650 H   0  0  0  0  0  0  0  0  0  0  0  0
   -0.7756   -1.6630   -0.4350 C   0  0  0  0  0  0  0  0  0  0  0  0
    0.2844   -2.2800   -0.4550 O   0  0  0  0  0  0  0  0  0  0  0  0
   -0.8246   -0.3180   -0.4350 N   0  0  0  0  0  0  0  0  0  0  0  0
   -2.0106    0.5080   -0.5910 C   0  0  0  0  0  0  0  0  0  0  0  0
   -2.9830    0.1578   -0.2410 H   0  0  0  0  0  0  0  0  0  0  0  0
   -2.1351    1.2455   -1.3831 H   0  0  0  0  0  0  0  0  0  0  0  0
   -1.2272    1.1176    0.5697 C   0  0  0  0  0  0  0  0  0  0  0  0
   -0.8237    0.3336    1.2124 H   0  0  0  0  0  0  0  0  0  0  0  0
   -1.8931    1.7741    1.1306 H   0  0  0  0  0  0  0  0  0  0  0  0
   -0.1209    1.9420   -0.0885 C   0  0  0  0  0  0  0  0  0  0  0  0
    0.5927    2.4617    0.5542 H   0  0  0  0  0  0  0  0  0  0  0  0
   -0.2955    2.5163   -0.9982 H   0  0  0  0  0  0  0  0  0  0  0  0
    0.3724    0.5200   -0.4020 C   0  0  1  0  0  0  0  0  0  0  0  0
    0.8239    0.5134   -1.3943 H   0  0  0  0  0  0  0  0  0  0  0  0
    1.3983    0.0272    0.6323 C   0  0  0  0  0  0  0  0  0  0  0  0
    2.2418   -0.8119    0.3231 O   0  0  0  0  0  0  0  0  0  0  0  0
    1.2978    0.5225    1.8718 N   0  0  0  0  0  0  0  0  0  0  0  0
    0.6191    1.2497    2.0314 H   0  0  0  0  0  0  0  0  0  0  0  0
    2.1856    0.1543    2.9721 C   0  0  0  0  0  0  0  0  0  0  0  0
    3.2013    0.4869    2.7475 H   0  0  0  0  0  0  0  0  0  0  0  0
    1.8508    0.6182    3.9005 H   0  0  0  0  0  0  0  0  0  0  0  0
    2.1951   -0.9312    3.0920 H   0  0  0  0  0  0  0  0  0  0  0  0
  5  6  2  0  0  0  0
  5  7  1  0  0  0  0
  2  3  1  0  0  0  0
  2  4  1  0  0  0  0
  2  5  1  0  0  0  0
  1  2  1  0  0  0  0
 19 20  2  0  0  0  0
 19 21  1  0  0  0  0
 17 18  1  0  0  0  0
 17 19  1  0  0  0  0
 14 15  1  0  0  0  0
 14 16  1  0  0  0  0
 14 17  1  0  0  0  0
 11 12  1  0  0  0  0
 11 13  1  0  0  0  0
 11 14  1  0  0  0  0
  8  9  1  0  0  0  0
  8 10  1  0  0  0  0
  8 11  1  0  0  0  0
  7  8  1  0  0  0  0
  7 17  1  0  0  0  0
 23 24  1  0  0  0  0
 23 25  1  0  0  0  0
 23 26  1  0  0  0  0
 21 22  1  0  0  0  0
 21 23  1  0  0  0  0
M  END
$$$$
default_name
  -OEChem-11182114113D

 26 26  0     1  0  0  0  0  0999 V2000
   -1.8446   -3.5060   -0.3010 H   0  0  0  0  0  0  0  0  0  0  0  0
   -2.0746   -2.4490   -0.4240 C   0  0  0  0  0  0  0  0  0  0  0  0
   -2.6906   -2.1160    0.4090 H   0  0  0  0  0  0  0  0  0  0  0  0
   -2.5986   -2.2980   -1.3650 H   0  0  0  0  0  0  0  0  0  0  0  0
   -0.7756   -1.6630   -0.4350 C   0  0  0  0  0  0  0  0  0  0  0  0
    0.2844   -2.2800   -0.4550 O   0  0  0  0  0  0  0  0  0  0  0  0
   -0.8246   -0.3180   -0.4350 N   0  0  0  0  0  0  0  0  0  0  0  0
   -2.0106    0.5080   -0.5910 C   0  0  0  0  0  0  0  0  0  0  0  0
   -2.9830    0.1578   -0.2410 H   0  0  0  0  0  0  0  0  0  0  0  0
   -2.1351    1.2455   -1.3831 H   0  0  0  0  0  0  0  0  0  0  0  0
   -1.2272    1.1176    0.5697 C   0  0  0  0  0  0  0  0  0  0  0  0
   -0.8237    0.3336    1.2124 H   0  0  0  0  0  0  0  0  0  0  0  0
   -1.8931    1.7741    1.1306 H   0  0  0  0  0  0  0  0  0  0  0  0
   -0.1209    1.9420   -0.0885 C   0  0  0  0  0  0  0  0  0  0  0  0
    0.5927    2.4617    0.5542 H   0  0  0  0  0  0  0  0  0  0  0  0
   -0.2955    2.5163   -0.9982 H   0  0  0  0  0  0  0  0  0  0  0  0
    0.3724    0.5200   -0.4020 C   0  0  1  0  0  0  0  0  0  0  0  0
    0.8239    0.5134   -1.3943 H   0  0  0  0  0  0  0  0  0  0  0  0
    1.3983    0.0272    0.6323 C   0  0  0  0  0  0  0  0  0  0  0  0
    2.3990   -0.5899    0.2730 O   0  0  0  0  0  0  0  0  0  0  0  0
    1.1260    0.2675    1.9206 N   0  0  0  0  0  0  0  0  0  0  0  0
    0.3175    0.8306    2.1309 H   0  0  0  0  0  0  0  0  0  0  0  0
    1.9894   -0.1394    3.0268 C   0  0  0  0  0  0  0  0  0  0  0  0
    2.9408    0.3928    2.9611 H   0  0  0  0  0  0  0  0  0  0  0  0
    1.5140    0.0873    3.9816 H   0  0  0  0  0  0  0  0  0  0  0  0
    2.1874   -1.2118    2.9659 H   0  0  0  0  0  0  0  0  0  0  0  0
  5  6  2  0  0  0  0
  5  7  1  0  0  0  0
  2  3  1  0  0  0  0
  2  4  1  0  0  0  0
  2  5  1  0  0  0  0
  1  2  1  0  0  0  0
 19 20  2  0  0  0  0
 19 21  1  0  0  0  0
 17 18  1  0  0  0  0
 17 19  1  0  0  0  0
 14 15  1  0  0  0  0
 14 16  1  0  0  0  0
 14 17  1  0  0  0  0
 11 12  1  0  0  0  0
 11 13  1  0  0  0  0
 11 14  1  0  0  0  0
  8  9  1  0  0  0  0
  8 10  1  0  0  0  0
  8 11  1  0  0  0  0
  7  8  1  0  0  0  0
  7 17  1  0  0  0  0
 23 24  1  0  0  0  0
 23 25  1  0  0  0  0
 23 26  1  0  0  0  0
 21 22  1  0  0  0  0
 21 23  1  0  0  0  0
M  END
$$$$
default_name
  -OEChem-11182114113D

 26 26  0     1  0  0  0  0  0999 V2000
   -1.8446   -3.5060   -0.3010 H   0  0  0  0  0  0  0  0  0  0  0  0
   -2.0746   -2.4490   -0.4240 C   0  0  0  0  0  0  0  0  0  0  0  0
   -2.6906   -2.1160    0.4090 H   0  0  0  0  0  0  0  0  0  0  0  0
   -2.5986   -2.2980   -1.3650 H   0  0  0  0  0  0  0  0  0  0  0  0
   -0.7756   -1.6630   -0.4350 C   0  0  0  0  0  0  0  0  0  0  0  0
    0.2844   -2.2800   -0.4550 O   0  0  0  0  0  0  0  0  0  0  0  0
   -0.8246   -0.3180   -0.4350 N   0  0  0  0  0  0  0  0  0  0  0  0
   -2.0106    0.5080   -0.5910 C   0  0  0  0  0  0  0  0  0  0  0  0
   -2.9830    0.1578   -0.2410 H   0  0  0  0  0  0  0  0  0  0  0  0
   -2.1351    1.2455   -1.3831 H   0  0  0  0  0  0  0  0  0  0  0  0
   -1.2272    1.1176    0.5697 C   0  0  0  0  0  0  0  0  0  0  0  0
   -0.8237    0.3336    1.2124 H   0  0  0  0  0  0  0  0  0  0  0  0
   -1.8931    1.7741    1.1306 H   0  0  0  0  0  0  0  0  0  0  0  0
   -0.1209    1.9420   -0.0885 C   0  0  0  0  0  0  0  0  0  0  0  0
    0.5927    2.4617    0.5542 H   0  0  0  0  0  0  0  0  0  0  0  0
   -0.2955    2.5163   -0.9982 H   0  0  0  0  0  0  0  0  0  0  0  0
    0.3724    0.5200   -0.4020 C   0  0  1  0  0  0  0  0  0  0  0  0
    0.8239    0.5134   -1.3943 H   0  0  0  0  0  0  0  0  0  0  0  0
    1.3983    0.0272    0.6323 C   0  0  0  0  0  0  0  0  0  0  0  0
    2.5163   -0.3395    0.2760 O   0  0  0  0  0  0  0  0  0  0  0  0
    1.0004   -0.0171    1.9096 N   0  0  0  0  0  0  0  0  0  0  0  0
    0.0909    0.3560    2.1296 H   0  0  0  0  0  0  0  0  0  0  0  0
    1.8465   -0.4667    3.0126 C   0  0  0  0  0  0  0  0  0  0  0  0
    2.6878    0.2197    3.1295 H   0  0  0  0  0  0  0  0  0  0  0  0
    1.2743   -0.4981    3.9404 H   0  0  0  0  0  0  0  0  0  0  0  0
    2.2393   -1.4623    2.7950 H   0  0  0  0  0  0  0  0  0  0  0  0
  5  6  2  0  0  0  0
  5  7  1  0  0  0  0
  2  3  1  0  0  0  0
  2  4  1  0  0  0  0
  2  5  1  0  0  0  0
  1  2  1  0  0  0  0
 19 20  2  0  0  0  0
 19 21  1  0  0  0  0
 17 18  1  0  0  0  0
 17 19  1  0  0  0  0
 14 15  1  0  0  0  0
 14 16  1  0  0  0  0
 14 17  1  0  0  0  0
 11 12  1  0  0  0  0
 11 13  1  0  0  0  0
 11 14  1  0  0  0  0
  8  9  1  0  0  0  0
  8 10  1  0  0  0  0
  8 11  1  0  0  0  0
  7  8  1  0  0  0  0
  7 17  1  0  0  0  0
 23 24  1  0  0  0  0
 23 25  1  0  0  0  0
 23 26  1  0  0  0  0
 21 22  1  0  0  0  0
 21 23  1  0  0  0  0
M  END
$$$$
default_name
  -OEChem-11182114113D

 26 26  0     1  0  0  0  0  0999 V2000
   -1.8446   -3.5060   -0.3010 H   0  0  0  0  0  0  0  0  0  0  0  0
   -2.0746   -2.4490   -0.4240 C   0  0  0  0  0  0  0  0  0  0  0  0
   -2.6906   -2.1160    0.4090 H   0  0  0  0  0  0  0  0  0  0  0  0
   -2.5986   -2.2980   -1.3650 H   0  0  0  0  0  0  0  0  0  0  0  0
   -0.7756   -1.6630   -0.4350 C   0  0  0  0  0  0  0  0  0  0  0  0
    0.2844   -2.2800   -0.4550 O   0  0  0  0  0  0  0  0  0  0  0  0
   -0.8246   -0.3180   -0.4350 N   0  0  0  0  0  0  0  0  0  0  0  0
   -2.0106    0.5080   -0.5910 C   0  0  0  0  0  0  0  0  0  0  0  0
   -2.9830    0.1578   -0.2410 H   0  0  0  0  0  0  0  0  0  0  0  0
   -2.1351    1.2455   -1.3831 H   0  0  0  0  0  0  0  0  0  0  0  0
   -1.2272    1.1176    0.5697 C   0  0  0  0  0  0  0  0  0  0  0  0
   -0.8237    0.3336    1.2124 H   0  0  0  0  0  0  0  0  0  0  0  0
   -1.8931    1.7741    1.1306 H   0  0  0  0  0  0  0  0  0  0  0  0
   -0.1209    1.9420   -0.0885 C   0  0  0  0  0  0  0  0  0  0  0  0
    0.5927    2.4617    0.5542 H   0  0  0  0  0  0  0  0  0  0  0  0
   -0.2955    2.5163   -0.9982 H   0  0  0  0  0  0  0  0  0  0  0  0
    0.3724    0.5200   -0.4020 C   0  0  1  0  0  0  0  0  0  0  0  0
    0.8239    0.5134   -1.3943 H   0  0  0  0  0  0  0  0  0  0  0  0
    1.3983    0.0272    0.6323 C   0  0  0  0  0  0  0  0  0  0  0  0
    2.5857   -0.0776    0.3318 O   0  0  0  0  0  0  0  0  0  0  0  0
    0.9296   -0.3120    1.8393 N   0  0  0  0  0  0  0  0  0  0  0  0
   -0.0453   -0.1416    2.0276 H   0  0  0  0  0  0  0  0  0  0  0  0
    1.7666   -0.8053    2.9305 C   0  0  0  0  0  0  0  0  0  0  0  0
    2.4596   -0.0206    3.2414 H   0  0  0  0  0  0  0  0  0  0  0  0
    1.1482   -1.0981    3.7796 H   0  0  0  0  0  0  0  0  0  0  0  0
    2.3473   -1.6657    2.5911 H   0  0  0  0  0  0  0  0  0  0  0  0
  5  6  2  0  0  0  0
  5  7  1  0  0  0  0
  2  3  1  0  0  0  0
  2  4  1  0  0  0  0
  2  5  1  0  0  0  0
  1  2  1  0  0  0  0
 19 20  2  0  0  0  0
 19 21  1  0  0  0  0
 17 18  1  0  0  0  0
 17 19  1  0  0  0  0
 14 15  1  0  0  0  0
 14 16  1  0  0  0  0
 14 17  1  0  0  0  0
 11 12  1  0  0  0  0
 11 13  1  0  0  0  0
 11 14  1  0  0  0  0
  8  9  1  0  0  0  0
  8 10  1  0  0  0  0
  8 11  1  0  0  0  0
  7  8  1  0  0  0  0
  7 17  1  0  0  0  0
 23 24  1  0  0  0  0
 23 25  1  0  0  0  0
 23 26  1  0  0  0  0
 21 22  1  0  0  0  0
 21 23  1  0  0  0  0
M  END
$$$$
default_name
  -OEChem-11182114113D

 26 26  0     1  0  0  0  0  0999 V2000
   -1.8446   -3.5060   -0.3010 H   0  0  0  0  0  0  0  0  0  0  0  0
   -2.0746   -2.4490   -0.4240 C   0  0  0  0  0  0  0  0  0  0  0  0
   -2.6906   -2.1160    0.4090 H   0  0  0  0  0  0  0  0  0  0  0  0
   -2.5986   -2.2980   -1.3650 H   0  0  0  0  0  0  0  0  0  0  0  0
   -0.7756   -1.6630   -0.4350 C   0  0  0  0  0  0  0  0  0  0  0  0
    0.2844   -2.2800   -0.4550 O   0  0  0  0  0  0  0  0  0  0  0  0
   -0.8246   -0.3180   -0.4350 N   0  0  0  0  0  0  0  0  0  0  0  0
   -2.0106    0.5080   -0.5910 C   0  0  0  0  0  0  0  0  0  0  0  0
   -2.9830    0.1578   -0.2410 H   0  0  0  0  0  0  0  0  0  0  0  0
   -2.1351    1.2455   -1.3831 H   0  0  0  0  0  0  0  0  0  0  0  0
   -1.2272    1.1176    0.5697 C   0  0  0  0  0  0  0  0  0  0  0  0
   -0.8237    0.3336    1.2124 H   0  0  0  0  0  0  0  0  0  0  0  0
   -1.8931    1.7741    1.1306 H   0  0  0  0  0  0  0  0  0  0  0  0
   -0.1209    1.9420   -0.0885 C   0  0  0  0  0  0  0  0  0  0  0  0
    0.5927    2.4617    0.5542 H   0  0  0  0  0  0  0  0  0  0  0  0
   -0.2955    2.5163   -0.9982 H   0  0  0  0  0  0  0  0  0  0  0  0
    0.3724    0.5200   -0.4020 C   0  0  1  0  0  0  0  0  0  0  0  0
    0.8239    0.5134   -1.3943 H   0  0  0  0  0  0  0  0  0  0  0  0
    1.3983    0.0272    0.6323 C   0  0  0  0  0  0  0  0  0  0  0  0
    2.6026    0.1777    0.4367 O   0  0  0  0  0  0  0  0  0  0  0  0
    0.9184   -0.5971    1.7147 N   0  0  0  0  0  0  0  0  0  0  0  0
   -0.0817   -0.6284    1.8318 H   0  0  0  0  0  0  0  0  0  0  0  0
    1.7551   -1.1321    2.7862 C   0  0  0  0  0  0  0  0  0  0  0  0
    2.2717   -0.3117    3.2891 H   0  0  0  0  0  0  0  0  0  0  0  0
    1.1441   -1.6719    3.5103 H   0  0  0  0  0  0  0  0  0  0  0  0
    2.5039   -1.8083    2.3678 H   0  0  0  0  0  0  0  0  0  0  0  0
  5  6  2  0  0  0  0
  5  7  1  0  0  0  0
  2  3  1  0  0  0  0
  2  4  1  0  0  0  0
  2  5  1  0  0  0  0
  1  2  1  0  0  0  0
 19 20  2  0  0  0  0
 19 21  1  0  0  0  0
 17 18  1  0  0  0  0
 17 19  1  0  0  0  0
 14 15  1  0  0  0  0
 14 16  1  0  0  0  0
 14 17  1  0  0  0  0
 11 12  1  0  0  0  0
 11 13  1  0  0  0  0
 11 14  1  0  0  0  0
  8  9  1  0  0  0  0
  8 10  1  0  0  0  0
  8 11  1  0  0  0  0
  7  8  1  0  0  0  0
  7 17  1  0  0  0  0
 23 24  1  0  0  0  0
 23 25  1  0  0  0  0
 23 26  1  0  0  0  0
 21 22  1  0  0  0  0
 21 23  1  0  0  0  0
M  END
$$$$
default_name
  -OEChem-11182114113D

 26 26  0     1  0  0  0  0  0999 V2000
   -1.8446   -3.5060   -0.3010 H   0  0  0  0  0  0  0  0  0  0  0  0
   -2.0746   -2.4490   -0.4240 C   0  0  0  0  0  0  0  0  0  0  0  0
   -2.6906   -2.1160    0.4090 H   0  0  0  0  0  0  0  0  0  0  0  0
   -2.5986   -2.2980   -1.3650 H   0  0  0  0  0  0  0  0  0  0  0  0
   -0.7756   -1.6630   -0.4350 C   0  0  0  0  0  0  0  0  0  0  0  0
    0.2844   -2.2800   -0.4550 O   0  0  0  0  0  0  0  0  0  0  0  0
   -0.8246   -0.3180   -0.4350 N   0  0  0  0  0  0  0  0  0  0  0  0
   -2.0106    0.5080   -0.5910 C   0  0  0  0  0  0  0  0  0  0  0  0
   -2.9830    0.1578   -0.2410 H   0  0  0  0  0  0  0  0  0  0  0  0
   -2.1351    1.2455   -1.3831 H   0  0  0  0  0  0  0  0  0  0  0  0
   -1.2272    1.1176    0.5697 C   0  0  0  0  0  0  0  0  0  0  0  0
   -0.8237    0.3336    1.2124 H   0  0  0  0  0  0  0  0  0  0  0  0
   -1.8931    1.7741    1.1306 H   0  0  0  0  0  0  0  0  0  0  0  0
   -0.1209    1.9420   -0.0885 C   0  0  0  0  0  0  0  0  0  0  0  0
    0.5927    2.4617    0.5542 H   0  0  0  0  0  0  0  0  0  0  0  0
   -0.2955    2.5163   -0.9982 H   0  0  0  0  0  0  0  0  0  0  0  0
    0.3724    0.5200   -0.4020 C   0  0  1  0  0  0  0  0  0  0  0  0
    0.8239    0.5134   -1.3943 H   0  0  0  0  0  0  0  0  0  0  0  0
    1.3983    0.0272    0.6323 C   0  0  0  0  0  0  0  0  0  0  0  0
    2.5658    0.4092    0.5835 O   0  0  0  0  0  0  0  0  0  0  0  0
    0.9674   -0.8529    1.5441 N   0  0  0  0  0  0  0  0  0  0  0  0
   -0.0160   -1.0711    1.5557 H   0  0  0  0  0  0  0  0  0  0  0  0
    1.8129   -1.4248    2.5894 C   0  0  0  0  0  0  0  0  0  0  0  0
    2.1369   -0.6339    3.2692 H   0  0  0  0  0  0  0  0  0  0  0  0
    1.2624   -2.1804    3.1507 H   0  0  0  0  0  0  0  0  0  0  0  0
    2.6984   -1.8801    2.1406 H   0  0  0  0  0  0  0  0  0  0  0  0
  5  6  2  0  0  0  0
  5  7  1  0  0  0  0
  2  3  1  0  0  0  0
  2  4  1  0  0  0  0
  2  5  1  0  0  0  0
  1  2  1  0  0  0  0
 19 20  2  0  0  0  0
 19 21  1  0  0  0  0
 17 18  1  0  0  0  0
 17 19  1  0  0  0  0
 14 15  1  0  0  0  0
 14 16  1  0  0  0  0
 14 17  1  0  0  0  0
 11 12  1  0  0  0  0
 11 13  1  0  0  0  0
 11 14  1  0  0  0  0
  8  9  1  0  0  0  0
  8 10  1  0  0  0  0
  8 11  1  0  0  0  0
  7  8  1  0  0  0  0
  7 17  1  0  0  0  0
 23 24  1  0  0  0  0
 23 25  1  0  0  0  0
 23 26  1  0  0  0  0
 21 22  1  0  0  0  0
 21 23  1  0  0  0  0
M  END
$$$$
default_name
  -OEChem-11182114113D

 26 26  0     1  0  0  0  0  0999 V2000
   -1.8446   -3.5060   -0.3010 H   0  0  0  0  0  0  0  0  0  0  0  0
   -2.0746   -2.4490   -0.4240 C   0  0  0  0  0  0  0  0  0  0  0  0
   -2.6906   -2.1160    0.4090 H   0  0  0  0  0  0  0  0  0  0  0  0
   -2.5986   -2.2980   -1.3650 H   0  0  0  0  0  0  0  0  0  0  0  0
   -0.7756   -1.6630   -0.4350 C   0  0  0  0  0  0  0  0  0  0  0  0
    0.2844   -2.2800   -0.4550 O   0  0  0  0  0  0  0  0  0  0  0  0
   -0.8246   -0.3180   -0.4350 N   0  0  0  0  0  0  0  0  0  0  0  0
   -2.0106    0.5080   -0.5910 C   0  0  0  0  0  0  0  0  0  0  0  0
   -2.9830    0.1578   -0.2410 H   0  0  0  0  0  0  0  0  0  0  0  0
   -2.1351    1.2455   -1.3831 H   0  0  0  0  0  0  0  0  0  0  0  0
   -1.2272    1.1176    0.5697 C   0  0  0  0  0  0  0  0  0  0  0  0
   -0.8237    0.3336    1.2124 H   0  0  0  0  0  0  0  0  0  0  0  0
   -1.8931    1.7741    1.1306 H   0  0  0  0  0  0  0  0  0  0  0  0
   -0.1209    1.9420   -0.0885 C   0  0  0  0  0  0  0  0  0  0  0  0
    0.5927    2.4617    0.5542 H   0  0  0  0  0  0  0  0  0  0  0  0
   -0.2955    2.5163   -0.9982 H   0  0  0  0  0  0  0  0  0  0  0  0
    0.3724    0.5200   -0.4020 C   0  0  1  0  0  0  0  0  0  0  0  0
    0.8239    0.5134   -1.3943 H   0  0  0  0  0  0  0  0  0  0  0  0
    1.3983    0.0272    0.6323 C   0  0  0  0  0  0  0  0  0  0  0  0
    2.4778    0.6010    0.7622 O   0  0  0  0  0  0  0  0  0  0  0  0
    1.0735   -1.0619    1.3393 N   0  0  0  0  0  0  0  0  0  0  0  0
    0.1475   -1.4396    1.2180 H   0  0  0  0  0  0  0  0  0  0  0  0
    1.9360   -1.6635    2.3536 C   0  0  0  0  0  0  0  0  0  0  0  0
    2.0645   -0.9651    3.1833 H   0  0  0  0  0  0  0  0  0  0  0  0
    1.4950   -2.5889    2.7254 H   0  0  0  0  0  0  0  0  0  0  0  0
    2.9177   -1.8765    1.9249 H   0  0  0  0  0  0  0  0  0  0  0  0
  5  6  2  0  0  0  0
  5  7  1  0  0  0  0
  2  3  1  0  0  0  0
  2  4  1  0  0  0  0
  2  5  1  0  0  0  0
  1  2  1  0  0  0  0
 19 20  2  0  0  0  0
 19 21  1  0  0  0  0
 17 18  1  0  0  0  0
 17 19  1  0  0  0  0
 14 15  1  0  0  0  0
 14 16  1  0  0  0  0
 14 17  1  0  0  0  0
 11 12  1  0  0  0  0
 11 13  1  0  0  0  0
 11 14  1  0  0  0  0
  8  9  1  0  0  0  0
  8 10  1  0  0  0  0
  8 11  1  0  0  0  0
  7  8  1  0  0  0  0
  7 17  1  0  0  0  0
 23 24  1  0  0  0  0
 23 25  1  0  0  0  0
 23 26  1  0  0  0  0
 21 22  1  0  0  0  0
 21 23  1  0  0  0  0
M  END
$$$$
default_name
  -OEChem-11182114113D

 26 26  0     1  0  0  0  0  0999 V2000
   -1.8446   -3.5060   -0.3010 H   0  0  0  0  0  0  0  0  0  0  0  0
   -2.0746   -2.4490   -0.4240 C   0  0  0  0  0  0  0  0  0  0  0  0
   -2.6906   -2.1160    0.4090 H   0  0  0  0  0  0  0  0  0  0  0  0
   -2.5986   -2.2980   -1.3650 H   0  0  0  0  0  0  0  0  0  0  0  0
   -0.7756   -1.6630   -0.4350 C   0  0  0  0  0  0  0  0  0  0  0  0
    0.2844   -2.2800   -0.4550 O   0  0  0  0  0  0  0  0  0  0  0  0
   -0.8246   -0.3180   -0.4350 N   0  0  0  0  0  0  0  0  0  0  0  0
   -2.0106    0.5080   -0.5910 C   0  0  0  0  0  0  0  0  0  0  0  0
   -2.9830    0.1578   -0.2410 H   0  0  0  0  0  0  0  0  0  0  0  0
   -2.1351    1.2455   -1.3831 H   0  0  0  0  0  0  0  0  0  0  0  0
   -1.2272    1.1176    0.5697 C   0  0  0  0  0  0  0  0  0  0  0  0
   -0.8237    0.3336    1.2124 H   0  0  0  0  0  0  0  0  0  0  0  0
   -1.8931    1.7741    1.1306 H   0  0  0  0  0  0  0  0  0  0  0  0
   -0.1209    1.9420   -0.0885 C   0  0  0  0  0  0  0  0  0  0  0  0
    0.5927    2.4617    0.5542 H   0  0  0  0  0  0  0  0  0  0  0  0
   -0.2955    2.5163   -0.9982 H   0  0  0  0  0  0  0  0  0  0  0  0
    0.3724    0.5200   -0.4020 C   0  0  1  0  0  0  0  0  0  0  0  0
    0.8239    0.5134   -1.3943 H   0  0  0  0  0  0  0  0  0  0  0  0
    1.3983    0.0272    0.6323 C   0  0  0  0  0  0  0  0  0  0  0  0
    2.3445    0.7401    0.9607 O   0  0  0  0  0  0  0  0  0  0  0  0
    1.2294   -1.2100    1.1142 N   0  0  0  0  0  0  0  0  0  0  0  0
    0.3975   -1.7088    0.8417 H   0  0  0  0  0  0  0  0  0  0  0  0
    2.1161   -1.8320    2.0948 C   0  0  0  0  0  0  0  0  0  0  0  0
    2.0593   -1.2828    3.0371 H   0  0  0  0  0  0  0  0  0  0  0  0
    1.8260   -2.8695    2.2634 H   0  0  0  0  0  0  0  0  0  0  0  0
    3.1468   -1.7975    1.7353 H   0  0  0  0  0  0  0  0  0  0  0  0
  5  6  2  0  0  0  0
  5  7  1  0  0  0  0
  2  3  1  0  0  0  0
  2  4  1  0  0  0  0
  2  5  1  0  0  0  0
  1  2  1  0  0  0  0
 19 20  2  0  0  0  0
 19 21  1  0  0  0  0
 17 18  1  0  0  0  0
 17 19  1  0  0  0  0
 14 15  1  0  0  0  0
 14 16  1  0  0  0  0
 14 17  1  0  0  0  0
 11 12  1  0  0  0  0
 11 13  1  0  0  0  0
 11 14  1  0  0  0  0
  8  9  1  0  0  0  0
  8 10  1  0  0  0  0
  8 11  1  0  0  0  0
  7  8  1  0  0  0  0
  7 17  1  0  0  0  0
 23 24  1  0  0  0  0
 23 25  1  0  0  0  0
 23 26  1  0  0  0  0
 21 22  1  0  0  0  0
 21 23  1  0  0  0  0
M  END
$$$$
default_name
  -OEChem-11182114113D

 26 26  0     1  0  0  0  0  0999 V2000
   -1.8446   -3.5060   -0.3010 H   0  0  0  0  0  0  0  0  0  0  0  0
   -2.0746   -2.4490   -0.4240 C   0  0  0  0  0  0  0  0  0  0  0  0
   -2.6906   -2.1160    0.4090 H   0  0  0  0  0  0  0  0  0  0  0  0
   -2.5986   -2.2980   -1.3650 H   0  0  0  0  0  0  0  0  0  0  0  0
   -0.7756   -1.6630   -0.4350 C   0  0  0  0  0  0  0  0  0  0  0  0
    0.2844   -2.2800   -0.4550 O   0  0  0  0  0  0  0  0  0  0  0  0
   -0.8246   -0.3180   -0.4350 N   0  0  0  0  0  0  0  0  0  0  0  0
   -2.0106    0.5080   -0.5910 C   0  0  0  0  0  0  0  0  0  0  0  0
   -2.9830    0.1578   -0.2410 H   0  0  0  0  0  0  0  0  0  0  0  0
   -2.1351    1.2455   -1.3831 H   0  0  0  0  0  0  0  0  0  0  0  0
   -1.2272    1.1176    0.5697 C   0  0  0  0  0  0  0  0  0  0  0  0
   -0.8237    0.3336    1.2124 H   0  0  0  0  0  0  0  0  0  0  0  0
   -1.8931    1.7741    1.1306 H   0  0  0  0  0  0  0  0  0  0  0  0
   -0.1209    1.9420   -0.0885 C   0  0  0  0  0  0  0  0  0  0  0  0
    0.5927    2.4617    0.5542 H   0  0  0  0  0  0  0  0  0  0  0  0
   -0.2955    2.5163   -0.9982 H   0  0  0  0  0  0  0  0  0  0  0  0
    0.3724    0.5200   -0.4020 C   0  0  1  0  0  0  0  0  0  0  0  0
    0.8239    0.5134   -1.3943 H   0  0  0  0  0  0  0  0  0  0  0  0
    1.3983    0.0272    0.6323 C   0  0  0  0  0  0  0  0  0  0  0  0
    2.1751    0.8171    1.1653 O   0  0  0  0  0  0  0  0  0  0  0  0
    1.4244   -1.2871    0.8841 N   0  0  0  0  0  0  0  0  0  0  0  0
    0.7171   -1.8603    0.4526 H   0  0  0  0  0  0  0  0  0  0  0  0
    2.3407   -1.9186    1.8306 C   0  0  0  0  0  0  0  0  0  0  0  0
    2.1217   -1.5654    2.8405 H   0  0  0  0  0  0  0  0  0  0  0  0
    2.2329   -3.0032    1.7961 H   0  0  0  0  0  0  0  0  0  0  0  0
    3.3701   -1.6486    1.5848 H   0  0  0  0  0  0  0  0  0  0  0  0
  5  6  2  0  0  0  0
  5  7  1  0  0  0  0
  2  3  1  0  0  0  0
  2  4  1  0  0  0  0
  2  5  1  0  0  0  0
  1  2  1  0  0  0  0
 19 20  2  0  0  0  0
 19 21  1  0  0  0  0
 17 18  1  0  0  0  0
 17 19  1  0  0  0  0
 14 15  1  0  0  0  0
 14 16  1  0  0  0  0
 14 17  1  0  0  0  0
 11 12  1  0  0  0  0
 11 13  1  0  0  0  0
 11 14  1  0  0  0  0
  8  9  1  0  0  0  0
  8 10  1  0  0  0  0
  8 11  1  0  0  0  0
  7  8  1  0  0  0  0
  7 17  1  0  0  0  0
 23 24  1  0  0  0  0
 23 25  1  0  0  0  0
 23 26  1  0  0  0  0
 21 22  1  0  0  0  0
 21 23  1  0  0  0  0
M  END
$$$$
default_name
  -OEChem-11182114113D

 26 26  0     1  0  0  0  0  0999 V2000
   -1.8446   -3.5060   -0.3010 H   0  0  0  0  0  0  0  0  0  0  0  0
   -2.0746   -2.4490   -0.4240 C   0  0  0  0  0  0  0  0  0  0  0  0
   -2.6906   -2.1160    0.4090 H   0  0  0  0  0  0  0  0  0  0  0  0
   -2.5986   -2.2980   -1.3650 H   0  0  0  0  0  0  0  0  0  0  0  0
   -0.7756   -1.6630   -0.4350 C   0  0  0  0  0  0  0  0  0  0  0  0
    0.2844   -2.2800   -0.4550 O   0  0  0  0  0  0  0  0  0  0  0  0
   -0.8246   -0.3180   -0.4350 N   0  0  0  0  0  0  0  0  0  0  0  0
   -2.0106    0.5080   -0.5910 C   0  0  0  0  0  0  0  0  0  0  0  0
   -2.9830    0.1578   -0.2410 H   0  0  0  0  0  0  0  0  0  0  0  0
   -2.1351    1.2455   -1.3831 H   0  0  0  0  0  0  0  0  0  0  0  0
   -1.2272    1.1176    0.5697 C   0  0  0  0  0  0  0  0  0  0  0  0
   -0.8237    0.3336    1.2124 H   0  0  0  0  0  0  0  0  0  0  0  0
   -1.8931    1.7741    1.1306 H   0  0  0  0  0  0  0  0  0  0  0  0
   -0.1209    1.9420   -0.0885 C   0  0  0  0  0  0  0  0  0  0  0  0
    0.5927    2.4617    0.5542 H   0  0  0  0  0  0  0  0  0  0  0  0
   -0.2955    2.5163   -0.9982 H   0  0  0  0  0  0  0  0  0  0  0  0
    0.3724    0.5200   -0.4020 C   0  0  1  0  0  0  0  0  0  0  0  0
    0.8239    0.5134   -1.3943 H   0  0  0  0  0  0  0  0  0  0  0  0
    1.3983    0.0272    0.6323 C   0  0  0  0  0  0  0  0  0  0  0  0
    1.9811    0.8265    1.3623 O   0  0  0  0  0  0  0  0  0  0  0  0
    1.6452   -1.2879    0.6646 N   0  0  0  0  0  0  0  0  0  0  0  0
    1.0845   -1.8838    0.0770 H   0  0  0  0  0  0  0  0  0  0  0  0
    2.5947   -1.9176    1.5791 C   0  0  0  0  0  0  0  0  0  0  0  0
    2.2475   -1.7935    2.6071 H   0  0  0  0  0  0  0  0  0  0  0  0
    2.6880   -2.9808    1.3554 H   0  0  0  0  0  0  0  0  0  0  0  0
    3.5723   -1.4399    1.4836 H   0  0  0  0  0  0  0  0  0  0  0  0
  5  6  2  0  0  0  0
  5  7  1  0  0  0  0
  2  3  1  0  0  0  0
  2  4  1  0  0  0  0
  2  5  1  0  0  0  0
  1  2  1  0  0  0  0
 19 20  2  0  0  0  0
 19 21  1  0  0  0  0
 17 18  1  0  0  0  0
 17 19  1  0  0  0  0
 14 15  1  0  0  0  0
 14 16  1  0  0  0  0
 14 17  1  0  0  0  0
 11 12  1  0  0  0  0
 11 13  1  0  0  0  0
 11 14  1  0  0  0  0
  8  9  1  0  0  0  0
  8 10  1  0  0  0  0
  8 11  1  0  0  0  0
  7  8  1  0  0  0  0
  7 17  1  0  0  0  0
 23 24  1  0  0  0  0
 23 25  1  0  0  0  0
 23 26  1  0  0  0  0
 21 22  1  0  0  0  0
 21 23  1  0  0  0  0
M  END
$$$$
default_name
  -OEChem-11182114113D

 26 26  0     1  0  0  0  0  0999 V2000
   -1.8446   -3.5060   -0.3010 H   0  0  0  0  0  0  0  0  0  0  0  0
   -2.0746   -2.4490   -0.4240 C   0  0  0  0  0  0  0  0  0  0  0  0
   -2.6906   -2.1160    0.4090 H   0  0  0  0  0  0  0  0  0  0  0  0
   -2.5986   -2.2980   -1.3650 H   0  0  0  0  0  0  0  0  0  0  0  0
   -0.7756   -1.6630   -0.4350 C   0  0  0  0  0  0  0  0  0  0  0  0
    0.2844   -2.2800   -0.4550 O   0  0  0  0  0  0  0  0  0  0  0  0
   -0.8246   -0.3180   -0.4350 N   0  0  0  0  0  0  0  0  0  0  0  0
   -2.0106    0.5080   -0.5910 C   0  0  0  0  0  0  0  0  0  0  0  0
   -2.9830    0.1578   -0.2410 H   0  0  0  0  0  0  0  0  0  0  0  0
   -2.1351    1.2455   -1.3831 H   0  0  0  0  0  0  0  0  0  0  0  0
   -1.2272    1.1176    0.5697 C   0  0  0  0  0  0  0  0  0  0  0  0
   -0.8237    0.3336    1.2124 H   0  0  0  0  0  0  0  0  0  0  0  0
   -1.8931    1.7741    1.1306 H   0  0  0  0  0  0  0  0  0  0  0  0
   -0.1209    1.9420   -0.0885 C   0  0  0  0  0  0  0  0  0  0  0  0
    0.5927    2.4617    0.5542 H   0  0  0  0  0  0  0  0  0  0  0  0
   -0.2955    2.5163   -0.9982 H   0  0  0  0  0  0  0  0  0  0  0  0
    0.3724    0.5200   -0.4020 C   0  0  1  0  0  0  0  0  0  0  0  0
    0.8239    0.5134   -1.3943 H   0  0  0  0  0  0  0  0  0  0  0  0
    1.3983    0.0272    0.6323 C   0  0  0  0  0  0  0  0  0  0  0  0
    1.7758    0.7679    1.5380 O   0  0  0  0  0  0  0  0  0  0  0  0
    1.8769   -1.2123    0.4709 N   0  0  0  0  0  0  0  0  0  0  0  0
    1.4746   -1.7778   -0.2594 H   0  0  0  0  0  0  0  0  0  0  0  0
    2.8608   -1.8290    1.3575 C   0  0  0  0  0  0  0  0  0  0  0  0
    2.4280   -1.9516    2.3527 H   0  0  0  0  0  0  0  0  0  0  0  0
    3.1602   -2.8039    0.9713 H   0  0  0  0  0  0  0  0  0  0  0  0
    3.7396   -1.1857    1.4387 H   0  0  0  0  0  0  0  0  0  0  0  0
  5  6  2  0  0  0  0
  5  7  1  0  0  0  0
  2  3  1  0  0  0  0
  2  4  1  0  0  0  0
  2  5  1  0  0  0  0
  1  2  1  0  0  0  0
 19 20  2  0  0  0  0
 19 21  1  0  0  0  0
 17 18  1  0  0  0  0
 17 19  1  0  0  0  0
 14 15  1  0  0  0  0
 14 16  1  0  0  0  0
 14 17  1  0  0  0  0
 11 12  1  0  0  0  0
 11 13  1  0  0  0  0
 11 14  1  0  0  0  0
  8  9  1  0  0  0  0
  8 10  1  0  0  0  0
  8 11  1  0  0  0  0
  7  8  1  0  0  0  0
  7 17  1  0  0  0  0
 23 24  1  0  0  0  0
 23 25  1  0  0  0  0
 23 26  1  0  0  0  0
 21 22  1  0  0  0  0
 21 23  1  0  0  0  0
M  END
$$$$
default_name
  -OEChem-11182114113D

 26 26  0     1  0  0  0  0  0999 V2000
   -1.8446   -3.5060   -0.3010 H   0  0  0  0  0  0  0  0  0  0  0  0
   -2.0746   -2.4490   -0.4240 C   0  0  0  0  0  0  0  0  0  0  0  0
   -2.6906   -2.1160    0.4090 H   0  0  0  0  0  0  0  0  0  0  0  0
   -2.5986   -2.2980   -1.3650 H   0  0  0  0  0  0  0  0  0  0  0  0
   -0.7756   -1.6630   -0.4350 C   0  0  0  0  0  0  0  0  0  0  0  0
    0.2844   -2.2800   -0.4550 O   0  0  0  0  0  0  0  0  0  0  0  0
   -0.8246   -0.3180   -0.4350 N   0  0  0  0  0  0  0  0  0  0  0  0
   -2.0106    0.5080   -0.5910 C   0  0  0  0  0  0  0  0  0  0  0  0
   -2.9830    0.1578   -0.2410 H   0  0  0  0  0  0  0  0  0  0  0  0
   -2.1351    1.2455   -1.3831 H   0  0  0  0  0  0  0  0  0  0  0  0
   -1.2272    1.1176    0.5697 C   0  0  0  0  0  0  0  0  0  0  0  0
   -0.8237    0.3336    1.2124 H   0  0  0  0  0  0  0  0  0  0  0  0
   -1.8931    1.7741    1.1306 H   0  0  0  0  0  0  0  0  0  0  0  0
   -0.1209    1.9420   -0.0885 C   0  0  0  0  0  0  0  0  0  0  0  0
    0.5927    2.4617    0.5542 H   0  0  0  0  0  0  0  0  0  0  0  0
   -0.2955    2.5163   -0.9982 H   0  0  0  0  0  0  0  0  0  0  0  0
    0.3724    0.5200   -0.4020 C   0  0  1  0  0  0  0  0  0  0  0  0
    0.8239    0.5134   -1.3943 H   0  0  0  0  0  0  0  0  0  0  0  0
    1.3983    0.0272    0.6323 C   0  0  0  0  0  0  0  0  0  0  0  0
    1.5730    0.6452    1.6806 O   0  0  0  0  0  0  0  0  0  0  0  0
    2.1035   -1.0655    0.3160 N   0  0  0  0  0  0  0  0  0  0  0  0
    1.8608   -1.5494   -0.5337 H   0  0  0  0  0  0  0  0  0  0  0  0
    3.1207   -1.6589    1.1807 C   0  0  0  0  0  0  0  0  0  0  0  0
    2.6511   -2.0290    2.0946 H   0  0  0  0  0  0  0  0  0  0  0  0
    3.6174   -2.4845    0.6700 H   0  0  0  0  0  0  0  0  0  0  0  0
    3.8608   -0.9032    1.4531 H   0  0  0  0  0  0  0  0  0  0  0  0
  5  6  2  0  0  0  0
  5  7  1  0  0  0  0
  2  3  1  0  0  0  0
  2  4  1  0  0  0  0
  2  5  1  0  0  0  0
  1  2  1  0  0  0  0
 19 20  2  0  0  0  0
 19 21  1  0  0  0  0
 17 18  1  0  0  0  0
 17 19  1  0  0  0  0
 14 15  1  0  0  0  0
 14 16  1  0  0  0  0
 14 17  1  0  0  0  0
 11 12  1  0  0  0  0
 11 13  1  0  0  0  0
 11 14  1  0  0  0  0
  8  9  1  0  0  0  0
  8 10  1  0  0  0  0
  8 11  1  0  0  0  0
  7  8  1  0  0  0  0
  7 17  1  0  0  0  0
 23 24  1  0  0  0  0
 23 25  1  0  0  0  0
 23 26  1  0  0  0  0
 21 22  1  0  0  0  0
 21 23  1  0  0  0  0
M  END
$$$$
default_name
  -OEChem-11182114113D

 26 26  0     1  0  0  0  0  0999 V2000
   -1.8446   -3.5060   -0.3010 H   0  0  0  0  0  0  0  0  0  0  0  0
   -2.0746   -2.4490   -0.4240 C   0  0  0  0  0  0  0  0  0  0  0  0
   -2.6906   -2.1160    0.4090 H   0  0  0  0  0  0  0  0  0  0  0  0
   -2.5986   -2.2980   -1.3650 H   0  0  0  0  0  0  0  0  0  0  0  0
   -0.7756   -1.6630   -0.4350 C   0  0  0  0  0  0  0  0  0  0  0  0
    0.2844   -2.2800   -0.4550 O   0  0  0  0  0  0  0  0  0  0  0  0
   -0.8246   -0.3180   -0.4350 N   0  0  0  0  0  0  0  0  0  0  0  0
   -2.0106    0.5080   -0.5910 C   0  0  0  0  0  0  0  0  0  0  0  0
   -2.9830    0.1578   -0.2410 H   0  0  0  0  0  0  0  0  0  0  0  0
   -2.1351    1.2455   -1.3831 H   0  0  0  0  0  0  0  0  0  0  0  0
   -1.2272    1.1176    0.5697 C   0  0  0  0  0  0  0  0  0  0  0  0
   -0.8237    0.3336    1.2124 H   0  0  0  0  0  0  0  0  0  0  0  0
   -1.8931    1.7741    1.1306 H   0  0  0  0  0  0  0  0  0  0  0  0
   -0.1209    1.9420   -0.0885 C   0  0  0  0  0  0  0  0  0  0  0  0
    0.5927    2.4617    0.5542 H   0  0  0  0  0  0  0  0  0  0  0  0
   -0.2955    2.5163   -0.9982 H   0  0  0  0  0  0  0  0  0  0  0  0
    0.3724    0.5200   -0.4020 C   0  0  1  0  0  0  0  0  0  0  0  0
    0.8239    0.5134   -1.3943 H   0  0  0  0  0  0  0  0  0  0  0  0
    1.3983    0.0272    0.6323 C   0  0  0  0  0  0  0  0  0  0  0  0
    1.3868    0.4668    1.7804 O   0  0  0  0  0  0  0  0  0  0  0  0
    2.3098   -0.8576    0.2105 N   0  0  0  0  0  0  0  0  0  0  0  0
    2.2168   -1.2141   -0.7271 H   0  0  0  0  0  0  0  0  0  0  0  0
    3.3568   -1.4188    1.0609 C   0  0  0  0  0  0  0  0  0  0  0  0
    2.9014   -2.0204    1.8504 H   0  0  0  0  0  0  0  0  0  0  0  0
    4.0284   -2.0443    0.4721 H   0  0  0  0  0  0  0  0  0  0  0  0
    3.9274   -0.6118    1.5259 H   0  0  0  0  0  0  0  0  0  0  0  0
  5  6  2  0  0  0  0
  5  7  1  0  0  0  0
  2  3  1  0  0  0  0
  2  4  1  0  0  0  0
  2  5  1  0  0  0  0
  1  2  1  0  0  0  0
 19 20  2  0  0  0  0
 19 21  1  0  0  0  0
 17 18  1  0  0  0  0
 17 19  1  0  0  0  0
 14 15  1  0  0  0  0
 14 16  1  0  0  0  0
 14 17  1  0  0  0  0
 11 12  1  0  0  0  0
 11 13  1  0  0  0  0
 11 14  1  0  0  0  0
  8  9  1  0  0  0  0
  8 10  1  0  0  0  0
  8 11  1  0  0  0  0
  7  8  1  0  0  0  0
  7 17  1  0  0  0  0
 23 24  1  0  0  0  0
 23 25  1  0  0  0  0
 23 26  1  0  0  0  0
 21 22  1  0  0  0  0
 21 23  1  0  0  0  0
M  END
$$$$
default_name
  -OEChem-11182114113D

 26 26  0     1  0  0  0  0  0999 V2000
   -1.8446   -3.5060   -0.3010 H   0  0  0  0  0  0  0  0  0  0  0  0
   -2.0746   -2.4490   -0.4240 C   0  0  0  0  0  0  0  0  0  0  0  0
   -2.6906   -2.1160    0.4090 H   0  0  0  0  0  0  0  0  0  0  0  0
   -2.5986   -2.2980   -1.3650 H   0  0  0  0  0  0  0  0  0  0  0  0
   -0.7756   -1.6630   -0.4350 C   0  0  0  0  0  0  0  0  0  0  0  0
    0.2844   -2.2800   -0.4550 O   0  0  0  0  0  0  0  0  0  0  0  0
   -0.8246   -0.3180   -0.4350 N   0  0  0  0  0  0  0  0  0  0  0  0
   -2.0106    0.5080   -0.5910 C   0  0  0  0  0  0  0  0  0  0  0  0
   -2.9830    0.1578   -0.2410 H   0  0  0  0  0  0  0  0  0  0  0  0
   -2.1351    1.2455   -1.3831 H   0  0  0  0  0  0  0  0  0  0  0  0
   -1.2272    1.1176    0.5697 C   0  0  0  0  0  0  0  0  0  0  0  0
   -0.8237    0.3336    1.2124 H   0  0  0  0  0  0  0  0  0  0  0  0
   -1.8931    1.7741    1.1306 H   0  0  0  0  0  0  0  0  0  0  0  0
   -0.1209    1.9420   -0.0885 C   0  0  0  0  0  0  0  0  0  0  0  0
    0.5927    2.4617    0.5542 H   0  0  0  0  0  0  0  0  0  0  0  0
   -0.2955    2.5163   -0.9982 H   0  0  0  0  0  0  0  0  0  0  0  0
    0.3724    0.5200   -0.4020 C   0  0  1  0  0  0  0  0  0  0  0  0
    0.8239    0.5134   -1.3943 H   0  0  0  0  0  0  0  0  0  0  0  0
    1.3983    0.0272    0.6323 C   0  0  0  0  0  0  0  0  0  0  0  0
    1.2296    0.2448    1.8305 O   0  0  0  0  0  0  0  0  0  0  0  0
    2.4815   -0.6026    0.1616 N   0  0  0  0  0  0  0  0  0  0  0  0
    2.5184   -0.7950   -0.8266 H   0  0  0  0  0  0  0  0  0  0  0  0
    3.5530   -1.1250    1.0063 C   0  0  0  0  0  0  0  0  0  0  0  0
    3.1619   -1.9264    1.6368 H   0  0  0  0  0  0  0  0  0  0  0  0
    4.3652   -1.5135    0.3909 H   0  0  0  0  0  0  0  0  0  0  0  0
    3.9351   -0.3313    1.6520 H   0  0  0  0  0  0  0  0  0  0  0  0
  5  6  2  0  0  0  0
  5  7  1  0  0  0  0
  2  3  1  0  0  0  0
  2  4  1  0  0  0  0
  2  5  1  0  0  0  0
  1  2  1  0  0  0  0
 19 20  2  0  0  0  0
 19 21  1  0  0  0  0
 17 18  1  0  0  0  0
 17 19  1  0  0  0  0
 14 15  1  0  0  0  0
 14 16  1  0  0  0  0
 14 17  1  0  0  0  0
 11 12  1  0  0  0  0
 11 13  1  0  0  0  0
 11 14  1  0  0  0  0
  8  9  1  0  0  0  0
  8 10  1  0  0  0  0
  8 11  1  0  0  0  0
  7  8  1  0  0  0  0
  7 17  1  0  0  0  0
 23 24  1  0  0  0  0
 23 25  1  0  0  0  0
 23 26  1  0  0  0  0
 21 22  1  0  0  0  0
 21 23  1  0  0  0  0
M  END
$$$$
default_name
  -OEChem-11182114113D

 26 26  0     1  0  0  0  0  0999 V2000
   -1.8446   -3.5060   -0.3010 H   0  0  0  0  0  0  0  0  0  0  0  0
   -2.0746   -2.4490   -0.4240 C   0  0  0  0  0  0  0  0  0  0  0  0
   -2.6906   -2.1160    0.4090 H   0  0  0  0  0  0  0  0  0  0  0  0
   -2.5986   -2.2980   -1.3650 H   0  0  0  0  0  0  0  0  0  0  0  0
   -0.7756   -1.6630   -0.4350 C   0  0  0  0  0  0  0  0  0  0  0  0
    0.2844   -2.2800   -0.4550 O   0  0  0  0  0  0  0  0  0  0  0  0
   -0.8246   -0.3180   -0.4350 N   0  0  0  0  0  0  0  0  0  0  0  0
   -2.0106    0.5080   -0.5910 C   0  0  0  0  0  0  0  0  0  0  0  0
   -2.9830    0.1578   -0.2410 H   0  0  0  0  0  0  0  0  0  0  0  0
   -2.1351    1.2455   -1.3831 H   0  0  0  0  0  0  0  0  0  0  0  0
   -1.2272    1.1176    0.5697 C   0  0  0  0  0  0  0  0  0  0  0  0
   -0.8237    0.3336    1.2124 H   0  0  0  0  0  0  0  0  0  0  0  0
   -1.8931    1.7741    1.1306 H   0  0  0  0  0  0  0  0  0  0  0  0
   -0.1209    1.9420   -0.0885 C   0  0  0  0  0  0  0  0  0  0  0  0
    0.5927    2.4617    0.5542 H   0  0  0  0  0  0  0  0  0  0  0  0
   -0.2955    2.5163   -0.9982 H   0  0  0  0  0  0  0  0  0  0  0  0
    0.3724    0.5200   -0.4020 C   0  0  1  0  0  0  0  0  0  0  0  0
    0.8239    0.5134   -1.3943 H   0  0  0  0  0  0  0  0  0  0  0  0
    1.3983    0.0272    0.6323 C   0  0  0  0  0  0  0  0  0  0  0  0
    1.1123   -0.0057    1.8275 O   0  0  0  0  0  0  0  0  0  0  0  0
    2.6071   -0.3179    0.1727 N   0  0  0  0  0  0  0  0  0  0  0  0
    2.7450   -0.3204   -0.8252 H   0  0  0  0  0  0  0  0  0  0  0  0
    3.6960   -0.7977    1.0204 C   0  0  0  0  0  0  0  0  0  0  0  0
    3.4149   -1.7533    1.4684 H   0  0  0  0  0  0  0  0  0  0  0  0
    4.6048   -0.9281    0.4321 H   0  0  0  0  0  0  0  0  0  0  0  0
    3.8831   -0.0808    1.8228 H   0  0  0  0  0  0  0  0  0  0  0  0
  5  6  2  0  0  0  0
  5  7  1  0  0  0  0
  2  3  1  0  0  0  0
  2  4  1  0  0  0  0
  2  5  1  0  0  0  0
  1  2  1  0  0  0  0
 19 20  2  0  0  0  0
 19 21  1  0  0  0  0
 17 18  1  0  0  0  0
 17 19  1  0  0  0  0
 14 15  1  0  0  0  0
 14 16  1  0  0  0  0
 14 17  1  0  0  0  0
 11 12  1  0  0  0  0
 11 13  1  0  0  0  0
 11 14  1  0  0  0  0
  8  9  1  0  0  0  0
  8 10  1  0  0  0  0
  8 11  1  0  0  0  0
  7  8  1  0  0  0  0
  7 17  1  0  0  0  0
 23 24  1  0  0  0  0
 23 25  1  0  0  0  0
 23 26  1  0  0  0  0
 21 22  1  0  0  0  0
 21 23  1  0  0  0  0
M  END
$$$$
default_name
  -OEChem-11182114113D

 26 26  0     1  0  0  0  0  0999 V2000
   -1.8446   -3.5060   -0.3010 H   0  0  0  0  0  0  0  0  0  0  0  0
   -2.0746   -2.4490   -0.4240 C   0  0  0  0  0  0  0  0  0  0  0  0
   -2.6906   -2.1160    0.4090 H   0  0  0  0  0  0  0  0  0  0  0  0
   -2.5986   -2.2980   -1.3650 H   0  0  0  0  0  0  0  0  0  0  0  0
   -0.7756   -1.6630   -0.4350 C   0  0  0  0  0  0  0  0  0  0  0  0
    0.2844   -2.2800   -0.4550 O   0  0  0  0  0  0  0  0  0  0  0  0
   -0.8246   -0.3180   -0.4350 N   0  0  0  0  0  0  0  0  0  0  0  0
   -2.0106    0.5080   -0.5910 C   0  0  0  0  0  0  0  0  0  0  0  0
   -2.9830    0.1578   -0.2410 H   0  0  0  0  0  0  0  0  0  0  0  0
   -2.1351    1.2455   -1.3831 H   0  0  0  0  0  0  0  0  0  0  0  0
   -1.2272    1.1176    0.5697 C   0  0  0  0  0  0  0  0  0  0  0  0
   -0.8237    0.3336    1.2124 H   0  0  0  0  0  0  0  0  0  0  0  0
   -1.8931    1.7741    1.1306 H   0  0  0  0  0  0  0  0  0  0  0  0
   -0.1209    1.9420   -0.0885 C   0  0  0  0  0  0  0  0  0  0  0  0
    0.5927    2.4617    0.5542 H   0  0  0  0  0  0  0  0  0  0  0  0
   -0.2955    2.5163   -0.9982 H   0  0  0  0  0  0  0  0  0  0  0  0
    0.3724    0.5200   -0.4020 C   0  0  1  0  0  0  0  0  0  0  0  0
    0.8239    0.5134   -1.3943 H   0  0  0  0  0  0  0  0  0  0  0  0
    1.3983    0.0272    0.6323 C   0  0  0  0  0  0  0  0  0  0  0  0
    1.0428   -0.2675    1.7717 O   0  0  0  0  0  0  0  0  0  0  0  0
    2.6779   -0.0230    0.2429 N   0  0  0  0  0  0  0  0  0  0  0  0
    2.8812    0.1772   -0.7232 H   0  0  0  0  0  0  0  0  0  0  0  0
    3.7759   -0.4591    1.1025 C   0  0  0  0  0  0  0  0  0  0  0  0
    3.6431   -1.5130    1.3565 H   0  0  0  0  0  0  0  0  0  0  0  0
    4.7310   -0.3280    0.5929 H   0  0  0  0  0  0  0  0  0  0  0  0
    3.7752    0.1227    2.0268 H   0  0  0  0  0  0  0  0  0  0  0  0
  5  6  2  0  0  0  0
  5  7  1  0  0  0  0
  2  3  1  0  0  0  0
  2  4  1  0  0  0  0
  2  5  1  0  0  0  0
  1  2  1  0  0  0  0
 19 20  2  0  0  0  0
 19 21  1  0  0  0  0
 17 18  1  0  0  0  0
 17 19  1  0  0  0  0
 14 15  1  0  0  0  0
 14 16  1  0  0  0  0
 14 17  1  0  0  0  0
 11 12  1  0  0  0  0
 11 13  1  0  0  0  0
 11 14  1  0  0  0  0
  8  9  1  0  0  0  0
  8 10  1  0  0  0  0
  8 11  1  0  0  0  0
  7  8  1  0  0  0  0
  7 17  1  0  0  0  0
 23 24  1  0  0  0  0
 23 25  1  0  0  0  0
 23 26  1  0  0  0  0
 21 22  1  0  0  0  0
 21 23  1  0  0  0  0
M  END
$$$$
default_name
  -OEChem-11182114113D

 26 26  0     1  0  0  0  0  0999 V2000
   -1.8446   -3.5060   -0.3010 H   0  0  0  0  0  0  0  0  0  0  0  0
   -2.0746   -2.4490   -0.4240 C   0  0  0  0  0  0  0  0  0  0  0  0
   -2.6906   -2.1160    0.4090 H   0  0  0  0  0  0  0  0  0  0  0  0
   -2.5986   -2.2980   -1.3650 H   0  0  0  0  0  0  0  0  0  0  0  0
   -0.7756   -1.6630   -0.4350 C   0  0  0  0  0  0  0  0  0  0  0  0
    0.2844   -2.2800   -0.4550 O   0  0  0  0  0  0  0  0  0  0  0  0
   -0.8246   -0.3180   -0.4350 N   0  0  0  0  0  0  0  0  0  0  0  0
   -2.0106    0.5080   -0.5910 C   0  0  0  0  0  0  0  0  0  0  0  0
   -2.9830    0.1578   -0.2410 H   0  0  0  0  0  0  0  0  0  0  0  0
   -2.1351    1.2455   -1.3831 H   0  0  0  0  0  0  0  0  0  0  0  0
   -1.2272    1.1176    0.5697 C   0  0  0  0  0  0  0  0  0  0  0  0
   -0.8237    0.3336    1.2124 H   0  0  0  0  0  0  0  0  0  0  0  0
   -1.8931    1.7741    1.1306 H   0  0  0  0  0  0  0  0  0  0  0  0
   -0.1209    1.9420   -0.0885 C   0  0  0  0  0  0  0  0  0  0  0  0
    0.5927    2.4617    0.5542 H   0  0  0  0  0  0  0  0  0  0  0  0
   -0.2955    2.5163   -0.9982 H   0  0  0  0  0  0  0  0  0  0  0  0
    0.3724    0.5200   -0.4020 C   0  0  1  0  0  0  0  0  0  0  0  0
    0.8239    0.5134   -1.3943 H   0  0  0  0  0  0  0  0  0  0  0  0
    1.3983    0.0272    0.6323 C   0  0  0  0  0  0  0  0  0  0  0  0
    1.0260   -0.5229    1.6668 O   0  0  0  0  0  0  0  0  0  0  0  0
    2.6892    0.2620    0.3676 N   0  0  0  0  0  0  0  0  0  0  0  0
    2.9177    0.6639   -0.5275 H   0  0  0  0  0  0  0  0  0  0  0  0
    3.7873   -0.1323    1.2468 C   0  0  0  0  0  0  0  0  0  0  0  0
    3.8310   -1.2218    1.3088 H   0  0  0  0  0  0  0  0  0  0  0  0
    4.7350    0.2458    0.8622 H   0  0  0  0  0  0  0  0  0  0  0  0
    3.6186    0.2652    2.2500 H   0  0  0  0  0  0  0  0  0  0  0  0
  5  6  2  0  0  0  0
  5  7  1  0  0  0  0
  2  3  1  0  0  0  0
  2  4  1  0  0  0  0
  2  5  1  0  0  0  0
  1  2  1  0  0  0  0
 19 20  2  0  0  0  0
 19 21  1  0  0  0  0
 17 18  1  0  0  0  0
 17 19  1  0  0  0  0
 14 15  1  0  0  0  0
 14 16  1  0  0  0  0
 14 17  1  0  0  0  0
 11 12  1  0  0  0  0
 11 13  1  0  0  0  0
 11 14  1  0  0  0  0
  8  9  1  0  0  0  0
  8 10  1  0  0  0  0
  8 11  1  0  0  0  0
  7  8  1  0  0  0  0
  7 17  1  0  0  0  0
 23 24  1  0  0  0  0
 23 25  1  0  0  0  0
 23 26  1  0  0  0  0
 21 22  1  0  0  0  0
 21 23  1  0  0  0  0
M  END
$$$$
default_name
  -OEChem-11182114113D

 26 26  0     1  0  0  0  0  0999 V2000
   -1.8446   -3.5060   -0.3010 H   0  0  0  0  0  0  0  0  0  0  0  0
   -2.0746   -2.4490   -0.4240 C   0  0  0  0  0  0  0  0  0  0  0  0
   -2.6906   -2.1160    0.4090 H   0  0  0  0  0  0  0  0  0  0  0  0
   -2.5986   -2.2980   -1.3650 H   0  0  0  0  0  0  0  0  0  0  0  0
   -0.7756   -1.6630   -0.4350 C   0  0  0  0  0  0  0  0  0  0  0  0
    0.2844   -2.2800   -0.4550 O   0  0  0  0  0  0  0  0  0  0  0  0
   -0.8246   -0.3180   -0.4350 N   0  0  0  0  0  0  0  0  0  0  0  0
   -2.0106    0.5080   -0.5910 C   0  0  0  0  0  0  0  0  0  0  0  0
   -2.9830    0.1578   -0.2410 H   0  0  0  0  0  0  0  0  0  0  0  0
   -2.1351    1.2455   -1.3831 H   0  0  0  0  0  0  0  0  0  0  0  0
   -1.2272    1.1176    0.5697 C   0  0  0  0  0  0  0  0  0  0  0  0
   -0.8237    0.3336    1.2124 H   0  0  0  0  0  0  0  0  0  0  0  0
   -1.8931    1.7741    1.1306 H   0  0  0  0  0  0  0  0  0  0  0  0
   -0.1209    1.9420   -0.0885 C   0  0  0  0  0  0  0  0  0  0  0  0
    0.5927    2.4617    0.5542 H   0  0  0  0  0  0  0  0  0  0  0  0
   -0.2955    2.5163   -0.9982 H   0  0  0  0  0  0  0  0  0  0  0  0
    0.3724    0.5200   -0.4020 C   0  0  1  0  0  0  0  0  0  0  0  0
    0.8239    0.5134   -1.3943 H   0  0  0  0  0  0  0  0  0  0  0  0
    1.3983    0.0272    0.6323 C   0  0  0  0  0  0  0  0  0  0  0  0
    1.0628   -0.7543    1.5200 O   0  0  0  0  0  0  0  0  0  0  0  0
    2.6401    0.5178    0.5381 N   0  0  0  0  0  0  0  0  0  0  0  0
    2.8519    1.1066   -0.2514 H   0  0  0  0  0  0  0  0  0  0  0  0
    3.7295    0.1604    1.4436 C   0  0  0  0  0  0  0  0  0  0  0  0
    3.9658   -0.8996    1.3287 H   0  0  0  0  0  0  0  0  0  0  0  0
    4.6168    0.7542    1.2218 H   0  0  0  0  0  0  0  0  0  0  0  0
    3.4241    0.3371    2.4772 H   0  0  0  0  0  0  0  0  0  0  0  0
  5  6  2  0  0  0  0
  5  7  1  0  0  0  0
  2  3  1  0  0  0  0
  2  4  1  0  0  0  0
  2  5  1  0  0  0  0
  1  2  1  0  0  0  0
 19 20  2  0  0  0  0
 19 21  1  0  0  0  0
 17 18  1  0  0  0  0
 17 19  1  0  0  0  0
 14 15  1  0  0  0  0
 14 16  1  0  0  0  0
 14 17  1  0  0  0  0
 11 12  1  0  0  0  0
 11 13  1  0  0  0  0
 11 14  1  0  0  0  0
  8  9  1  0  0  0  0
  8 10  1  0  0  0  0
  8 11  1  0  0  0  0
  7  8  1  0  0  0  0
  7 17  1  0  0  0  0
 23 24  1  0  0  0  0
 23 25  1  0  0  0  0
 23 26  1  0  0  0  0
 21 22  1  0  0  0  0
 21 23  1  0  0  0  0
M  END
$$$$
default_name
  -OEChem-11182114113D

 26 26  0     1  0  0  0  0  0999 V2000
   -1.8446   -3.5060   -0.3010 H   0  0  0  0  0  0  0  0  0  0  0  0
   -2.0746   -2.4490   -0.4240 C   0  0  0  0  0  0  0  0  0  0  0  0
   -2.6906   -2.1160    0.4090 H   0  0  0  0  0  0  0  0  0  0  0  0
   -2.5986   -2.2980   -1.3650 H   0  0  0  0  0  0  0  0  0  0  0  0
   -0.7756   -1.6630   -0.4350 C   0  0  0  0  0  0  0  0  0  0  0  0
    0.2844   -2.2800   -0.4550 O   0  0  0  0  0  0  0  0  0  0  0  0
   -0.8246   -0.3180   -0.4350 N   0  0  0  0  0  0  0  0  0  0  0  0
   -2.0106    0.5080   -0.5910 C   0  0  0  0  0  0  0  0  0  0  0  0
   -2.9830    0.1578   -0.2410 H   0  0  0  0  0  0  0  0  0  0  0  0
   -2.1351    1.2455   -1.3831 H   0  0  0  0  0  0  0  0  0  0  0  0
   -1.2272    1.1176    0.5697 C   0  0  0  0  0  0  0  0  0  0  0  0
   -0.8237    0.3336    1.2124 H   0  0  0  0  0  0  0  0  0  0  0  0
   -1.8931    1.7741    1.1306 H   0  0  0  0  0  0  0  0  0  0  0  0
   -0.1209    1.9420   -0.0885 C   0  0  0  0  0  0  0  0  0  0  0  0
    0.5927    2.4617    0.5542 H   0  0  0  0  0  0  0  0  0  0  0  0
   -0.2955    2.5163   -0.9982 H   0  0  0  0  0  0  0  0  0  0  0  0
    0.3724    0.5200   -0.4020 C   0  0  1  0  0  0  0  0  0  0  0  0
    0.8239    0.5134   -1.3943 H   0  0  0  0  0  0  0  0  0  0  0  0
    1.3983    0.0272    0.6323 C   0  0  0  0  0  0  0  0  0  0  0  0
    1.1508   -0.9462    1.3412 O   0  0  0  0  0  0  0  0  0  0  0  0
    2.5340    0.7269    0.7429 N   0  0  0  0  0  0  0  0  0  0  0  0
    2.6885    1.4752    0.0863 H   0  0  0  0  0  0  0  0  0  0  0  0
    3.6064    0.3991    1.6795 C   0  0  0  0  0  0  0  0  0  0  0  0
    4.0382   -0.5684    1.4146 H   0  0  0  0  0  0  0  0  0  0  0  0
    4.3842    1.1627    1.6471 H   0  0  0  0  0  0  0  0  0  0  0  0
    3.2048    0.3334    2.6930 H   0  0  0  0  0  0  0  0  0  0  0  0
  5  6  2  0  0  0  0
  5  7  1  0  0  0  0
  2  3  1  0  0  0  0
  2  4  1  0  0  0  0
  2  5  1  0  0  0  0
  1  2  1  0  0  0  0
 19 20  2  0  0  0  0
 19 21  1  0  0  0  0
 17 18  1  0  0  0  0
 17 19  1  0  0  0  0
 14 15  1  0  0  0  0
 14 16  1  0  0  0  0
 14 17  1  0  0  0  0
 11 12  1  0  0  0  0
 11 13  1  0  0  0  0
 11 14  1  0  0  0  0
  8  9  1  0  0  0  0
  8 10  1  0  0  0  0
  8 11  1  0  0  0  0
  7  8  1  0  0  0  0
  7 17  1  0  0  0  0
 23 24  1  0  0  0  0
 23 25  1  0  0  0  0
 23 26  1  0  0  0  0
 21 22  1  0  0  0  0
 21 23  1  0  0  0  0
M  END
$$$$
default_name
  -OEChem-11182114113D

 26 26  0     1  0  0  0  0  0999 V2000
   -1.8446   -3.5060   -0.3010 H   0  0  0  0  0  0  0  0  0  0  0  0
   -2.0746   -2.4490   -0.4240 C   0  0  0  0  0  0  0  0  0  0  0  0
   -2.6906   -2.1160    0.4090 H   0  0  0  0  0  0  0  0  0  0  0  0
   -2.5986   -2.2980   -1.3650 H   0  0  0  0  0  0  0  0  0  0  0  0
   -0.7756   -1.6630   -0.4350 C   0  0  0  0  0  0  0  0  0  0  0  0
    0.2844   -2.2800   -0.4550 O   0  0  0  0  0  0  0  0  0  0  0  0
   -0.8246   -0.3180   -0.4350 N   0  0  0  0  0  0  0  0  0  0  0  0
   -2.0106    0.5080   -0.5910 C   0  0  0  0  0  0  0  0  0  0  0  0
   -2.9830    0.1578   -0.2410 H   0  0  0  0  0  0  0  0  0  0  0  0
   -2.1351    1.2455   -1.3831 H   0  0  0  0  0  0  0  0  0  0  0  0
   -1.2272    1.1176    0.5697 C   0  0  0  0  0  0  0  0  0  0  0  0
   -0.8237    0.3336    1.2124 H   0  0  0  0  0  0  0  0  0  0  0  0
   -1.8931    1.7741    1.1306 H   0  0  0  0  0  0  0  0  0  0  0  0
   -0.1209    1.9420   -0.0885 C   0  0  0  0  0  0  0  0  0  0  0  0
    0.5927    2.4617    0.5542 H   0  0  0  0  0  0  0  0  0  0  0  0
   -0.2955    2.5163   -0.9982 H   0  0  0  0  0  0  0  0  0  0  0  0
    0.3724    0.5200   -0.4020 C   0  0  1  0  0  0  0  0  0  0  0  0
    0.8239    0.5134   -1.3943 H   0  0  0  0  0  0  0  0  0  0  0  0
    1.3983    0.0272    0.6323 C   0  0  0  0  0  0  0  0  0  0  0  0
    1.2841   -1.0853    1.1428 O   0  0  0  0  0  0  0  0  0  0  0  0
    2.3782    0.8750    0.9681 N   0  0  0  0  0  0  0  0  0  0  0  0
    2.4384    1.7443    0.4626 H   0  0  0  0  0  0  0  0  0  0  0  0
    3.4264    0.5675    1.9383 C   0  0  0  0  0  0  0  0  0  0  0  0
    4.0434   -0.2507    1.5608 H   0  0  0  0  0  0  0  0  0  0  0  0
    4.0531    1.4434    2.1091 H   0  0  0  0  0  0  0  0  0  0  0  0
    2.9757    0.2544    2.8826 H   0  0  0  0  0  0  0  0  0  0  0  0
  5  6  2  0  0  0  0
  5  7  1  0  0  0  0
  2  3  1  0  0  0  0
  2  4  1  0  0  0  0
  2  5  1  0  0  0  0
  1  2  1  0  0  0  0
 19 20  2  0  0  0  0
 19 21  1  0  0  0  0
 17 18  1  0  0  0  0
 17 19  1  0  0  0  0
 14 15  1  0  0  0  0
 14 16  1  0  0  0  0
 14 17  1  0  0  0  0
 11 12  1  0  0  0  0
 11 13  1  0  0  0  0
 11 14  1  0  0  0  0
  8  9  1  0  0  0  0
  8 10  1  0  0  0  0
  8 11  1  0  0  0  0
  7  8  1  0  0  0  0
  7 17  1  0  0  0  0
 23 24  1  0  0  0  0
 23 25  1  0  0  0  0
 23 26  1  0  0  0  0
 21 22  1  0  0  0  0
 21 23  1  0  0  0  0
M  END
$$$$
default_name
  -OEChem-11182114113D

 26 26  0     1  0  0  0  0  0999 V2000
   -1.8446   -3.5060   -0.3010 H   0  0  0  0  0  0  0  0  0  0  0  0
   -2.0746   -2.4490   -0.4240 C   0  0  0  0  0  0  0  0  0  0  0  0
   -2.6906   -2.1160    0.4090 H   0  0  0  0  0  0  0  0  0  0  0  0
   -2.5986   -2.2980   -1.3650 H   0  0  0  0  0  0  0  0  0  0  0  0
   -0.7756   -1.6630   -0.4350 C   0  0  0  0  0  0  0  0  0  0  0  0
    0.2844   -2.2800   -0.4550 O   0  0  0  0  0  0  0  0  0  0  0  0
   -0.8246   -0.3180   -0.4350 N   0  0  0  0  0  0  0  0  0  0  0  0
   -2.0106    0.5080   -0.5910 C   0  0  0  0  0  0  0  0  0  0  0  0
   -2.9830    0.1578   -0.2410 H   0  0  0  0  0  0  0  0  0  0  0  0
   -2.1351    1.2455   -1.3831 H   0  0  0  0  0  0  0  0  0  0  0  0
   -1.2272    1.1176    0.5697 C   0  0  0  0  0  0  0  0  0  0  0  0
   -0.8237    0.3336    1.2124 H   0  0  0  0  0  0  0  0  0  0  0  0
   -1.8931    1.7741    1.1306 H   0  0  0  0  0  0  0  0  0  0  0  0
   -0.1209    1.9420   -0.0885 C   0  0  0  0  0  0  0  0  0  0  0  0
    0.5927    2.4617    0.5542 H   0  0  0  0  0  0  0  0  0  0  0  0
   -0.2955    2.5163   -0.9982 H   0  0  0  0  0  0  0  0  0  0  0  0
    0.3724    0.5200   -0.4020 C   0  0  1  0  0  0  0  0  0  0  0  0
    0.8239    0.5134   -1.3943 H   0  0  0  0  0  0  0  0  0  0  0  0
    1.3983    0.0272    0.6323 C   0  0  0  0  0  0  0  0  0  0  0  0
    1.4535   -1.1622    0.9381 O   0  0  0  0  0  0  0  0  0  0  0  0
    2.1832    0.9521    1.1982 N   0  0  0  0  0  0  0  0  0  0  0  0
    2.1188    1.8959    0.8518 H   0  0  0  0  0  0  0  0  0  0  0  0
    3.2017    0.6542    2.2024 C   0  0  0  0  0  0  0  0  0  0  0  0
    3.9810    0.0318    1.7574 H   0  0  0  0  0  0  0  0  0  0  0  0
    3.6462    1.5770    2.5764 H   0  0  0  0  0  0  0  0  0  0  0  0
    2.7524    0.1055    3.0331 H   0  0  0  0  0  0  0  0  0  0  0  0
  5  6  2  0  0  0  0
  5  7  1  0  0  0  0
  2  3  1  0  0  0  0
  2  4  1  0  0  0  0
  2  5  1  0  0  0  0
  1  2  1  0  0  0  0
 19 20  2  0  0  0  0
 19 21  1  0  0  0  0
 17 18  1  0  0  0  0
 17 19  1  0  0  0  0
 14 15  1  0  0  0  0
 14 16  1  0  0  0  0
 14 17  1  0  0  0  0
 11 12  1  0  0  0  0
 11 13  1  0  0  0  0
 11 14  1  0  0  0  0
  8  9  1  0  0  0  0
  8 10  1  0  0  0  0
  8 11  1  0  0  0  0
  7  8  1  0  0  0  0
  7 17  1  0  0  0  0
 23 24  1  0  0  0  0
 23 25  1  0  0  0  0
 23 26  1  0  0  0  0
 21 22  1  0  0  0  0
 21 23  1  0  0  0  0
M  END
$$$$
default_name
  -OEChem-11182114113D

 26 26  0     1  0  0  0  0  0999 V2000
   -1.8446   -3.5060   -0.3010 H   0  0  0  0  0  0  0  0  0  0  0  0
   -2.0746   -2.4490   -0.4240 C   0  0  0  0  0  0  0  0  0  0  0  0
   -2.6906   -2.1160    0.4090 H   0  0  0  0  0  0  0  0  0  0  0  0
   -2.5986   -2.2980   -1.3650 H   0  0  0  0  0  0  0  0  0  0  0  0
   -0.7756   -1.6630   -0.4350 C   0  0  0  0  0  0  0  0  0  0  0  0
    0.2844   -2.2800   -0.4550 O   0  0  0  0  0  0  0  0  0  0  0  0
   -0.8246   -0.3180   -0.4350 N   0  0  0  0  0  0  0  0  0  0  0  0
   -2.0106    0.5080   -0.5910 C   0  0  0  0  0  0  0  0  0  0  0  0
   -2.9830    0.1578   -0.2410 H   0  0  0  0  0  0  0  0  0  0  0  0
   -2.1351    1.2455   -1.3831 H   0  0  0  0  0  0  0  0  0  0  0  0
   -1.2272    1.1176    0.5697 C   0  0  0  0  0  0  0  0  0  0  0  0
   -0.8237    0.3336    1.2124 H   0  0  0  0  0  0  0  0  0  0  0  0
   -1.8931    1.7741    1.1306 H   0  0  0  0  0  0  0  0  0  0  0  0
   -0.1209    1.9420   -0.0885 C   0  0  0  0  0  0  0  0  0  0  0  0
    0.5927    2.4617    0.5542 H   0  0  0  0  0  0  0  0  0  0  0  0
   -0.2955    2.5163   -0.9982 H   0  0  0  0  0  0  0  0  0  0  0  0
    0.3724    0.5200   -0.4020 C   0  0  1  0  0  0  0  0  0  0  0  0
    0.8239    0.5134   -1.3943 H   0  0  0  0  0  0  0  0  0  0  0  0
    1.3983    0.0272    0.6323 C   0  0  0  0  0  0  0  0  0  0  0  0
    1.6475   -1.1717    0.7412 O   0  0  0  0  0  0  0  0  0  0  0  0
    1.9623    0.9529    1.4176 N   0  0  0  0  0  0  0  0  0  0  0  0
    1.7515    1.9194    1.2274 H   0  0  0  0  0  0  0  0  0  0  0  0
    2.9477    0.6532    2.4539 C   0  0  0  0  0  0  0  0  0  0  0  0
    3.8552    0.2599    1.9908 H   0  0  0  0  0  0  0  0  0  0  0  0
    3.1912    1.5546    3.0171 H   0  0  0  0  0  0  0  0  0  0  0  0
    2.5502   -0.1031    3.1342 H   0  0  0  0  0  0  0  0  0  0  0  0
  5  6  2  0  0  0  0
  5  7  1  0  0  0  0
  2  3  1  0  0  0  0
  2  4  1  0  0  0  0
  2  5  1  0  0  0  0
  1  2  1  0  0  0  0
 19 20  2  0  0  0  0
 19 21  1  0  0  0  0
 17 18  1  0  0  0  0
 17 19  1  0  0  0  0
 14 15  1  0  0  0  0
 14 16  1  0  0  0  0
 14 17  1  0  0  0  0
 11 12  1  0  0  0  0
 11 13  1  0  0  0  0
 11 14  1  0  0  0  0
  8  9  1  0  0  0  0
  8 10  1  0  0  0  0
  8 11  1  0  0  0  0
  7  8  1  0  0  0  0
  7 17  1  0  0  0  0
 23 24  1  0  0  0  0
 23 25  1  0  0  0  0
 23 26  1  0  0  0  0
 21 22  1  0  0  0  0
 21 23  1  0  0  0  0
M  END
$$$$
default_name
  -OEChem-11182114113D

 26 26  0     1  0  0  0  0  0999 V2000
   -1.8446   -3.5060   -0.3010 H   0  0  0  0  0  0  0  0  0  0  0  0
   -2.0746   -2.4490   -0.4240 C   0  0  0  0  0  0  0  0  0  0  0  0
   -2.6906   -2.1160    0.4090 H   0  0  0  0  0  0  0  0  0  0  0  0
   -2.5986   -2.2980   -1.3650 H   0  0  0  0  0  0  0  0  0  0  0  0
   -0.7756   -1.6630   -0.4350 C   0  0  0  0  0  0  0  0  0  0  0  0
    0.2844   -2.2800   -0.4550 O   0  0  0  0  0  0  0  0  0  0  0  0
   -0.8246   -0.3180   -0.4350 N   0  0  0  0  0  0  0  0  0  0  0  0
   -2.0106    0.5080   -0.5910 C   0  0  0  0  0  0  0  0  0  0  0  0
   -2.9830    0.1578   -0.2410 H   0  0  0  0  0  0  0  0  0  0  0  0
   -2.1351    1.2455   -1.3831 H   0  0  0  0  0  0  0  0  0  0  0  0
   -1.2272    1.1176    0.5697 C   0  0  0  0  0  0  0  0  0  0  0  0
   -0.8237    0.3336    1.2124 H   0  0  0  0  0  0  0  0  0  0  0  0
   -1.8931    1.7741    1.1306 H   0  0  0  0  0  0  0  0  0  0  0  0
   -0.1209    1.9420   -0.0885 C   0  0  0  0  0  0  0  0  0  0  0  0
    0.5927    2.4617    0.5542 H   0  0  0  0  0  0  0  0  0  0  0  0
   -0.2955    2.5163   -0.9982 H   0  0  0  0  0  0  0  0  0  0  0  0
    0.3724    0.5200   -0.4020 C   0  0  1  0  0  0  0  0  0  0  0  0
    0.8239    0.5134   -1.3943 H   0  0  0  0  0  0  0  0  0  0  0  0
    1.3983    0.0272    0.6323 C   0  0  0  0  0  0  0  0  0  0  0  0
    1.8528   -1.1131    0.5655 O   0  0  0  0  0  0  0  0  0  0  0  0
    1.7307    0.8773    1.6114 N   0  0  0  0  0  0  0  0  0  0  0  0
    1.3614    1.8134    1.5637 H   0  0  0  0  0  0  0  0  0  0  0  0
    2.6816    0.5646    2.6756 C   0  0  0  0  0  0  0  0  0  0  0  0
    3.6746    0.4181    2.2452 H   0  0  0  0  0  0  0  0  0  0  0  0
    2.7189    1.3777    3.4012 H   0  0  0  0  0  0  0  0  0  0  0  0
    2.3829   -0.3574    3.1791 H   0  0  0  0  0  0  0  0  0  0  0  0
  5  6  2  0  0  0  0
  5  7  1  0  0  0  0
  2  3  1  0  0  0  0
  2  4  1  0  0  0  0
  2  5  1  0  0  0  0
  1  2  1  0  0  0  0
 19 20  2  0  0  0  0
 19 21  1  0  0  0  0
 17 18  1  0  0  0  0
 17 19  1  0  0  0  0
 14 15  1  0  0  0  0
 14 16  1  0  0  0  0
 14 17  1  0  0  0  0
 11 12  1  0  0  0  0
 11 13  1  0  0  0  0
 11 14  1  0  0  0  0
  8  9  1  0  0  0  0
  8 10  1  0  0  0  0
  8 11  1  0  0  0  0
  7  8  1  0  0  0  0
  7 17  1  0  0  0  0
 23 24  1  0  0  0  0
 23 25  1  0  0  0  0
 23 26  1  0  0  0  0
 21 22  1  0  0  0  0
 21 23  1  0  0  0  0
M  END
$$$$
default_name
  -OEChem-11182114113D

 26 26  0     1  0  0  0  0  0999 V2000
   -1.8446   -3.5060   -0.3010 H   0  0  0  0  0  0  0  0  0  0  0  0
   -2.0746   -2.4490   -0.4240 C   0  0  0  0  0  0  0  0  0  0  0  0
   -2.6906   -2.1160    0.4090 H   0  0  0  0  0  0  0  0  0  0  0  0
   -2.5986   -2.2980   -1.3650 H   0  0  0  0  0  0  0  0  0  0  0  0
   -0.7756   -1.6630   -0.4350 C   0  0  0  0  0  0  0  0  0  0  0  0
    0.2844   -2.2800   -0.4550 O   0  0  0  0  0  0  0  0  0  0  0  0
   -0.8246   -0.3180   -0.4350 N   0  0  0  0  0  0  0  0  0  0  0  0
   -2.0106    0.5080   -0.5910 C   0  0  0  0  0  0  0  0  0  0  0  0
   -2.9830    0.1578   -0.2410 H   0  0  0  0  0  0  0  0  0  0  0  0
   -2.1351    1.2455   -1.3831 H   0  0  0  0  0  0  0  0  0  0  0  0
   -1.2272    1.1176    0.5697 C   0  0  0  0  0  0  0  0  0  0  0  0
   -0.8237    0.3336    1.2124 H   0  0  0  0  0  0  0  0  0  0  0  0
   -1.8931    1.7741    1.1306 H   0  0  0  0  0  0  0  0  0  0  0  0
   -0.1209    1.9420   -0.0885 C   0  0  0  0  0  0  0  0  0  0  0  0
    0.5927    2.4617    0.5542 H   0  0  0  0  0  0  0  0  0  0  0  0
   -0.2955    2.5163   -0.9982 H   0  0  0  0  0  0  0  0  0  0  0  0
    0.3724    0.5200   -0.4020 C   0  0  1  0  0  0  0  0  0  0  0  0
    0.8239    0.5134   -1.3943 H   0  0  0  0  0  0  0  0  0  0  0  0
    1.3983    0.0272    0.6323 C   0  0  0  0  0  0  0  0  0  0  0  0
    2.0555   -0.9903    0.4229 O   0  0  0  0  0  0  0  0  0  0  0  0
    1.5040    0.7305    1.7663 N   0  0  0  0  0  0  0  0  0  0  0  0
    0.9752    1.5849    1.8380 H   0  0  0  0  0  0  0  0  0  0  0  0
    2.4217    0.3945    2.8523 C   0  0  0  0  0  0  0  0  0  0  0  0
    3.4516    0.4955    2.5033 H   0  0  0  0  0  0  0  0  0  0  0  0
    2.2617    1.0583    3.7025 H   0  0  0  0  0  0  0  0  0  0  0  0
    2.2617   -0.6398    3.1647 H   0  0  0  0  0  0  0  0  0  0  0  0
  5  6  2  0  0  0  0
  5  7  1  0  0  0  0
  2  3  1  0  0  0  0
  2  4  1  0  0  0  0
  2  5  1  0  0  0  0
  1  2  1  0  0  0  0
 19 20  2  0  0  0  0
 19 21  1  0  0  0  0
 17 18  1  0  0  0  0
 17 19  1  0  0  0  0
 14 15  1  0  0  0  0
 14 16  1  0  0  0  0
 14 17  1  0  0  0  0
 11 12  1  0  0  0  0
 11 13  1  0  0  0  0
 11 14  1  0  0  0  0
  8  9  1  0  0  0  0
  8 10  1  0  0  0  0
  8 11  1  0  0  0  0
  7  8  1  0  0  0  0
  7 17  1  0  0  0  0
 23 24  1  0  0  0  0
 23 25  1  0  0  0  0
 23 26  1  0  0  0  0
 21 22  1  0  0  0  0
 21 23  1  0  0  0  0
M  END
$$$$
default_name
  -OEChem-11182114113D

 26 26  0     1  0  0  0  0  0999 V2000
   -1.8446   -3.5060   -0.3010 H   0  0  0  0  0  0  0  0  0  0  0  0
   -2.0746   -2.4490   -0.4240 C   0  0  0  0  0  0  0  0  0  0  0  0
   -2.6906   -2.1160    0.4090 H   0  0  0  0  0  0  0  0  0  0  0  0
   -2.5986   -2.2980   -1.3650 H   0  0  0  0  0  0  0  0  0  0  0  0
   -0.7756   -1.6630   -0.4350 C   0  0  0  0  0  0  0  0  0  0  0  0
    0.2844   -2.2800   -0.4550 O   0  0  0  0  0  0  0  0  0  0  0  0
   -0.8246   -0.3180   -0.4350 N   0  0  0  0  0  0  0  0  0  0  0  0
   -2.0106    0.5080   -0.5910 C   0  0  0  0  0  0  0  0  0  0  0  0
   -2.9830    0.1578   -0.2410 H   0  0  0  0  0  0  0  0  0  0  0  0
   -2.1351    1.2455   -1.3831 H   0  0  0  0  0  0  0  0  0  0  0  0
   -1.2272    1.1176    0.5697 C   0  0  0  0  0  0  0  0  0  0  0  0
   -0.8237    0.3336    1.2124 H   0  0  0  0  0  0  0  0  0  0  0  0
   -1.8931    1.7741    1.1306 H   0  0  0  0  0  0  0  0  0  0  0  0
   -0.1209    1.9420   -0.0885 C   0  0  0  0  0  0  0  0  0  0  0  0
    0.5927    2.4617    0.5542 H   0  0  0  0  0  0  0  0  0  0  0  0
   -0.2955    2.5163   -0.9982 H   0  0  0  0  0  0  0  0  0  0  0  0
    0.3724    0.5200   -0.4020 C   0  0  1  0  0  0  0  0  0  0  0  0
    0.8239    0.5134   -1.3943 H   0  0  0  0  0  0  0  0  0  0  0  0
    1.3983    0.0272    0.6323 C   0  0  0  0  0  0  0  0  0  0  0  0
    2.2418   -0.8119    0.3231 O   0  0  0  0  0  0  0  0  0  0  0  0
    1.2978    0.5225    1.8718 N   0  0  0  0  0  0  0  0  0  0  0  0
    0.6191    1.2497    2.0314 H   0  0  0  0  0  0  0  0  0  0  0  0
    2.1856    0.1543    2.9721 C   0  0  0  0  0  0  0  0  0  0  0  0
    3.2013    0.4869    2.7475 H   0  0  0  0  0  0  0  0  0  0  0  0
    1.8508    0.6182    3.9005 H   0  0  0  0  0  0  0  0  0  0  0  0
    2.1951   -0.9312    3.0920 H   0  0  0  0  0  0  0  0  0  0  0  0
  5  6  2  0  0  0  0
  5  7  1  0  0  0  0
  2  3  1  0  0  0  0
  2  4  1  0  0  0  0
  2  5  1  0  0  0  0
  1  2  1  0  0  0  0
 19 20  2  0  0  0  0
 19 21  1  0  0  0  0
 17 18  1  0  0  0  0
 17 19  1  0  0  0  0
 14 15  1  0  0  0  0
 14 16  1  0  0  0  0
 14 17  1  0  0  0  0
 11 12  1  0  0  0  0
 11 13  1  0  0  0  0
 11 14  1  0  0  0  0
  8  9  1  0  0  0  0
  8 10  1  0  0  0  0
  8 11  1  0  0  0  0
  7  8  1  0  0  0  0
  7 17  1  0  0  0  0
 23 24  1  0  0  0  0
 23 25  1  0  0  0  0
 23 26  1  0  0  0  0
 21 22  1  0  0  0  0
 21 23  1  0  0  0  0
M  END
$$$$
default_name
  -OEChem-11182114113D

 26 26  0     1  0  0  0  0  0999 V2000
   -1.8446   -3.5060   -0.3010 H   0  0  0  0  0  0  0  0  0  0  0  0
   -2.0746   -2.4490   -0.4240 C   0  0  0  0  0  0  0  0  0  0  0  0
   -2.6906   -2.1160    0.4090 H   0  0  0  0  0  0  0  0  0  0  0  0
   -2.5986   -2.2980   -1.3650 H   0  0  0  0  0  0  0  0  0  0  0  0
   -0.7756   -1.6630   -0.4350 C   0  0  0  0  0  0  0  0  0  0  0  0
    0.2844   -2.2800   -0.4550 O   0  0  0  0  0  0  0  0  0  0  0  0
   -0.8246   -0.3180   -0.4350 N   0  0  0  0  0  0  0  0  0  0  0  0
   -2.0106    0.5080   -0.5910 C   0  0  0  0  0  0  0  0  0  0  0  0
   -2.9830    0.1578   -0.2410 H   0  0  0  0  0  0  0  0  0  0  0  0
   -2.1351    1.2455   -1.3831 H   0  0  0  0  0  0  0  0  0  0  0  0
   -1.2272    1.1176    0.5697 C   0  0  0  0  0  0  0  0  0  0  0  0
   -0.8237    0.3336    1.2124 H   0  0  0  0  0  0  0  0  0  0  0  0
   -1.8931    1.7741    1.1306 H   0  0  0  0  0  0  0  0  0  0  0  0
   -0.1209    1.9420   -0.0885 C   0  0  0  0  0  0  0  0  0  0  0  0
    0.5927    2.4617    0.5542 H   0  0  0  0  0  0  0  0  0  0  0  0
   -0.2955    2.5163   -0.9982 H   0  0  0  0  0  0  0  0  0  0  0  0
    0.3724    0.5200   -0.4020 C   0  0  1  0  0  0  0  0  0  0  0  0
    0.8239    0.5134   -1.3943 H   0  0  0  0  0  0  0  0  0  0  0  0
    1.3983    0.0272    0.6323 C   0  0  0  0  0  0  0  0  0  0  0  0
    2.3990   -0.5899    0.2730 O   0  0  0  0  0  0  0  0  0  0  0  0
    1.1260    0.2675    1.9206 N   0  0  0  0  0  0  0  0  0  0  0  0
    0.3175    0.8306    2.1309 H   0  0  0  0  0  0  0  0  0  0  0  0
    1.9894   -0.1394    3.0268 C   0  0  0  0  0  0  0  0  0  0  0  0
    2.9408    0.3928    2.9611 H   0  0  0  0  0  0  0  0  0  0  0  0
    1.5140    0.0873    3.9816 H   0  0  0  0  0  0  0  0  0  0  0  0
    2.1874   -1.2118    2.9659 H   0  0  0  0  0  0  0  0  0  0  0  0
  5  6  2  0  0  0  0
  5  7  1  0  0  0  0
  2  3  1  0  0  0  0
  2  4  1  0  0  0  0
  2  5  1  0  0  0  0
  1  2  1  0  0  0  0
 19 20  2  0  0  0  0
 19 21  1  0  0  0  0
 17 18  1  0  0  0  0
 17 19  1  0  0  0  0
 14 15  1  0  0  0  0
 14 16  1  0  0  0  0
 14 17  1  0  0  0  0
 11 12  1  0  0  0  0
 11 13  1  0  0  0  0
 11 14  1  0  0  0  0
  8  9  1  0  0  0  0
  8 10  1  0  0  0  0
  8 11  1  0  0  0  0
  7  8  1  0  0  0  0
  7 17  1  0  0  0  0
 23 24  1  0  0  0  0
 23 25  1  0  0  0  0
 23 26  1  0  0  0  0
 21 22  1  0  0  0  0
 21 23  1  0  0  0  0
M  END
$$$$
default_name
  -OEChem-11182114113D

 26 26  0     1  0  0  0  0  0999 V2000
   -1.8446   -3.5060   -0.3010 H   0  0  0  0  0  0  0  0  0  0  0  0
   -2.0746   -2.4490   -0.4240 C   0  0  0  0  0  0  0  0  0  0  0  0
   -2.6906   -2.1160    0.4090 H   0  0  0  0  0  0  0  0  0  0  0  0
   -2.5986   -2.2980   -1.3650 H   0  0  0  0  0  0  0  0  0  0  0  0
   -0.7756   -1.6630   -0.4350 C   0  0  0  0  0  0  0  0  0  0  0  0
    0.2844   -2.2800   -0.4550 O   0  0  0  0  0  0  0  0  0  0  0  0
   -0.8246   -0.3180   -0.4350 N   0  0  0  0  0  0  0  0  0  0  0  0
   -2.0106    0.5080   -0.5910 C   0  0  0  0  0  0  0  0  0  0  0  0
   -2.9830    0.1578   -0.2410 H   0  0  0  0  0  0  0  0  0  0  0  0
   -2.1351    1.2455   -1.3831 H   0  0  0  0  0  0  0  0  0  0  0  0
   -1.2272    1.1176    0.5697 C   0  0  0  0  0  0  0  0  0  0  0  0
   -0.8237    0.3336    1.2124 H   0  0  0  0  0  0  0  0  0  0  0  0
   -1.8931    1.7741    1.1306 H   0  0  0  0  0  0  0  0  0  0  0  0
   -0.1209    1.9420   -0.0885 C   0  0  0  0  0  0  0  0  0  0  0  0
    0.5927    2.4617    0.5542 H   0  0  0  0  0  0  0  0  0  0  0  0
   -0.2955    2.5163   -0.9982 H   0  0  0  0  0  0  0  0  0  0  0  0
    0.3724    0.5200   -0.4020 C   0  0  1  0  0  0  0  0  0  0  0  0
    0.8239    0.5134   -1.3943 H   0  0  0  0  0  0  0  0  0  0  0  0
    1.3983    0.0272    0.6323 C   0  0  0  0  0  0  0  0  0  0  0  0
    2.5163   -0.3395    0.2760 O   0  0  0  0  0  0  0  0  0  0  0  0
    1.0004   -0.0171    1.9096 N   0  0  0  0  0  0  0  0  0  0  0  0
    0.0909    0.3560    2.1296 H   0  0  0  0  0  0  0  0  0  0  0  0
    1.8465   -0.4667    3.0126 C   0  0  0  0  0  0  0  0  0  0  0  0
    2.6878    0.2197    3.1295 H   0  0  0  0  0  0  0  0  0  0  0  0
    1.2743   -0.4981    3.9404 H   0  0  0  0  0  0  0  0  0  0  0  0
    2.2393   -1.4623    2.7950 H   0  0  0  0  0  0  0  0  0  0  0  0
  5  6  2  0  0  0  0
  5  7  1  0  0  0  0
  2  3  1  0  0  0  0
  2  4  1  0  0  0  0
  2  5  1  0  0  0  0
  1  2  1  0  0  0  0
 19 20  2  0  0  0  0
 19 21  1  0  0  0  0
 17 18  1  0  0  0  0
 17 19  1  0  0  0  0
 14 15  1  0  0  0  0
 14 16  1  0  0  0  0
 14 17  1  0  0  0  0
 11 12  1  0  0  0  0
 11 13  1  0  0  0  0
 11 14  1  0  0  0  0
  8  9  1  0  0  0  0
  8 10  1  0  0  0  0
  8 11  1  0  0  0  0
  7  8  1  0  0  0  0
  7 17  1  0  0  0  0
 23 24  1  0  0  0  0
 23 25  1  0  0  0  0
 23 26  1  0  0  0  0
 21 22  1  0  0  0  0
 21 23  1  0  0  0  0
M  END
$$$$
default_name
  -OEChem-11182114113D

 26 26  0     1  0  0  0  0  0999 V2000
   -1.8446   -3.5060   -0.3010 H   0  0  0  0  0  0  0  0  0  0  0  0
   -2.0746   -2.4490   -0.4240 C   0  0  0  0  0  0  0  0  0  0  0  0
   -2.6906   -2.1160    0.4090 H   0  0  0  0  0  0  0  0  0  0  0  0
   -2.5986   -2.2980   -1.3650 H   0  0  0  0  0  0  0  0  0  0  0  0
   -0.7756   -1.6630   -0.4350 C   0  0  0  0  0  0  0  0  0  0  0  0
    0.2844   -2.2800   -0.4550 O   0  0  0  0  0  0  0  0  0  0  0  0
   -0.8246   -0.3180   -0.4350 N   0  0  0  0  0  0  0  0  0  0  0  0
   -2.0106    0.5080   -0.5910 C   0  0  0  0  0  0  0  0  0  0  0  0
   -2.9830    0.1578   -0.2410 H   0  0  0  0  0  0  0  0  0  0  0  0
   -2.1351    1.2455   -1.3831 H   0  0  0  0  0  0  0  0  0  0  0  0
   -1.2272    1.1176    0.5697 C   0  0  0  0  0  0  0  0  0  0  0  0
   -0.8237    0.3336    1.2124 H   0  0  0  0  0  0  0  0  0  0  0  0
   -1.8931    1.7741    1.1306 H   0  0  0  0  0  0  0  0  0  0  0  0
   -0.1209    1.9420   -0.0885 C   0  0  0  0  0  0  0  0  0  0  0  0
    0.5927    2.4617    0.5542 H   0  0  0  0  0  0  0  0  0  0  0  0
   -0.2955    2.5163   -0.9982 H   0  0  0  0  0  0  0  0  0  0  0  0
    0.3724    0.5200   -0.4020 C   0  0  1  0  0  0  0  0  0  0  0  0
    0.8239    0.5134   -1.3943 H   0  0  0  0  0  0  0  0  0  0  0  0
    1.3983    0.0272    0.6323 C   0  0  0  0  0  0  0  0  0  0  0  0
    2.5857   -0.0776    0.3318 O   0  0  0  0  0  0  0  0  0  0  0  0
    0.9296   -0.3120    1.8393 N   0  0  0  0  0  0  0  0  0  0  0  0
   -0.0453   -0.1416    2.0276 H   0  0  0  0  0  0  0  0  0  0  0  0
    1.7666   -0.8053    2.9305 C   0  0  0  0  0  0  0  0  0  0  0  0
    2.4596   -0.0206    3.2414 H   0  0  0  0  0  0  0  0  0  0  0  0
    1.1482   -1.0981    3.7796 H   0  0  0  0  0  0  0  0  0  0  0  0
    2.3473   -1.6657    2.5911 H   0  0  0  0  0  0  0  0  0  0  0  0
  5  6  2  0  0  0  0
  5  7  1  0  0  0  0
  2  3  1  0  0  0  0
  2  4  1  0  0  0  0
  2  5  1  0  0  0  0
  1  2  1  0  0  0  0
 19 20  2  0  0  0  0
 19 21  1  0  0  0  0
 17 18  1  0  0  0  0
 17 19  1  0  0  0  0
 14 15  1  0  0  0  0
 14 16  1  0  0  0  0
 14 17  1  0  0  0  0
 11 12  1  0  0  0  0
 11 13  1  0  0  0  0
 11 14  1  0  0  0  0
  8  9  1  0  0  0  0
  8 10  1  0  0  0  0
  8 11  1  0  0  0  0
  7  8  1  0  0  0  0
  7 17  1  0  0  0  0
 23 24  1  0  0  0  0
 23 25  1  0  0  0  0
 23 26  1  0  0  0  0
 21 22  1  0  0  0  0
 21 23  1  0  0  0  0
M  END
$$$$
default_name
  -OEChem-11182114113D

 26 26  0     1  0  0  0  0  0999 V2000
   -1.8446   -3.5060   -0.3010 H   0  0  0  0  0  0  0  0  0  0  0  0
   -2.0746   -2.4490   -0.4240 C   0  0  0  0  0  0  0  0  0  0  0  0
   -2.6906   -2.1160    0.4090 H   0  0  0  0  0  0  0  0  0  0  0  0
   -2.5986   -2.2980   -1.3650 H   0  0  0  0  0  0  0  0  0  0  0  0
   -0.7756   -1.6630   -0.4350 C   0  0  0  0  0  0  0  0  0  0  0  0
    0.2844   -2.2800   -0.4550 O   0  0  0  0  0  0  0  0  0  0  0  0
   -0.8246   -0.3180   -0.4350 N   0  0  0  0  0  0  0  0  0  0  0  0
   -2.0106    0.5080   -0.5910 C   0  0  0  0  0  0  0  0  0  0  0  0
   -2.9830    0.1578   -0.2410 H   0  0  0  0  0  0  0  0  0  0  0  0
   -2.1351    1.2455   -1.3831 H   0  0  0  0  0  0  0  0  0  0  0  0
   -1.2272    1.1176    0.5697 C   0  0  0  0  0  0  0  0  0  0  0  0
   -0.8237    0.3336    1.2124 H   0  0  0  0  0  0  0  0  0  0  0  0
   -1.8931    1.7741    1.1306 H   0  0  0  0  0  0  0  0  0  0  0  0
   -0.1209    1.9420   -0.0885 C   0  0  0  0  0  0  0  0  0  0  0  0
    0.5927    2.4617    0.5542 H   0  0  0  0  0  0  0  0  0  0  0  0
   -0.2955    2.5163   -0.9982 H   0  0  0  0  0  0  0  0  0  0  0  0
    0.3724    0.5200   -0.4020 C   0  0  1  0  0  0  0  0  0  0  0  0
    0.8239    0.5134   -1.3943 H   0  0  0  0  0  0  0  0  0  0  0  0
    1.3983    0.0272    0.6323 C   0  0  0  0  0  0  0  0  0  0  0  0
    2.6026    0.1777    0.4367 O   0  0  0  0  0  0  0  0  0  0  0  0
    0.9184   -0.5971    1.7147 N   0  0  0  0  0  0  0  0  0  0  0  0
   -0.0817   -0.6284    1.8318 H   0  0  0  0  0  0  0  0  0  0  0  0
    1.7551   -1.1321    2.7862 C   0  0  0  0  0  0  0  0  0  0  0  0
    2.2717   -0.3117    3.2891 H   0  0  0  0  0  0  0  0  0  0  0  0
    1.1441   -1.6719    3.5103 H   0  0  0  0  0  0  0  0  0  0  0  0
    2.5039   -1.8083    2.3678 H   0  0  0  0  0  0  0  0  0  0  0  0
  5  6  2  0  0  0  0
  5  7  1  0  0  0  0
  2  3  1  0  0  0  0
  2  4  1  0  0  0  0
  2  5  1  0  0  0  0
  1  2  1  0  0  0  0
 19 20  2  0  0  0  0
 19 21  1  0  0  0  0
 17 18  1  0  0  0  0
 17 19  1  0  0  0  0
 14 15  1  0  0  0  0
 14 16  1  0  0  0  0
 14 17  1  0  0  0  0
 11 12  1  0  0  0  0
 11 13  1  0  0  0  0
 11 14  1  0  0  0  0
  8  9  1  0  0  0  0
  8 10  1  0  0  0  0
  8 11  1  0  0  0  0
  7  8  1  0  0  0  0
  7 17  1  0  0  0  0
 23 24  1  0  0  0  0
 23 25  1  0  0  0  0
 23 26  1  0  0  0  0
 21 22  1  0  0  0  0
 21 23  1  0  0  0  0
M  END
$$$$
default_name
  -OEChem-11182114113D

 26 26  0     1  0  0  0  0  0999 V2000
   -1.8446   -3.5060   -0.3010 H   0  0  0  0  0  0  0  0  0  0  0  0
   -2.0746   -2.4490   -0.4240 C   0  0  0  0  0  0  0  0  0  0  0  0
   -2.6906   -2.1160    0.4090 H   0  0  0  0  0  0  0  0  0  0  0  0
   -2.5986   -2.2980   -1.3650 H   0  0  0  0  0  0  0  0  0  0  0  0
   -0.7756   -1.6630   -0.4350 C   0  0  0  0  0  0  0  0  0  0  0  0
    0.2844   -2.2800   -0.4550 O   0  0  0  0  0  0  0  0  0  0  0  0
   -0.8246   -0.3180   -0.4350 N   0  0  0  0  0  0  0  0  0  0  0  0
   -2.0106    0.5080   -0.5910 C   0  0  0  0  0  0  0  0  0  0  0  0
   -2.9830    0.1578   -0.2410 H   0  0  0  0  0  0  0  0  0  0  0  0
   -2.1351    1.2455   -1.3831 H   0  0  0  0  0  0  0  0  0  0  0  0
   -1.2272    1.1176    0.5697 C   0  0  0  0  0  0  0  0  0  0  0  0
   -0.8237    0.3336    1.2124 H   0  0  0  0  0  0  0  0  0  0  0  0
   -1.8931    1.7741    1.1306 H   0  0  0  0  0  0  0  0  0  0  0  0
   -0.1209    1.9420   -0.0885 C   0  0  0  0  0  0  0  0  0  0  0  0
    0.5927    2.4617    0.5542 H   0  0  0  0  0  0  0  0  0  0  0  0
   -0.2955    2.5163   -0.9982 H   0  0  0  0  0  0  0  0  0  0  0  0
    0.3724    0.5200   -0.4020 C   0  0  1  0  0  0  0  0  0  0  0  0
    0.8239    0.5134   -1.3943 H   0  0  0  0  0  0  0  0  0  0  0  0
    1.3983    0.0272    0.6323 C   0  0  0  0  0  0  0  0  0  0  0  0
    2.5658    0.4092    0.5835 O   0  0  0  0  0  0  0  0  0  0  0  0
    0.9674   -0.8529    1.5441 N   0  0  0  0  0  0  0  0  0  0  0  0
   -0.0160   -1.0711    1.5557 H   0  0  0  0  0  0  0  0  0  0  0  0
    1.8129   -1.4248    2.5894 C   0  0  0  0  0  0  0  0  0  0  0  0
    2.1369   -0.6339    3.2692 H   0  0  0  0  0  0  0  0  0  0  0  0
    1.2624   -2.1804    3.1507 H   0  0  0  0  0  0  0  0  0  0  0  0
    2.6984   -1.8801    2.1406 H   0  0  0  0  0  0  0  0  0  0  0  0
  5  6  2  0  0  0  0
  5  7  1  0  0  0  0
  2  3  1  0  0  0  0
  2  4  1  0  0  0  0
  2  5  1  0  0  0  0
  1  2  1  0  0  0  0
 19 20  2  0  0  0  0
 19 21  1  0  0  0  0
 17 18  1  0  0  0  0
 17 19  1  0  0  0  0
 14 15  1  0  0  0  0
 14 16  1  0  0  0  0
 14 17  1  0  0  0  0
 11 12  1  0  0  0  0
 11 13  1  0  0  0  0
 11 14  1  0  0  0  0
  8  9  1  0  0  0  0
  8 10  1  0  0  0  0
  8 11  1  0  0  0  0
  7  8  1  0  0  0  0
  7 17  1  0  0  0  0
 23 24  1  0  0  0  0
 23 25  1  0  0  0  0
 23 26  1  0  0  0  0
 21 22  1  0  0  0  0
 21 23  1  0  0  0  0
M  END
$$$$
default_name
  -OEChem-11182114113D

 26 26  0     1  0  0  0  0  0999 V2000
   -1.8446   -3.5060   -0.3010 H   0  0  0  0  0  0  0  0  0  0  0  0
   -2.0746   -2.4490   -0.4240 C   0  0  0  0  0  0  0  0  0  0  0  0
   -2.6906   -2.1160    0.4090 H   0  0  0  0  0  0  0  0  0  0  0  0
   -2.5986   -2.2980   -1.3650 H   0  0  0  0  0  0  0  0  0  0  0  0
   -0.7756   -1.6630   -0.4350 C   0  0  0  0  0  0  0  0  0  0  0  0
    0.2844   -2.2800   -0.4550 O   0  0  0  0  0  0  0  0  0  0  0  0
   -0.8246   -0.3180   -0.4350 N   0  0  0  0  0  0  0  0  0  0  0  0
   -2.0106    0.5080   -0.5910 C   0  0  0  0  0  0  0  0  0  0  0  0
   -2.9830    0.1578   -0.2410 H   0  0  0  0  0  0  0  0  0  0  0  0
   -2.1351    1.2455   -1.3831 H   0  0  0  0  0  0  0  0  0  0  0  0
   -1.2272    1.1176    0.5697 C   0  0  0  0  0  0  0  0  0  0  0  0
   -0.8237    0.3336    1.2124 H   0  0  0  0  0  0  0  0  0  0  0  0
   -1.8931    1.7741    1.1306 H   0  0  0  0  0  0  0  0  0  0  0  0
   -0.1209    1.9420   -0.0885 C   0  0  0  0  0  0  0  0  0  0  0  0
    0.5927    2.4617    0.5542 H   0  0  0  0  0  0  0  0  0  0  0  0
   -0.2955    2.5163   -0.9982 H   0  0  0  0  0  0  0  0  0  0  0  0
    0.3724    0.5200   -0.4020 C   0  0  1  0  0  0  0  0  0  0  0  0
    0.8239    0.5134   -1.3943 H   0  0  0  0  0  0  0  0  0  0  0  0
    1.3983    0.0272    0.6323 C   0  0  0  0  0  0  0  0  0  0  0  0
    2.4778    0.6010    0.7622 O   0  0  0  0  0  0  0  0  0  0  0  0
    1.0735   -1.0619    1.3393 N   0  0  0  0  0  0  0  0  0  0  0  0
    0.1475   -1.4396    1.2180 H   0  0  0  0  0  0  0  0  0  0  0  0
    1.9360   -1.6635    2.3536 C   0  0  0  0  0  0  0  0  0  0  0  0
    2.0645   -0.9651    3.1833 H   0  0  0  0  0  0  0  0  0  0  0  0
    1.4950   -2.5889    2.7254 H   0  0  0  0  0  0  0  0  0  0  0  0
    2.9177   -1.8765    1.9249 H   0  0  0  0  0  0  0  0  0  0  0  0
  5  6  2  0  0  0  0
  5  7  1  0  0  0  0
  2  3  1  0  0  0  0
  2  4  1  0  0  0  0
  2  5  1  0  0  0  0
  1  2  1  0  0  0  0
 19 20  2  0  0  0  0
 19 21  1  0  0  0  0
 17 18  1  0  0  0  0
 17 19  1  0  0  0  0
 14 15  1  0  0  0  0
 14 16  1  0  0  0  0
 14 17  1  0  0  0  0
 11 12  1  0  0  0  0
 11 13  1  0  0  0  0
 11 14  1  0  0  0  0
  8  9  1  0  0  0  0
  8 10  1  0  0  0  0
  8 11  1  0  0  0  0
  7  8  1  0  0  0  0
  7 17  1  0  0  0  0
 23 24  1  0  0  0  0
 23 25  1  0  0  0  0
 23 26  1  0  0  0  0
 21 22  1  0  0  0  0
 21 23  1  0  0  0  0
M  END
$$$$
default_name
  -OEChem-11182114113D

 26 26  0     1  0  0  0  0  0999 V2000
   -1.8446   -3.5060   -0.3010 H   0  0  0  0  0  0  0  0  0  0  0  0
   -2.0746   -2.4490   -0.4240 C   0  0  0  0  0  0  0  0  0  0  0  0
   -2.6906   -2.1160    0.4090 H   0  0  0  0  0  0  0  0  0  0  0  0
   -2.5986   -2.2980   -1.3650 H   0  0  0  0  0  0  0  0  0  0  0  0
   -0.7756   -1.6630   -0.4350 C   0  0  0  0  0  0  0  0  0  0  0  0
    0.2844   -2.2800   -0.4550 O   0  0  0  0  0  0  0  0  0  0  0  0
   -0.8246   -0.3180   -0.4350 N   0  0  0  0  0  0  0  0  0  0  0  0
   -2.0106    0.5080   -0.5910 C   0  0  0  0  0  0  0  0  0  0  0  0
   -2.9830    0.1578   -0.2410 H   0  0  0  0  0  0  0  0  0  0  0  0
   -2.1351    1.2455   -1.3831 H   0  0  0  0  0  0  0  0  0  0  0  0
   -1.2272    1.1176    0.5697 C   0  0  0  0  0  0  0  0  0  0  0  0
   -0.8237    0.3336    1.2124 H   0  0  0  0  0  0  0  0  0  0  0  0
   -1.8931    1.7741    1.1306 H   0  0  0  0  0  0  0  0  0  0  0  0
   -0.1209    1.9420   -0.0885 C   0  0  0  0  0  0  0  0  0  0  0  0
    0.5927    2.4617    0.5542 H   0  0  0  0  0  0  0  0  0  0  0  0
   -0.2955    2.5163   -0.9982 H   0  0  0  0  0  0  0  0  0  0  0  0
    0.3724    0.5200   -0.4020 C   0  0  1  0  0  0  0  0  0  0  0  0
    0.8239    0.5134   -1.3943 H   0  0  0  0  0  0  0  0  0  0  0  0
    1.3983    0.0272    0.6323 C   0  0  0  0  0  0  0  0  0  0  0  0
    2.3445    0.7401    0.9607 O   0  0  0  0  0  0  0  0  0  0  0  0
    1.2294   -1.2100    1.1142 N   0  0  0  0  0  0  0  0  0  0  0  0
    0.3975   -1.7088    0.8417 H   0  0  0  0  0  0  0  0  0  0  0  0
    2.1161   -1.8320    2.0948 C   0  0  0  0  0  0  0  0  0  0  0  0
    2.0593   -1.2828    3.0371 H   0  0  0  0  0  0  0  0  0  0  0  0
    1.8260   -2.8695    2.2634 H   0  0  0  0  0  0  0  0  0  0  0  0
    3.1468   -1.7975    1.7353 H   0  0  0  0  0  0  0  0  0  0  0  0
  5  6  2  0  0  0  0
  5  7  1  0  0  0  0
  2  3  1  0  0  0  0
  2  4  1  0  0  0  0
  2  5  1  0  0  0  0
  1  2  1  0  0  0  0
 19 20  2  0  0  0  0
 19 21  1  0  0  0  0
 17 18  1  0  0  0  0
 17 19  1  0  0  0  0
 14 15  1  0  0  0  0
 14 16  1  0  0  0  0
 14 17  1  0  0  0  0
 11 12  1  0  0  0  0
 11 13  1  0  0  0  0
 11 14  1  0  0  0  0
  8  9  1  0  0  0  0
  8 10  1  0  0  0  0
  8 11  1  0  0  0  0
  7  8  1  0  0  0  0
  7 17  1  0  0  0  0
 23 24  1  0  0  0  0
 23 25  1  0  0  0  0
 23 26  1  0  0  0  0
 21 22  1  0  0  0  0
 21 23  1  0  0  0  0
M  END
$$$$
default_name
  -OEChem-11182114113D

 26 26  0     1  0  0  0  0  0999 V2000
   -1.8446   -3.5060   -0.3010 H   0  0  0  0  0  0  0  0  0  0  0  0
   -2.0746   -2.4490   -0.4240 C   0  0  0  0  0  0  0  0  0  0  0  0
   -2.6906   -2.1160    0.4090 H   0  0  0  0  0  0  0  0  0  0  0  0
   -2.5986   -2.2980   -1.3650 H   0  0  0  0  0  0  0  0  0  0  0  0
   -0.7756   -1.6630   -0.4350 C   0  0  0  0  0  0  0  0  0  0  0  0
    0.2844   -2.2800   -0.4550 O   0  0  0  0  0  0  0  0  0  0  0  0
   -0.8246   -0.3180   -0.4350 N   0  0  0  0  0  0  0  0  0  0  0  0
   -2.0106    0.5080   -0.5910 C   0  0  0  0  0  0  0  0  0  0  0  0
   -2.9830    0.1578   -0.2410 H   0  0  0  0  0  0  0  0  0  0  0  0
   -2.1351    1.2455   -1.3831 H   0  0  0  0  0  0  0  0  0  0  0  0
   -1.2272    1.1176    0.5697 C   0  0  0  0  0  0  0  0  0  0  0  0
   -0.8237    0.3336    1.2124 H   0  0  0  0  0  0  0  0  0  0  0  0
   -1.8931    1.7741    1.1306 H   0  0  0  0  0  0  0  0  0  0  0  0
   -0.1209    1.9420   -0.0885 C   0  0  0  0  0  0  0  0  0  0  0  0
    0.5927    2.4617    0.5542 H   0  0  0  0  0  0  0  0  0  0  0  0
   -0.2955    2.5163   -0.9982 H   0  0  0  0  0  0  0  0  0  0  0  0
    0.3724    0.5200   -0.4020 C   0  0  1  0  0  0  0  0  0  0  0  0
    0.8239    0.5134   -1.3943 H   0  0  0  0  0  0  0  0  0  0  0  0
    1.3983    0.0272    0.6323 C   0  0  0  0  0  0  0  0  0  0  0  0
    2.1751    0.8171    1.1653 O   0  0  0  0  0  0  0  0  0  0  0  0
    1.4244   -1.2871    0.8841 N   0  0  0  0  0  0  0  0  0  0  0  0
    0.7171   -1.8603    0.4526 H   0  0  0  0  0  0  0  0  0  0  0  0
    2.3407   -1.9186    1.8306 C   0  0  0  0  0  0  0  0  0  0  0  0
    2.1217   -1.5654    2.8405 H   0  0  0  0  0  0  0  0  0  0  0  0
    2.2329   -3.0032    1.7961 H   0  0  0  0  0  0  0  0  0  0  0  0
    3.3701   -1.6486    1.5848 H   0  0  0  0  0  0  0  0  0  0  0  0
  5  6  2  0  0  0  0
  5  7  1  0  0  0  0
  2  3  1  0  0  0  0
  2  4  1  0  0  0  0
  2  5  1  0  0  0  0
  1  2  1  0  0  0  0
 19 20  2  0  0  0  0
 19 21  1  0  0  0  0
 17 18  1  0  0  0  0
 17 19  1  0  0  0  0
 14 15  1  0  0  0  0
 14 16  1  0  0  0  0
 14 17  1  0  0  0  0
 11 12  1  0  0  0  0
 11 13  1  0  0  0  0
 11 14  1  0  0  0  0
  8  9  1  0  0  0  0
  8 10  1  0  0  0  0
  8 11  1  0  0  0  0
  7  8  1  0  0  0  0
  7 17  1  0  0  0  0
 23 24  1  0  0  0  0
 23 25  1  0  0  0  0
 23 26  1  0  0  0  0
 21 22  1  0  0  0  0
 21 23  1  0  0  0  0
M  END
$$$$
default_name
  -OEChem-11182114113D

 26 26  0     1  0  0  0  0  0999 V2000
   -1.8446   -3.5060   -0.3010 H   0  0  0  0  0  0  0  0  0  0  0  0
   -2.0746   -2.4490   -0.4240 C   0  0  0  0  0  0  0  0  0  0  0  0
   -2.6906   -2.1160    0.4090 H   0  0  0  0  0  0  0  0  0  0  0  0
   -2.5986   -2.2980   -1.3650 H   0  0  0  0  0  0  0  0  0  0  0  0
   -0.7756   -1.6630   -0.4350 C   0  0  0  0  0  0  0  0  0  0  0  0
    0.2844   -2.2800   -0.4550 O   0  0  0  0  0  0  0  0  0  0  0  0
   -0.8246   -0.3180   -0.4350 N   0  0  0  0  0  0  0  0  0  0  0  0
   -2.0106    0.5080   -0.5910 C   0  0  0  0  0  0  0  0  0  0  0  0
   -2.9830    0.1578   -0.2410 H   0  0  0  0  0  0  0  0  0  0  0  0
   -2.1351    1.2455   -1.3831 H   0  0  0  0  0  0  0  0  0  0  0  0
   -1.2272    1.1176    0.5697 C   0  0  0  0  0  0  0  0  0  0  0  0
   -0.8237    0.3336    1.2124 H   0  0  0  0  0  0  0  0  0  0  0  0
   -1.8931    1.7741    1.1306 H   0  0  0  0  0  0  0  0  0  0  0  0
   -0.1209    1.9420   -0.0885 C   0  0  0  0  0  0  0  0  0  0  0  0
    0.5927    2.4617    0.5542 H   0  0  0  0  0  0  0  0  0  0  0  0
   -0.2955    2.5163   -0.9982 H   0  0  0  0  0  0  0  0  0  0  0  0
    0.3724    0.5200   -0.4020 C   0  0  1  0  0  0  0  0  0  0  0  0
    0.8239    0.5134   -1.3943 H   0  0  0  0  0  0  0  0  0  0  0  0
    1.3983    0.0272    0.6323 C   0  0  0  0  0  0  0  0  0  0  0  0
    1.9811    0.8265    1.3623 O   0  0  0  0  0  0  0  0  0  0  0  0
    1.6452   -1.2879    0.6646 N   0  0  0  0  0  0  0  0  0  0  0  0
    1.0845   -1.8838    0.0770 H   0  0  0  0  0  0  0  0  0  0  0  0
    2.5947   -1.9176    1.5791 C   0  0  0  0  0  0  0  0  0  0  0  0
    2.2475   -1.7935    2.6071 H   0  0  0  0  0  0  0  0  0  0  0  0
    2.6880   -2.9808    1.3554 H   0  0  0  0  0  0  0  0  0  0  0  0
    3.5723   -1.4399    1.4836 H   0  0  0  0  0  0  0  0  0  0  0  0
  5  6  2  0  0  0  0
  5  7  1  0  0  0  0
  2  3  1  0  0  0  0
  2  4  1  0  0  0  0
  2  5  1  0  0  0  0
  1  2  1  0  0  0  0
 19 20  2  0  0  0  0
 19 21  1  0  0  0  0
 17 18  1  0  0  0  0
 17 19  1  0  0  0  0
 14 15  1  0  0  0  0
 14 16  1  0  0  0  0
 14 17  1  0  0  0  0
 11 12  1  0  0  0  0
 11 13  1  0  0  0  0
 11 14  1  0  0  0  0
  8  9  1  0  0  0  0
  8 10  1  0  0  0  0
  8 11  1  0  0  0  0
  7  8  1  0  0  0  0
  7 17  1  0  0  0  0
 23 24  1  0  0  0  0
 23 25  1  0  0  0  0
 23 26  1  0  0  0  0
 21 22  1  0  0  0  0
 21 23  1  0  0  0  0
M  END
$$$$
default_name
  -OEChem-11182114113D

 26 26  0     1  0  0  0  0  0999 V2000
   -1.8446   -3.5060   -0.3010 H   0  0  0  0  0  0  0  0  0  0  0  0
   -2.0746   -2.4490   -0.4240 C   0  0  0  0  0  0  0  0  0  0  0  0
   -2.6906   -2.1160    0.4090 H   0  0  0  0  0  0  0  0  0  0  0  0
   -2.5986   -2.2980   -1.3650 H   0  0  0  0  0  0  0  0  0  0  0  0
   -0.7756   -1.6630   -0.4350 C   0  0  0  0  0  0  0  0  0  0  0  0
    0.2844   -2.2800   -0.4550 O   0  0  0  0  0  0  0  0  0  0  0  0
   -0.8246   -0.3180   -0.4350 N   0  0  0  0  0  0  0  0  0  0  0  0
   -2.0106    0.5080   -0.5910 C   0  0  0  0  0  0  0  0  0  0  0  0
   -2.9830    0.1578   -0.2410 H   0  0  0  0  0  0  0  0  0  0  0  0
   -2.1351    1.2455   -1.3831 H   0  0  0  0  0  0  0  0  0  0  0  0
   -1.2272    1.1176    0.5697 C   0  0  0  0  0  0  0  0  0  0  0  0
   -0.8237    0.3336    1.2124 H   0  0  0  0  0  0  0  0  0  0  0  0
   -1.8931    1.7741    1.1306 H   0  0  0  0  0  0  0  0  0  0  0  0
   -0.1209    1.9420   -0.0885 C   0  0  0  0  0  0  0  0  0  0  0  0
    0.5927    2.4617    0.5542 H   0  0  0  0  0  0  0  0  0  0  0  0
   -0.2955    2.5163   -0.9982 H   0  0  0  0  0  0  0  0  0  0  0  0
    0.3724    0.5200   -0.4020 C   0  0  1  0  0  0  0  0  0  0  0  0
    0.8239    0.5134   -1.3943 H   0  0  0  0  0  0  0  0  0  0  0  0
    1.3983    0.0272    0.6323 C   0  0  0  0  0  0  0  0  0  0  0  0
    1.7758    0.7679    1.5380 O   0  0  0  0  0  0  0  0  0  0  0  0
    1.8769   -1.2123    0.4709 N   0  0  0  0  0  0  0  0  0  0  0  0
    1.4746   -1.7778   -0.2594 H   0  0  0  0  0  0  0  0  0  0  0  0
    2.8608   -1.8290    1.3575 C   0  0  0  0  0  0  0  0  0  0  0  0
    2.4280   -1.9516    2.3527 H   0  0  0  0  0  0  0  0  0  0  0  0
    3.1602   -2.8039    0.9713 H   0  0  0  0  0  0  0  0  0  0  0  0
    3.7396   -1.1857    1.4387 H   0  0  0  0  0  0  0  0  0  0  0  0
  5  6  2  0  0  0  0
  5  7  1  0  0  0  0
  2  3  1  0  0  0  0
  2  4  1  0  0  0  0
  2  5  1  0  0  0  0
  1  2  1  0  0  0  0
 19 20  2  0  0  0  0
 19 21  1  0  0  0  0
 17 18  1  0  0  0  0
 17 19  1  0  0  0  0
 14 15  1  0  0  0  0
 14 16  1  0  0  0  0
 14 17  1  0  0  0  0
 11 12  1  0  0  0  0
 11 13  1  0  0  0  0
 11 14  1  0  0  0  0
  8  9  1  0  0  0  0
  8 10  1  0  0  0  0
  8 11  1  0  0  0  0
  7  8  1  0  0  0  0
  7 17  1  0  0  0  0
 23 24  1  0  0  0  0
 23 25  1  0  0  0  0
 23 26  1  0  0  0  0
 21 22  1  0  0  0  0
 21 23  1  0  0  0  0
M  END
$$$$
default_name
  -OEChem-11182114113D

 26 26  0     1  0  0  0  0  0999 V2000
   -1.8446   -3.5060   -0.3010 H   0  0  0  0  0  0  0  0  0  0  0  0
   -2.0746   -2.4490   -0.4240 C   0  0  0  0  0  0  0  0  0  0  0  0
   -2.6906   -2.1160    0.4090 H   0  0  0  0  0  0  0  0  0  0  0  0
   -2.5986   -2.2980   -1.3650 H   0  0  0  0  0  0  0  0  0  0  0  0
   -0.7756   -1.6630   -0.4350 C   0  0  0  0  0  0  0  0  0  0  0  0
    0.2844   -2.2800   -0.4550 O   0  0  0  0  0  0  0  0  0  0  0  0
   -0.8246   -0.3180   -0.4350 N   0  0  0  0  0  0  0  0  0  0  0  0
   -2.0106    0.5080   -0.5910 C   0  0  0  0  0  0  0  0  0  0  0  0
   -2.9830    0.1578   -0.2410 H   0  0  0  0  0  0  0  0  0  0  0  0
   -2.1351    1.2455   -1.3831 H   0  0  0  0  0  0  0  0  0  0  0  0
   -1.2272    1.1176    0.5697 C   0  0  0  0  0  0  0  0  0  0  0  0
   -0.8237    0.3336    1.2124 H   0  0  0  0  0  0  0  0  0  0  0  0
   -1.8931    1.7741    1.1306 H   0  0  0  0  0  0  0  0  0  0  0  0
   -0.1209    1.9420   -0.0885 C   0  0  0  0  0  0  0  0  0  0  0  0
    0.5927    2.4617    0.5542 H   0  0  0  0  0  0  0  0  0  0  0  0
   -0.2955    2.5163   -0.9982 H   0  0  0  0  0  0  0  0  0  0  0  0
    0.3724    0.5200   -0.4020 C   0  0  1  0  0  0  0  0  0  0  0  0
    0.8239    0.5134   -1.3943 H   0  0  0  0  0  0  0  0  0  0  0  0
    1.3983    0.0272    0.6323 C   0  0  0  0  0  0  0  0  0  0  0  0
    1.5730    0.6452    1.6806 O   0  0  0  0  0  0  0  0  0  0  0  0
    2.1035   -1.0655    0.3160 N   0  0  0  0  0  0  0  0  0  0  0  0
    1.8608   -1.5494   -0.5337 H   0  0  0  0  0  0  0  0  0  0  0  0
    3.1207   -1.6589    1.1807 C   0  0  0  0  0  0  0  0  0  0  0  0
    2.6511   -2.0290    2.0946 H   0  0  0  0  0  0  0  0  0  0  0  0
    3.6174   -2.4845    0.6700 H   0  0  0  0  0  0  0  0  0  0  0  0
    3.8608   -0.9032    1.4531 H   0  0  0  0  0  0  0  0  0  0  0  0
  5  6  2  0  0  0  0
  5  7  1  0  0  0  0
  2  3  1  0  0  0  0
  2  4  1  0  0  0  0
  2  5  1  0  0  0  0
  1  2  1  0  0  0  0
 19 20  2  0  0  0  0
 19 21  1  0  0  0  0
 17 18  1  0  0  0  0
 17 19  1  0  0  0  0
 14 15  1  0  0  0  0
 14 16  1  0  0  0  0
 14 17  1  0  0  0  0
 11 12  1  0  0  0  0
 11 13  1  0  0  0  0
 11 14  1  0  0  0  0
  8  9  1  0  0  0  0
  8 10  1  0  0  0  0
  8 11  1  0  0  0  0
  7  8  1  0  0  0  0
  7 17  1  0  0  0  0
 23 24  1  0  0  0  0
 23 25  1  0  0  0  0
 23 26  1  0  0  0  0
 21 22  1  0  0  0  0
 21 23  1  0  0  0  0
M  END
$$$$
default_name
  -OEChem-11182114113D

 26 26  0     1  0  0  0  0  0999 V2000
   -1.8446   -3.5060   -0.3010 H   0  0  0  0  0  0  0  0  0  0  0  0
   -2.0746   -2.4490   -0.4240 C   0  0  0  0  0  0  0  0  0  0  0  0
   -2.6906   -2.1160    0.4090 H   0  0  0  0  0  0  0  0  0  0  0  0
   -2.5986   -2.2980   -1.3650 H   0  0  0  0  0  0  0  0  0  0  0  0
   -0.7756   -1.6630   -0.4350 C   0  0  0  0  0  0  0  0  0  0  0  0
    0.2844   -2.2800   -0.4550 O   0  0  0  0  0  0  0  0  0  0  0  0
   -0.8246   -0.3180   -0.4350 N   0  0  0  0  0  0  0  0  0  0  0  0
   -2.0106    0.5080   -0.5910 C   0  0  0  0  0  0  0  0  0  0  0  0
   -2.9830    0.1578   -0.2410 H   0  0  0  0  0  0  0  0  0  0  0  0
   -2.1351    1.2455   -1.3831 H   0  0  0  0  0  0  0  0  0  0  0  0
   -1.2272    1.1176    0.5697 C   0  0  0  0  0  0  0  0  0  0  0  0
   -0.8237    0.3336    1.2124 H   0  0  0  0  0  0  0  0  0  0  0  0
   -1.8931    1.7741    1.1306 H   0  0  0  0  0  0  0  0  0  0  0  0
   -0.1209    1.9420   -0.0885 C   0  0  0  0  0  0  0  0  0  0  0  0
    0.5927    2.4617    0.5542 H   0  0  0  0  0  0  0  0  0  0  0  0
   -0.2955    2.5163   -0.9982 H   0  0  0  0  0  0  0  0  0  0  0  0
    0.3724    0.5200   -0.4020 C   0  0  1  0  0  0  0  0  0  0  0  0
    0.8239    0.5134   -1.3943 H   0  0  0  0  0  0  0  0  0  0  0  0
    1.3983    0.0272    0.6323 C   0  0  0  0  0  0  0  0  0  0  0  0
    1.3868    0.4668    1.7804 O   0  0  0  0  0  0  0  0  0  0  0  0
    2.3098   -0.8576    0.2105 N   0  0  0  0  0  0  0  0  0  0  0  0
    2.2168   -1.2141   -0.7271 H   0  0  0  0  0  0  0  0  0  0  0  0
    3.3568   -1.4188    1.0609 C   0  0  0  0  0  0  0  0  0  0  0  0
    2.9014   -2.0204    1.8504 H   0  0  0  0  0  0  0  0  0  0  0  0
    4.0284   -2.0443    0.4721 H   0  0  0  0  0  0  0  0  0  0  0  0
    3.9274   -0.6118    1.5259 H   0  0  0  0  0  0  0  0  0  0  0  0
  5  6  2  0  0  0  0
  5  7  1  0  0  0  0
  2  3  1  0  0  0  0
  2  4  1  0  0  0  0
  2  5  1  0  0  0  0
  1  2  1  0  0  0  0
 19 20  2  0  0  0  0
 19 21  1  0  0  0  0
 17 18  1  0  0  0  0
 17 19  1  0  0  0  0
 14 15  1  0  0  0  0
 14 16  1  0  0  0  0
 14 17  1  0  0  0  0
 11 12  1  0  0  0  0
 11 13  1  0  0  0  0
 11 14  1  0  0  0  0
  8  9  1  0  0  0  0
  8 10  1  0  0  0  0
  8 11  1  0  0  0  0
  7  8  1  0  0  0  0
  7 17  1  0  0  0  0
 23 24  1  0  0  0  0
 23 25  1  0  0  0  0
 23 26  1  0  0  0  0
 21 22  1  0  0  0  0
 21 23  1  0  0  0  0
M  END
$$$$
default_name
  -OEChem-11182114113D

 26 26  0     1  0  0  0  0  0999 V2000
   -1.8446   -3.5060   -0.3010 H   0  0  0  0  0  0  0  0  0  0  0  0
   -2.0746   -2.4490   -0.4240 C   0  0  0  0  0  0  0  0  0  0  0  0
   -2.6906   -2.1160    0.4090 H   0  0  0  0  0  0  0  0  0  0  0  0
   -2.5986   -2.2980   -1.3650 H   0  0  0  0  0  0  0  0  0  0  0  0
   -0.7756   -1.6630   -0.4350 C   0  0  0  0  0  0  0  0  0  0  0  0
    0.2844   -2.2800   -0.4550 O   0  0  0  0  0  0  0  0  0  0  0  0
   -0.8246   -0.3180   -0.4350 N   0  0  0  0  0  0  0  0  0  0  0  0
   -2.0106    0.5080   -0.5910 C   0  0  0  0  0  0  0  0  0  0  0  0
   -2.9830    0.1578   -0.2410 H   0  0  0  0  0  0  0  0  0  0  0  0
   -2.1351    1.2455   -1.3831 H   0  0  0  0  0  0  0  0  0  0  0  0
   -1.2272    1.1176    0.5697 C   0  0  0  0  0  0  0  0  0  0  0  0
   -0.8237    0.3336    1.2124 H   0  0  0  0  0  0  0  0  0  0  0  0
   -1.8931    1.7741    1.1306 H   0  0  0  0  0  0  0  0  0  0  0  0
   -0.1209    1.9420   -0.0885 C   0  0  0  0  0  0  0  0  0  0  0  0
    0.5927    2.4617    0.5542 H   0  0  0  0  0  0  0  0  0  0  0  0
   -0.2955    2.5163   -0.9982 H   0  0  0  0  0  0  0  0  0  0  0  0
    0.3724    0.5200   -0.4020 C   0  0  1  0  0  0  0  0  0  0  0  0
    0.8239    0.5134   -1.3943 H   0  0  0  0  0  0  0  0  0  0  0  0
    1.3983    0.0272    0.6323 C   0  0  0  0  0  0  0  0  0  0  0  0
    1.2296    0.2448    1.8305 O   0  0  0  0  0  0  0  0  0  0  0  0
    2.4815   -0.6026    0.1616 N   0  0  0  0  0  0  0  0  0  0  0  0
    2.5184   -0.7950   -0.8266 H   0  0  0  0  0  0  0  0  0  0  0  0
    3.5530   -1.1250    1.0063 C   0  0  0  0  0  0  0  0  0  0  0  0
    3.1619   -1.9264    1.6368 H   0  0  0  0  0  0  0  0  0  0  0  0
    4.3652   -1.5135    0.3909 H   0  0  0  0  0  0  0  0  0  0  0  0
    3.9351   -0.3313    1.6520 H   0  0  0  0  0  0  0  0  0  0  0  0
  5  6  2  0  0  0  0
  5  7  1  0  0  0  0
  2  3  1  0  0  0  0
  2  4  1  0  0  0  0
  2  5  1  0  0  0  0
  1  2  1  0  0  0  0
 19 20  2  0  0  0  0
 19 21  1  0  0  0  0
 17 18  1  0  0  0  0
 17 19  1  0  0  0  0
 14 15  1  0  0  0  0
 14 16  1  0  0  0  0
 14 17  1  0  0  0  0
 11 12  1  0  0  0  0
 11 13  1  0  0  0  0
 11 14  1  0  0  0  0
  8  9  1  0  0  0  0
  8 10  1  0  0  0  0
  8 11  1  0  0  0  0
  7  8  1  0  0  0  0
  7 17  1  0  0  0  0
 23 24  1  0  0  0  0
 23 25  1  0  0  0  0
 23 26  1  0  0  0  0
 21 22  1  0  0  0  0
 21 23  1  0  0  0  0
M  END
$$$$
default_name
  -OEChem-11182114113D

 26 26  0     1  0  0  0  0  0999 V2000
   -1.8446   -3.5060   -0.3010 H   0  0  0  0  0  0  0  0  0  0  0  0
   -2.0746   -2.4490   -0.4240 C   0  0  0  0  0  0  0  0  0  0  0  0
   -2.6906   -2.1160    0.4090 H   0  0  0  0  0  0  0  0  0  0  0  0
   -2.5986   -2.2980   -1.3650 H   0  0  0  0  0  0  0  0  0  0  0  0
   -0.7756   -1.6630   -0.4350 C   0  0  0  0  0  0  0  0  0  0  0  0
    0.2844   -2.2800   -0.4550 O   0  0  0  0  0  0  0  0  0  0  0  0
   -0.8246   -0.3180   -0.4350 N   0  0  0  0  0  0  0  0  0  0  0  0
   -2.0106    0.5080   -0.5910 C   0  0  0  0  0  0  0  0  0  0  0  0
   -2.9830    0.1578   -0.2410 H   0  0  0  0  0  0  0  0  0  0  0  0
   -2.1351    1.2455   -1.3831 H   0  0  0  0  0  0  0  0  0  0  0  0
   -1.2272    1.1176    0.5697 C   0  0  0  0  0  0  0  0  0  0  0  0
   -0.8237    0.3336    1.2124 H   0  0  0  0  0  0  0  0  0  0  0  0
   -1.8931    1.7741    1.1306 H   0  0  0  0  0  0  0  0  0  0  0  0
   -0.1209    1.9420   -0.0885 C   0  0  0  0  0  0  0  0  0  0  0  0
    0.5927    2.4617    0.5542 H   0  0  0  0  0  0  0  0  0  0  0  0
   -0.2955    2.5163   -0.9982 H   0  0  0  0  0  0  0  0  0  0  0  0
    0.3724    0.5200   -0.4020 C   0  0  1  0  0  0  0  0  0  0  0  0
    0.8239    0.5134   -1.3943 H   0  0  0  0  0  0  0  0  0  0  0  0
    1.3983    0.0272    0.6323 C   0  0  0  0  0  0  0  0  0  0  0  0
    1.1123   -0.0057    1.8275 O   0  0  0  0  0  0  0  0  0  0  0  0
    2.6071   -0.3179    0.1727 N   0  0  0  0  0  0  0  0  0  0  0  0
    2.7450   -0.3204   -0.8252 H   0  0  0  0  0  0  0  0  0  0  0  0
    3.6960   -0.7977    1.0204 C   0  0  0  0  0  0  0  0  0  0  0  0
    3.4149   -1.7533    1.4684 H   0  0  0  0  0  0  0  0  0  0  0  0
    4.6048   -0.9281    0.4321 H   0  0  0  0  0  0  0  0  0  0  0  0
    3.8831   -0.0808    1.8228 H   0  0  0  0  0  0  0  0  0  0  0  0
  5  6  2  0  0  0  0
  5  7  1  0  0  0  0
  2  3  1  0  0  0  0
  2  4  1  0  0  0  0
  2  5  1  0  0  0  0
  1  2  1  0  0  0  0
 19 20  2  0  0  0  0
 19 21  1  0  0  0  0
 17 18  1  0  0  0  0
 17 19  1  0  0  0  0
 14 15  1  0  0  0  0
 14 16  1  0  0  0  0
 14 17  1  0  0  0  0
 11 12  1  0  0  0  0
 11 13  1  0  0  0  0
 11 14  1  0  0  0  0
  8  9  1  0  0  0  0
  8 10  1  0  0  0  0
  8 11  1  0  0  0  0
  7  8  1  0  0  0  0
  7 17  1  0  0  0  0
 23 24  1  0  0  0  0
 23 25  1  0  0  0  0
 23 26  1  0  0  0  0
 21 22  1  0  0  0  0
 21 23  1  0  0  0  0
M  END
$$$$
default_name
  -OEChem-11182114113D

 26 26  0     1  0  0  0  0  0999 V2000
   -1.8446   -3.5060   -0.3010 H   0  0  0  0  0  0  0  0  0  0  0  0
   -2.0746   -2.4490   -0.4240 C   0  0  0  0  0  0  0  0  0  0  0  0
   -2.6906   -2.1160    0.4090 H   0  0  0  0  0  0  0  0  0  0  0  0
   -2.5986   -2.2980   -1.3650 H   0  0  0  0  0  0  0  0  0  0  0  0
   -0.7756   -1.6630   -0.4350 C   0  0  0  0  0  0  0  0  0  0  0  0
    0.2844   -2.2800   -0.4550 O   0  0  0  0  0  0  0  0  0  0  0  0
   -0.8246   -0.3180   -0.4350 N   0  0  0  0  0  0  0  0  0  0  0  0
   -2.0106    0.5080   -0.5910 C   0  0  0  0  0  0  0  0  0  0  0  0
   -2.9830    0.1578   -0.2410 H   0  0  0  0  0  0  0  0  0  0  0  0
   -2.1351    1.2455   -1.3831 H   0  0  0  0  0  0  0  0  0  0  0  0
   -1.2272    1.1176    0.5697 C   0  0  0  0  0  0  0  0  0  0  0  0
   -0.8237    0.3336    1.2124 H   0  0  0  0  0  0  0  0  0  0  0  0
   -1.8931    1.7741    1.1306 H   0  0  0  0  0  0  0  0  0  0  0  0
   -0.1209    1.9420   -0.0885 C   0  0  0  0  0  0  0  0  0  0  0  0
    0.5927    2.4617    0.5542 H   0  0  0  0  0  0  0  0  0  0  0  0
   -0.2955    2.5163   -0.9982 H   0  0  0  0  0  0  0  0  0  0  0  0
    0.3724    0.5200   -0.4020 C   0  0  1  0  0  0  0  0  0  0  0  0
    0.8239    0.5134   -1.3943 H   0  0  0  0  0  0  0  0  0  0  0  0
    1.3983    0.0272    0.6323 C   0  0  0  0  0  0  0  0  0  0  0  0
    1.0428   -0.2675    1.7717 O   0  0  0  0  0  0  0  0  0  0  0  0
    2.6779   -0.0230    0.2429 N   0  0  0  0  0  0  0  0  0  0  0  0
    2.8812    0.1772   -0.7232 H   0  0  0  0  0  0  0  0  0  0  0  0
    3.7759   -0.4591    1.1025 C   0  0  0  0  0  0  0  0  0  0  0  0
    3.6431   -1.5130    1.3565 H   0  0  0  0  0  0  0  0  0  0  0  0
    4.7310   -0.3280    0.5929 H   0  0  0  0  0  0  0  0  0  0  0  0
    3.7752    0.1227    2.0268 H   0  0  0  0  0  0  0  0  0  0  0  0
  5  6  2  0  0  0  0
  5  7  1  0  0  0  0
  2  3  1  0  0  0  0
  2  4  1  0  0  0  0
  2  5  1  0  0  0  0
  1  2  1  0  0  0  0
 19 20  2  0  0  0  0
 19 21  1  0  0  0  0
 17 18  1  0  0  0  0
 17 19  1  0  0  0  0
 14 15  1  0  0  0  0
 14 16  1  0  0  0  0
 14 17  1  0  0  0  0
 11 12  1  0  0  0  0
 11 13  1  0  0  0  0
 11 14  1  0  0  0  0
  8  9  1  0  0  0  0
  8 10  1  0  0  0  0
  8 11  1  0  0  0  0
  7  8  1  0  0  0  0
  7 17  1  0  0  0  0
 23 24  1  0  0  0  0
 23 25  1  0  0  0  0
 23 26  1  0  0  0  0
 21 22  1  0  0  0  0
 21 23  1  0  0  0  0
M  END
$$$$
default_name
  -OEChem-11182114113D

 26 26  0     1  0  0  0  0  0999 V2000
   -1.8446   -3.5060   -0.3010 H   0  0  0  0  0  0  0  0  0  0  0  0
   -2.0746   -2.4490   -0.4240 C   0  0  0  0  0  0  0  0  0  0  0  0
   -2.6906   -2.1160    0.4090 H   0  0  0  0  0  0  0  0  0  0  0  0
   -2.5986   -2.2980   -1.3650 H   0  0  0  0  0  0  0  0  0  0  0  0
   -0.7756   -1.6630   -0.4350 C   0  0  0  0  0  0  0  0  0  0  0  0
    0.2844   -2.2800   -0.4550 O   0  0  0  0  0  0  0  0  0  0  0  0
   -0.8246   -0.3180   -0.4350 N   0  0  0  0  0  0  0  0  0  0  0  0
   -2.0106    0.5080   -0.5910 C   0  0  0  0  0  0  0  0  0  0  0  0
   -2.9830    0.1578   -0.2410 H   0  0  0  0  0  0  0  0  0  0  0  0
   -2.1351    1.2455   -1.3831 H   0  0  0  0  0  0  0  0  0  0  0  0
   -1.2272    1.1176    0.5697 C   0  0  0  0  0  0  0  0  0  0  0  0
   -0.8237    0.3336    1.2124 H   0  0  0  0  0  0  0  0  0  0  0  0
   -1.8931    1.7741    1.1306 H   0  0  0  0  0  0  0  0  0  0  0  0
   -0.1209    1.9420   -0.0885 C   0  0  0  0  0  0  0  0  0  0  0  0
    0.5927    2.4617    0.5542 H   0  0  0  0  0  0  0  0  0  0  0  0
   -0.2955    2.5163   -0.9982 H   0  0  0  0  0  0  0  0  0  0  0  0
    0.3724    0.5200   -0.4020 C   0  0  1  0  0  0  0  0  0  0  0  0
    0.8239    0.5134   -1.3943 H   0  0  0  0  0  0  0  0  0  0  0  0
    1.3983    0.0272    0.6323 C   0  0  0  0  0  0  0  0  0  0  0  0
    1.0260   -0.5229    1.6668 O   0  0  0  0  0  0  0  0  0  0  0  0
    2.6892    0.2620    0.3676 N   0  0  0  0  0  0  0  0  0  0  0  0
    2.9177    0.6639   -0.5275 H   0  0  0  0  0  0  0  0  0  0  0  0
    3.7873   -0.1323    1.2468 C   0  0  0  0  0  0  0  0  0  0  0  0
    3.8310   -1.2218    1.3088 H   0  0  0  0  0  0  0  0  0  0  0  0
    4.7350    0.2458    0.8622 H   0  0  0  0  0  0  0  0  0  0  0  0
    3.6186    0.2652    2.2500 H   0  0  0  0  0  0  0  0  0  0  0  0
  5  6  2  0  0  0  0
  5  7  1  0  0  0  0
  2  3  1  0  0  0  0
  2  4  1  0  0  0  0
  2  5  1  0  0  0  0
  1  2  1  0  0  0  0
 19 20  2  0  0  0  0
 19 21  1  0  0  0  0
 17 18  1  0  0  0  0
 17 19  1  0  0  0  0
 14 15  1  0  0  0  0
 14 16  1  0  0  0  0
 14 17  1  0  0  0  0
 11 12  1  0  0  0  0
 11 13  1  0  0  0  0
 11 14  1  0  0  0  0
  8  9  1  0  0  0  0
  8 10  1  0  0  0  0
  8 11  1  0  0  0  0
  7  8  1  0  0  0  0
  7 17  1  0  0  0  0
 23 24  1  0  0  0  0
 23 25  1  0  0  0  0
 23 26  1  0  0  0  0
 21 22  1  0  0  0  0
 21 23  1  0  0  0  0
M  END
$$$$
default_name
  -OEChem-11182114113D

 26 26  0     1  0  0  0  0  0999 V2000
   -1.8446   -3.5060   -0.3010 H   0  0  0  0  0  0  0  0  0  0  0  0
   -2.0746   -2.4490   -0.4240 C   0  0  0  0  0  0  0  0  0  0  0  0
   -2.6906   -2.1160    0.4090 H   0  0  0  0  0  0  0  0  0  0  0  0
   -2.5986   -2.2980   -1.3650 H   0  0  0  0  0  0  0  0  0  0  0  0
   -0.7756   -1.6630   -0.4350 C   0  0  0  0  0  0  0  0  0  0  0  0
    0.2844   -2.2800   -0.4550 O   0  0  0  0  0  0  0  0  0  0  0  0
   -0.8246   -0.3180   -0.4350 N   0  0  0  0  0  0  0  0  0  0  0  0
   -2.0106    0.5080   -0.5910 C   0  0  0  0  0  0  0  0  0  0  0  0
   -2.9830    0.1578   -0.2410 H   0  0  0  0  0  0  0  0  0  0  0  0
   -2.1351    1.2455   -1.3831 H   0  0  0  0  0  0  0  0  0  0  0  0
   -1.2272    1.1176    0.5697 C   0  0  0  0  0  0  0  0  0  0  0  0
   -0.8237    0.3336    1.2124 H   0  0  0  0  0  0  0  0  0  0  0  0
   -1.8931    1.7741    1.1306 H   0  0  0  0  0  0  0  0  0  0  0  0
   -0.1209    1.9420   -0.0885 C   0  0  0  0  0  0  0  0  0  0  0  0
    0.5927    2.4617    0.5542 H   0  0  0  0  0  0  0  0  0  0  0  0
   -0.2955    2.5163   -0.9982 H   0  0  0  0  0  0  0  0  0  0  0  0
    0.3724    0.5200   -0.4020 C   0  0  1  0  0  0  0  0  0  0  0  0
    0.8239    0.5134   -1.3943 H   0  0  0  0  0  0  0  0  0  0  0  0
    1.3983    0.0272    0.6323 C   0  0  0  0  0  0  0  0  0  0  0  0
    1.0628   -0.7543    1.5200 O   0  0  0  0  0  0  0  0  0  0  0  0
    2.6401    0.5178    0.5381 N   0  0  0  0  0  0  0  0  0  0  0  0
    2.8519    1.1066   -0.2514 H   0  0  0  0  0  0  0  0  0  0  0  0
    3.7295    0.1604    1.4436 C   0  0  0  0  0  0  0  0  0  0  0  0
    3.9658   -0.8996    1.3287 H   0  0  0  0  0  0  0  0  0  0  0  0
    4.6168    0.7542    1.2218 H   0  0  0  0  0  0  0  0  0  0  0  0
    3.4241    0.3371    2.4772 H   0  0  0  0  0  0  0  0  0  0  0  0
  5  6  2  0  0  0  0
  5  7  1  0  0  0  0
  2  3  1  0  0  0  0
  2  4  1  0  0  0  0
  2  5  1  0  0  0  0
  1  2  1  0  0  0  0
 19 20  2  0  0  0  0
 19 21  1  0  0  0  0
 17 18  1  0  0  0  0
 17 19  1  0  0  0  0
 14 15  1  0  0  0  0
 14 16  1  0  0  0  0
 14 17  1  0  0  0  0
 11 12  1  0  0  0  0
 11 13  1  0  0  0  0
 11 14  1  0  0  0  0
  8  9  1  0  0  0  0
  8 10  1  0  0  0  0
  8 11  1  0  0  0  0
  7  8  1  0  0  0  0
  7 17  1  0  0  0  0
 23 24  1  0  0  0  0
 23 25  1  0  0  0  0
 23 26  1  0  0  0  0
 21 22  1  0  0  0  0
 21 23  1  0  0  0  0
M  END
$$$$
default_name
  -OEChem-11182114113D

 26 26  0     1  0  0  0  0  0999 V2000
   -1.8446   -3.5060   -0.3010 H   0  0  0  0  0  0  0  0  0  0  0  0
   -2.0746   -2.4490   -0.4240 C   0  0  0  0  0  0  0  0  0  0  0  0
   -2.6906   -2.1160    0.4090 H   0  0  0  0  0  0  0  0  0  0  0  0
   -2.5986   -2.2980   -1.3650 H   0  0  0  0  0  0  0  0  0  0  0  0
   -0.7756   -1.6630   -0.4350 C   0  0  0  0  0  0  0  0  0  0  0  0
    0.2844   -2.2800   -0.4550 O   0  0  0  0  0  0  0  0  0  0  0  0
   -0.8246   -0.3180   -0.4350 N   0  0  0  0  0  0  0  0  0  0  0  0
   -2.0106    0.5080   -0.5910 C   0  0  0  0  0  0  0  0  0  0  0  0
   -2.9830    0.1578   -0.2410 H   0  0  0  0  0  0  0  0  0  0  0  0
   -2.1351    1.2455   -1.3831 H   0  0  0  0  0  0  0  0  0  0  0  0
   -1.2272    1.1176    0.5697 C   0  0  0  0  0  0  0  0  0  0  0  0
   -0.8237    0.3336    1.2124 H   0  0  0  0  0  0  0  0  0  0  0  0
   -1.8931    1.7741    1.1306 H   0  0  0  0  0  0  0  0  0  0  0  0
   -0.1209    1.9420   -0.0885 C   0  0  0  0  0  0  0  0  0  0  0  0
    0.5927    2.4617    0.5542 H   0  0  0  0  0  0  0  0  0  0  0  0
   -0.2955    2.5163   -0.9982 H   0  0  0  0  0  0  0  0  0  0  0  0
    0.3724    0.5200   -0.4020 C   0  0  1  0  0  0  0  0  0  0  0  0
    0.8239    0.5134   -1.3943 H   0  0  0  0  0  0  0  0  0  0  0  0
    1.3983    0.0272    0.6323 C   0  0  0  0  0  0  0  0  0  0  0  0
    1.1508   -0.9462    1.3412 O   0  0  0  0  0  0  0  0  0  0  0  0
    2.5340    0.7269    0.7429 N   0  0  0  0  0  0  0  0  0  0  0  0
    2.6885    1.4752    0.0863 H   0  0  0  0  0  0  0  0  0  0  0  0
    3.6064    0.3991    1.6795 C   0  0  0  0  0  0  0  0  0  0  0  0
    4.0382   -0.5684    1.4146 H   0  0  0  0  0  0  0  0  0  0  0  0
    4.3842    1.1627    1.6471 H   0  0  0  0  0  0  0  0  0  0  0  0
    3.2048    0.3334    2.6930 H   0  0  0  0  0  0  0  0  0  0  0  0
  5  6  2  0  0  0  0
  5  7  1  0  0  0  0
  2  3  1  0  0  0  0
  2  4  1  0  0  0  0
  2  5  1  0  0  0  0
  1  2  1  0  0  0  0
 19 20  2  0  0  0  0
 19 21  1  0  0  0  0
 17 18  1  0  0  0  0
 17 19  1  0  0  0  0
 14 15  1  0  0  0  0
 14 16  1  0  0  0  0
 14 17  1  0  0  0  0
 11 12  1  0  0  0  0
 11 13  1  0  0  0  0
 11 14  1  0  0  0  0
  8  9  1  0  0  0  0
  8 10  1  0  0  0  0
  8 11  1  0  0  0  0
  7  8  1  0  0  0  0
  7 17  1  0  0  0  0
 23 24  1  0  0  0  0
 23 25  1  0  0  0  0
 23 26  1  0  0  0  0
 21 22  1  0  0  0  0
 21 23  1  0  0  0  0
M  END
$$$$
default_name
  -OEChem-11182114113D

 26 26  0     1  0  0  0  0  0999 V2000
   -1.8446   -3.5060   -0.3010 H   0  0  0  0  0  0  0  0  0  0  0  0
   -2.0746   -2.4490   -0.4240 C   0  0  0  0  0  0  0  0  0  0  0  0
   -2.6906   -2.1160    0.4090 H   0  0  0  0  0  0  0  0  0  0  0  0
   -2.5986   -2.2980   -1.3650 H   0  0  0  0  0  0  0  0  0  0  0  0
   -0.7756   -1.6630   -0.4350 C   0  0  0  0  0  0  0  0  0  0  0  0
    0.2844   -2.2800   -0.4550 O   0  0  0  0  0  0  0  0  0  0  0  0
   -0.8246   -0.3180   -0.4350 N   0  0  0  0  0  0  0  0  0  0  0  0
   -2.0106    0.5080   -0.5910 C   0  0  0  0  0  0  0  0  0  0  0  0
   -2.9830    0.1578   -0.2410 H   0  0  0  0  0  0  0  0  0  0  0  0
   -2.1351    1.2455   -1.3831 H   0  0  0  0  0  0  0  0  0  0  0  0
   -1.2272    1.1176    0.5697 C   0  0  0  0  0  0  0  0  0  0  0  0
   -0.8237    0.3336    1.2124 H   0  0  0  0  0  0  0  0  0  0  0  0
   -1.8931    1.7741    1.1306 H   0  0  0  0  0  0  0  0  0  0  0  0
   -0.1209    1.9420   -0.0885 C   0  0  0  0  0  0  0  0  0  0  0  0
    0.5927    2.4617    0.5542 H   0  0  0  0  0  0  0  0  0  0  0  0
   -0.2955    2.5163   -0.9982 H   0  0  0  0  0  0  0  0  0  0  0  0
    0.3724    0.5200   -0.4020 C   0  0  1  0  0  0  0  0  0  0  0  0
    0.8239    0.5134   -1.3943 H   0  0  0  0  0  0  0  0  0  0  0  0
    1.3983    0.0272    0.6323 C   0  0  0  0  0  0  0  0  0  0  0  0
    1.2841   -1.0853    1.1428 O   0  0  0  0  0  0  0  0  0  0  0  0
    2.3782    0.8750    0.9681 N   0  0  0  0  0  0  0  0  0  0  0  0
    2.4384    1.7443    0.4626 H   0  0  0  0  0  0  0  0  0  0  0  0
    3.4264    0.5675    1.9383 C   0  0  0  0  0  0  0  0  0  0  0  0
    4.0434   -0.2507    1.5608 H   0  0  0  0  0  0  0  0  0  0  0  0
    4.0531    1.4434    2.1091 H   0  0  0  0  0  0  0  0  0  0  0  0
    2.9757    0.2544    2.8826 H   0  0  0  0  0  0  0  0  0  0  0  0
  5  6  2  0  0  0  0
  5  7  1  0  0  0  0
  2  3  1  0  0  0  0
  2  4  1  0  0  0  0
  2  5  1  0  0  0  0
  1  2  1  0  0  0  0
 19 20  2  0  0  0  0
 19 21  1  0  0  0  0
 17 18  1  0  0  0  0
 17 19  1  0  0  0  0
 14 15  1  0  0  0  0
 14 16  1  0  0  0  0
 14 17  1  0  0  0  0
 11 12  1  0  0  0  0
 11 13  1  0  0  0  0
 11 14  1  0  0  0  0
  8  9  1  0  0  0  0
  8 10  1  0  0  0  0
  8 11  1  0  0  0  0
  7  8  1  0  0  0  0
  7 17  1  0  0  0  0
 23 24  1  0  0  0  0
 23 25  1  0  0  0  0
 23 26  1  0  0  0  0
 21 22  1  0  0  0  0
 21 23  1  0  0  0  0
M  END
$$$$
default_name
  -OEChem-11182114113D

 26 26  0     1  0  0  0  0  0999 V2000
   -1.8446   -3.5060   -0.3010 H   0  0  0  0  0  0  0  0  0  0  0  0
   -2.0746   -2.4490   -0.4240 C   0  0  0  0  0  0  0  0  0  0  0  0
   -2.6906   -2.1160    0.4090 H   0  0  0  0  0  0  0  0  0  0  0  0
   -2.5986   -2.2980   -1.3650 H   0  0  0  0  0  0  0  0  0  0  0  0
   -0.7756   -1.6630   -0.4350 C   0  0  0  0  0  0  0  0  0  0  0  0
    0.2844   -2.2800   -0.4550 O   0  0  0  0  0  0  0  0  0  0  0  0
   -0.8246   -0.3180   -0.4350 N   0  0  0  0  0  0  0  0  0  0  0  0
   -2.0106    0.5080   -0.5910 C   0  0  0  0  0  0  0  0  0  0  0  0
   -2.9830    0.1578   -0.2410 H   0  0  0  0  0  0  0  0  0  0  0  0
   -2.1351    1.2455   -1.3831 H   0  0  0  0  0  0  0  0  0  0  0  0
   -1.2272    1.1176    0.5697 C   0  0  0  0  0  0  0  0  0  0  0  0
   -0.8237    0.3336    1.2124 H   0  0  0  0  0  0  0  0  0  0  0  0
   -1.8931    1.7741    1.1306 H   0  0  0  0  0  0  0  0  0  0  0  0
   -0.1209    1.9420   -0.0885 C   0  0  0  0  0  0  0  0  0  0  0  0
    0.5927    2.4617    0.5542 H   0  0  0  0  0  0  0  0  0  0  0  0
   -0.2955    2.5163   -0.9982 H   0  0  0  0  0  0  0  0  0  0  0  0
    0.3724    0.5200   -0.4020 C   0  0  1  0  0  0  0  0  0  0  0  0
    0.8239    0.5134   -1.3943 H   0  0  0  0  0  0  0  0  0  0  0  0
    1.3983    0.0272    0.6323 C   0  0  0  0  0  0  0  0  0  0  0  0
    1.4535   -1.1622    0.9381 O   0  0  0  0  0  0  0  0  0  0  0  0
    2.1832    0.9521    1.1982 N   0  0  0  0  0  0  0  0  0  0  0  0
    2.1188    1.8959    0.8518 H   0  0  0  0  0  0  0  0  0  0  0  0
    3.2017    0.6542    2.2024 C   0  0  0  0  0  0  0  0  0  0  0  0
    3.9810    0.0318    1.7574 H   0  0  0  0  0  0  0  0  0  0  0  0
    3.6462    1.5770    2.5764 H   0  0  0  0  0  0  0  0  0  0  0  0
    2.7524    0.1055    3.0331 H   0  0  0  0  0  0  0  0  0  0  0  0
  5  6  2  0  0  0  0
  5  7  1  0  0  0  0
  2  3  1  0  0  0  0
  2  4  1  0  0  0  0
  2  5  1  0  0  0  0
  1  2  1  0  0  0  0
 19 20  2  0  0  0  0
 19 21  1  0  0  0  0
 17 18  1  0  0  0  0
 17 19  1  0  0  0  0
 14 15  1  0  0  0  0
 14 16  1  0  0  0  0
 14 17  1  0  0  0  0
 11 12  1  0  0  0  0
 11 13  1  0  0  0  0
 11 14  1  0  0  0  0
  8  9  1  0  0  0  0
  8 10  1  0  0  0  0
  8 11  1  0  0  0  0
  7  8  1  0  0  0  0
  7 17  1  0  0  0  0
 23 24  1  0  0  0  0
 23 25  1  0  0  0  0
 23 26  1  0  0  0  0
 21 22  1  0  0  0  0
 21 23  1  0  0  0  0
M  END
$$$$
default_name
  -OEChem-11182114113D

 26 26  0     1  0  0  0  0  0999 V2000
   -1.8446   -3.5060   -0.3010 H   0  0  0  0  0  0  0  0  0  0  0  0
   -2.0746   -2.4490   -0.4240 C   0  0  0  0  0  0  0  0  0  0  0  0
   -2.6906   -2.1160    0.4090 H   0  0  0  0  0  0  0  0  0  0  0  0
   -2.5986   -2.2980   -1.3650 H   0  0  0  0  0  0  0  0  0  0  0  0
   -0.7756   -1.6630   -0.4350 C   0  0  0  0  0  0  0  0  0  0  0  0
    0.2844   -2.2800   -0.4550 O   0  0  0  0  0  0  0  0  0  0  0  0
   -0.8246   -0.3180   -0.4350 N   0  0  0  0  0  0  0  0  0  0  0  0
   -2.0106    0.5080   -0.5910 C   0  0  0  0  0  0  0  0  0  0  0  0
   -2.9830    0.1578   -0.2410 H   0  0  0  0  0  0  0  0  0  0  0  0
   -2.1351    1.2455   -1.3831 H   0  0  0  0  0  0  0  0  0  0  0  0
   -1.2272    1.1176    0.5697 C   0  0  0  0  0  0  0  0  0  0  0  0
   -0.8237    0.3336    1.2124 H   0  0  0  0  0  0  0  0  0  0  0  0
   -1.8931    1.7741    1.1306 H   0  0  0  0  0  0  0  0  0  0  0  0
   -0.1209    1.9420   -0.0885 C   0  0  0  0  0  0  0  0  0  0  0  0
    0.5927    2.4617    0.5542 H   0  0  0  0  0  0  0  0  0  0  0  0
   -0.2955    2.5163   -0.9982 H   0  0  0  0  0  0  0  0  0  0  0  0
    0.3724    0.5200   -0.4020 C   0  0  1  0  0  0  0  0  0  0  0  0
    0.8239    0.5134   -1.3943 H   0  0  0  0  0  0  0  0  0  0  0  0
    1.3983    0.0272    0.6323 C   0  0  0  0  0  0  0  0  0  0  0  0
    1.6475   -1.1717    0.7412 O   0  0  0  0  0  0  0  0  0  0  0  0
    1.9623    0.9529    1.4176 N   0  0  0  0  0  0  0  0  0  0  0  0
    1.7515    1.9194    1.2274 H   0  0  0  0  0  0  0  0  0  0  0  0
    2.9477    0.6532    2.4539 C   0  0  0  0  0  0  0  0  0  0  0  0
    3.8552    0.2599    1.9908 H   0  0  0  0  0  0  0  0  0  0  0  0
    3.1912    1.5546    3.0171 H   0  0  0  0  0  0  0  0  0  0  0  0
    2.5502   -0.1031    3.1342 H   0  0  0  0  0  0  0  0  0  0  0  0
  5  6  2  0  0  0  0
  5  7  1  0  0  0  0
  2  3  1  0  0  0  0
  2  4  1  0  0  0  0
  2  5  1  0  0  0  0
  1  2  1  0  0  0  0
 19 20  2  0  0  0  0
 19 21  1  0  0  0  0
 17 18  1  0  0  0  0
 17 19  1  0  0  0  0
 14 15  1  0  0  0  0
 14 16  1  0  0  0  0
 14 17  1  0  0  0  0
 11 12  1  0  0  0  0
 11 13  1  0  0  0  0
 11 14  1  0  0  0  0
  8  9  1  0  0  0  0
  8 10  1  0  0  0  0
  8 11  1  0  0  0  0
  7  8  1  0  0  0  0
  7 17  1  0  0  0  0
 23 24  1  0  0  0  0
 23 25  1  0  0  0  0
 23 26  1  0  0  0  0
 21 22  1  0  0  0  0
 21 23  1  0  0  0  0
M  END
$$$$
default_name
  -OEChem-11182114113D

 26 26  0     1  0  0  0  0  0999 V2000
   -1.8446   -3.5060   -0.3010 H   0  0  0  0  0  0  0  0  0  0  0  0
   -2.0746   -2.4490   -0.4240 C   0  0  0  0  0  0  0  0  0  0  0  0
   -2.6906   -2.1160    0.4090 H   0  0  0  0  0  0  0  0  0  0  0  0
   -2.5986   -2.2980   -1.3650 H   0  0  0  0  0  0  0  0  0  0  0  0
   -0.7756   -1.6630   -0.4350 C   0  0  0  0  0  0  0  0  0  0  0  0
    0.2844   -2.2800   -0.4550 O   0  0  0  0  0  0  0  0  0  0  0  0
   -0.8246   -0.3180   -0.4350 N   0  0  0  0  0  0  0  0  0  0  0  0
   -2.0106    0.5080   -0.5910 C   0  0  0  0  0  0  0  0  0  0  0  0
   -2.9830    0.1578   -0.2410 H   0  0  0  0  0  0  0  0  0  0  0  0
   -2.1351    1.2455   -1.3831 H   0  0  0  0  0  0  0  0  0  0  0  0
   -1.2272    1.1176    0.5697 C   0  0  0  0  0  0  0  0  0  0  0  0
   -0.8237    0.3336    1.2124 H   0  0  0  0  0  0  0  0  0  0  0  0
   -1.8931    1.7741    1.1306 H   0  0  0  0  0  0  0  0  0  0  0  0
   -0.1209    1.9420   -0.0885 C   0  0  0  0  0  0  0  0  0  0  0  0
    0.5927    2.4617    0.5542 H   0  0  0  0  0  0  0  0  0  0  0  0
   -0.2955    2.5163   -0.9982 H   0  0  0  0  0  0  0  0  0  0  0  0
    0.3724    0.5200   -0.4020 C   0  0  1  0  0  0  0  0  0  0  0  0
    0.8239    0.5134   -1.3943 H   0  0  0  0  0  0  0  0  0  0  0  0
    1.3983    0.0272    0.6323 C   0  0  0  0  0  0  0  0  0  0  0  0
    1.8528   -1.1131    0.5655 O   0  0  0  0  0  0  0  0  0  0  0  0
    1.7307    0.8773    1.6114 N   0  0  0  0  0  0  0  0  0  0  0  0
    1.3614    1.8134    1.5637 H   0  0  0  0  0  0  0  0  0  0  0  0
    2.6816    0.5646    2.6756 C   0  0  0  0  0  0  0  0  0  0  0  0
    3.6746    0.4181    2.2452 H   0  0  0  0  0  0  0  0  0  0  0  0
    2.7189    1.3777    3.4012 H   0  0  0  0  0  0  0  0  0  0  0  0
    2.3829   -0.3574    3.1791 H   0  0  0  0  0  0  0  0  0  0  0  0
  5  6  2  0  0  0  0
  5  7  1  0  0  0  0
  2  3  1  0  0  0  0
  2  4  1  0  0  0  0
  2  5  1  0  0  0  0
  1  2  1  0  0  0  0
 19 20  2  0  0  0  0
 19 21  1  0  0  0  0
 17 18  1  0  0  0  0
 17 19  1  0  0  0  0
 14 15  1  0  0  0  0
 14 16  1  0  0  0  0
 14 17  1  0  0  0  0
 11 12  1  0  0  0  0
 11 13  1  0  0  0  0
 11 14  1  0  0  0  0
  8  9  1  0  0  0  0
  8 10  1  0  0  0  0
  8 11  1  0  0  0  0
  7  8  1  0  0  0  0
  7 17  1  0  0  0  0
 23 24  1  0  0  0  0
 23 25  1  0  0  0  0
 23 26  1  0  0  0  0
 21 22  1  0  0  0  0
 21 23  1  0  0  0  0
M  END
$$$$
default_name
  -OEChem-11182114113D

 26 26  0     1  0  0  0  0  0999 V2000
   -1.8446   -3.5060   -0.3010 H   0  0  0  0  0  0  0  0  0  0  0  0
   -2.0746   -2.4490   -0.4240 C   0  0  0  0  0  0  0  0  0  0  0  0
   -2.6906   -2.1160    0.4090 H   0  0  0  0  0  0  0  0  0  0  0  0
   -2.5986   -2.2980   -1.3650 H   0  0  0  0  0  0  0  0  0  0  0  0
   -0.7756   -1.6630   -0.4350 C   0  0  0  0  0  0  0  0  0  0  0  0
    0.2844   -2.2800   -0.4550 O   0  0  0  0  0  0  0  0  0  0  0  0
   -0.8246   -0.3180   -0.4350 N   0  0  0  0  0  0  0  0  0  0  0  0
   -2.0106    0.5080   -0.5910 C   0  0  0  0  0  0  0  0  0  0  0  0
   -2.9830    0.1578   -0.2410 H   0  0  0  0  0  0  0  0  0  0  0  0
   -2.1351    1.2455   -1.3831 H   0  0  0  0  0  0  0  0  0  0  0  0
   -1.2272    1.1176    0.5697 C   0  0  0  0  0  0  0  0  0  0  0  0
   -0.8237    0.3336    1.2124 H   0  0  0  0  0  0  0  0  0  0  0  0
   -1.8931    1.7741    1.1306 H   0  0  0  0  0  0  0  0  0  0  0  0
   -0.1209    1.9420   -0.0885 C   0  0  0  0  0  0  0  0  0  0  0  0
    0.5927    2.4617    0.5542 H   0  0  0  0  0  0  0  0  0  0  0  0
   -0.2955    2.5163   -0.9982 H   0  0  0  0  0  0  0  0  0  0  0  0
    0.3724    0.5200   -0.4020 C   0  0  1  0  0  0  0  0  0  0  0  0
    0.8239    0.5134   -1.3943 H   0  0  0  0  0  0  0  0  0  0  0  0
    1.3983    0.0272    0.6323 C   0  0  0  0  0  0  0  0  0  0  0  0
    2.0555   -0.9903    0.4229 O   0  0  0  0  0  0  0  0  0  0  0  0
    1.5040    0.7305    1.7663 N   0  0  0  0  0  0  0  0  0  0  0  0
    0.9752    1.5849    1.8380 H   0  0  0  0  0  0  0  0  0  0  0  0
    2.4217    0.3945    2.8523 C   0  0  0  0  0  0  0  0  0  0  0  0
    3.4516    0.4955    2.5033 H   0  0  0  0  0  0  0  0  0  0  0  0
    2.2617    1.0583    3.7025 H   0  0  0  0  0  0  0  0  0  0  0  0
    2.2617   -0.6398    3.1647 H   0  0  0  0  0  0  0  0  0  0  0  0
  5  6  2  0  0  0  0
  5  7  1  0  0  0  0
  2  3  1  0  0  0  0
  2  4  1  0  0  0  0
  2  5  1  0  0  0  0
  1  2  1  0  0  0  0
 19 20  2  0  0  0  0
 19 21  1  0  0  0  0
 17 18  1  0  0  0  0
 17 19  1  0  0  0  0
 14 15  1  0  0  0  0
 14 16  1  0  0  0  0
 14 17  1  0  0  0  0
 11 12  1  0  0  0  0
 11 13  1  0  0  0  0
 11 14  1  0  0  0  0
  8  9  1  0  0  0  0
  8 10  1  0  0  0  0
  8 11  1  0  0  0  0
  7  8  1  0  0  0  0
  7 17  1  0  0  0  0
 23 24  1  0  0  0  0
 23 25  1  0  0  0  0
 23 26  1  0  0  0  0
 21 22  1  0  0  0  0
 21 23  1  0  0  0  0
M  END
$$$$
default_name
  -OEChem-11182114113D

 26 26  0     1  0  0  0  0  0999 V2000
   -1.8446   -3.5060   -0.3010 H   0  0  0  0  0  0  0  0  0  0  0  0
   -2.0746   -2.4490   -0.4240 C   0  0  0  0  0  0  0  0  0  0  0  0
   -2.6906   -2.1160    0.4090 H   0  0  0  0  0  0  0  0  0  0  0  0
   -2.5986   -2.2980   -1.3650 H   0  0  0  0  0  0  0  0  0  0  0  0
   -0.7756   -1.6630   -0.4350 C   0  0  0  0  0  0  0  0  0  0  0  0
    0.2844   -2.2800   -0.4550 O   0  0  0  0  0  0  0  0  0  0  0  0
   -0.8246   -0.3180   -0.4350 N   0  0  0  0  0  0  0  0  0  0  0  0
   -2.0106    0.5080   -0.5910 C   0  0  0  0  0  0  0  0  0  0  0  0
   -2.9830    0.1578   -0.2410 H   0  0  0  0  0  0  0  0  0  0  0  0
   -2.1351    1.2455   -1.3831 H   0  0  0  0  0  0  0  0  0  0  0  0
   -1.2272    1.1176    0.5697 C   0  0  0  0  0  0  0  0  0  0  0  0
   -0.8237    0.3336    1.2124 H   0  0  0  0  0  0  0  0  0  0  0  0
   -1.8931    1.7741    1.1306 H   0  0  0  0  0  0  0  0  0  0  0  0
   -0.1209    1.9420   -0.0885 C   0  0  0  0  0  0  0  0  0  0  0  0
    0.5927    2.4617    0.5542 H   0  0  0  0  0  0  0  0  0  0  0  0
   -0.2955    2.5163   -0.9982 H   0  0  0  0  0  0  0  0  0  0  0  0
    0.3724    0.5200   -0.4020 C   0  0  1  0  0  0  0  0  0  0  0  0
    0.8239    0.5134   -1.3943 H   0  0  0  0  0  0  0  0  0  0  0  0
    1.3983    0.0272    0.6323 C   0  0  0  0  0  0  0  0  0  0  0  0
    2.2418   -0.8119    0.3231 O   0  0  0  0  0  0  0  0  0  0  0  0
    1.2978    0.5225    1.8718 N   0  0  0  0  0  0  0  0  0  0  0  0
    0.6191    1.2497    2.0314 H   0  0  0  0  0  0  0  0  0  0  0  0
    2.1856    0.1543    2.9721 C   0  0  0  0  0  0  0  0  0  0  0  0
    3.2013    0.4869    2.7475 H   0  0  0  0  0  0  0  0  0  0  0  0
    1.8508    0.6182    3.9005 H   0  0  0  0  0  0  0  0  0  0  0  0
    2.1951   -0.9312    3.0920 H   0  0  0  0  0  0  0  0  0  0  0  0
  5  6  2  0  0  0  0
  5  7  1  0  0  0  0
  2  3  1  0  0  0  0
  2  4  1  0  0  0  0
  2  5  1  0  0  0  0
  1  2  1  0  0  0  0
 19 20  2  0  0  0  0
 19 21  1  0  0  0  0
 17 18  1  0  0  0  0
 17 19  1  0  0  0  0
 14 15  1  0  0  0  0
 14 16  1  0  0  0  0
 14 17  1  0  0  0  0
 11 12  1  0  0  0  0
 11 13  1  0  0  0  0
 11 14  1  0  0  0  0
  8  9  1  0  0  0  0
  8 10  1  0  0  0  0
  8 11  1  0  0  0  0
  7  8  1  0  0  0  0
  7 17  1  0  0  0  0
 23 24  1  0  0  0  0
 23 25  1  0  0  0  0
 23 26  1  0  0  0  0
 21 22  1  0  0  0  0
 21 23  1  0  0  0  0
M  END
$$$$
default_name
  -OEChem-11182114113D

 26 26  0     1  0  0  0  0  0999 V2000
   -1.8446   -3.5060   -0.3010 H   0  0  0  0  0  0  0  0  0  0  0  0
   -2.0746   -2.4490   -0.4240 C   0  0  0  0  0  0  0  0  0  0  0  0
   -2.6906   -2.1160    0.4090 H   0  0  0  0  0  0  0  0  0  0  0  0
   -2.5986   -2.2980   -1.3650 H   0  0  0  0  0  0  0  0  0  0  0  0
   -0.7756   -1.6630   -0.4350 C   0  0  0  0  0  0  0  0  0  0  0  0
    0.2844   -2.2800   -0.4550 O   0  0  0  0  0  0  0  0  0  0  0  0
   -0.8246   -0.3180   -0.4350 N   0  0  0  0  0  0  0  0  0  0  0  0
   -2.0106    0.5080   -0.5910 C   0  0  0  0  0  0  0  0  0  0  0  0
   -2.9830    0.1578   -0.2410 H   0  0  0  0  0  0  0  0  0  0  0  0
   -2.1351    1.2455   -1.3831 H   0  0  0  0  0  0  0  0  0  0  0  0
   -1.2272    1.1176    0.5697 C   0  0  0  0  0  0  0  0  0  0  0  0
   -0.8237    0.3336    1.2124 H   0  0  0  0  0  0  0  0  0  0  0  0
   -1.8931    1.7741    1.1306 H   0  0  0  0  0  0  0  0  0  0  0  0
   -0.1209    1.9420   -0.0885 C   0  0  0  0  0  0  0  0  0  0  0  0
    0.5927    2.4617    0.5542 H   0  0  0  0  0  0  0  0  0  0  0  0
   -0.2955    2.5163   -0.9982 H   0  0  0  0  0  0  0  0  0  0  0  0
    0.3724    0.5200   -0.4020 C   0  0  1  0  0  0  0  0  0  0  0  0
    0.8239    0.5134   -1.3943 H   0  0  0  0  0  0  0  0  0  0  0  0
    1.3983    0.0272    0.6323 C   0  0  0  0  0  0  0  0  0  0  0  0
    2.3990   -0.5899    0.2730 O   0  0  0  0  0  0  0  0  0  0  0  0
    1.1260    0.2675    1.9206 N   0  0  0  0  0  0  0  0  0  0  0  0
    0.3175    0.8306    2.1309 H   0  0  0  0  0  0  0  0  0  0  0  0
    1.9894   -0.1394    3.0268 C   0  0  0  0  0  0  0  0  0  0  0  0
    2.9408    0.3928    2.9611 H   0  0  0  0  0  0  0  0  0  0  0  0
    1.5140    0.0873    3.9816 H   0  0  0  0  0  0  0  0  0  0  0  0
    2.1874   -1.2118    2.9659 H   0  0  0  0  0  0  0  0  0  0  0  0
  5  6  2  0  0  0  0
  5  7  1  0  0  0  0
  2  3  1  0  0  0  0
  2  4  1  0  0  0  0
  2  5  1  0  0  0  0
  1  2  1  0  0  0  0
 19 20  2  0  0  0  0
 19 21  1  0  0  0  0
 17 18  1  0  0  0  0
 17 19  1  0  0  0  0
 14 15  1  0  0  0  0
 14 16  1  0  0  0  0
 14 17  1  0  0  0  0
 11 12  1  0  0  0  0
 11 13  1  0  0  0  0
 11 14  1  0  0  0  0
  8  9  1  0  0  0  0
  8 10  1  0  0  0  0
  8 11  1  0  0  0  0
  7  8  1  0  0  0  0
  7 17  1  0  0  0  0
 23 24  1  0  0  0  0
 23 25  1  0  0  0  0
 23 26  1  0  0  0  0
 21 22  1  0  0  0  0
 21 23  1  0  0  0  0
M  END
$$$$
default_name
  -OEChem-11182114113D

 26 26  0     1  0  0  0  0  0999 V2000
   -1.8446   -3.5060   -0.3010 H   0  0  0  0  0  0  0  0  0  0  0  0
   -2.0746   -2.4490   -0.4240 C   0  0  0  0  0  0  0  0  0  0  0  0
   -2.6906   -2.1160    0.4090 H   0  0  0  0  0  0  0  0  0  0  0  0
   -2.5986   -2.2980   -1.3650 H   0  0  0  0  0  0  0  0  0  0  0  0
   -0.7756   -1.6630   -0.4350 C   0  0  0  0  0  0  0  0  0  0  0  0
    0.2844   -2.2800   -0.4550 O   0  0  0  0  0  0  0  0  0  0  0  0
   -0.8246   -0.3180   -0.4350 N   0  0  0  0  0  0  0  0  0  0  0  0
   -2.0106    0.5080   -0.5910 C   0  0  0  0  0  0  0  0  0  0  0  0
   -2.9830    0.1578   -0.2410 H   0  0  0  0  0  0  0  0  0  0  0  0
   -2.1351    1.2455   -1.3831 H   0  0  0  0  0  0  0  0  0  0  0  0
   -1.2272    1.1176    0.5697 C   0  0  0  0  0  0  0  0  0  0  0  0
   -0.8237    0.3336    1.2124 H   0  0  0  0  0  0  0  0  0  0  0  0
   -1.8931    1.7741    1.1306 H   0  0  0  0  0  0  0  0  0  0  0  0
   -0.1209    1.9420   -0.0885 C   0  0  0  0  0  0  0  0  0  0  0  0
    0.5927    2.4617    0.5542 H   0  0  0  0  0  0  0  0  0  0  0  0
   -0.2955    2.5163   -0.9982 H   0  0  0  0  0  0  0  0  0  0  0  0
    0.3724    0.5200   -0.4020 C   0  0  1  0  0  0  0  0  0  0  0  0
    0.8239    0.5134   -1.3943 H   0  0  0  0  0  0  0  0  0  0  0  0
    1.3983    0.0272    0.6323 C   0  0  0  0  0  0  0  0  0  0  0  0
    2.5163   -0.3395    0.2760 O   0  0  0  0  0  0  0  0  0  0  0  0
    1.0004   -0.0171    1.9096 N   0  0  0  0  0  0  0  0  0  0  0  0
    0.0909    0.3560    2.1296 H   0  0  0  0  0  0  0  0  0  0  0  0
    1.8465   -0.4667    3.0126 C   0  0  0  0  0  0  0  0  0  0  0  0
    2.6878    0.2197    3.1295 H   0  0  0  0  0  0  0  0  0  0  0  0
    1.2743   -0.4981    3.9404 H   0  0  0  0  0  0  0  0  0  0  0  0
    2.2393   -1.4623    2.7950 H   0  0  0  0  0  0  0  0  0  0  0  0
  5  6  2  0  0  0  0
  5  7  1  0  0  0  0
  2  3  1  0  0  0  0
  2  4  1  0  0  0  0
  2  5  1  0  0  0  0
  1  2  1  0  0  0  0
 19 20  2  0  0  0  0
 19 21  1  0  0  0  0
 17 18  1  0  0  0  0
 17 19  1  0  0  0  0
 14 15  1  0  0  0  0
 14 16  1  0  0  0  0
 14 17  1  0  0  0  0
 11 12  1  0  0  0  0
 11 13  1  0  0  0  0
 11 14  1  0  0  0  0
  8  9  1  0  0  0  0
  8 10  1  0  0  0  0
  8 11  1  0  0  0  0
  7  8  1  0  0  0  0
  7 17  1  0  0  0  0
 23 24  1  0  0  0  0
 23 25  1  0  0  0  0
 23 26  1  0  0  0  0
 21 22  1  0  0  0  0
 21 23  1  0  0  0  0
M  END
$$$$
default_name
  -OEChem-11182114113D

 26 26  0     1  0  0  0  0  0999 V2000
   -1.8446   -3.5060   -0.3010 H   0  0  0  0  0  0  0  0  0  0  0  0
   -2.0746   -2.4490   -0.4240 C   0  0  0  0  0  0  0  0  0  0  0  0
   -2.6906   -2.1160    0.4090 H   0  0  0  0  0  0  0  0  0  0  0  0
   -2.5986   -2.2980   -1.3650 H   0  0  0  0  0  0  0  0  0  0  0  0
   -0.7756   -1.6630   -0.4350 C   0  0  0  0  0  0  0  0  0  0  0  0
    0.2844   -2.2800   -0.4550 O   0  0  0  0  0  0  0  0  0  0  0  0
   -0.8246   -0.3180   -0.4350 N   0  0  0  0  0  0  0  0  0  0  0  0
   -2.0106    0.5080   -0.5910 C   0  0  0  0  0  0  0  0  0  0  0  0
   -2.9830    0.1578   -0.2410 H   0  0  0  0  0  0  0  0  0  0  0  0
   -2.1351    1.2455   -1.3831 H   0  0  0  0  0  0  0  0  0  0  0  0
   -1.2272    1.1176    0.5697 C   0  0  0  0  0  0  0  0  0  0  0  0
   -0.8237    0.3336    1.2124 H   0  0  0  0  0  0  0  0  0  0  0  0
   -1.8931    1.7741    1.1306 H   0  0  0  0  0  0  0  0  0  0  0  0
   -0.1209    1.9420   -0.0885 C   0  0  0  0  0  0  0  0  0  0  0  0
    0.5927    2.4617    0.5542 H   0  0  0  0  0  0  0  0  0  0  0  0
   -0.2955    2.5163   -0.9982 H   0  0  0  0  0  0  0  0  0  0  0  0
    0.3724    0.5200   -0.4020 C   0  0  1  0  0  0  0  0  0  0  0  0
    0.8239    0.5134   -1.3943 H   0  0  0  0  0  0  0  0  0  0  0  0
    1.3983    0.0272    0.6323 C   0  0  0  0  0  0  0  0  0  0  0  0
    2.5857   -0.0776    0.3318 O   0  0  0  0  0  0  0  0  0  0  0  0
    0.9296   -0.3120    1.8393 N   0  0  0  0  0  0  0  0  0  0  0  0
   -0.0453   -0.1416    2.0276 H   0  0  0  0  0  0  0  0  0  0  0  0
    1.7666   -0.8053    2.9305 C   0  0  0  0  0  0  0  0  0  0  0  0
    2.4596   -0.0206    3.2414 H   0  0  0  0  0  0  0  0  0  0  0  0
    1.1482   -1.0981    3.7796 H   0  0  0  0  0  0  0  0  0  0  0  0
    2.3473   -1.6657    2.5911 H   0  0  0  0  0  0  0  0  0  0  0  0
  5  6  2  0  0  0  0
  5  7  1  0  0  0  0
  2  3  1  0  0  0  0
  2  4  1  0  0  0  0
  2  5  1  0  0  0  0
  1  2  1  0  0  0  0
 19 20  2  0  0  0  0
 19 21  1  0  0  0  0
 17 18  1  0  0  0  0
 17 19  1  0  0  0  0
 14 15  1  0  0  0  0
 14 16  1  0  0  0  0
 14 17  1  0  0  0  0
 11 12  1  0  0  0  0
 11 13  1  0  0  0  0
 11 14  1  0  0  0  0
  8  9  1  0  0  0  0
  8 10  1  0  0  0  0
  8 11  1  0  0  0  0
  7  8  1  0  0  0  0
  7 17  1  0  0  0  0
 23 24  1  0  0  0  0
 23 25  1  0  0  0  0
 23 26  1  0  0  0  0
 21 22  1  0  0  0  0
 21 23  1  0  0  0  0
M  END
$$$$
default_name
  -OEChem-11182114113D

 26 26  0     1  0  0  0  0  0999 V2000
   -1.8446   -3.5060   -0.3010 H   0  0  0  0  0  0  0  0  0  0  0  0
   -2.0746   -2.4490   -0.4240 C   0  0  0  0  0  0  0  0  0  0  0  0
   -2.6906   -2.1160    0.4090 H   0  0  0  0  0  0  0  0  0  0  0  0
   -2.5986   -2.2980   -1.3650 H   0  0  0  0  0  0  0  0  0  0  0  0
   -0.7756   -1.6630   -0.4350 C   0  0  0  0  0  0  0  0  0  0  0  0
    0.2844   -2.2800   -0.4550 O   0  0  0  0  0  0  0  0  0  0  0  0
   -0.8246   -0.3180   -0.4350 N   0  0  0  0  0  0  0  0  0  0  0  0
   -2.0106    0.5080   -0.5910 C   0  0  0  0  0  0  0  0  0  0  0  0
   -2.9830    0.1578   -0.2410 H   0  0  0  0  0  0  0  0  0  0  0  0
   -2.1351    1.2455   -1.3831 H   0  0  0  0  0  0  0  0  0  0  0  0
   -1.2272    1.1176    0.5697 C   0  0  0  0  0  0  0  0  0  0  0  0
   -0.8237    0.3336    1.2124 H   0  0  0  0  0  0  0  0  0  0  0  0
   -1.8931    1.7741    1.1306 H   0  0  0  0  0  0  0  0  0  0  0  0
   -0.1209    1.9420   -0.0885 C   0  0  0  0  0  0  0  0  0  0  0  0
    0.5927    2.4617    0.5542 H   0  0  0  0  0  0  0  0  0  0  0  0
   -0.2955    2.5163   -0.9982 H   0  0  0  0  0  0  0  0  0  0  0  0
    0.3724    0.5200   -0.4020 C   0  0  1  0  0  0  0  0  0  0  0  0
    0.8239    0.5134   -1.3943 H   0  0  0  0  0  0  0  0  0  0  0  0
    1.3983    0.0272    0.6323 C   0  0  0  0  0  0  0  0  0  0  0  0
    2.6026    0.1777    0.4367 O   0  0  0  0  0  0  0  0  0  0  0  0
    0.9184   -0.5971    1.7147 N   0  0  0  0  0  0  0  0  0  0  0  0
   -0.0817   -0.6284    1.8318 H   0  0  0  0  0  0  0  0  0  0  0  0
    1.7551   -1.1321    2.7862 C   0  0  0  0  0  0  0  0  0  0  0  0
    2.2717   -0.3117    3.2891 H   0  0  0  0  0  0  0  0  0  0  0  0
    1.1441   -1.6719    3.5103 H   0  0  0  0  0  0  0  0  0  0  0  0
    2.5039   -1.8083    2.3678 H   0  0  0  0  0  0  0  0  0  0  0  0
  5  6  2  0  0  0  0
  5  7  1  0  0  0  0
  2  3  1  0  0  0  0
  2  4  1  0  0  0  0
  2  5  1  0  0  0  0
  1  2  1  0  0  0  0
 19 20  2  0  0  0  0
 19 21  1  0  0  0  0
 17 18  1  0  0  0  0
 17 19  1  0  0  0  0
 14 15  1  0  0  0  0
 14 16  1  0  0  0  0
 14 17  1  0  0  0  0
 11 12  1  0  0  0  0
 11 13  1  0  0  0  0
 11 14  1  0  0  0  0
  8  9  1  0  0  0  0
  8 10  1  0  0  0  0
  8 11  1  0  0  0  0
  7  8  1  0  0  0  0
  7 17  1  0  0  0  0
 23 24  1  0  0  0  0
 23 25  1  0  0  0  0
 23 26  1  0  0  0  0
 21 22  1  0  0  0  0
 21 23  1  0  0  0  0
M  END
$$$$
default_name
  -OEChem-11182114113D

 26 26  0     1  0  0  0  0  0999 V2000
   -1.8446   -3.5060   -0.3010 H   0  0  0  0  0  0  0  0  0  0  0  0
   -2.0746   -2.4490   -0.4240 C   0  0  0  0  0  0  0  0  0  0  0  0
   -2.6906   -2.1160    0.4090 H   0  0  0  0  0  0  0  0  0  0  0  0
   -2.5986   -2.2980   -1.3650 H   0  0  0  0  0  0  0  0  0  0  0  0
   -0.7756   -1.6630   -0.4350 C   0  0  0  0  0  0  0  0  0  0  0  0
    0.2844   -2.2800   -0.4550 O   0  0  0  0  0  0  0  0  0  0  0  0
   -0.8246   -0.3180   -0.4350 N   0  0  0  0  0  0  0  0  0  0  0  0
   -2.0106    0.5080   -0.5910 C   0  0  0  0  0  0  0  0  0  0  0  0
   -2.9830    0.1578   -0.2410 H   0  0  0  0  0  0  0  0  0  0  0  0
   -2.1351    1.2455   -1.3831 H   0  0  0  0  0  0  0  0  0  0  0  0
   -1.2272    1.1176    0.5697 C   0  0  0  0  0  0  0  0  0  0  0  0
   -0.8237    0.3336    1.2124 H   0  0  0  0  0  0  0  0  0  0  0  0
   -1.8931    1.7741    1.1306 H   0  0  0  0  0  0  0  0  0  0  0  0
   -0.1209    1.9420   -0.0885 C   0  0  0  0  0  0  0  0  0  0  0  0
    0.5927    2.4617    0.5542 H   0  0  0  0  0  0  0  0  0  0  0  0
   -0.2955    2.5163   -0.9982 H   0  0  0  0  0  0  0  0  0  0  0  0
    0.3724    0.5200   -0.4020 C   0  0  1  0  0  0  0  0  0  0  0  0
    0.8239    0.5134   -1.3943 H   0  0  0  0  0  0  0  0  0  0  0  0
    1.3983    0.0272    0.6323 C   0  0  0  0  0  0  0  0  0  0  0  0
    2.5658    0.4092    0.5835 O   0  0  0  0  0  0  0  0  0  0  0  0
    0.9674   -0.8529    1.5441 N   0  0  0  0  0  0  0  0  0  0  0  0
   -0.0160   -1.0711    1.5557 H   0  0  0  0  0  0  0  0  0  0  0  0
    1.8129   -1.4248    2.5894 C   0  0  0  0  0  0  0  0  0  0  0  0
    2.1369   -0.6339    3.2692 H   0  0  0  0  0  0  0  0  0  0  0  0
    1.2624   -2.1804    3.1507 H   0  0  0  0  0  0  0  0  0  0  0  0
    2.6984   -1.8801    2.1406 H   0  0  0  0  0  0  0  0  0  0  0  0
  5  6  2  0  0  0  0
  5  7  1  0  0  0  0
  2  3  1  0  0  0  0
  2  4  1  0  0  0  0
  2  5  1  0  0  0  0
  1  2  1  0  0  0  0
 19 20  2  0  0  0  0
 19 21  1  0  0  0  0
 17 18  1  0  0  0  0
 17 19  1  0  0  0  0
 14 15  1  0  0  0  0
 14 16  1  0  0  0  0
 14 17  1  0  0  0  0
 11 12  1  0  0  0  0
 11 13  1  0  0  0  0
 11 14  1  0  0  0  0
  8  9  1  0  0  0  0
  8 10  1  0  0  0  0
  8 11  1  0  0  0  0
  7  8  1  0  0  0  0
  7 17  1  0  0  0  0
 23 24  1  0  0  0  0
 23 25  1  0  0  0  0
 23 26  1  0  0  0  0
 21 22  1  0  0  0  0
 21 23  1  0  0  0  0
M  END
$$$$
default_name
  -OEChem-11182114113D

 26 26  0     1  0  0  0  0  0999 V2000
   -1.8446   -3.5060   -0.3010 H   0  0  0  0  0  0  0  0  0  0  0  0
   -2.0746   -2.4490   -0.4240 C   0  0  0  0  0  0  0  0  0  0  0  0
   -2.6906   -2.1160    0.4090 H   0  0  0  0  0  0  0  0  0  0  0  0
   -2.5986   -2.2980   -1.3650 H   0  0  0  0  0  0  0  0  0  0  0  0
   -0.7756   -1.6630   -0.4350 C   0  0  0  0  0  0  0  0  0  0  0  0
    0.2844   -2.2800   -0.4550 O   0  0  0  0  0  0  0  0  0  0  0  0
   -0.8246   -0.3180   -0.4350 N   0  0  0  0  0  0  0  0  0  0  0  0
   -2.0106    0.5080   -0.5910 C   0  0  0  0  0  0  0  0  0  0  0  0
   -2.9830    0.1578   -0.2410 H   0  0  0  0  0  0  0  0  0  0  0  0
   -2.1351    1.2455   -1.3831 H   0  0  0  0  0  0  0  0  0  0  0  0
   -1.2272    1.1176    0.5697 C   0  0  0  0  0  0  0  0  0  0  0  0
   -0.8237    0.3336    1.2124 H   0  0  0  0  0  0  0  0  0  0  0  0
   -1.8931    1.7741    1.1306 H   0  0  0  0  0  0  0  0  0  0  0  0
   -0.1209    1.9420   -0.0885 C   0  0  0  0  0  0  0  0  0  0  0  0
    0.5927    2.4617    0.5542 H   0  0  0  0  0  0  0  0  0  0  0  0
   -0.2955    2.5163   -0.9982 H   0  0  0  0  0  0  0  0  0  0  0  0
    0.3724    0.5200   -0.4020 C   0  0  1  0  0  0  0  0  0  0  0  0
    0.8239    0.5134   -1.3943 H   0  0  0  0  0  0  0  0  0  0  0  0
    1.3983    0.0272    0.6323 C   0  0  0  0  0  0  0  0  0  0  0  0
    2.4778    0.6010    0.7622 O   0  0  0  0  0  0  0  0  0  0  0  0
    1.0735   -1.0619    1.3393 N   0  0  0  0  0  0  0  0  0  0  0  0
    0.1475   -1.4396    1.2180 H   0  0  0  0  0  0  0  0  0  0  0  0
    1.9360   -1.6635    2.3536 C   0  0  0  0  0  0  0  0  0  0  0  0
    2.0645   -0.9651    3.1833 H   0  0  0  0  0  0  0  0  0  0  0  0
    1.4950   -2.5889    2.7254 H   0  0  0  0  0  0  0  0  0  0  0  0
    2.9177   -1.8765    1.9249 H   0  0  0  0  0  0  0  0  0  0  0  0
  5  6  2  0  0  0  0
  5  7  1  0  0  0  0
  2  3  1  0  0  0  0
  2  4  1  0  0  0  0
  2  5  1  0  0  0  0
  1  2  1  0  0  0  0
 19 20  2  0  0  0  0
 19 21  1  0  0  0  0
 17 18  1  0  0  0  0
 17 19  1  0  0  0  0
 14 15  1  0  0  0  0
 14 16  1  0  0  0  0
 14 17  1  0  0  0  0
 11 12  1  0  0  0  0
 11 13  1  0  0  0  0
 11 14  1  0  0  0  0
  8  9  1  0  0  0  0
  8 10  1  0  0  0  0
  8 11  1  0  0  0  0
  7  8  1  0  0  0  0
  7 17  1  0  0  0  0
 23 24  1  0  0  0  0
 23 25  1  0  0  0  0
 23 26  1  0  0  0  0
 21 22  1  0  0  0  0
 21 23  1  0  0  0  0
M  END
$$$$
default_name
  -OEChem-11182114113D

 26 26  0     1  0  0  0  0  0999 V2000
   -1.8446   -3.5060   -0.3010 H   0  0  0  0  0  0  0  0  0  0  0  0
   -2.0746   -2.4490   -0.4240 C   0  0  0  0  0  0  0  0  0  0  0  0
   -2.6906   -2.1160    0.4090 H   0  0  0  0  0  0  0  0  0  0  0  0
   -2.5986   -2.2980   -1.3650 H   0  0  0  0  0  0  0  0  0  0  0  0
   -0.7756   -1.6630   -0.4350 C   0  0  0  0  0  0  0  0  0  0  0  0
    0.2844   -2.2800   -0.4550 O   0  0  0  0  0  0  0  0  0  0  0  0
   -0.8246   -0.3180   -0.4350 N   0  0  0  0  0  0  0  0  0  0  0  0
   -2.0106    0.5080   -0.5910 C   0  0  0  0  0  0  0  0  0  0  0  0
   -2.9830    0.1578   -0.2410 H   0  0  0  0  0  0  0  0  0  0  0  0
   -2.1351    1.2455   -1.3831 H   0  0  0  0  0  0  0  0  0  0  0  0
   -1.2272    1.1176    0.5697 C   0  0  0  0  0  0  0  0  0  0  0  0
   -0.8237    0.3336    1.2124 H   0  0  0  0  0  0  0  0  0  0  0  0
   -1.8931    1.7741    1.1306 H   0  0  0  0  0  0  0  0  0  0  0  0
   -0.1209    1.9420   -0.0885 C   0  0  0  0  0  0  0  0  0  0  0  0
    0.5927    2.4617    0.5542 H   0  0  0  0  0  0  0  0  0  0  0  0
   -0.2955    2.5163   -0.9982 H   0  0  0  0  0  0  0  0  0  0  0  0
    0.3724    0.5200   -0.4020 C   0  0  1  0  0  0  0  0  0  0  0  0
    0.8239    0.5134   -1.3943 H   0  0  0  0  0  0  0  0  0  0  0  0
    1.3983    0.0272    0.6323 C   0  0  0  0  0  0  0  0  0  0  0  0
    2.3445    0.7401    0.9607 O   0  0  0  0  0  0  0  0  0  0  0  0
    1.2294   -1.2100    1.1142 N   0  0  0  0  0  0  0  0  0  0  0  0
    0.3975   -1.7088    0.8417 H   0  0  0  0  0  0  0  0  0  0  0  0
    2.1161   -1.8320    2.0948 C   0  0  0  0  0  0  0  0  0  0  0  0
    2.0593   -1.2828    3.0371 H   0  0  0  0  0  0  0  0  0  0  0  0
    1.8260   -2.8695    2.2634 H   0  0  0  0  0  0  0  0  0  0  0  0
    3.1468   -1.7975    1.7353 H   0  0  0  0  0  0  0  0  0  0  0  0
  5  6  2  0  0  0  0
  5  7  1  0  0  0  0
  2  3  1  0  0  0  0
  2  4  1  0  0  0  0
  2  5  1  0  0  0  0
  1  2  1  0  0  0  0
 19 20  2  0  0  0  0
 19 21  1  0  0  0  0
 17 18  1  0  0  0  0
 17 19  1  0  0  0  0
 14 15  1  0  0  0  0
 14 16  1  0  0  0  0
 14 17  1  0  0  0  0
 11 12  1  0  0  0  0
 11 13  1  0  0  0  0
 11 14  1  0  0  0  0
  8  9  1  0  0  0  0
  8 10  1  0  0  0  0
  8 11  1  0  0  0  0
  7  8  1  0  0  0  0
  7 17  1  0  0  0  0
 23 24  1  0  0  0  0
 23 25  1  0  0  0  0
 23 26  1  0  0  0  0
 21 22  1  0  0  0  0
 21 23  1  0  0  0  0
M  END
$$$$
default_name
  -OEChem-11182114113D

 26 26  0     1  0  0  0  0  0999 V2000
   -1.8446   -3.5060   -0.3010 H   0  0  0  0  0  0  0  0  0  0  0  0
   -2.0746   -2.4490   -0.4240 C   0  0  0  0  0  0  0  0  0  0  0  0
   -2.6906   -2.1160    0.4090 H   0  0  0  0  0  0  0  0  0  0  0  0
   -2.5986   -2.2980   -1.3650 H   0  0  0  0  0  0  0  0  0  0  0  0
   -0.7756   -1.6630   -0.4350 C   0  0  0  0  0  0  0  0  0  0  0  0
    0.2844   -2.2800   -0.4550 O   0  0  0  0  0  0  0  0  0  0  0  0
   -0.8246   -0.3180   -0.4350 N   0  0  0  0  0  0  0  0  0  0  0  0
   -2.0106    0.5080   -0.5910 C   0  0  0  0  0  0  0  0  0  0  0  0
   -2.9830    0.1578   -0.2410 H   0  0  0  0  0  0  0  0  0  0  0  0
   -2.1351    1.2455   -1.3831 H   0  0  0  0  0  0  0  0  0  0  0  0
   -1.2272    1.1176    0.5697 C   0  0  0  0  0  0  0  0  0  0  0  0
   -0.8237    0.3336    1.2124 H   0  0  0  0  0  0  0  0  0  0  0  0
   -1.8931    1.7741    1.1306 H   0  0  0  0  0  0  0  0  0  0  0  0
   -0.1209    1.9420   -0.0885 C   0  0  0  0  0  0  0  0  0  0  0  0
    0.5927    2.4617    0.5542 H   0  0  0  0  0  0  0  0  0  0  0  0
   -0.2955    2.5163   -0.9982 H   0  0  0  0  0  0  0  0  0  0  0  0
    0.3724    0.5200   -0.4020 C   0  0  1  0  0  0  0  0  0  0  0  0
    0.8239    0.5134   -1.3943 H   0  0  0  0  0  0  0  0  0  0  0  0
    1.3983    0.0272    0.6323 C   0  0  0  0  0  0  0  0  0  0  0  0
    2.1751    0.8171    1.1653 O   0  0  0  0  0  0  0  0  0  0  0  0
    1.4244   -1.2871    0.8841 N   0  0  0  0  0  0  0  0  0  0  0  0
    0.7171   -1.8603    0.4526 H   0  0  0  0  0  0  0  0  0  0  0  0
    2.3407   -1.9186    1.8306 C   0  0  0  0  0  0  0  0  0  0  0  0
    2.1217   -1.5654    2.8405 H   0  0  0  0  0  0  0  0  0  0  0  0
    2.2329   -3.0032    1.7961 H   0  0  0  0  0  0  0  0  0  0  0  0
    3.3701   -1.6486    1.5848 H   0  0  0  0  0  0  0  0  0  0  0  0
  5  6  2  0  0  0  0
  5  7  1  0  0  0  0
  2  3  1  0  0  0  0
  2  4  1  0  0  0  0
  2  5  1  0  0  0  0
  1  2  1  0  0  0  0
 19 20  2  0  0  0  0
 19 21  1  0  0  0  0
 17 18  1  0  0  0  0
 17 19  1  0  0  0  0
 14 15  1  0  0  0  0
 14 16  1  0  0  0  0
 14 17  1  0  0  0  0
 11 12  1  0  0  0  0
 11 13  1  0  0  0  0
 11 14  1  0  0  0  0
  8  9  1  0  0  0  0
  8 10  1  0  0  0  0
  8 11  1  0  0  0  0
  7  8  1  0  0  0  0
  7 17  1  0  0  0  0
 23 24  1  0  0  0  0
 23 25  1  0  0  0  0
 23 26  1  0  0  0  0
 21 22  1  0  0  0  0
 21 23  1  0  0  0  0
M  END
$$$$
default_name
  -OEChem-11182114113D

 26 26  0     1  0  0  0  0  0999 V2000
   -1.8446   -3.5060   -0.3010 H   0  0  0  0  0  0  0  0  0  0  0  0
   -2.0746   -2.4490   -0.4240 C   0  0  0  0  0  0  0  0  0  0  0  0
   -2.6906   -2.1160    0.4090 H   0  0  0  0  0  0  0  0  0  0  0  0
   -2.5986   -2.2980   -1.3650 H   0  0  0  0  0  0  0  0  0  0  0  0
   -0.7756   -1.6630   -0.4350 C   0  0  0  0  0  0  0  0  0  0  0  0
    0.2844   -2.2800   -0.4550 O   0  0  0  0  0  0  0  0  0  0  0  0
   -0.8246   -0.3180   -0.4350 N   0  0  0  0  0  0  0  0  0  0  0  0
   -2.0106    0.5080   -0.5910 C   0  0  0  0  0  0  0  0  0  0  0  0
   -2.9830    0.1578   -0.2410 H   0  0  0  0  0  0  0  0  0  0  0  0
   -2.1351    1.2455   -1.3831 H   0  0  0  0  0  0  0  0  0  0  0  0
   -1.2272    1.1176    0.5697 C   0  0  0  0  0  0  0  0  0  0  0  0
   -0.8237    0.3336    1.2124 H   0  0  0  0  0  0  0  0  0  0  0  0
   -1.8931    1.7741    1.1306 H   0  0  0  0  0  0  0  0  0  0  0  0
   -0.1209    1.9420   -0.0885 C   0  0  0  0  0  0  0  0  0  0  0  0
    0.5927    2.4617    0.5542 H   0  0  0  0  0  0  0  0  0  0  0  0
   -0.2955    2.5163   -0.9982 H   0  0  0  0  0  0  0  0  0  0  0  0
    0.3724    0.5200   -0.4020 C   0  0  1  0  0  0  0  0  0  0  0  0
    0.8239    0.5134   -1.3943 H   0  0  0  0  0  0  0  0  0  0  0  0
    1.3983    0.0272    0.6323 C   0  0  0  0  0  0  0  0  0  0  0  0
    1.9811    0.8265    1.3623 O   0  0  0  0  0  0  0  0  0  0  0  0
    1.6452   -1.2879    0.6646 N   0  0  0  0  0  0  0  0  0  0  0  0
    1.0845   -1.8838    0.0770 H   0  0  0  0  0  0  0  0  0  0  0  0
    2.5947   -1.9176    1.5791 C   0  0  0  0  0  0  0  0  0  0  0  0
    2.2475   -1.7935    2.6071 H   0  0  0  0  0  0  0  0  0  0  0  0
    2.6880   -2.9808    1.3554 H   0  0  0  0  0  0  0  0  0  0  0  0
    3.5723   -1.4399    1.4836 H   0  0  0  0  0  0  0  0  0  0  0  0
  5  6  2  0  0  0  0
  5  7  1  0  0  0  0
  2  3  1  0  0  0  0
  2  4  1  0  0  0  0
  2  5  1  0  0  0  0
  1  2  1  0  0  0  0
 19 20  2  0  0  0  0
 19 21  1  0  0  0  0
 17 18  1  0  0  0  0
 17 19  1  0  0  0  0
 14 15  1  0  0  0  0
 14 16  1  0  0  0  0
 14 17  1  0  0  0  0
 11 12  1  0  0  0  0
 11 13  1  0  0  0  0
 11 14  1  0  0  0  0
  8  9  1  0  0  0  0
  8 10  1  0  0  0  0
  8 11  1  0  0  0  0
  7  8  1  0  0  0  0
  7 17  1  0  0  0  0
 23 24  1  0  0  0  0
 23 25  1  0  0  0  0
 23 26  1  0  0  0  0
 21 22  1  0  0  0  0
 21 23  1  0  0  0  0
M  END
$$$$
default_name
  -OEChem-11182114113D

 26 26  0     1  0  0  0  0  0999 V2000
   -1.8446   -3.5060   -0.3010 H   0  0  0  0  0  0  0  0  0  0  0  0
   -2.0746   -2.4490   -0.4240 C   0  0  0  0  0  0  0  0  0  0  0  0
   -2.6906   -2.1160    0.4090 H   0  0  0  0  0  0  0  0  0  0  0  0
   -2.5986   -2.2980   -1.3650 H   0  0  0  0  0  0  0  0  0  0  0  0
   -0.7756   -1.6630   -0.4350 C   0  0  0  0  0  0  0  0  0  0  0  0
    0.2844   -2.2800   -0.4550 O   0  0  0  0  0  0  0  0  0  0  0  0
   -0.8246   -0.3180   -0.4350 N   0  0  0  0  0  0  0  0  0  0  0  0
   -2.0106    0.5080   -0.5910 C   0  0  0  0  0  0  0  0  0  0  0  0
   -2.9830    0.1578   -0.2410 H   0  0  0  0  0  0  0  0  0  0  0  0
   -2.1351    1.2455   -1.3831 H   0  0  0  0  0  0  0  0  0  0  0  0
   -1.2272    1.1176    0.5697 C   0  0  0  0  0  0  0  0  0  0  0  0
   -0.8237    0.3336    1.2124 H   0  0  0  0  0  0  0  0  0  0  0  0
   -1.8931    1.7741    1.1306 H   0  0  0  0  0  0  0  0  0  0  0  0
   -0.1209    1.9420   -0.0885 C   0  0  0  0  0  0  0  0  0  0  0  0
    0.5927    2.4617    0.5542 H   0  0  0  0  0  0  0  0  0  0  0  0
   -0.2955    2.5163   -0.9982 H   0  0  0  0  0  0  0  0  0  0  0  0
    0.3724    0.5200   -0.4020 C   0  0  1  0  0  0  0  0  0  0  0  0
    0.8239    0.5134   -1.3943 H   0  0  0  0  0  0  0  0  0  0  0  0
    1.3983    0.0272    0.6323 C   0  0  0  0  0  0  0  0  0  0  0  0
    1.7758    0.7679    1.5380 O   0  0  0  0  0  0  0  0  0  0  0  0
    1.8769   -1.2123    0.4709 N   0  0  0  0  0  0  0  0  0  0  0  0
    1.4746   -1.7778   -0.2594 H   0  0  0  0  0  0  0  0  0  0  0  0
    2.8608   -1.8290    1.3575 C   0  0  0  0  0  0  0  0  0  0  0  0
    2.4280   -1.9516    2.3527 H   0  0  0  0  0  0  0  0  0  0  0  0
    3.1602   -2.8039    0.9713 H   0  0  0  0  0  0  0  0  0  0  0  0
    3.7396   -1.1857    1.4387 H   0  0  0  0  0  0  0  0  0  0  0  0
  5  6  2  0  0  0  0
  5  7  1  0  0  0  0
  2  3  1  0  0  0  0
  2  4  1  0  0  0  0
  2  5  1  0  0  0  0
  1  2  1  0  0  0  0
 19 20  2  0  0  0  0
 19 21  1  0  0  0  0
 17 18  1  0  0  0  0
 17 19  1  0  0  0  0
 14 15  1  0  0  0  0
 14 16  1  0  0  0  0
 14 17  1  0  0  0  0
 11 12  1  0  0  0  0
 11 13  1  0  0  0  0
 11 14  1  0  0  0  0
  8  9  1  0  0  0  0
  8 10  1  0  0  0  0
  8 11  1  0  0  0  0
  7  8  1  0  0  0  0
  7 17  1  0  0  0  0
 23 24  1  0  0  0  0
 23 25  1  0  0  0  0
 23 26  1  0  0  0  0
 21 22  1  0  0  0  0
 21 23  1  0  0  0  0
M  END
$$$$
default_name
  -OEChem-11182114113D

 26 26  0     1  0  0  0  0  0999 V2000
   -1.8446   -3.5060   -0.3010 H   0  0  0  0  0  0  0  0  0  0  0  0
   -2.0746   -2.4490   -0.4240 C   0  0  0  0  0  0  0  0  0  0  0  0
   -2.6906   -2.1160    0.4090 H   0  0  0  0  0  0  0  0  0  0  0  0
   -2.5986   -2.2980   -1.3650 H   0  0  0  0  0  0  0  0  0  0  0  0
   -0.7756   -1.6630   -0.4350 C   0  0  0  0  0  0  0  0  0  0  0  0
    0.2844   -2.2800   -0.4550 O   0  0  0  0  0  0  0  0  0  0  0  0
   -0.8246   -0.3180   -0.4350 N   0  0  0  0  0  0  0  0  0  0  0  0
   -2.0106    0.5080   -0.5910 C   0  0  0  0  0  0  0  0  0  0  0  0
   -2.9830    0.1578   -0.2410 H   0  0  0  0  0  0  0  0  0  0  0  0
   -2.1351    1.2455   -1.3831 H   0  0  0  0  0  0  0  0  0  0  0  0
   -1.2272    1.1176    0.5697 C   0  0  0  0  0  0  0  0  0  0  0  0
   -0.8237    0.3336    1.2124 H   0  0  0  0  0  0  0  0  0  0  0  0
   -1.8931    1.7741    1.1306 H   0  0  0  0  0  0  0  0  0  0  0  0
   -0.1209    1.9420   -0.0885 C   0  0  0  0  0  0  0  0  0  0  0  0
    0.5927    2.4617    0.5542 H   0  0  0  0  0  0  0  0  0  0  0  0
   -0.2955    2.5163   -0.9982 H   0  0  0  0  0  0  0  0  0  0  0  0
    0.3724    0.5200   -0.4020 C   0  0  1  0  0  0  0  0  0  0  0  0
    0.8239    0.5134   -1.3943 H   0  0  0  0  0  0  0  0  0  0  0  0
    1.3983    0.0272    0.6323 C   0  0  0  0  0  0  0  0  0  0  0  0
    1.5730    0.6452    1.6806 O   0  0  0  0  0  0  0  0  0  0  0  0
    2.1035   -1.0655    0.3160 N   0  0  0  0  0  0  0  0  0  0  0  0
    1.8608   -1.5494   -0.5337 H   0  0  0  0  0  0  0  0  0  0  0  0
    3.1207   -1.6589    1.1807 C   0  0  0  0  0  0  0  0  0  0  0  0
    2.6511   -2.0290    2.0946 H   0  0  0  0  0  0  0  0  0  0  0  0
    3.6174   -2.4845    0.6700 H   0  0  0  0  0  0  0  0  0  0  0  0
    3.8608   -0.9032    1.4531 H   0  0  0  0  0  0  0  0  0  0  0  0
  5  6  2  0  0  0  0
  5  7  1  0  0  0  0
  2  3  1  0  0  0  0
  2  4  1  0  0  0  0
  2  5  1  0  0  0  0
  1  2  1  0  0  0  0
 19 20  2  0  0  0  0
 19 21  1  0  0  0  0
 17 18  1  0  0  0  0
 17 19  1  0  0  0  0
 14 15  1  0  0  0  0
 14 16  1  0  0  0  0
 14 17  1  0  0  0  0
 11 12  1  0  0  0  0
 11 13  1  0  0  0  0
 11 14  1  0  0  0  0
  8  9  1  0  0  0  0
  8 10  1  0  0  0  0
  8 11  1  0  0  0  0
  7  8  1  0  0  0  0
  7 17  1  0  0  0  0
 23 24  1  0  0  0  0
 23 25  1  0  0  0  0
 23 26  1  0  0  0  0
 21 22  1  0  0  0  0
 21 23  1  0  0  0  0
M  END
$$$$
default_name
  -OEChem-11182114113D

 26 26  0     1  0  0  0  0  0999 V2000
   -1.8446   -3.5060   -0.3010 H   0  0  0  0  0  0  0  0  0  0  0  0
   -2.0746   -2.4490   -0.4240 C   0  0  0  0  0  0  0  0  0  0  0  0
   -2.6906   -2.1160    0.4090 H   0  0  0  0  0  0  0  0  0  0  0  0
   -2.5986   -2.2980   -1.3650 H   0  0  0  0  0  0  0  0  0  0  0  0
   -0.7756   -1.6630   -0.4350 C   0  0  0  0  0  0  0  0  0  0  0  0
    0.2844   -2.2800   -0.4550 O   0  0  0  0  0  0  0  0  0  0  0  0
   -0.8246   -0.3180   -0.4350 N   0  0  0  0  0  0  0  0  0  0  0  0
   -2.0106    0.5080   -0.5910 C   0  0  0  0  0  0  0  0  0  0  0  0
   -2.9830    0.1578   -0.2410 H   0  0  0  0  0  0  0  0  0  0  0  0
   -2.1351    1.2455   -1.3831 H   0  0  0  0  0  0  0  0  0  0  0  0
   -1.2272    1.1176    0.5697 C   0  0  0  0  0  0  0  0  0  0  0  0
   -0.8237    0.3336    1.2124 H   0  0  0  0  0  0  0  0  0  0  0  0
   -1.8931    1.7741    1.1306 H   0  0  0  0  0  0  0  0  0  0  0  0
   -0.1209    1.9420   -0.0885 C   0  0  0  0  0  0  0  0  0  0  0  0
    0.5927    2.4617    0.5542 H   0  0  0  0  0  0  0  0  0  0  0  0
   -0.2955    2.5163   -0.9982 H   0  0  0  0  0  0  0  0  0  0  0  0
    0.3724    0.5200   -0.4020 C   0  0  1  0  0  0  0  0  0  0  0  0
    0.8239    0.5134   -1.3943 H   0  0  0  0  0  0  0  0  0  0  0  0
    1.3983    0.0272    0.6323 C   0  0  0  0  0  0  0  0  0  0  0  0
    1.3868    0.4668    1.7804 O   0  0  0  0  0  0  0  0  0  0  0  0
    2.3098   -0.8576    0.2105 N   0  0  0  0  0  0  0  0  0  0  0  0
    2.2168   -1.2141   -0.7271 H   0  0  0  0  0  0  0  0  0  0  0  0
    3.3568   -1.4188    1.0609 C   0  0  0  0  0  0  0  0  0  0  0  0
    2.9014   -2.0204    1.8504 H   0  0  0  0  0  0  0  0  0  0  0  0
    4.0284   -2.0443    0.4721 H   0  0  0  0  0  0  0  0  0  0  0  0
    3.9274   -0.6118    1.5259 H   0  0  0  0  0  0  0  0  0  0  0  0
  5  6  2  0  0  0  0
  5  7  1  0  0  0  0
  2  3  1  0  0  0  0
  2  4  1  0  0  0  0
  2  5  1  0  0  0  0
  1  2  1  0  0  0  0
 19 20  2  0  0  0  0
 19 21  1  0  0  0  0
 17 18  1  0  0  0  0
 17 19  1  0  0  0  0
 14 15  1  0  0  0  0
 14 16  1  0  0  0  0
 14 17  1  0  0  0  0
 11 12  1  0  0  0  0
 11 13  1  0  0  0  0
 11 14  1  0  0  0  0
  8  9  1  0  0  0  0
  8 10  1  0  0  0  0
  8 11  1  0  0  0  0
  7  8  1  0  0  0  0
  7 17  1  0  0  0  0
 23 24  1  0  0  0  0
 23 25  1  0  0  0  0
 23 26  1  0  0  0  0
 21 22  1  0  0  0  0
 21 23  1  0  0  0  0
M  END
$$$$
default_name
  -OEChem-11182114113D

 26 26  0     1  0  0  0  0  0999 V2000
   -1.8446   -3.5060   -0.3010 H   0  0  0  0  0  0  0  0  0  0  0  0
   -2.0746   -2.4490   -0.4240 C   0  0  0  0  0  0  0  0  0  0  0  0
   -2.6906   -2.1160    0.4090 H   0  0  0  0  0  0  0  0  0  0  0  0
   -2.5986   -2.2980   -1.3650 H   0  0  0  0  0  0  0  0  0  0  0  0
   -0.7756   -1.6630   -0.4350 C   0  0  0  0  0  0  0  0  0  0  0  0
    0.2844   -2.2800   -0.4550 O   0  0  0  0  0  0  0  0  0  0  0  0
   -0.8246   -0.3180   -0.4350 N   0  0  0  0  0  0  0  0  0  0  0  0
   -2.0106    0.5080   -0.5910 C   0  0  0  0  0  0  0  0  0  0  0  0
   -2.9830    0.1578   -0.2410 H   0  0  0  0  0  0  0  0  0  0  0  0
   -2.1351    1.2455   -1.3831 H   0  0  0  0  0  0  0  0  0  0  0  0
   -1.2272    1.1176    0.5697 C   0  0  0  0  0  0  0  0  0  0  0  0
   -0.8237    0.3336    1.2124 H   0  0  0  0  0  0  0  0  0  0  0  0
   -1.8931    1.7741    1.1306 H   0  0  0  0  0  0  0  0  0  0  0  0
   -0.1209    1.9420   -0.0885 C   0  0  0  0  0  0  0  0  0  0  0  0
    0.5927    2.4617    0.5542 H   0  0  0  0  0  0  0  0  0  0  0  0
   -0.2955    2.5163   -0.9982 H   0  0  0  0  0  0  0  0  0  0  0  0
    0.3724    0.5200   -0.4020 C   0  0  1  0  0  0  0  0  0  0  0  0
    0.8239    0.5134   -1.3943 H   0  0  0  0  0  0  0  0  0  0  0  0
    1.3983    0.0272    0.6323 C   0  0  0  0  0  0  0  0  0  0  0  0
    1.2296    0.2448    1.8305 O   0  0  0  0  0  0  0  0  0  0  0  0
    2.4815   -0.6026    0.1616 N   0  0  0  0  0  0  0  0  0  0  0  0
    2.5184   -0.7950   -0.8266 H   0  0  0  0  0  0  0  0  0  0  0  0
    3.5530   -1.1250    1.0063 C   0  0  0  0  0  0  0  0  0  0  0  0
    3.1619   -1.9264    1.6368 H   0  0  0  0  0  0  0  0  0  0  0  0
    4.3652   -1.5135    0.3909 H   0  0  0  0  0  0  0  0  0  0  0  0
    3.9351   -0.3313    1.6520 H   0  0  0  0  0  0  0  0  0  0  0  0
  5  6  2  0  0  0  0
  5  7  1  0  0  0  0
  2  3  1  0  0  0  0
  2  4  1  0  0  0  0
  2  5  1  0  0  0  0
  1  2  1  0  0  0  0
 19 20  2  0  0  0  0
 19 21  1  0  0  0  0
 17 18  1  0  0  0  0
 17 19  1  0  0  0  0
 14 15  1  0  0  0  0
 14 16  1  0  0  0  0
 14 17  1  0  0  0  0
 11 12  1  0  0  0  0
 11 13  1  0  0  0  0
 11 14  1  0  0  0  0
  8  9  1  0  0  0  0
  8 10  1  0  0  0  0
  8 11  1  0  0  0  0
  7  8  1  0  0  0  0
  7 17  1  0  0  0  0
 23 24  1  0  0  0  0
 23 25  1  0  0  0  0
 23 26  1  0  0  0  0
 21 22  1  0  0  0  0
 21 23  1  0  0  0  0
M  END
$$$$
default_name
  -OEChem-11182114113D

 26 26  0     1  0  0  0  0  0999 V2000
   -1.8446   -3.5060   -0.3010 H   0  0  0  0  0  0  0  0  0  0  0  0
   -2.0746   -2.4490   -0.4240 C   0  0  0  0  0  0  0  0  0  0  0  0
   -2.6906   -2.1160    0.4090 H   0  0  0  0  0  0  0  0  0  0  0  0
   -2.5986   -2.2980   -1.3650 H   0  0  0  0  0  0  0  0  0  0  0  0
   -0.7756   -1.6630   -0.4350 C   0  0  0  0  0  0  0  0  0  0  0  0
    0.2844   -2.2800   -0.4550 O   0  0  0  0  0  0  0  0  0  0  0  0
   -0.8246   -0.3180   -0.4350 N   0  0  0  0  0  0  0  0  0  0  0  0
   -2.0106    0.5080   -0.5910 C   0  0  0  0  0  0  0  0  0  0  0  0
   -2.9830    0.1578   -0.2410 H   0  0  0  0  0  0  0  0  0  0  0  0
   -2.1351    1.2455   -1.3831 H   0  0  0  0  0  0  0  0  0  0  0  0
   -1.2272    1.1176    0.5697 C   0  0  0  0  0  0  0  0  0  0  0  0
   -0.8237    0.3336    1.2124 H   0  0  0  0  0  0  0  0  0  0  0  0
   -1.8931    1.7741    1.1306 H   0  0  0  0  0  0  0  0  0  0  0  0
   -0.1209    1.9420   -0.0885 C   0  0  0  0  0  0  0  0  0  0  0  0
    0.5927    2.4617    0.5542 H   0  0  0  0  0  0  0  0  0  0  0  0
   -0.2955    2.5163   -0.9982 H   0  0  0  0  0  0  0  0  0  0  0  0
    0.3724    0.5200   -0.4020 C   0  0  1  0  0  0  0  0  0  0  0  0
    0.8239    0.5134   -1.3943 H   0  0  0  0  0  0  0  0  0  0  0  0
    1.3983    0.0272    0.6323 C   0  0  0  0  0  0  0  0  0  0  0  0
    1.1123   -0.0057    1.8275 O   0  0  0  0  0  0  0  0  0  0  0  0
    2.6071   -0.3179    0.1727 N   0  0  0  0  0  0  0  0  0  0  0  0
    2.7450   -0.3204   -0.8252 H   0  0  0  0  0  0  0  0  0  0  0  0
    3.6960   -0.7977    1.0204 C   0  0  0  0  0  0  0  0  0  0  0  0
    3.4149   -1.7533    1.4684 H   0  0  0  0  0  0  0  0  0  0  0  0
    4.6048   -0.9281    0.4321 H   0  0  0  0  0  0  0  0  0  0  0  0
    3.8831   -0.0808    1.8228 H   0  0  0  0  0  0  0  0  0  0  0  0
  5  6  2  0  0  0  0
  5  7  1  0  0  0  0
  2  3  1  0  0  0  0
  2  4  1  0  0  0  0
  2  5  1  0  0  0  0
  1  2  1  0  0  0  0
 19 20  2  0  0  0  0
 19 21  1  0  0  0  0
 17 18  1  0  0  0  0
 17 19  1  0  0  0  0
 14 15  1  0  0  0  0
 14 16  1  0  0  0  0
 14 17  1  0  0  0  0
 11 12  1  0  0  0  0
 11 13  1  0  0  0  0
 11 14  1  0  0  0  0
  8  9  1  0  0  0  0
  8 10  1  0  0  0  0
  8 11  1  0  0  0  0
  7  8  1  0  0  0  0
  7 17  1  0  0  0  0
 23 24  1  0  0  0  0
 23 25  1  0  0  0  0
 23 26  1  0  0  0  0
 21 22  1  0  0  0  0
 21 23  1  0  0  0  0
M  END
$$$$
default_name
  -OEChem-11182114113D

 26 26  0     1  0  0  0  0  0999 V2000
   -1.8446   -3.5060   -0.3010 H   0  0  0  0  0  0  0  0  0  0  0  0
   -2.0746   -2.4490   -0.4240 C   0  0  0  0  0  0  0  0  0  0  0  0
   -2.6906   -2.1160    0.4090 H   0  0  0  0  0  0  0  0  0  0  0  0
   -2.5986   -2.2980   -1.3650 H   0  0  0  0  0  0  0  0  0  0  0  0
   -0.7756   -1.6630   -0.4350 C   0  0  0  0  0  0  0  0  0  0  0  0
    0.2844   -2.2800   -0.4550 O   0  0  0  0  0  0  0  0  0  0  0  0
   -0.8246   -0.3180   -0.4350 N   0  0  0  0  0  0  0  0  0  0  0  0
   -2.0106    0.5080   -0.5910 C   0  0  0  0  0  0  0  0  0  0  0  0
   -2.9830    0.1578   -0.2410 H   0  0  0  0  0  0  0  0  0  0  0  0
   -2.1351    1.2455   -1.3831 H   0  0  0  0  0  0  0  0  0  0  0  0
   -1.2272    1.1176    0.5697 C   0  0  0  0  0  0  0  0  0  0  0  0
   -0.8237    0.3336    1.2124 H   0  0  0  0  0  0  0  0  0  0  0  0
   -1.8931    1.7741    1.1306 H   0  0  0  0  0  0  0  0  0  0  0  0
   -0.1209    1.9420   -0.0885 C   0  0  0  0  0  0  0  0  0  0  0  0
    0.5927    2.4617    0.5542 H   0  0  0  0  0  0  0  0  0  0  0  0
   -0.2955    2.5163   -0.9982 H   0  0  0  0  0  0  0  0  0  0  0  0
    0.3724    0.5200   -0.4020 C   0  0  1  0  0  0  0  0  0  0  0  0
    0.8239    0.5134   -1.3943 H   0  0  0  0  0  0  0  0  0  0  0  0
    1.3983    0.0272    0.6323 C   0  0  0  0  0  0  0  0  0  0  0  0
    1.0428   -0.2675    1.7717 O   0  0  0  0  0  0  0  0  0  0  0  0
    2.6779   -0.0230    0.2429 N   0  0  0  0  0  0  0  0  0  0  0  0
    2.8812    0.1772   -0.7232 H   0  0  0  0  0  0  0  0  0  0  0  0
    3.7759   -0.4591    1.1025 C   0  0  0  0  0  0  0  0  0  0  0  0
    3.6431   -1.5130    1.3565 H   0  0  0  0  0  0  0  0  0  0  0  0
    4.7310   -0.3280    0.5929 H   0  0  0  0  0  0  0  0  0  0  0  0
    3.7752    0.1227    2.0268 H   0  0  0  0  0  0  0  0  0  0  0  0
  5  6  2  0  0  0  0
  5  7  1  0  0  0  0
  2  3  1  0  0  0  0
  2  4  1  0  0  0  0
  2  5  1  0  0  0  0
  1  2  1  0  0  0  0
 19 20  2  0  0  0  0
 19 21  1  0  0  0  0
 17 18  1  0  0  0  0
 17 19  1  0  0  0  0
 14 15  1  0  0  0  0
 14 16  1  0  0  0  0
 14 17  1  0  0  0  0
 11 12  1  0  0  0  0
 11 13  1  0  0  0  0
 11 14  1  0  0  0  0
  8  9  1  0  0  0  0
  8 10  1  0  0  0  0
  8 11  1  0  0  0  0
  7  8  1  0  0  0  0
  7 17  1  0  0  0  0
 23 24  1  0  0  0  0
 23 25  1  0  0  0  0
 23 26  1  0  0  0  0
 21 22  1  0  0  0  0
 21 23  1  0  0  0  0
M  END
$$$$
default_name
  -OEChem-11182114113D

 26 26  0     1  0  0  0  0  0999 V2000
   -1.8446   -3.5060   -0.3010 H   0  0  0  0  0  0  0  0  0  0  0  0
   -2.0746   -2.4490   -0.4240 C   0  0  0  0  0  0  0  0  0  0  0  0
   -2.6906   -2.1160    0.4090 H   0  0  0  0  0  0  0  0  0  0  0  0
   -2.5986   -2.2980   -1.3650 H   0  0  0  0  0  0  0  0  0  0  0  0
   -0.7756   -1.6630   -0.4350 C   0  0  0  0  0  0  0  0  0  0  0  0
    0.2844   -2.2800   -0.4550 O   0  0  0  0  0  0  0  0  0  0  0  0
   -0.8246   -0.3180   -0.4350 N   0  0  0  0  0  0  0  0  0  0  0  0
   -2.0106    0.5080   -0.5910 C   0  0  0  0  0  0  0  0  0  0  0  0
   -2.9830    0.1578   -0.2410 H   0  0  0  0  0  0  0  0  0  0  0  0
   -2.1351    1.2455   -1.3831 H   0  0  0  0  0  0  0  0  0  0  0  0
   -1.2272    1.1176    0.5697 C   0  0  0  0  0  0  0  0  0  0  0  0
   -0.8237    0.3336    1.2124 H   0  0  0  0  0  0  0  0  0  0  0  0
   -1.8931    1.7741    1.1306 H   0  0  0  0  0  0  0  0  0  0  0  0
   -0.1209    1.9420   -0.0885 C   0  0  0  0  0  0  0  0  0  0  0  0
    0.5927    2.4617    0.5542 H   0  0  0  0  0  0  0  0  0  0  0  0
   -0.2955    2.5163   -0.9982 H   0  0  0  0  0  0  0  0  0  0  0  0
    0.3724    0.5200   -0.4020 C   0  0  1  0  0  0  0  0  0  0  0  0
    0.8239    0.5134   -1.3943 H   0  0  0  0  0  0  0  0  0  0  0  0
    1.3983    0.0272    0.6323 C   0  0  0  0  0  0  0  0  0  0  0  0
    1.0260   -0.5229    1.6668 O   0  0  0  0  0  0  0  0  0  0  0  0
    2.6892    0.2620    0.3676 N   0  0  0  0  0  0  0  0  0  0  0  0
    2.9177    0.6639   -0.5275 H   0  0  0  0  0  0  0  0  0  0  0  0
    3.7873   -0.1323    1.2468 C   0  0  0  0  0  0  0  0  0  0  0  0
    3.8310   -1.2218    1.3088 H   0  0  0  0  0  0  0  0  0  0  0  0
    4.7350    0.2458    0.8622 H   0  0  0  0  0  0  0  0  0  0  0  0
    3.6186    0.2652    2.2500 H   0  0  0  0  0  0  0  0  0  0  0  0
  5  6  2  0  0  0  0
  5  7  1  0  0  0  0
  2  3  1  0  0  0  0
  2  4  1  0  0  0  0
  2  5  1  0  0  0  0
  1  2  1  0  0  0  0
 19 20  2  0  0  0  0
 19 21  1  0  0  0  0
 17 18  1  0  0  0  0
 17 19  1  0  0  0  0
 14 15  1  0  0  0  0
 14 16  1  0  0  0  0
 14 17  1  0  0  0  0
 11 12  1  0  0  0  0
 11 13  1  0  0  0  0
 11 14  1  0  0  0  0
  8  9  1  0  0  0  0
  8 10  1  0  0  0  0
  8 11  1  0  0  0  0
  7  8  1  0  0  0  0
  7 17  1  0  0  0  0
 23 24  1  0  0  0  0
 23 25  1  0  0  0  0
 23 26  1  0  0  0  0
 21 22  1  0  0  0  0
 21 23  1  0  0  0  0
M  END
$$$$
default_name
  -OEChem-11182114113D

 26 26  0     1  0  0  0  0  0999 V2000
   -1.8446   -3.5060   -0.3010 H   0  0  0  0  0  0  0  0  0  0  0  0
   -2.0746   -2.4490   -0.4240 C   0  0  0  0  0  0  0  0  0  0  0  0
   -2.6906   -2.1160    0.4090 H   0  0  0  0  0  0  0  0  0  0  0  0
   -2.5986   -2.2980   -1.3650 H   0  0  0  0  0  0  0  0  0  0  0  0
   -0.7756   -1.6630   -0.4350 C   0  0  0  0  0  0  0  0  0  0  0  0
    0.2844   -2.2800   -0.4550 O   0  0  0  0  0  0  0  0  0  0  0  0
   -0.8246   -0.3180   -0.4350 N   0  0  0  0  0  0  0  0  0  0  0  0
   -2.0106    0.5080   -0.5910 C   0  0  0  0  0  0  0  0  0  0  0  0
   -2.9830    0.1578   -0.2410 H   0  0  0  0  0  0  0  0  0  0  0  0
   -2.1351    1.2455   -1.3831 H   0  0  0  0  0  0  0  0  0  0  0  0
   -1.2272    1.1176    0.5697 C   0  0  0  0  0  0  0  0  0  0  0  0
   -0.8237    0.3336    1.2124 H   0  0  0  0  0  0  0  0  0  0  0  0
   -1.8931    1.7741    1.1306 H   0  0  0  0  0  0  0  0  0  0  0  0
   -0.1209    1.9420   -0.0885 C   0  0  0  0  0  0  0  0  0  0  0  0
    0.5927    2.4617    0.5542 H   0  0  0  0  0  0  0  0  0  0  0  0
   -0.2955    2.5163   -0.9982 H   0  0  0  0  0  0  0  0  0  0  0  0
    0.3724    0.5200   -0.4020 C   0  0  1  0  0  0  0  0  0  0  0  0
    0.8239    0.5134   -1.3943 H   0  0  0  0  0  0  0  0  0  0  0  0
    1.3983    0.0272    0.6323 C   0  0  0  0  0  0  0  0  0  0  0  0
    1.0628   -0.7543    1.5200 O   0  0  0  0  0  0  0  0  0  0  0  0
    2.6401    0.5178    0.5381 N   0  0  0  0  0  0  0  0  0  0  0  0
    2.8519    1.1066   -0.2514 H   0  0  0  0  0  0  0  0  0  0  0  0
    3.7295    0.1604    1.4436 C   0  0  0  0  0  0  0  0  0  0  0  0
    3.9658   -0.8996    1.3287 H   0  0  0  0  0  0  0  0  0  0  0  0
    4.6168    0.7542    1.2218 H   0  0  0  0  0  0  0  0  0  0  0  0
    3.4241    0.3371    2.4772 H   0  0  0  0  0  0  0  0  0  0  0  0
  5  6  2  0  0  0  0
  5  7  1  0  0  0  0
  2  3  1  0  0  0  0
  2  4  1  0  0  0  0
  2  5  1  0  0  0  0
  1  2  1  0  0  0  0
 19 20  2  0  0  0  0
 19 21  1  0  0  0  0
 17 18  1  0  0  0  0
 17 19  1  0  0  0  0
 14 15  1  0  0  0  0
 14 16  1  0  0  0  0
 14 17  1  0  0  0  0
 11 12  1  0  0  0  0
 11 13  1  0  0  0  0
 11 14  1  0  0  0  0
  8  9  1  0  0  0  0
  8 10  1  0  0  0  0
  8 11  1  0  0  0  0
  7  8  1  0  0  0  0
  7 17  1  0  0  0  0
 23 24  1  0  0  0  0
 23 25  1  0  0  0  0
 23 26  1  0  0  0  0
 21 22  1  0  0  0  0
 21 23  1  0  0  0  0
M  END
$$$$
