default_name
  -OEChem-01062215323D

 26 26  0     1  0  0  0  0  0999 V2000
   -1.8446   -3.5060   -0.3010 H   0  0  0  0  0  0  0  0  0  0  0  0
   -2.0746   -2.4490   -0.4240 C   0  0  0  0  0  0  0  0  0  0  0  0
   -2.6906   -2.1160    0.4090 H   0  0  0  0  0  0  0  0  0  0  0  0
   -2.5986   -2.2980   -1.3650 H   0  0  0  0  0  0  0  0  0  0  0  0
   -0.7756   -1.6630   -0.4350 C   0  0  0  0  0  0  0  0  0  0  0  0
    0.2844   -2.2800   -0.4550 O   0  0  0  0  0  0  0  0  0  0  0  0
   -0.8246   -0.3180   -0.4350 N   0  0  0  0  0  0  0  0  0  0  0  0
   -2.0106    0.5080   -0.5910 C   0  0  0  0  0  0  0  0  0  0  0  0
   -2.2764    1.1290    0.2660 H   0  0  0  0  0  0  0  0  0  0  0  0
   -2.9044    0.0714   -1.0353 H   0  0  0  0  0  0  0  0  0  0  0  0
   -1.2674    1.3443   -1.6305 C   0  0  0  0  0  0  0  0  0  0  0  0
   -1.9071    2.1297   -2.0361 H   0  0  0  0  0  0  0  0  0  0  0  0
   -0.9061    0.6900   -2.4245 H   0  0  0  0  0  0  0  0  0  0  0  0
   -0.0827    1.9176   -0.8529 C   0  0  0  0  0  0  0  0  0  0  0  0
   -0.3686    2.5236    0.0091 H   0  0  0  0  0  0  0  0  0  0  0  0
    0.6903    2.4250   -1.4299 H   0  0  0  0  0  0  0  0  0  0  0  0
    0.3724    0.5200   -0.4020 C   0  0  1  0  0  0  0  0  0  0  0  0
    1.0855    0.1292   -1.1282 H   0  0  0  0  0  0  0  0  0  0  0  0
    1.0225    0.5498    0.9914 C   0  0  0  0  0  0  0  0  0  0  0  0
    0.5123   -0.0573    1.9307 O   0  0  0  0  0  0  0  0  0  0  0  0
    2.1286    1.2907    1.1303 N   0  0  0  0  0  0  0  0  0  0  0  0
    2.5184    1.7096    0.3012 H   0  0  0  0  0  0  0  0  0  0  0  0
    2.8632    1.4329    2.3852 C   0  0  0  0  0  0  0  0  0  0  0  0
    3.2795    0.4657    2.6752 H   0  0  0  0  0  0  0  0  0  0  0  0
    3.6726    2.1546    2.2707 H   0  0  0  0  0  0  0  0  0  0  0  0
    2.1864    1.7691    3.1736 H   0  0  0  0  0  0  0  0  0  0  0  0
  5  6  2  0  0  0  0
  5  7  1  0  0  0  0
  2  3  1  0  0  0  0
  2  4  1  0  0  0  0
  2  5  1  0  0  0  0
  1  2  1  0  0  0  0
 19 20  2  0  0  0  0
 19 21  1  0  0  0  0
 17 18  1  0  0  0  0
 17 19  1  0  0  0  0
 14 15  1  0  0  0  0
 14 16  1  0  0  0  0
 14 17  1  0  0  0  0
 11 12  1  0  0  0  0
 11 13  1  0  0  0  0
 11 14  1  0  0  0  0
  8  9  1  0  0  0  0
  8 10  1  0  0  0  0
  8 11  1  0  0  0  0
  7  8  1  0  0  0  0
  7 17  1  0  0  0  0
 23 24  1  0  0  0  0
 23 25  1  0  0  0  0
 23 26  1  0  0  0  0
 21 22  1  0  0  0  0
 21 23  1  0  0  0  0
M  END
$$$$
default_name
  -OEChem-01062215323D

 26 26  0     1  0  0  0  0  0999 V2000
   -1.8446   -3.5060   -0.3010 H   0  0  0  0  0  0  0  0  0  0  0  0
   -2.0746   -2.4490   -0.4240 C   0  0  0  0  0  0  0  0  0  0  0  0
   -2.6906   -2.1160    0.4090 H   0  0  0  0  0  0  0  0  0  0  0  0
   -2.5986   -2.2980   -1.3650 H   0  0  0  0  0  0  0  0  0  0  0  0
   -0.7756   -1.6630   -0.4350 C   0  0  0  0  0  0  0  0  0  0  0  0
    0.2844   -2.2800   -0.4550 O   0  0  0  0  0  0  0  0  0  0  0  0
   -0.8246   -0.3180   -0.4350 N   0  0  0  0  0  0  0  0  0  0  0  0
   -2.0106    0.5080   -0.5910 C   0  0  0  0  0  0  0  0  0  0  0  0
   -2.2764    1.1290    0.2660 H   0  0  0  0  0  0  0  0  0  0  0  0
   -2.9044    0.0714   -1.0353 H   0  0  0  0  0  0  0  0  0  0  0  0
   -1.2674    1.3443   -1.6305 C   0  0  0  0  0  0  0  0  0  0  0  0
   -1.9071    2.1297   -2.0361 H   0  0  0  0  0  0  0  0  0  0  0  0
   -0.9061    0.6900   -2.4245 H   0  0  0  0  0  0  0  0  0  0  0  0
   -0.0827    1.9176   -0.8529 C   0  0  0  0  0  0  0  0  0  0  0  0
   -0.3686    2.5236    0.0091 H   0  0  0  0  0  0  0  0  0  0  0  0
    0.6903    2.4250   -1.4299 H   0  0  0  0  0  0  0  0  0  0  0  0
    0.3724    0.5200   -0.4020 C   0  0  1  0  0  0  0  0  0  0  0  0
    1.0855    0.1292   -1.1282 H   0  0  0  0  0  0  0  0  0  0  0  0
    1.0225    0.5498    0.9914 C   0  0  0  0  0  0  0  0  0  0  0  0
    0.6857   -0.2586    1.8541 O   0  0  0  0  0  0  0  0  0  0  0  0
    1.9267    1.5100    1.2199 N   0  0  0  0  0  0  0  0  0  0  0  0
    2.1924    2.0964    0.4450 H   0  0  0  0  0  0  0  0  0  0  0  0
    2.6301    1.6833    2.4886 C   0  0  0  0  0  0  0  0  0  0  0  0
    3.2664    0.8153    2.6738 H   0  0  0  0  0  0  0  0  0  0  0  0
    3.2456    2.5830    2.4607 H   0  0  0  0  0  0  0  0  0  0  0  0
    1.9077    1.7634    3.3038 H   0  0  0  0  0  0  0  0  0  0  0  0
  5  6  2  0  0  0  0
  5  7  1  0  0  0  0
  2  3  1  0  0  0  0
  2  4  1  0  0  0  0
  2  5  1  0  0  0  0
  1  2  1  0  0  0  0
 19 20  2  0  0  0  0
 19 21  1  0  0  0  0
 17 18  1  0  0  0  0
 17 19  1  0  0  0  0
 14 15  1  0  0  0  0
 14 16  1  0  0  0  0
 14 17  1  0  0  0  0
 11 12  1  0  0  0  0
 11 13  1  0  0  0  0
 11 14  1  0  0  0  0
  8  9  1  0  0  0  0
  8 10  1  0  0  0  0
  8 11  1  0  0  0  0
  7  8  1  0  0  0  0
  7 17  1  0  0  0  0
 23 24  1  0  0  0  0
 23 25  1  0  0  0  0
 23 26  1  0  0  0  0
 21 22  1  0  0  0  0
 21 23  1  0  0  0  0
M  END
$$$$
default_name
  -OEChem-01062215323D

 26 26  0     1  0  0  0  0  0999 V2000
   -1.8446   -3.5060   -0.3010 H   0  0  0  0  0  0  0  0  0  0  0  0
   -2.0746   -2.4490   -0.4240 C   0  0  0  0  0  0  0  0  0  0  0  0
   -2.6906   -2.1160    0.4090 H   0  0  0  0  0  0  0  0  0  0  0  0
   -2.5986   -2.2980   -1.3650 H   0  0  0  0  0  0  0  0  0  0  0  0
   -0.7756   -1.6630   -0.4350 C   0  0  0  0  0  0  0  0  0  0  0  0
    0.2844   -2.2800   -0.4550 O   0  0  0  0  0  0  0  0  0  0  0  0
   -0.8246   -0.3180   -0.4350 N   0  0  0  0  0  0  0  0  0  0  0  0
   -2.0106    0.5080   -0.5910 C   0  0  0  0  0  0  0  0  0  0  0  0
   -2.2764    1.1290    0.2660 H   0  0  0  0  0  0  0  0  0  0  0  0
   -2.9044    0.0714   -1.0353 H   0  0  0  0  0  0  0  0  0  0  0  0
   -1.2674    1.3443   -1.6305 C   0  0  0  0  0  0  0  0  0  0  0  0
   -1.9071    2.1297   -2.0361 H   0  0  0  0  0  0  0  0  0  0  0  0
   -0.9061    0.6900   -2.4245 H   0  0  0  0  0  0  0  0  0  0  0  0
   -0.0827    1.9176   -0.8529 C   0  0  0  0  0  0  0  0  0  0  0  0
   -0.3686    2.5236    0.0091 H   0  0  0  0  0  0  0  0  0  0  0  0
    0.6903    2.4250   -1.4299 H   0  0  0  0  0  0  0  0  0  0  0  0
    0.3724    0.5200   -0.4020 C   0  0  1  0  0  0  0  0  0  0  0  0
    1.0855    0.1292   -1.1282 H   0  0  0  0  0  0  0  0  0  0  0  0
    1.0225    0.5498    0.9914 C   0  0  0  0  0  0  0  0  0  0  0  0
    0.9001   -0.4040    1.7572 O   0  0  0  0  0  0  0  0  0  0  0  0
    1.6806    1.6647    1.3313 N   0  0  0  0  0  0  0  0  0  0  0  0
    1.7876    2.3779    0.6279 H   0  0  0  0  0  0  0  0  0  0  0  0
    2.3467    1.8592    2.6171 C   0  0  0  0  0  0  0  0  0  0  0  0
    3.1719    1.1500    2.7107 H   0  0  0  0  0  0  0  0  0  0  0  0
    2.7338    2.8758    2.6932 H   0  0  0  0  0  0  0  0  0  0  0  0
    1.6404    1.6783    3.4303 H   0  0  0  0  0  0  0  0  0  0  0  0
  5  6  2  0  0  0  0
  5  7  1  0  0  0  0
  2  3  1  0  0  0  0
  2  4  1  0  0  0  0
  2  5  1  0  0  0  0
  1  2  1  0  0  0  0
 19 20  2  0  0  0  0
 19 21  1  0  0  0  0
 17 18  1  0  0  0  0
 17 19  1  0  0  0  0
 14 15  1  0  0  0  0
 14 16  1  0  0  0  0
 14 17  1  0  0  0  0
 11 12  1  0  0  0  0
 11 13  1  0  0  0  0
 11 14  1  0  0  0  0
  8  9  1  0  0  0  0
  8 10  1  0  0  0  0
  8 11  1  0  0  0  0
  7  8  1  0  0  0  0
  7 17  1  0  0  0  0
 23 24  1  0  0  0  0
 23 25  1  0  0  0  0
 23 26  1  0  0  0  0
 21 22  1  0  0  0  0
 21 23  1  0  0  0  0
M  END
$$$$
default_name
  -OEChem-01062215323D

 26 26  0     1  0  0  0  0  0999 V2000
   -1.8446   -3.5060   -0.3010 H   0  0  0  0  0  0  0  0  0  0  0  0
   -2.0746   -2.4490   -0.4240 C   0  0  0  0  0  0  0  0  0  0  0  0
   -2.6906   -2.1160    0.4090 H   0  0  0  0  0  0  0  0  0  0  0  0
   -2.5986   -2.2980   -1.3650 H   0  0  0  0  0  0  0  0  0  0  0  0
   -0.7756   -1.6630   -0.4350 C   0  0  0  0  0  0  0  0  0  0  0  0
    0.2844   -2.2800   -0.4550 O   0  0  0  0  0  0  0  0  0  0  0  0
   -0.8246   -0.3180   -0.4350 N   0  0  0  0  0  0  0  0  0  0  0  0
   -2.0106    0.5080   -0.5910 C   0  0  0  0  0  0  0  0  0  0  0  0
   -2.2764    1.1290    0.2660 H   0  0  0  0  0  0  0  0  0  0  0  0
   -2.9044    0.0714   -1.0353 H   0  0  0  0  0  0  0  0  0  0  0  0
   -1.2674    1.3443   -1.6305 C   0  0  0  0  0  0  0  0  0  0  0  0
   -1.9071    2.1297   -2.0361 H   0  0  0  0  0  0  0  0  0  0  0  0
   -0.9061    0.6900   -2.4245 H   0  0  0  0  0  0  0  0  0  0  0  0
   -0.0827    1.9176   -0.8529 C   0  0  0  0  0  0  0  0  0  0  0  0
   -0.3686    2.5236    0.0091 H   0  0  0  0  0  0  0  0  0  0  0  0
    0.6903    2.4250   -1.4299 H   0  0  0  0  0  0  0  0  0  0  0  0
    0.3724    0.5200   -0.4020 C   0  0  1  0  0  0  0  0  0  0  0  0
    1.0855    0.1292   -1.1282 H   0  0  0  0  0  0  0  0  0  0  0  0
    1.0225    0.5498    0.9914 C   0  0  0  0  0  0  0  0  0  0  0  0
    1.1408   -0.4836    1.6466 O   0  0  0  0  0  0  0  0  0  0  0  0
    1.4072    1.7443    1.4572 N   0  0  0  0  0  0  0  0  0  0  0  0
    1.3314    2.5348    0.8373 H   0  0  0  0  0  0  0  0  0  0  0  0
    2.0323    1.9486    2.7618 C   0  0  0  0  0  0  0  0  0  0  0  0
    3.0022    1.4471    2.7835 H   0  0  0  0  0  0  0  0  0  0  0  0
    2.1719    3.0131    2.9525 H   0  0  0  0  0  0  0  0  0  0  0  0
    1.4029    1.5195    3.5445 H   0  0  0  0  0  0  0  0  0  0  0  0
  5  6  2  0  0  0  0
  5  7  1  0  0  0  0
  2  3  1  0  0  0  0
  2  4  1  0  0  0  0
  2  5  1  0  0  0  0
  1  2  1  0  0  0  0
 19 20  2  0  0  0  0
 19 21  1  0  0  0  0
 17 18  1  0  0  0  0
 17 19  1  0  0  0  0
 14 15  1  0  0  0  0
 14 16  1  0  0  0  0
 14 17  1  0  0  0  0
 11 12  1  0  0  0  0
 11 13  1  0  0  0  0
 11 14  1  0  0  0  0
  8  9  1  0  0  0  0
  8 10  1  0  0  0  0
  8 11  1  0  0  0  0
  7  8  1  0  0  0  0
  7 17  1  0  0  0  0
 23 24  1  0  0  0  0
 23 25  1  0  0  0  0
 23 26  1  0  0  0  0
 21 22  1  0  0  0  0
 21 23  1  0  0  0  0
M  END
$$$$
default_name
  -OEChem-01062215323D

 26 26  0     1  0  0  0  0  0999 V2000
   -1.8446   -3.5060   -0.3010 H   0  0  0  0  0  0  0  0  0  0  0  0
   -2.0746   -2.4490   -0.4240 C   0  0  0  0  0  0  0  0  0  0  0  0
   -2.6906   -2.1160    0.4090 H   0  0  0  0  0  0  0  0  0  0  0  0
   -2.5986   -2.2980   -1.3650 H   0  0  0  0  0  0  0  0  0  0  0  0
   -0.7756   -1.6630   -0.4350 C   0  0  0  0  0  0  0  0  0  0  0  0
    0.2844   -2.2800   -0.4550 O   0  0  0  0  0  0  0  0  0  0  0  0
   -0.8246   -0.3180   -0.4350 N   0  0  0  0  0  0  0  0  0  0  0  0
   -2.0106    0.5080   -0.5910 C   0  0  0  0  0  0  0  0  0  0  0  0
   -2.2764    1.1290    0.2660 H   0  0  0  0  0  0  0  0  0  0  0  0
   -2.9044    0.0714   -1.0353 H   0  0  0  0  0  0  0  0  0  0  0  0
   -1.2674    1.3443   -1.6305 C   0  0  0  0  0  0  0  0  0  0  0  0
   -1.9071    2.1297   -2.0361 H   0  0  0  0  0  0  0  0  0  0  0  0
   -0.9061    0.6900   -2.4245 H   0  0  0  0  0  0  0  0  0  0  0  0
   -0.0827    1.9176   -0.8529 C   0  0  0  0  0  0  0  0  0  0  0  0
   -0.3686    2.5236    0.0091 H   0  0  0  0  0  0  0  0  0  0  0  0
    0.6903    2.4250   -1.4299 H   0  0  0  0  0  0  0  0  0  0  0  0
    0.3724    0.5200   -0.4020 C   0  0  1  0  0  0  0  0  0  0  0  0
    1.0855    0.1292   -1.1282 H   0  0  0  0  0  0  0  0  0  0  0  0
    1.0225    0.5498    0.9914 C   0  0  0  0  0  0  0  0  0  0  0  0
    1.3914   -0.4919    1.5299 O   0  0  0  0  0  0  0  0  0  0  0  0
    1.1251    1.7432    1.5889 N   0  0  0  0  0  0  0  0  0  0  0  0
    0.8551    2.5565    1.0591 H   0  0  0  0  0  0  0  0  0  0  0  0
    1.7084    1.9454    2.9130 C   0  0  0  0  0  0  0  0  0  0  0  0
    2.7691    1.6863    2.8872 H   0  0  0  0  0  0  0  0  0  0  0  0
    1.5982    2.9857    3.2207 H   0  0  0  0  0  0  0  0  0  0  0  0
    1.2113    1.2980    3.6387 H   0  0  0  0  0  0  0  0  0  0  0  0
  5  6  2  0  0  0  0
  5  7  1  0  0  0  0
  2  3  1  0  0  0  0
  2  4  1  0  0  0  0
  2  5  1  0  0  0  0
  1  2  1  0  0  0  0
 19 20  2  0  0  0  0
 19 21  1  0  0  0  0
 17 18  1  0  0  0  0
 17 19  1  0  0  0  0
 14 15  1  0  0  0  0
 14 16  1  0  0  0  0
 14 17  1  0  0  0  0
 11 12  1  0  0  0  0
 11 13  1  0  0  0  0
 11 14  1  0  0  0  0
  8  9  1  0  0  0  0
  8 10  1  0  0  0  0
  8 11  1  0  0  0  0
  7  8  1  0  0  0  0
  7 17  1  0  0  0  0
 23 24  1  0  0  0  0
 23 25  1  0  0  0  0
 23 26  1  0  0  0  0
 21 22  1  0  0  0  0
 21 23  1  0  0  0  0
M  END
$$$$
default_name
  -OEChem-01062215323D

 26 26  0     1  0  0  0  0  0999 V2000
   -1.8446   -3.5060   -0.3010 H   0  0  0  0  0  0  0  0  0  0  0  0
   -2.0746   -2.4490   -0.4240 C   0  0  0  0  0  0  0  0  0  0  0  0
   -2.6906   -2.1160    0.4090 H   0  0  0  0  0  0  0  0  0  0  0  0
   -2.5986   -2.2980   -1.3650 H   0  0  0  0  0  0  0  0  0  0  0  0
   -0.7756   -1.6630   -0.4350 C   0  0  0  0  0  0  0  0  0  0  0  0
    0.2844   -2.2800   -0.4550 O   0  0  0  0  0  0  0  0  0  0  0  0
   -0.8246   -0.3180   -0.4350 N   0  0  0  0  0  0  0  0  0  0  0  0
   -2.0106    0.5080   -0.5910 C   0  0  0  0  0  0  0  0  0  0  0  0
   -2.2764    1.1290    0.2660 H   0  0  0  0  0  0  0  0  0  0  0  0
   -2.9044    0.0714   -1.0353 H   0  0  0  0  0  0  0  0  0  0  0  0
   -1.2674    1.3443   -1.6305 C   0  0  0  0  0  0  0  0  0  0  0  0
   -1.9071    2.1297   -2.0361 H   0  0  0  0  0  0  0  0  0  0  0  0
   -0.9061    0.6900   -2.4245 H   0  0  0  0  0  0  0  0  0  0  0  0
   -0.0827    1.9176   -0.8529 C   0  0  0  0  0  0  0  0  0  0  0  0
   -0.3686    2.5236    0.0091 H   0  0  0  0  0  0  0  0  0  0  0  0
    0.6903    2.4250   -1.4299 H   0  0  0  0  0  0  0  0  0  0  0  0
    0.3724    0.5200   -0.4020 C   0  0  1  0  0  0  0  0  0  0  0  0
    1.0855    0.1292   -1.1282 H   0  0  0  0  0  0  0  0  0  0  0  0
    1.0225    0.5498    0.9914 C   0  0  0  0  0  0  0  0  0  0  0  0
    1.6348   -0.4284    1.4150 O   0  0  0  0  0  0  0  0  0  0  0  0
    0.8535    1.6616    1.7173 N   0  0  0  0  0  0  0  0  0  0  0  0
    0.3910    2.4414    1.2781 H   0  0  0  0  0  0  0  0  0  0  0  0
    1.3971    1.8498    3.0603 C   0  0  0  0  0  0  0  0  0  0  0  0
    2.4883    1.8514    3.0146 H   0  0  0  0  0  0  0  0  0  0  0  0
    1.0518    2.7953    3.4797 H   0  0  0  0  0  0  0  0  0  0  0  0
    1.0786    1.0288    3.7063 H   0  0  0  0  0  0  0  0  0  0  0  0
  5  6  2  0  0  0  0
  5  7  1  0  0  0  0
  2  3  1  0  0  0  0
  2  4  1  0  0  0  0
  2  5  1  0  0  0  0
  1  2  1  0  0  0  0
 19 20  2  0  0  0  0
 19 21  1  0  0  0  0
 17 18  1  0  0  0  0
 17 19  1  0  0  0  0
 14 15  1  0  0  0  0
 14 16  1  0  0  0  0
 14 17  1  0  0  0  0
 11 12  1  0  0  0  0
 11 13  1  0  0  0  0
 11 14  1  0  0  0  0
  8  9  1  0  0  0  0
  8 10  1  0  0  0  0
  8 11  1  0  0  0  0
  7  8  1  0  0  0  0
  7 17  1  0  0  0  0
 23 24  1  0  0  0  0
 23 25  1  0  0  0  0
 23 26  1  0  0  0  0
 21 22  1  0  0  0  0
 21 23  1  0  0  0  0
M  END
$$$$
default_name
  -OEChem-01062215323D

 26 26  0     1  0  0  0  0  0999 V2000
   -1.8446   -3.5060   -0.3010 H   0  0  0  0  0  0  0  0  0  0  0  0
   -2.0746   -2.4490   -0.4240 C   0  0  0  0  0  0  0  0  0  0  0  0
   -2.6906   -2.1160    0.4090 H   0  0  0  0  0  0  0  0  0  0  0  0
   -2.5986   -2.2980   -1.3650 H   0  0  0  0  0  0  0  0  0  0  0  0
   -0.7756   -1.6630   -0.4350 C   0  0  0  0  0  0  0  0  0  0  0  0
    0.2844   -2.2800   -0.4550 O   0  0  0  0  0  0  0  0  0  0  0  0
   -0.8246   -0.3180   -0.4350 N   0  0  0  0  0  0  0  0  0  0  0  0
   -2.0106    0.5080   -0.5910 C   0  0  0  0  0  0  0  0  0  0  0  0
   -2.2764    1.1290    0.2660 H   0  0  0  0  0  0  0  0  0  0  0  0
   -2.9044    0.0714   -1.0353 H   0  0  0  0  0  0  0  0  0  0  0  0
   -1.2674    1.3443   -1.6305 C   0  0  0  0  0  0  0  0  0  0  0  0
   -1.9071    2.1297   -2.0361 H   0  0  0  0  0  0  0  0  0  0  0  0
   -0.9061    0.6900   -2.4245 H   0  0  0  0  0  0  0  0  0  0  0  0
   -0.0827    1.9176   -0.8529 C   0  0  0  0  0  0  0  0  0  0  0  0
   -0.3686    2.5236    0.0091 H   0  0  0  0  0  0  0  0  0  0  0  0
    0.6903    2.4250   -1.4299 H   0  0  0  0  0  0  0  0  0  0  0  0
    0.3724    0.5200   -0.4020 C   0  0  1  0  0  0  0  0  0  0  0  0
    1.0855    0.1292   -1.1282 H   0  0  0  0  0  0  0  0  0  0  0  0
    1.0225    0.5498    0.9914 C   0  0  0  0  0  0  0  0  0  0  0  0
    1.8545   -0.2975    1.3097 O   0  0  0  0  0  0  0  0  0  0  0  0
    0.6109    1.5051    1.8338 N   0  0  0  0  0  0  0  0  0  0  0  0
   -0.0292    2.1975    1.4794 H   0  0  0  0  0  0  0  0  0  0  0  0
    1.1196    1.6683    3.1937 C   0  0  0  0  0  0  0  0  0  0  0  0
    2.1790    1.9310    3.1572 H   0  0  0  0  0  0  0  0  0  0  0  0
    0.5701    2.4549    3.7118 H   0  0  0  0  0  0  0  0  0  0  0  0
    1.0140    0.7302    3.7429 H   0  0  0  0  0  0  0  0  0  0  0  0
  5  6  2  0  0  0  0
  5  7  1  0  0  0  0
  2  3  1  0  0  0  0
  2  4  1  0  0  0  0
  2  5  1  0  0  0  0
  1  2  1  0  0  0  0
 19 20  2  0  0  0  0
 19 21  1  0  0  0  0
 17 18  1  0  0  0  0
 17 19  1  0  0  0  0
 14 15  1  0  0  0  0
 14 16  1  0  0  0  0
 14 17  1  0  0  0  0
 11 12  1  0  0  0  0
 11 13  1  0  0  0  0
 11 14  1  0  0  0  0
  8  9  1  0  0  0  0
  8 10  1  0  0  0  0
  8 11  1  0  0  0  0
  7  8  1  0  0  0  0
  7 17  1  0  0  0  0
 23 24  1  0  0  0  0
 23 25  1  0  0  0  0
 23 26  1  0  0  0  0
 21 22  1  0  0  0  0
 21 23  1  0  0  0  0
M  END
$$$$
default_name
  -OEChem-01062215323D

 26 26  0     1  0  0  0  0  0999 V2000
   -1.8446   -3.5060   -0.3010 H   0  0  0  0  0  0  0  0  0  0  0  0
   -2.0746   -2.4490   -0.4240 C   0  0  0  0  0  0  0  0  0  0  0  0
   -2.6906   -2.1160    0.4090 H   0  0  0  0  0  0  0  0  0  0  0  0
   -2.5986   -2.2980   -1.3650 H   0  0  0  0  0  0  0  0  0  0  0  0
   -0.7756   -1.6630   -0.4350 C   0  0  0  0  0  0  0  0  0  0  0  0
    0.2844   -2.2800   -0.4550 O   0  0  0  0  0  0  0  0  0  0  0  0
   -0.8246   -0.3180   -0.4350 N   0  0  0  0  0  0  0  0  0  0  0  0
   -2.0106    0.5080   -0.5910 C   0  0  0  0  0  0  0  0  0  0  0  0
   -2.2764    1.1290    0.2660 H   0  0  0  0  0  0  0  0  0  0  0  0
   -2.9044    0.0714   -1.0353 H   0  0  0  0  0  0  0  0  0  0  0  0
   -1.2674    1.3443   -1.6305 C   0  0  0  0  0  0  0  0  0  0  0  0
   -1.9071    2.1297   -2.0361 H   0  0  0  0  0  0  0  0  0  0  0  0
   -0.9061    0.6900   -2.4245 H   0  0  0  0  0  0  0  0  0  0  0  0
   -0.0827    1.9176   -0.8529 C   0  0  0  0  0  0  0  0  0  0  0  0
   -0.3686    2.5236    0.0091 H   0  0  0  0  0  0  0  0  0  0  0  0
    0.6903    2.4250   -1.4299 H   0  0  0  0  0  0  0  0  0  0  0  0
    0.3724    0.5200   -0.4020 C   0  0  1  0  0  0  0  0  0  0  0  0
    1.0855    0.1292   -1.1282 H   0  0  0  0  0  0  0  0  0  0  0  0
    1.0225    0.5498    0.9914 C   0  0  0  0  0  0  0  0  0  0  0  0
    2.0354   -0.1079    1.2212 O   0  0  0  0  0  0  0  0  0  0  0  0
    0.4140    1.2843    1.9305 N   0  0  0  0  0  0  0  0  0  0  0  0
   -0.3769    1.8414    1.6492 H   0  0  0  0  0  0  0  0  0  0  0  0
    0.8947    1.4134    3.3041 C   0  0  0  0  0  0  0  0  0  0  0  0
    1.8623    1.9198    3.3053 H   0  0  0  0  0  0  0  0  0  0  0  0
    0.1857    1.9878    3.9011 H   0  0  0  0  0  0  0  0  0  0  0  0
    1.0217    0.4226    3.7459 H   0  0  0  0  0  0  0  0  0  0  0  0
  5  6  2  0  0  0  0
  5  7  1  0  0  0  0
  2  3  1  0  0  0  0
  2  4  1  0  0  0  0
  2  5  1  0  0  0  0
  1  2  1  0  0  0  0
 19 20  2  0  0  0  0
 19 21  1  0  0  0  0
 17 18  1  0  0  0  0
 17 19  1  0  0  0  0
 14 15  1  0  0  0  0
 14 16  1  0  0  0  0
 14 17  1  0  0  0  0
 11 12  1  0  0  0  0
 11 13  1  0  0  0  0
 11 14  1  0  0  0  0
  8  9  1  0  0  0  0
  8 10  1  0  0  0  0
  8 11  1  0  0  0  0
  7  8  1  0  0  0  0
  7 17  1  0  0  0  0
 23 24  1  0  0  0  0
 23 25  1  0  0  0  0
 23 26  1  0  0  0  0
 21 22  1  0  0  0  0
 21 23  1  0  0  0  0
M  END
$$$$
default_name
  -OEChem-01062215323D

 26 26  0     1  0  0  0  0  0999 V2000
   -1.8446   -3.5060   -0.3010 H   0  0  0  0  0  0  0  0  0  0  0  0
   -2.0746   -2.4490   -0.4240 C   0  0  0  0  0  0  0  0  0  0  0  0
   -2.6906   -2.1160    0.4090 H   0  0  0  0  0  0  0  0  0  0  0  0
   -2.5986   -2.2980   -1.3650 H   0  0  0  0  0  0  0  0  0  0  0  0
   -0.7756   -1.6630   -0.4350 C   0  0  0  0  0  0  0  0  0  0  0  0
    0.2844   -2.2800   -0.4550 O   0  0  0  0  0  0  0  0  0  0  0  0
   -0.8246   -0.3180   -0.4350 N   0  0  0  0  0  0  0  0  0  0  0  0
   -2.0106    0.5080   -0.5910 C   0  0  0  0  0  0  0  0  0  0  0  0
   -2.2764    1.1290    0.2660 H   0  0  0  0  0  0  0  0  0  0  0  0
   -2.9044    0.0714   -1.0353 H   0  0  0  0  0  0  0  0  0  0  0  0
   -1.2674    1.3443   -1.6305 C   0  0  0  0  0  0  0  0  0  0  0  0
   -1.9071    2.1297   -2.0361 H   0  0  0  0  0  0  0  0  0  0  0  0
   -0.9061    0.6900   -2.4245 H   0  0  0  0  0  0  0  0  0  0  0  0
   -0.0827    1.9176   -0.8529 C   0  0  0  0  0  0  0  0  0  0  0  0
   -0.3686    2.5236    0.0091 H   0  0  0  0  0  0  0  0  0  0  0  0
    0.6903    2.4250   -1.4299 H   0  0  0  0  0  0  0  0  0  0  0  0
    0.3724    0.5200   -0.4020 C   0  0  1  0  0  0  0  0  0  0  0  0
    1.0855    0.1292   -1.1282 H   0  0  0  0  0  0  0  0  0  0  0  0
    1.0225    0.5498    0.9914 C   0  0  0  0  0  0  0  0  0  0  0  0
    2.1653    0.1273    1.1556 O   0  0  0  0  0  0  0  0  0  0  0  0
    0.2759    1.0142    2.0007 N   0  0  0  0  0  0  0  0  0  0  0  0
   -0.6283    1.3973    1.7760 H   0  0  0  0  0  0  0  0  0  0  0  0
    0.7378    1.1023    3.3839 C   0  0  0  0  0  0  0  0  0  0  0  0
    1.5597    1.8185    3.4486 H   0  0  0  0  0  0  0  0  0  0  0  0
   -0.0751    1.4257    4.0348 H   0  0  0  0  0  0  0  0  0  0  0  0
    1.1013    0.1271    3.7151 H   0  0  0  0  0  0  0  0  0  0  0  0
  5  6  2  0  0  0  0
  5  7  1  0  0  0  0
  2  3  1  0  0  0  0
  2  4  1  0  0  0  0
  2  5  1  0  0  0  0
  1  2  1  0  0  0  0
 19 20  2  0  0  0  0
 19 21  1  0  0  0  0
 17 18  1  0  0  0  0
 17 19  1  0  0  0  0
 14 15  1  0  0  0  0
 14 16  1  0  0  0  0
 14 17  1  0  0  0  0
 11 12  1  0  0  0  0
 11 13  1  0  0  0  0
 11 14  1  0  0  0  0
  8  9  1  0  0  0  0
  8 10  1  0  0  0  0
  8 11  1  0  0  0  0
  7  8  1  0  0  0  0
  7 17  1  0  0  0  0
 23 24  1  0  0  0  0
 23 25  1  0  0  0  0
 23 26  1  0  0  0  0
 21 22  1  0  0  0  0
 21 23  1  0  0  0  0
M  END
$$$$
default_name
  -OEChem-01062215323D

 26 26  0     1  0  0  0  0  0999 V2000
   -1.8446   -3.5060   -0.3010 H   0  0  0  0  0  0  0  0  0  0  0  0
   -2.0746   -2.4490   -0.4240 C   0  0  0  0  0  0  0  0  0  0  0  0
   -2.6906   -2.1160    0.4090 H   0  0  0  0  0  0  0  0  0  0  0  0
   -2.5986   -2.2980   -1.3650 H   0  0  0  0  0  0  0  0  0  0  0  0
   -0.7756   -1.6630   -0.4350 C   0  0  0  0  0  0  0  0  0  0  0  0
    0.2844   -2.2800   -0.4550 O   0  0  0  0  0  0  0  0  0  0  0  0
   -0.8246   -0.3180   -0.4350 N   0  0  0  0  0  0  0  0  0  0  0  0
   -2.0106    0.5080   -0.5910 C   0  0  0  0  0  0  0  0  0  0  0  0
   -2.2764    1.1290    0.2660 H   0  0  0  0  0  0  0  0  0  0  0  0
   -2.9044    0.0714   -1.0353 H   0  0  0  0  0  0  0  0  0  0  0  0
   -1.2674    1.3443   -1.6305 C   0  0  0  0  0  0  0  0  0  0  0  0
   -1.9071    2.1297   -2.0361 H   0  0  0  0  0  0  0  0  0  0  0  0
   -0.9061    0.6900   -2.4245 H   0  0  0  0  0  0  0  0  0  0  0  0
   -0.0827    1.9176   -0.8529 C   0  0  0  0  0  0  0  0  0  0  0  0
   -0.3686    2.5236    0.0091 H   0  0  0  0  0  0  0  0  0  0  0  0
    0.6903    2.4250   -1.4299 H   0  0  0  0  0  0  0  0  0  0  0  0
    0.3724    0.5200   -0.4020 C   0  0  1  0  0  0  0  0  0  0  0  0
    1.0855    0.1292   -1.1282 H   0  0  0  0  0  0  0  0  0  0  0  0
    1.0225    0.5498    0.9914 C   0  0  0  0  0  0  0  0  0  0  0  0
    2.2352    0.3921    1.1172 O   0  0  0  0  0  0  0  0  0  0  0  0
    0.2063    0.7133    2.0396 N   0  0  0  0  0  0  0  0  0  0  0  0
   -0.7664    0.8954    1.8512 H   0  0  0  0  0  0  0  0  0  0  0  0
    0.6596    0.7563    3.4278 C   0  0  0  0  0  0  0  0  0  0  0  0
    1.2919    1.6341    3.5775 H   0  0  0  0  0  0  0  0  0  0  0  0
   -0.1945    0.8070    4.1038 H   0  0  0  0  0  0  0  0  0  0  0  0
    1.2474   -0.1364    3.6526 H   0  0  0  0  0  0  0  0  0  0  0  0
  5  6  2  0  0  0  0
  5  7  1  0  0  0  0
  2  3  1  0  0  0  0
  2  4  1  0  0  0  0
  2  5  1  0  0  0  0
  1  2  1  0  0  0  0
 19 20  2  0  0  0  0
 19 21  1  0  0  0  0
 17 18  1  0  0  0  0
 17 19  1  0  0  0  0
 14 15  1  0  0  0  0
 14 16  1  0  0  0  0
 14 17  1  0  0  0  0
 11 12  1  0  0  0  0
 11 13  1  0  0  0  0
 11 14  1  0  0  0  0
  8  9  1  0  0  0  0
  8 10  1  0  0  0  0
  8 11  1  0  0  0  0
  7  8  1  0  0  0  0
  7 17  1  0  0  0  0
 23 24  1  0  0  0  0
 23 25  1  0  0  0  0
 23 26  1  0  0  0  0
 21 22  1  0  0  0  0
 21 23  1  0  0  0  0
M  END
$$$$
default_name
  -OEChem-01062215323D

 26 26  0     1  0  0  0  0  0999 V2000
   -1.8446   -3.5060   -0.3010 H   0  0  0  0  0  0  0  0  0  0  0  0
   -2.0746   -2.4490   -0.4240 C   0  0  0  0  0  0  0  0  0  0  0  0
   -2.6906   -2.1160    0.4090 H   0  0  0  0  0  0  0  0  0  0  0  0
   -2.5986   -2.2980   -1.3650 H   0  0  0  0  0  0  0  0  0  0  0  0
   -0.7756   -1.6630   -0.4350 C   0  0  0  0  0  0  0  0  0  0  0  0
    0.2844   -2.2800   -0.4550 O   0  0  0  0  0  0  0  0  0  0  0  0
   -0.8246   -0.3180   -0.4350 N   0  0  0  0  0  0  0  0  0  0  0  0
   -2.0106    0.5080   -0.5910 C   0  0  0  0  0  0  0  0  0  0  0  0
   -2.2764    1.1290    0.2660 H   0  0  0  0  0  0  0  0  0  0  0  0
   -2.9044    0.0714   -1.0353 H   0  0  0  0  0  0  0  0  0  0  0  0
   -1.2674    1.3443   -1.6305 C   0  0  0  0  0  0  0  0  0  0  0  0
   -1.9071    2.1297   -2.0361 H   0  0  0  0  0  0  0  0  0  0  0  0
   -0.9061    0.6900   -2.4245 H   0  0  0  0  0  0  0  0  0  0  0  0
   -0.0827    1.9176   -0.8529 C   0  0  0  0  0  0  0  0  0  0  0  0
   -0.3686    2.5236    0.0091 H   0  0  0  0  0  0  0  0  0  0  0  0
    0.6903    2.4250   -1.4299 H   0  0  0  0  0  0  0  0  0  0  0  0
    0.3724    0.5200   -0.4020 C   0  0  1  0  0  0  0  0  0  0  0  0
    1.0855    0.1292   -1.1282 H   0  0  0  0  0  0  0  0  0  0  0  0
    1.0225    0.5498    0.9914 C   0  0  0  0  0  0  0  0  0  0  0  0
    2.2405    0.6685    1.1089 O   0  0  0  0  0  0  0  0  0  0  0  0
    0.2098    0.4020    2.0446 N   0  0  0  0  0  0  0  0  0  0  0  0
   -0.7818    0.3701    1.8696 H   0  0  0  0  0  0  0  0  0  0  0  0
    0.6654    0.3989    3.4328 C   0  0  0  0  0  0  0  0  0  0  0  0
    1.0772    1.3790    3.6831 H   0  0  0  0  0  0  0  0  0  0  0  0
   -0.1645    0.1738    4.1033 H   0  0  0  0  0  0  0  0  0  0  0  0
    1.4499   -0.3498    3.5627 H   0  0  0  0  0  0  0  0  0  0  0  0
  5  6  2  0  0  0  0
  5  7  1  0  0  0  0
  2  3  1  0  0  0  0
  2  4  1  0  0  0  0
  2  5  1  0  0  0  0
  1  2  1  0  0  0  0
 19 20  2  0  0  0  0
 19 21  1  0  0  0  0
 17 18  1  0  0  0  0
 17 19  1  0  0  0  0
 14 15  1  0  0  0  0
 14 16  1  0  0  0  0
 14 17  1  0  0  0  0
 11 12  1  0  0  0  0
 11 13  1  0  0  0  0
 11 14  1  0  0  0  0
  8  9  1  0  0  0  0
  8 10  1  0  0  0  0
  8 11  1  0  0  0  0
  7  8  1  0  0  0  0
  7 17  1  0  0  0  0
 23 24  1  0  0  0  0
 23 25  1  0  0  0  0
 23 26  1  0  0  0  0
 21 22  1  0  0  0  0
 21 23  1  0  0  0  0
M  END
$$$$
default_name
  -OEChem-01062215323D

 26 26  0     1  0  0  0  0  0999 V2000
   -1.8446   -3.5060   -0.3010 H   0  0  0  0  0  0  0  0  0  0  0  0
   -2.0746   -2.4490   -0.4240 C   0  0  0  0  0  0  0  0  0  0  0  0
   -2.6906   -2.1160    0.4090 H   0  0  0  0  0  0  0  0  0  0  0  0
   -2.5986   -2.2980   -1.3650 H   0  0  0  0  0  0  0  0  0  0  0  0
   -0.7756   -1.6630   -0.4350 C   0  0  0  0  0  0  0  0  0  0  0  0
    0.2844   -2.2800   -0.4550 O   0  0  0  0  0  0  0  0  0  0  0  0
   -0.8246   -0.3180   -0.4350 N   0  0  0  0  0  0  0  0  0  0  0  0
   -2.0106    0.5080   -0.5910 C   0  0  0  0  0  0  0  0  0  0  0  0
   -2.2764    1.1290    0.2660 H   0  0  0  0  0  0  0  0  0  0  0  0
   -2.9044    0.0714   -1.0353 H   0  0  0  0  0  0  0  0  0  0  0  0
   -1.2674    1.3443   -1.6305 C   0  0  0  0  0  0  0  0  0  0  0  0
   -1.9071    2.1297   -2.0361 H   0  0  0  0  0  0  0  0  0  0  0  0
   -0.9061    0.6900   -2.4245 H   0  0  0  0  0  0  0  0  0  0  0  0
   -0.0827    1.9176   -0.8529 C   0  0  0  0  0  0  0  0  0  0  0  0
   -0.3686    2.5236    0.0091 H   0  0  0  0  0  0  0  0  0  0  0  0
    0.6903    2.4250   -1.4299 H   0  0  0  0  0  0  0  0  0  0  0  0
    0.3724    0.5200   -0.4020 C   0  0  1  0  0  0  0  0  0  0  0  0
    1.0855    0.1292   -1.1282 H   0  0  0  0  0  0  0  0  0  0  0  0
    1.0225    0.5498    0.9914 C   0  0  0  0  0  0  0  0  0  0  0  0
    2.1807    0.9376    1.1310 O   0  0  0  0  0  0  0  0  0  0  0  0
    0.2862    0.1016    2.0154 N   0  0  0  0  0  0  0  0  0  0  0  0
   -0.6733   -0.1430    1.8300 H   0  0  0  0  0  0  0  0  0  0  0  0
    0.7549    0.0546    3.3984 C   0  0  0  0  0  0  0  0  0  0  0  0
    0.9301    1.0707    3.7584 H   0  0  0  0  0  0  0  0  0  0  0  0
    0.0131   -0.4306    4.0335 H   0  0  0  0  0  0  0  0  0  0  0  0
    1.6951   -0.4986    3.4514 H   0  0  0  0  0  0  0  0  0  0  0  0
  5  6  2  0  0  0  0
  5  7  1  0  0  0  0
  2  3  1  0  0  0  0
  2  4  1  0  0  0  0
  2  5  1  0  0  0  0
  1  2  1  0  0  0  0
 19 20  2  0  0  0  0
 19 21  1  0  0  0  0
 17 18  1  0  0  0  0
 17 19  1  0  0  0  0
 14 15  1  0  0  0  0
 14 16  1  0  0  0  0
 14 17  1  0  0  0  0
 11 12  1  0  0  0  0
 11 13  1  0  0  0  0
 11 14  1  0  0  0  0
  8  9  1  0  0  0  0
  8 10  1  0  0  0  0
  8 11  1  0  0  0  0
  7  8  1  0  0  0  0
  7 17  1  0  0  0  0
 23 24  1  0  0  0  0
 23 25  1  0  0  0  0
 23 26  1  0  0  0  0
 21 22  1  0  0  0  0
 21 23  1  0  0  0  0
M  END
$$$$
default_name
  -OEChem-01062215323D

 26 26  0     1  0  0  0  0  0999 V2000
   -1.8446   -3.5060   -0.3010 H   0  0  0  0  0  0  0  0  0  0  0  0
   -2.0746   -2.4490   -0.4240 C   0  0  0  0  0  0  0  0  0  0  0  0
   -2.6906   -2.1160    0.4090 H   0  0  0  0  0  0  0  0  0  0  0  0
   -2.5986   -2.2980   -1.3650 H   0  0  0  0  0  0  0  0  0  0  0  0
   -0.7756   -1.6630   -0.4350 C   0  0  0  0  0  0  0  0  0  0  0  0
    0.2844   -2.2800   -0.4550 O   0  0  0  0  0  0  0  0  0  0  0  0
   -0.8246   -0.3180   -0.4350 N   0  0  0  0  0  0  0  0  0  0  0  0
   -2.0106    0.5080   -0.5910 C   0  0  0  0  0  0  0  0  0  0  0  0
   -2.2764    1.1290    0.2660 H   0  0  0  0  0  0  0  0  0  0  0  0
   -2.9044    0.0714   -1.0353 H   0  0  0  0  0  0  0  0  0  0  0  0
   -1.2674    1.3443   -1.6305 C   0  0  0  0  0  0  0  0  0  0  0  0
   -1.9071    2.1297   -2.0361 H   0  0  0  0  0  0  0  0  0  0  0  0
   -0.9061    0.6900   -2.4245 H   0  0  0  0  0  0  0  0  0  0  0  0
   -0.0827    1.9176   -0.8529 C   0  0  0  0  0  0  0  0  0  0  0  0
   -0.3686    2.5236    0.0091 H   0  0  0  0  0  0  0  0  0  0  0  0
    0.6903    2.4250   -1.4299 H   0  0  0  0  0  0  0  0  0  0  0  0
    0.3724    0.5200   -0.4020 C   0  0  1  0  0  0  0  0  0  0  0  0
    1.0855    0.1292   -1.1282 H   0  0  0  0  0  0  0  0  0  0  0  0
    1.0225    0.5498    0.9914 C   0  0  0  0  0  0  0  0  0  0  0  0
    2.0600    1.1812    1.1821 O   0  0  0  0  0  0  0  0  0  0  0  0
    0.4303   -0.1674    1.9539 N   0  0  0  0  0  0  0  0  0  0  0  0
   -0.4484   -0.6088    1.7351 H   0  0  0  0  0  0  0  0  0  0  0  0
    0.9219   -0.2533    3.3271 C   0  0  0  0  0  0  0  0  0  0  0  0
    0.8607    0.7301    3.7980 H   0  0  0  0  0  0  0  0  0  0  0  0
    0.3260   -0.9653    3.8989 H   0  0  0  0  0  0  0  0  0  0  0  0
    1.9664   -0.5727    3.3265 H   0  0  0  0  0  0  0  0  0  0  0  0
  5  6  2  0  0  0  0
  5  7  1  0  0  0  0
  2  3  1  0  0  0  0
  2  4  1  0  0  0  0
  2  5  1  0  0  0  0
  1  2  1  0  0  0  0
 19 20  2  0  0  0  0
 19 21  1  0  0  0  0
 17 18  1  0  0  0  0
 17 19  1  0  0  0  0
 14 15  1  0  0  0  0
 14 16  1  0  0  0  0
 14 17  1  0  0  0  0
 11 12  1  0  0  0  0
 11 13  1  0  0  0  0
 11 14  1  0  0  0  0
  8  9  1  0  0  0  0
  8 10  1  0  0  0  0
  8 11  1  0  0  0  0
  7  8  1  0  0  0  0
  7 17  1  0  0  0  0
 23 24  1  0  0  0  0
 23 25  1  0  0  0  0
 23 26  1  0  0  0  0
 21 22  1  0  0  0  0
 21 23  1  0  0  0  0
M  END
$$$$
default_name
  -OEChem-01062215323D

 26 26  0     1  0  0  0  0  0999 V2000
   -1.8446   -3.5060   -0.3010 H   0  0  0  0  0  0  0  0  0  0  0  0
   -2.0746   -2.4490   -0.4240 C   0  0  0  0  0  0  0  0  0  0  0  0
   -2.6906   -2.1160    0.4090 H   0  0  0  0  0  0  0  0  0  0  0  0
   -2.5986   -2.2980   -1.3650 H   0  0  0  0  0  0  0  0  0  0  0  0
   -0.7756   -1.6630   -0.4350 C   0  0  0  0  0  0  0  0  0  0  0  0
    0.2844   -2.2800   -0.4550 O   0  0  0  0  0  0  0  0  0  0  0  0
   -0.8246   -0.3180   -0.4350 N   0  0  0  0  0  0  0  0  0  0  0  0
   -2.0106    0.5080   -0.5910 C   0  0  0  0  0  0  0  0  0  0  0  0
   -2.2764    1.1290    0.2660 H   0  0  0  0  0  0  0  0  0  0  0  0
   -2.9044    0.0714   -1.0353 H   0  0  0  0  0  0  0  0  0  0  0  0
   -1.2674    1.3443   -1.6305 C   0  0  0  0  0  0  0  0  0  0  0  0
   -1.9071    2.1297   -2.0361 H   0  0  0  0  0  0  0  0  0  0  0  0
   -0.9061    0.6900   -2.4245 H   0  0  0  0  0  0  0  0  0  0  0  0
   -0.0827    1.9176   -0.8529 C   0  0  0  0  0  0  0  0  0  0  0  0
   -0.3686    2.5236    0.0091 H   0  0  0  0  0  0  0  0  0  0  0  0
    0.6903    2.4250   -1.4299 H   0  0  0  0  0  0  0  0  0  0  0  0
    0.3724    0.5200   -0.4020 C   0  0  1  0  0  0  0  0  0  0  0  0
    1.0855    0.1292   -1.1282 H   0  0  0  0  0  0  0  0  0  0  0  0
    1.0225    0.5498    0.9914 C   0  0  0  0  0  0  0  0  0  0  0  0
    1.8866    1.3825    1.2587 O   0  0  0  0  0  0  0  0  0  0  0  0
    0.6323   -0.3867    1.8644 N   0  0  0  0  0  0  0  0  0  0  0  0
   -0.1224   -0.9956    1.5913 H   0  0  0  0  0  0  0  0  0  0  0  0
    1.1550   -0.5037    3.2237 C   0  0  0  0  0  0  0  0  0  0  0  0
    0.8737    0.3806    3.7995 H   0  0  0  0  0  0  0  0  0  0  0  0
    0.7529   -1.3936    3.7089 H   0  0  0  0  0  0  0  0  0  0  0  0
    2.2451   -0.5669    3.1963 H   0  0  0  0  0  0  0  0  0  0  0  0
  5  6  2  0  0  0  0
  5  7  1  0  0  0  0
  2  3  1  0  0  0  0
  2  4  1  0  0  0  0
  2  5  1  0  0  0  0
  1  2  1  0  0  0  0
 19 20  2  0  0  0  0
 19 21  1  0  0  0  0
 17 18  1  0  0  0  0
 17 19  1  0  0  0  0
 14 15  1  0  0  0  0
 14 16  1  0  0  0  0
 14 17  1  0  0  0  0
 11 12  1  0  0  0  0
 11 13  1  0  0  0  0
 11 14  1  0  0  0  0
  8  9  1  0  0  0  0
  8 10  1  0  0  0  0
  8 11  1  0  0  0  0
  7  8  1  0  0  0  0
  7 17  1  0  0  0  0
 23 24  1  0  0  0  0
 23 25  1  0  0  0  0
 23 26  1  0  0  0  0
 21 22  1  0  0  0  0
 21 23  1  0  0  0  0
M  END
$$$$
default_name
  -OEChem-01062215323D

 26 26  0     1  0  0  0  0  0999 V2000
   -1.8446   -3.5060   -0.3010 H   0  0  0  0  0  0  0  0  0  0  0  0
   -2.0746   -2.4490   -0.4240 C   0  0  0  0  0  0  0  0  0  0  0  0
   -2.6906   -2.1160    0.4090 H   0  0  0  0  0  0  0  0  0  0  0  0
   -2.5986   -2.2980   -1.3650 H   0  0  0  0  0  0  0  0  0  0  0  0
   -0.7756   -1.6630   -0.4350 C   0  0  0  0  0  0  0  0  0  0  0  0
    0.2844   -2.2800   -0.4550 O   0  0  0  0  0  0  0  0  0  0  0  0
   -0.8246   -0.3180   -0.4350 N   0  0  0  0  0  0  0  0  0  0  0  0
   -2.0106    0.5080   -0.5910 C   0  0  0  0  0  0  0  0  0  0  0  0
   -2.2764    1.1290    0.2660 H   0  0  0  0  0  0  0  0  0  0  0  0
   -2.9044    0.0714   -1.0353 H   0  0  0  0  0  0  0  0  0  0  0  0
   -1.2674    1.3443   -1.6305 C   0  0  0  0  0  0  0  0  0  0  0  0
   -1.9071    2.1297   -2.0361 H   0  0  0  0  0  0  0  0  0  0  0  0
   -0.9061    0.6900   -2.4245 H   0  0  0  0  0  0  0  0  0  0  0  0
   -0.0827    1.9176   -0.8529 C   0  0  0  0  0  0  0  0  0  0  0  0
   -0.3686    2.5236    0.0091 H   0  0  0  0  0  0  0  0  0  0  0  0
    0.6903    2.4250   -1.4299 H   0  0  0  0  0  0  0  0  0  0  0  0
    0.3724    0.5200   -0.4020 C   0  0  1  0  0  0  0  0  0  0  0  0
    1.0855    0.1292   -1.1282 H   0  0  0  0  0  0  0  0  0  0  0  0
    1.0225    0.5498    0.9914 C   0  0  0  0  0  0  0  0  0  0  0  0
    1.6722    1.5279    1.3556 O   0  0  0  0  0  0  0  0  0  0  0  0
    0.8784   -0.5415    1.7529 N   0  0  0  0  0  0  0  0  0  0  0  0
    0.2824   -1.2770    1.4084 H   0  0  0  0  0  0  0  0  0  0  0  0
    1.4385   -0.6796    3.0952 C   0  0  0  0  0  0  0  0  0  0  0  0
    0.9683    0.0459    3.7625 H   0  0  0  0  0  0  0  0  0  0  0  0
    1.2647   -1.6864    3.4764 H   0  0  0  0  0  0  0  0  0  0  0  0
    2.5123   -0.4818    3.0698 H   0  0  0  0  0  0  0  0  0  0  0  0
  5  6  2  0  0  0  0
  5  7  1  0  0  0  0
  2  3  1  0  0  0  0
  2  4  1  0  0  0  0
  2  5  1  0  0  0  0
  1  2  1  0  0  0  0
 19 20  2  0  0  0  0
 19 21  1  0  0  0  0
 17 18  1  0  0  0  0
 17 19  1  0  0  0  0
 14 15  1  0  0  0  0
 14 16  1  0  0  0  0
 14 17  1  0  0  0  0
 11 12  1  0  0  0  0
 11 13  1  0  0  0  0
 11 14  1  0  0  0  0
  8  9  1  0  0  0  0
  8 10  1  0  0  0  0
  8 11  1  0  0  0  0
  7  8  1  0  0  0  0
  7 17  1  0  0  0  0
 23 24  1  0  0  0  0
 23 25  1  0  0  0  0
 23 26  1  0  0  0  0
 21 22  1  0  0  0  0
 21 23  1  0  0  0  0
M  END
$$$$
default_name
  -OEChem-01062215323D

 26 26  0     1  0  0  0  0  0999 V2000
   -1.8446   -3.5060   -0.3010 H   0  0  0  0  0  0  0  0  0  0  0  0
   -2.0746   -2.4490   -0.4240 C   0  0  0  0  0  0  0  0  0  0  0  0
   -2.6906   -2.1160    0.4090 H   0  0  0  0  0  0  0  0  0  0  0  0
   -2.5986   -2.2980   -1.3650 H   0  0  0  0  0  0  0  0  0  0  0  0
   -0.7756   -1.6630   -0.4350 C   0  0  0  0  0  0  0  0  0  0  0  0
    0.2844   -2.2800   -0.4550 O   0  0  0  0  0  0  0  0  0  0  0  0
   -0.8246   -0.3180   -0.4350 N   0  0  0  0  0  0  0  0  0  0  0  0
   -2.0106    0.5080   -0.5910 C   0  0  0  0  0  0  0  0  0  0  0  0
   -2.2764    1.1290    0.2660 H   0  0  0  0  0  0  0  0  0  0  0  0
   -2.9044    0.0714   -1.0353 H   0  0  0  0  0  0  0  0  0  0  0  0
   -1.2674    1.3443   -1.6305 C   0  0  0  0  0  0  0  0  0  0  0  0
   -1.9071    2.1297   -2.0361 H   0  0  0  0  0  0  0  0  0  0  0  0
   -0.9061    0.6900   -2.4245 H   0  0  0  0  0  0  0  0  0  0  0  0
   -0.0827    1.9176   -0.8529 C   0  0  0  0  0  0  0  0  0  0  0  0
   -0.3686    2.5236    0.0091 H   0  0  0  0  0  0  0  0  0  0  0  0
    0.6903    2.4250   -1.4299 H   0  0  0  0  0  0  0  0  0  0  0  0
    0.3724    0.5200   -0.4020 C   0  0  1  0  0  0  0  0  0  0  0  0
    1.0855    0.1292   -1.1282 H   0  0  0  0  0  0  0  0  0  0  0  0
    1.0225    0.5498    0.9914 C   0  0  0  0  0  0  0  0  0  0  0  0
    1.4315    1.6075    1.4662 O   0  0  0  0  0  0  0  0  0  0  0  0
    1.1518   -0.6210    1.6270 N   0  0  0  0  0  0  0  0  0  0  0  0
    0.7386   -1.4339    1.1989 H   0  0  0  0  0  0  0  0  0  0  0  0
    1.7528   -0.7690    2.9504 C   0  0  0  0  0  0  0  0  0  0  0  0
    1.1379   -0.2512    3.6897 H   0  0  0  0  0  0  0  0  0  0  0  0
    1.8266   -1.8238    3.2171 H   0  0  0  0  0  0  0  0  0  0  0  0
    2.7498   -0.3231    2.9556 H   0  0  0  0  0  0  0  0  0  0  0  0
  5  6  2  0  0  0  0
  5  7  1  0  0  0  0
  2  3  1  0  0  0  0
  2  4  1  0  0  0  0
  2  5  1  0  0  0  0
  1  2  1  0  0  0  0
 19 20  2  0  0  0  0
 19 21  1  0  0  0  0
 17 18  1  0  0  0  0
 17 19  1  0  0  0  0
 14 15  1  0  0  0  0
 14 16  1  0  0  0  0
 14 17  1  0  0  0  0
 11 12  1  0  0  0  0
 11 13  1  0  0  0  0
 11 14  1  0  0  0  0
  8  9  1  0  0  0  0
  8 10  1  0  0  0  0
  8 11  1  0  0  0  0
  7  8  1  0  0  0  0
  7 17  1  0  0  0  0
 23 24  1  0  0  0  0
 23 25  1  0  0  0  0
 23 26  1  0  0  0  0
 21 22  1  0  0  0  0
 21 23  1  0  0  0  0
M  END
$$$$
default_name
  -OEChem-01062215323D

 26 26  0     1  0  0  0  0  0999 V2000
   -1.8446   -3.5060   -0.3010 H   0  0  0  0  0  0  0  0  0  0  0  0
   -2.0746   -2.4490   -0.4240 C   0  0  0  0  0  0  0  0  0  0  0  0
   -2.6906   -2.1160    0.4090 H   0  0  0  0  0  0  0  0  0  0  0  0
   -2.5986   -2.2980   -1.3650 H   0  0  0  0  0  0  0  0  0  0  0  0
   -0.7756   -1.6630   -0.4350 C   0  0  0  0  0  0  0  0  0  0  0  0
    0.2844   -2.2800   -0.4550 O   0  0  0  0  0  0  0  0  0  0  0  0
   -0.8246   -0.3180   -0.4350 N   0  0  0  0  0  0  0  0  0  0  0  0
   -2.0106    0.5080   -0.5910 C   0  0  0  0  0  0  0  0  0  0  0  0
   -2.2764    1.1290    0.2660 H   0  0  0  0  0  0  0  0  0  0  0  0
   -2.9044    0.0714   -1.0353 H   0  0  0  0  0  0  0  0  0  0  0  0
   -1.2674    1.3443   -1.6305 C   0  0  0  0  0  0  0  0  0  0  0  0
   -1.9071    2.1297   -2.0361 H   0  0  0  0  0  0  0  0  0  0  0  0
   -0.9061    0.6900   -2.4245 H   0  0  0  0  0  0  0  0  0  0  0  0
   -0.0827    1.9176   -0.8529 C   0  0  0  0  0  0  0  0  0  0  0  0
   -0.3686    2.5236    0.0091 H   0  0  0  0  0  0  0  0  0  0  0  0
    0.6903    2.4250   -1.4299 H   0  0  0  0  0  0  0  0  0  0  0  0
    0.3724    0.5200   -0.4020 C   0  0  1  0  0  0  0  0  0  0  0  0
    1.0855    0.1292   -1.1282 H   0  0  0  0  0  0  0  0  0  0  0  0
    1.0225    0.5498    0.9914 C   0  0  0  0  0  0  0  0  0  0  0  0
    1.1809    1.6158    1.5829 O   0  0  0  0  0  0  0  0  0  0  0  0
    1.4339   -0.6199    1.4954 N   0  0  0  0  0  0  0  0  0  0  0  0
    1.2149   -1.4556    0.9771 H   0  0  0  0  0  0  0  0  0  0  0  0
    2.0767   -0.7658    2.7993 C   0  0  0  0  0  0  0  0  0  0  0  0
    1.3711   -0.4904    3.5861 H   0  0  0  0  0  0  0  0  0  0  0  0
    2.4003   -1.7963    2.9489 H   0  0  0  0  0  0  0  0  0  0  0  0
    2.9414   -0.1015    2.8614 H   0  0  0  0  0  0  0  0  0  0  0  0
  5  6  2  0  0  0  0
  5  7  1  0  0  0  0
  2  3  1  0  0  0  0
  2  4  1  0  0  0  0
  2  5  1  0  0  0  0
  1  2  1  0  0  0  0
 19 20  2  0  0  0  0
 19 21  1  0  0  0  0
 17 18  1  0  0  0  0
 17 19  1  0  0  0  0
 14 15  1  0  0  0  0
 14 16  1  0  0  0  0
 14 17  1  0  0  0  0
 11 12  1  0  0  0  0
 11 13  1  0  0  0  0
 11 14  1  0  0  0  0
  8  9  1  0  0  0  0
  8 10  1  0  0  0  0
  8 11  1  0  0  0  0
  7  8  1  0  0  0  0
  7 17  1  0  0  0  0
 23 24  1  0  0  0  0
 23 25  1  0  0  0  0
 23 26  1  0  0  0  0
 21 22  1  0  0  0  0
 21 23  1  0  0  0  0
M  END
$$$$
default_name
  -OEChem-01062215323D

 26 26  0     1  0  0  0  0  0999 V2000
   -1.8446   -3.5060   -0.3010 H   0  0  0  0  0  0  0  0  0  0  0  0
   -2.0746   -2.4490   -0.4240 C   0  0  0  0  0  0  0  0  0  0  0  0
   -2.6906   -2.1160    0.4090 H   0  0  0  0  0  0  0  0  0  0  0  0
   -2.5986   -2.2980   -1.3650 H   0  0  0  0  0  0  0  0  0  0  0  0
   -0.7756   -1.6630   -0.4350 C   0  0  0  0  0  0  0  0  0  0  0  0
    0.2844   -2.2800   -0.4550 O   0  0  0  0  0  0  0  0  0  0  0  0
   -0.8246   -0.3180   -0.4350 N   0  0  0  0  0  0  0  0  0  0  0  0
   -2.0106    0.5080   -0.5910 C   0  0  0  0  0  0  0  0  0  0  0  0
   -2.2764    1.1290    0.2660 H   0  0  0  0  0  0  0  0  0  0  0  0
   -2.9044    0.0714   -1.0353 H   0  0  0  0  0  0  0  0  0  0  0  0
   -1.2674    1.3443   -1.6305 C   0  0  0  0  0  0  0  0  0  0  0  0
   -1.9071    2.1297   -2.0361 H   0  0  0  0  0  0  0  0  0  0  0  0
   -0.9061    0.6900   -2.4245 H   0  0  0  0  0  0  0  0  0  0  0  0
   -0.0827    1.9176   -0.8529 C   0  0  0  0  0  0  0  0  0  0  0  0
   -0.3686    2.5236    0.0091 H   0  0  0  0  0  0  0  0  0  0  0  0
    0.6903    2.4250   -1.4299 H   0  0  0  0  0  0  0  0  0  0  0  0
    0.3724    0.5200   -0.4020 C   0  0  1  0  0  0  0  0  0  0  0  0
    1.0855    0.1292   -1.1282 H   0  0  0  0  0  0  0  0  0  0  0  0
    1.0225    0.5498    0.9914 C   0  0  0  0  0  0  0  0  0  0  0  0
    0.9375    1.5523    1.6979 O   0  0  0  0  0  0  0  0  0  0  0  0
    1.7055   -0.5384    1.3669 N   0  0  0  0  0  0  0  0  0  0  0  0
    1.6790   -1.3406    0.7582 H   0  0  0  0  0  0  0  0  0  0  0  0
    2.3880   -0.6702    2.6520 C   0  0  0  0  0  0  0  0  0  0  0  0
    1.6519   -0.6555    3.4586 H   0  0  0  0  0  0  0  0  0  0  0  0
    2.9467   -1.6059    2.6899 H   0  0  0  0  0  0  0  0  0  0  0  0
    3.0741    0.1677    2.7938 H   0  0  0  0  0  0  0  0  0  0  0  0
  5  6  2  0  0  0  0
  5  7  1  0  0  0  0
  2  3  1  0  0  0  0
  2  4  1  0  0  0  0
  2  5  1  0  0  0  0
  1  2  1  0  0  0  0
 19 20  2  0  0  0  0
 19 21  1  0  0  0  0
 17 18  1  0  0  0  0
 17 19  1  0  0  0  0
 14 15  1  0  0  0  0
 14 16  1  0  0  0  0
 14 17  1  0  0  0  0
 11 12  1  0  0  0  0
 11 13  1  0  0  0  0
 11 14  1  0  0  0  0
  8  9  1  0  0  0  0
  8 10  1  0  0  0  0
  8 11  1  0  0  0  0
  7  8  1  0  0  0  0
  7 17  1  0  0  0  0
 23 24  1  0  0  0  0
 23 25  1  0  0  0  0
 23 26  1  0  0  0  0
 21 22  1  0  0  0  0
 21 23  1  0  0  0  0
M  END
$$$$
default_name
  -OEChem-01062215323D

 26 26  0     1  0  0  0  0  0999 V2000
   -1.8446   -3.5060   -0.3010 H   0  0  0  0  0  0  0  0  0  0  0  0
   -2.0746   -2.4490   -0.4240 C   0  0  0  0  0  0  0  0  0  0  0  0
   -2.6906   -2.1160    0.4090 H   0  0  0  0  0  0  0  0  0  0  0  0
   -2.5986   -2.2980   -1.3650 H   0  0  0  0  0  0  0  0  0  0  0  0
   -0.7756   -1.6630   -0.4350 C   0  0  0  0  0  0  0  0  0  0  0  0
    0.2844   -2.2800   -0.4550 O   0  0  0  0  0  0  0  0  0  0  0  0
   -0.8246   -0.3180   -0.4350 N   0  0  0  0  0  0  0  0  0  0  0  0
   -2.0106    0.5080   -0.5910 C   0  0  0  0  0  0  0  0  0  0  0  0
   -2.2764    1.1290    0.2660 H   0  0  0  0  0  0  0  0  0  0  0  0
   -2.9044    0.0714   -1.0353 H   0  0  0  0  0  0  0  0  0  0  0  0
   -1.2674    1.3443   -1.6305 C   0  0  0  0  0  0  0  0  0  0  0  0
   -1.9071    2.1297   -2.0361 H   0  0  0  0  0  0  0  0  0  0  0  0
   -0.9061    0.6900   -2.4245 H   0  0  0  0  0  0  0  0  0  0  0  0
   -0.0827    1.9176   -0.8529 C   0  0  0  0  0  0  0  0  0  0  0  0
   -0.3686    2.5236    0.0091 H   0  0  0  0  0  0  0  0  0  0  0  0
    0.6903    2.4250   -1.4299 H   0  0  0  0  0  0  0  0  0  0  0  0
    0.3724    0.5200   -0.4020 C   0  0  1  0  0  0  0  0  0  0  0  0
    1.0855    0.1292   -1.1282 H   0  0  0  0  0  0  0  0  0  0  0  0
    1.0225    0.5498    0.9914 C   0  0  0  0  0  0  0  0  0  0  0  0
    0.7178    1.4214    1.8032 O   0  0  0  0  0  0  0  0  0  0  0  0
    1.9480   -0.3818    1.2504 N   0  0  0  0  0  0  0  0  0  0  0  0
    2.0992   -1.0967    0.5569 H   0  0  0  0  0  0  0  0  0  0  0  0
    2.6656   -0.4888    2.5186 C   0  0  0  0  0  0  0  0  0  0  0  0
    1.9612   -0.7351    3.3160 H   0  0  0  0  0  0  0  0  0  0  0  0
    3.4284   -1.2656    2.4578 H   0  0  0  0  0  0  0  0  0  0  0  0
    3.1387    0.4663    2.7572 H   0  0  0  0  0  0  0  0  0  0  0  0
  5  6  2  0  0  0  0
  5  7  1  0  0  0  0
  2  3  1  0  0  0  0
  2  4  1  0  0  0  0
  2  5  1  0  0  0  0
  1  2  1  0  0  0  0
 19 20  2  0  0  0  0
 19 21  1  0  0  0  0
 17 18  1  0  0  0  0
 17 19  1  0  0  0  0
 14 15  1  0  0  0  0
 14 16  1  0  0  0  0
 14 17  1  0  0  0  0
 11 12  1  0  0  0  0
 11 13  1  0  0  0  0
 11 14  1  0  0  0  0
  8  9  1  0  0  0  0
  8 10  1  0  0  0  0
  8 11  1  0  0  0  0
  7  8  1  0  0  0  0
  7 17  1  0  0  0  0
 23 24  1  0  0  0  0
 23 25  1  0  0  0  0
 23 26  1  0  0  0  0
 21 22  1  0  0  0  0
 21 23  1  0  0  0  0
M  END
$$$$
default_name
  -OEChem-01062215323D

 26 26  0     1  0  0  0  0  0999 V2000
   -1.8446   -3.5060   -0.3010 H   0  0  0  0  0  0  0  0  0  0  0  0
   -2.0746   -2.4490   -0.4240 C   0  0  0  0  0  0  0  0  0  0  0  0
   -2.6906   -2.1160    0.4090 H   0  0  0  0  0  0  0  0  0  0  0  0
   -2.5986   -2.2980   -1.3650 H   0  0  0  0  0  0  0  0  0  0  0  0
   -0.7756   -1.6630   -0.4350 C   0  0  0  0  0  0  0  0  0  0  0  0
    0.2844   -2.2800   -0.4550 O   0  0  0  0  0  0  0  0  0  0  0  0
   -0.8246   -0.3180   -0.4350 N   0  0  0  0  0  0  0  0  0  0  0  0
   -2.0106    0.5080   -0.5910 C   0  0  0  0  0  0  0  0  0  0  0  0
   -2.2764    1.1290    0.2660 H   0  0  0  0  0  0  0  0  0  0  0  0
   -2.9044    0.0714   -1.0353 H   0  0  0  0  0  0  0  0  0  0  0  0
   -1.2674    1.3443   -1.6305 C   0  0  0  0  0  0  0  0  0  0  0  0
   -1.9071    2.1297   -2.0361 H   0  0  0  0  0  0  0  0  0  0  0  0
   -0.9061    0.6900   -2.4245 H   0  0  0  0  0  0  0  0  0  0  0  0
   -0.0827    1.9176   -0.8529 C   0  0  0  0  0  0  0  0  0  0  0  0
   -0.3686    2.5236    0.0091 H   0  0  0  0  0  0  0  0  0  0  0  0
    0.6903    2.4250   -1.4299 H   0  0  0  0  0  0  0  0  0  0  0  0
    0.3724    0.5200   -0.4020 C   0  0  1  0  0  0  0  0  0  0  0  0
    1.0855    0.1292   -1.1282 H   0  0  0  0  0  0  0  0  0  0  0  0
    1.0225    0.5498    0.9914 C   0  0  0  0  0  0  0  0  0  0  0  0
    0.5369    1.2318    1.8916 O   0  0  0  0  0  0  0  0  0  0  0  0
    2.1450   -0.1610    1.1538 N   0  0  0  0  0  0  0  0  0  0  0  0
    2.4469   -0.7405    0.3870 H   0  0  0  0  0  0  0  0  0  0  0  0
    2.8905   -0.2338    2.4082 C   0  0  0  0  0  0  0  0  0  0  0  0
    2.2779   -0.7239    3.1680 H   0  0  0  0  0  0  0  0  0  0  0  0
    3.8128   -0.7984    2.2685 H   0  0  0  0  0  0  0  0  0  0  0  0
    3.1310    0.7738    2.7542 H   0  0  0  0  0  0  0  0  0  0  0  0
  5  6  2  0  0  0  0
  5  7  1  0  0  0  0
  2  3  1  0  0  0  0
  2  4  1  0  0  0  0
  2  5  1  0  0  0  0
  1  2  1  0  0  0  0
 19 20  2  0  0  0  0
 19 21  1  0  0  0  0
 17 18  1  0  0  0  0
 17 19  1  0  0  0  0
 14 15  1  0  0  0  0
 14 16  1  0  0  0  0
 14 17  1  0  0  0  0
 11 12  1  0  0  0  0
 11 13  1  0  0  0  0
 11 14  1  0  0  0  0
  8  9  1  0  0  0  0
  8 10  1  0  0  0  0
  8 11  1  0  0  0  0
  7  8  1  0  0  0  0
  7 17  1  0  0  0  0
 23 24  1  0  0  0  0
 23 25  1  0  0  0  0
 23 26  1  0  0  0  0
 21 22  1  0  0  0  0
 21 23  1  0  0  0  0
M  END
$$$$
default_name
  -OEChem-01062215323D

 26 26  0     1  0  0  0  0  0999 V2000
   -1.8446   -3.5060   -0.3010 H   0  0  0  0  0  0  0  0  0  0  0  0
   -2.0746   -2.4490   -0.4240 C   0  0  0  0  0  0  0  0  0  0  0  0
   -2.6906   -2.1160    0.4090 H   0  0  0  0  0  0  0  0  0  0  0  0
   -2.5986   -2.2980   -1.3650 H   0  0  0  0  0  0  0  0  0  0  0  0
   -0.7756   -1.6630   -0.4350 C   0  0  0  0  0  0  0  0  0  0  0  0
    0.2844   -2.2800   -0.4550 O   0  0  0  0  0  0  0  0  0  0  0  0
   -0.8246   -0.3180   -0.4350 N   0  0  0  0  0  0  0  0  0  0  0  0
   -2.0106    0.5080   -0.5910 C   0  0  0  0  0  0  0  0  0  0  0  0
   -2.2764    1.1290    0.2660 H   0  0  0  0  0  0  0  0  0  0  0  0
   -2.9044    0.0714   -1.0353 H   0  0  0  0  0  0  0  0  0  0  0  0
   -1.2674    1.3443   -1.6305 C   0  0  0  0  0  0  0  0  0  0  0  0
   -1.9071    2.1297   -2.0361 H   0  0  0  0  0  0  0  0  0  0  0  0
   -0.9061    0.6900   -2.4245 H   0  0  0  0  0  0  0  0  0  0  0  0
   -0.0827    1.9176   -0.8529 C   0  0  0  0  0  0  0  0  0  0  0  0
   -0.3686    2.5236    0.0091 H   0  0  0  0  0  0  0  0  0  0  0  0
    0.6903    2.4250   -1.4299 H   0  0  0  0  0  0  0  0  0  0  0  0
    0.3724    0.5200   -0.4020 C   0  0  1  0  0  0  0  0  0  0  0  0
    1.0855    0.1292   -1.1282 H   0  0  0  0  0  0  0  0  0  0  0  0
    1.0225    0.5498    0.9914 C   0  0  0  0  0  0  0  0  0  0  0  0
    0.4070    0.9966    1.9573 O   0  0  0  0  0  0  0  0  0  0  0  0
    2.2830    0.1091    1.0836 N   0  0  0  0  0  0  0  0  0  0  0  0
    2.6983   -0.2964    0.2602 H   0  0  0  0  0  0  0  0  0  0  0  0
    3.0473    0.0773    2.3283 C   0  0  0  0  0  0  0  0  0  0  0  0
    2.5805   -0.6227    3.0246 H   0  0  0  0  0  0  0  0  0  0  0  0
    4.0736   -0.2364    2.1348 H   0  0  0  0  0  0  0  0  0  0  0  0
    3.0514    1.0694    2.7850 H   0  0  0  0  0  0  0  0  0  0  0  0
  5  6  2  0  0  0  0
  5  7  1  0  0  0  0
  2  3  1  0  0  0  0
  2  4  1  0  0  0  0
  2  5  1  0  0  0  0
  1  2  1  0  0  0  0
 19 20  2  0  0  0  0
 19 21  1  0  0  0  0
 17 18  1  0  0  0  0
 17 19  1  0  0  0  0
 14 15  1  0  0  0  0
 14 16  1  0  0  0  0
 14 17  1  0  0  0  0
 11 12  1  0  0  0  0
 11 13  1  0  0  0  0
 11 14  1  0  0  0  0
  8  9  1  0  0  0  0
  8 10  1  0  0  0  0
  8 11  1  0  0  0  0
  7  8  1  0  0  0  0
  7 17  1  0  0  0  0
 23 24  1  0  0  0  0
 23 25  1  0  0  0  0
 23 26  1  0  0  0  0
 21 22  1  0  0  0  0
 21 23  1  0  0  0  0
M  END
$$$$
default_name
  -OEChem-01062215323D

 26 26  0     1  0  0  0  0  0999 V2000
   -1.8446   -3.5060   -0.3010 H   0  0  0  0  0  0  0  0  0  0  0  0
   -2.0746   -2.4490   -0.4240 C   0  0  0  0  0  0  0  0  0  0  0  0
   -2.6906   -2.1160    0.4090 H   0  0  0  0  0  0  0  0  0  0  0  0
   -2.5986   -2.2980   -1.3650 H   0  0  0  0  0  0  0  0  0  0  0  0
   -0.7756   -1.6630   -0.4350 C   0  0  0  0  0  0  0  0  0  0  0  0
    0.2844   -2.2800   -0.4550 O   0  0  0  0  0  0  0  0  0  0  0  0
   -0.8246   -0.3180   -0.4350 N   0  0  0  0  0  0  0  0  0  0  0  0
   -2.0106    0.5080   -0.5910 C   0  0  0  0  0  0  0  0  0  0  0  0
   -2.2764    1.1290    0.2660 H   0  0  0  0  0  0  0  0  0  0  0  0
   -2.9044    0.0714   -1.0353 H   0  0  0  0  0  0  0  0  0  0  0  0
   -1.2674    1.3443   -1.6305 C   0  0  0  0  0  0  0  0  0  0  0  0
   -1.9071    2.1297   -2.0361 H   0  0  0  0  0  0  0  0  0  0  0  0
   -0.9061    0.6900   -2.4245 H   0  0  0  0  0  0  0  0  0  0  0  0
   -0.0827    1.9176   -0.8529 C   0  0  0  0  0  0  0  0  0  0  0  0
   -0.3686    2.5236    0.0091 H   0  0  0  0  0  0  0  0  0  0  0  0
    0.6903    2.4250   -1.4299 H   0  0  0  0  0  0  0  0  0  0  0  0
    0.3724    0.5200   -0.4020 C   0  0  1  0  0  0  0  0  0  0  0  0
    1.0855    0.1292   -1.1282 H   0  0  0  0  0  0  0  0  0  0  0  0
    1.0225    0.5498    0.9914 C   0  0  0  0  0  0  0  0  0  0  0  0
    0.3371    0.7318    1.9956 O   0  0  0  0  0  0  0  0  0  0  0  0
    2.3526    0.4100    1.0447 N   0  0  0  0  0  0  0  0  0  0  0  0
    2.8364    0.2054    0.1850 H   0  0  0  0  0  0  0  0  0  0  0  0
    3.1255    0.4233    2.2844 C   0  0  0  0  0  0  0  0  0  0  0  0
    2.8482   -0.4382    2.8957 H   0  0  0  0  0  0  0  0  0  0  0  0
    4.1930    0.3824    2.0658 H   0  0  0  0  0  0  0  0  0  0  0  0
    2.9054    1.3329    2.8475 H   0  0  0  0  0  0  0  0  0  0  0  0
  5  6  2  0  0  0  0
  5  7  1  0  0  0  0
  2  3  1  0  0  0  0
  2  4  1  0  0  0  0
  2  5  1  0  0  0  0
  1  2  1  0  0  0  0
 19 20  2  0  0  0  0
 19 21  1  0  0  0  0
 17 18  1  0  0  0  0
 17 19  1  0  0  0  0
 14 15  1  0  0  0  0
 14 16  1  0  0  0  0
 14 17  1  0  0  0  0
 11 12  1  0  0  0  0
 11 13  1  0  0  0  0
 11 14  1  0  0  0  0
  8  9  1  0  0  0  0
  8 10  1  0  0  0  0
  8 11  1  0  0  0  0
  7  8  1  0  0  0  0
  7 17  1  0  0  0  0
 23 24  1  0  0  0  0
 23 25  1  0  0  0  0
 23 26  1  0  0  0  0
 21 22  1  0  0  0  0
 21 23  1  0  0  0  0
M  END
$$$$
default_name
  -OEChem-01062215323D

 26 26  0     1  0  0  0  0  0999 V2000
   -1.8446   -3.5060   -0.3010 H   0  0  0  0  0  0  0  0  0  0  0  0
   -2.0746   -2.4490   -0.4240 C   0  0  0  0  0  0  0  0  0  0  0  0
   -2.6906   -2.1160    0.4090 H   0  0  0  0  0  0  0  0  0  0  0  0
   -2.5986   -2.2980   -1.3650 H   0  0  0  0  0  0  0  0  0  0  0  0
   -0.7756   -1.6630   -0.4350 C   0  0  0  0  0  0  0  0  0  0  0  0
    0.2844   -2.2800   -0.4550 O   0  0  0  0  0  0  0  0  0  0  0  0
   -0.8246   -0.3180   -0.4350 N   0  0  0  0  0  0  0  0  0  0  0  0
   -2.0106    0.5080   -0.5910 C   0  0  0  0  0  0  0  0  0  0  0  0
   -2.2764    1.1290    0.2660 H   0  0  0  0  0  0  0  0  0  0  0  0
   -2.9044    0.0714   -1.0353 H   0  0  0  0  0  0  0  0  0  0  0  0
   -1.2674    1.3443   -1.6305 C   0  0  0  0  0  0  0  0  0  0  0  0
   -1.9071    2.1297   -2.0361 H   0  0  0  0  0  0  0  0  0  0  0  0
   -0.9061    0.6900   -2.4245 H   0  0  0  0  0  0  0  0  0  0  0  0
   -0.0827    1.9176   -0.8529 C   0  0  0  0  0  0  0  0  0  0  0  0
   -0.3686    2.5236    0.0091 H   0  0  0  0  0  0  0  0  0  0  0  0
    0.6903    2.4250   -1.4299 H   0  0  0  0  0  0  0  0  0  0  0  0
    0.3724    0.5200   -0.4020 C   0  0  1  0  0  0  0  0  0  0  0  0
    1.0855    0.1292   -1.1282 H   0  0  0  0  0  0  0  0  0  0  0  0
    1.0225    0.5498    0.9914 C   0  0  0  0  0  0  0  0  0  0  0  0
    0.3318    0.4554    2.0040 O   0  0  0  0  0  0  0  0  0  0  0  0
    2.3491    0.7213    1.0396 N   0  0  0  0  0  0  0  0  0  0  0  0
    2.8518    0.7308    0.1666 H   0  0  0  0  0  0  0  0  0  0  0  0
    3.1197    0.7806    2.2795 C   0  0  0  0  0  0  0  0  0  0  0  0
    3.0630   -0.1831    2.7901 H   0  0  0  0  0  0  0  0  0  0  0  0
    4.1630    1.0155    2.0663 H   0  0  0  0  0  0  0  0  0  0  0  0
    2.7028    1.5463    2.9375 H   0  0  0  0  0  0  0  0  0  0  0  0
  5  6  2  0  0  0  0
  5  7  1  0  0  0  0
  2  3  1  0  0  0  0
  2  4  1  0  0  0  0
  2  5  1  0  0  0  0
  1  2  1  0  0  0  0
 19 20  2  0  0  0  0
 19 21  1  0  0  0  0
 17 18  1  0  0  0  0
 17 19  1  0  0  0  0
 14 15  1  0  0  0  0
 14 16  1  0  0  0  0
 14 17  1  0  0  0  0
 11 12  1  0  0  0  0
 11 13  1  0  0  0  0
 11 14  1  0  0  0  0
  8  9  1  0  0  0  0
  8 10  1  0  0  0  0
  8 11  1  0  0  0  0
  7  8  1  0  0  0  0
  7 17  1  0  0  0  0
 23 24  1  0  0  0  0
 23 25  1  0  0  0  0
 23 26  1  0  0  0  0
 21 22  1  0  0  0  0
 21 23  1  0  0  0  0
M  END
$$$$
default_name
  -OEChem-01062215323D

 26 26  0     1  0  0  0  0  0999 V2000
   -1.8446   -3.5060   -0.3010 H   0  0  0  0  0  0  0  0  0  0  0  0
   -2.0746   -2.4490   -0.4240 C   0  0  0  0  0  0  0  0  0  0  0  0
   -2.6906   -2.1160    0.4090 H   0  0  0  0  0  0  0  0  0  0  0  0
   -2.5986   -2.2980   -1.3650 H   0  0  0  0  0  0  0  0  0  0  0  0
   -0.7756   -1.6630   -0.4350 C   0  0  0  0  0  0  0  0  0  0  0  0
    0.2844   -2.2800   -0.4550 O   0  0  0  0  0  0  0  0  0  0  0  0
   -0.8246   -0.3180   -0.4350 N   0  0  0  0  0  0  0  0  0  0  0  0
   -2.0106    0.5080   -0.5910 C   0  0  0  0  0  0  0  0  0  0  0  0
   -2.2764    1.1290    0.2660 H   0  0  0  0  0  0  0  0  0  0  0  0
   -2.9044    0.0714   -1.0353 H   0  0  0  0  0  0  0  0  0  0  0  0
   -1.2674    1.3443   -1.6305 C   0  0  0  0  0  0  0  0  0  0  0  0
   -1.9071    2.1297   -2.0361 H   0  0  0  0  0  0  0  0  0  0  0  0
   -0.9061    0.6900   -2.4245 H   0  0  0  0  0  0  0  0  0  0  0  0
   -0.0827    1.9176   -0.8529 C   0  0  0  0  0  0  0  0  0  0  0  0
   -0.3686    2.5236    0.0091 H   0  0  0  0  0  0  0  0  0  0  0  0
    0.6903    2.4250   -1.4299 H   0  0  0  0  0  0  0  0  0  0  0  0
    0.3724    0.5200   -0.4020 C   0  0  1  0  0  0  0  0  0  0  0  0
    1.0855    0.1292   -1.1282 H   0  0  0  0  0  0  0  0  0  0  0  0
    1.0225    0.5498    0.9914 C   0  0  0  0  0  0  0  0  0  0  0  0
    0.3916    0.1863    1.9819 O   0  0  0  0  0  0  0  0  0  0  0  0
    2.2727    1.0217    1.0689 N   0  0  0  0  0  0  0  0  0  0  0  0
    2.7433    1.2438    0.2062 H   0  0  0  0  0  0  0  0  0  0  0  0
    3.0302    1.1250    2.3139 C   0  0  0  0  0  0  0  0  0  0  0  0
    3.2101    0.1252    2.7148 H   0  0  0  0  0  0  0  0  0  0  0  0
    3.9854    1.6200    2.1361 H   0  0  0  0  0  0  0  0  0  0  0  0
    2.4576    1.6951    3.0487 H   0  0  0  0  0  0  0  0  0  0  0  0
  5  6  2  0  0  0  0
  5  7  1  0  0  0  0
  2  3  1  0  0  0  0
  2  4  1  0  0  0  0
  2  5  1  0  0  0  0
  1  2  1  0  0  0  0
 19 20  2  0  0  0  0
 19 21  1  0  0  0  0
 17 18  1  0  0  0  0
 17 19  1  0  0  0  0
 14 15  1  0  0  0  0
 14 16  1  0  0  0  0
 14 17  1  0  0  0  0
 11 12  1  0  0  0  0
 11 13  1  0  0  0  0
 11 14  1  0  0  0  0
  8  9  1  0  0  0  0
  8 10  1  0  0  0  0
  8 11  1  0  0  0  0
  7  8  1  0  0  0  0
  7 17  1  0  0  0  0
 23 24  1  0  0  0  0
 23 25  1  0  0  0  0
 23 26  1  0  0  0  0
 21 22  1  0  0  0  0
 21 23  1  0  0  0  0
M  END
$$$$
default_name
  -OEChem-01062215323D

 26 26  0     1  0  0  0  0  0999 V2000
   -1.8446   -3.5060   -0.3010 H   0  0  0  0  0  0  0  0  0  0  0  0
   -2.0746   -2.4490   -0.4240 C   0  0  0  0  0  0  0  0  0  0  0  0
   -2.6906   -2.1160    0.4090 H   0  0  0  0  0  0  0  0  0  0  0  0
   -2.5986   -2.2980   -1.3650 H   0  0  0  0  0  0  0  0  0  0  0  0
   -0.7756   -1.6630   -0.4350 C   0  0  0  0  0  0  0  0  0  0  0  0
    0.2844   -2.2800   -0.4550 O   0  0  0  0  0  0  0  0  0  0  0  0
   -0.8246   -0.3180   -0.4350 N   0  0  0  0  0  0  0  0  0  0  0  0
   -2.0106    0.5080   -0.5910 C   0  0  0  0  0  0  0  0  0  0  0  0
   -2.2764    1.1290    0.2660 H   0  0  0  0  0  0  0  0  0  0  0  0
   -2.9044    0.0714   -1.0353 H   0  0  0  0  0  0  0  0  0  0  0  0
   -1.2674    1.3443   -1.6305 C   0  0  0  0  0  0  0  0  0  0  0  0
   -1.9071    2.1297   -2.0361 H   0  0  0  0  0  0  0  0  0  0  0  0
   -0.9061    0.6900   -2.4245 H   0  0  0  0  0  0  0  0  0  0  0  0
   -0.0827    1.9176   -0.8529 C   0  0  0  0  0  0  0  0  0  0  0  0
   -0.3686    2.5236    0.0091 H   0  0  0  0  0  0  0  0  0  0  0  0
    0.6903    2.4250   -1.4299 H   0  0  0  0  0  0  0  0  0  0  0  0
    0.3724    0.5200   -0.4020 C   0  0  1  0  0  0  0  0  0  0  0  0
    1.0855    0.1292   -1.1282 H   0  0  0  0  0  0  0  0  0  0  0  0
    1.0225    0.5498    0.9914 C   0  0  0  0  0  0  0  0  0  0  0  0
    0.5123   -0.0573    1.9307 O   0  0  0  0  0  0  0  0  0  0  0  0
    2.1286    1.2907    1.1303 N   0  0  0  0  0  0  0  0  0  0  0  0
    2.5184    1.7096    0.3012 H   0  0  0  0  0  0  0  0  0  0  0  0
    2.8632    1.4329    2.3852 C   0  0  0  0  0  0  0  0  0  0  0  0
    3.2795    0.4657    2.6752 H   0  0  0  0  0  0  0  0  0  0  0  0
    3.6726    2.1546    2.2707 H   0  0  0  0  0  0  0  0  0  0  0  0
    2.1864    1.7691    3.1736 H   0  0  0  0  0  0  0  0  0  0  0  0
  5  6  2  0  0  0  0
  5  7  1  0  0  0  0
  2  3  1  0  0  0  0
  2  4  1  0  0  0  0
  2  5  1  0  0  0  0
  1  2  1  0  0  0  0
 19 20  2  0  0  0  0
 19 21  1  0  0  0  0
 17 18  1  0  0  0  0
 17 19  1  0  0  0  0
 14 15  1  0  0  0  0
 14 16  1  0  0  0  0
 14 17  1  0  0  0  0
 11 12  1  0  0  0  0
 11 13  1  0  0  0  0
 11 14  1  0  0  0  0
  8  9  1  0  0  0  0
  8 10  1  0  0  0  0
  8 11  1  0  0  0  0
  7  8  1  0  0  0  0
  7 17  1  0  0  0  0
 23 24  1  0  0  0  0
 23 25  1  0  0  0  0
 23 26  1  0  0  0  0
 21 22  1  0  0  0  0
 21 23  1  0  0  0  0
M  END
$$$$
default_name
  -OEChem-01062215323D

 26 26  0     1  0  0  0  0  0999 V2000
   -1.8446   -3.5060   -0.3010 H   0  0  0  0  0  0  0  0  0  0  0  0
   -2.0746   -2.4490   -0.4240 C   0  0  0  0  0  0  0  0  0  0  0  0
   -2.6906   -2.1160    0.4090 H   0  0  0  0  0  0  0  0  0  0  0  0
   -2.5986   -2.2980   -1.3650 H   0  0  0  0  0  0  0  0  0  0  0  0
   -0.7756   -1.6630   -0.4350 C   0  0  0  0  0  0  0  0  0  0  0  0
    0.2844   -2.2800   -0.4550 O   0  0  0  0  0  0  0  0  0  0  0  0
   -0.8246   -0.3180   -0.4350 N   0  0  0  0  0  0  0  0  0  0  0  0
   -2.0106    0.5080   -0.5910 C   0  0  0  0  0  0  0  0  0  0  0  0
   -2.2764    1.1290    0.2660 H   0  0  0  0  0  0  0  0  0  0  0  0
   -2.9044    0.0714   -1.0353 H   0  0  0  0  0  0  0  0  0  0  0  0
   -1.2674    1.3443   -1.6305 C   0  0  0  0  0  0  0  0  0  0  0  0
   -1.9071    2.1297   -2.0361 H   0  0  0  0  0  0  0  0  0  0  0  0
   -0.9061    0.6900   -2.4245 H   0  0  0  0  0  0  0  0  0  0  0  0
   -0.0827    1.9176   -0.8529 C   0  0  0  0  0  0  0  0  0  0  0  0
   -0.3686    2.5236    0.0091 H   0  0  0  0  0  0  0  0  0  0  0  0
    0.6903    2.4250   -1.4299 H   0  0  0  0  0  0  0  0  0  0  0  0
    0.3724    0.5200   -0.4020 C   0  0  1  0  0  0  0  0  0  0  0  0
    1.0855    0.1292   -1.1282 H   0  0  0  0  0  0  0  0  0  0  0  0
    1.0225    0.5498    0.9914 C   0  0  0  0  0  0  0  0  0  0  0  0
    0.6857   -0.2586    1.8541 O   0  0  0  0  0  0  0  0  0  0  0  0
    1.9267    1.5100    1.2199 N   0  0  0  0  0  0  0  0  0  0  0  0
    2.1924    2.0964    0.4450 H   0  0  0  0  0  0  0  0  0  0  0  0
    2.6301    1.6833    2.4886 C   0  0  0  0  0  0  0  0  0  0  0  0
    3.2664    0.8153    2.6738 H   0  0  0  0  0  0  0  0  0  0  0  0
    3.2456    2.5830    2.4607 H   0  0  0  0  0  0  0  0  0  0  0  0
    1.9077    1.7634    3.3038 H   0  0  0  0  0  0  0  0  0  0  0  0
  5  6  2  0  0  0  0
  5  7  1  0  0  0  0
  2  3  1  0  0  0  0
  2  4  1  0  0  0  0
  2  5  1  0  0  0  0
  1  2  1  0  0  0  0
 19 20  2  0  0  0  0
 19 21  1  0  0  0  0
 17 18  1  0  0  0  0
 17 19  1  0  0  0  0
 14 15  1  0  0  0  0
 14 16  1  0  0  0  0
 14 17  1  0  0  0  0
 11 12  1  0  0  0  0
 11 13  1  0  0  0  0
 11 14  1  0  0  0  0
  8  9  1  0  0  0  0
  8 10  1  0  0  0  0
  8 11  1  0  0  0  0
  7  8  1  0  0  0  0
  7 17  1  0  0  0  0
 23 24  1  0  0  0  0
 23 25  1  0  0  0  0
 23 26  1  0  0  0  0
 21 22  1  0  0  0  0
 21 23  1  0  0  0  0
M  END
$$$$
default_name
  -OEChem-01062215323D

 26 26  0     1  0  0  0  0  0999 V2000
   -1.8446   -3.5060   -0.3010 H   0  0  0  0  0  0  0  0  0  0  0  0
   -2.0746   -2.4490   -0.4240 C   0  0  0  0  0  0  0  0  0  0  0  0
   -2.6906   -2.1160    0.4090 H   0  0  0  0  0  0  0  0  0  0  0  0
   -2.5986   -2.2980   -1.3650 H   0  0  0  0  0  0  0  0  0  0  0  0
   -0.7756   -1.6630   -0.4350 C   0  0  0  0  0  0  0  0  0  0  0  0
    0.2844   -2.2800   -0.4550 O   0  0  0  0  0  0  0  0  0  0  0  0
   -0.8246   -0.3180   -0.4350 N   0  0  0  0  0  0  0  0  0  0  0  0
   -2.0106    0.5080   -0.5910 C   0  0  0  0  0  0  0  0  0  0  0  0
   -2.2764    1.1290    0.2660 H   0  0  0  0  0  0  0  0  0  0  0  0
   -2.9044    0.0714   -1.0353 H   0  0  0  0  0  0  0  0  0  0  0  0
   -1.2674    1.3443   -1.6305 C   0  0  0  0  0  0  0  0  0  0  0  0
   -1.9071    2.1297   -2.0361 H   0  0  0  0  0  0  0  0  0  0  0  0
   -0.9061    0.6900   -2.4245 H   0  0  0  0  0  0  0  0  0  0  0  0
   -0.0827    1.9176   -0.8529 C   0  0  0  0  0  0  0  0  0  0  0  0
   -0.3686    2.5236    0.0091 H   0  0  0  0  0  0  0  0  0  0  0  0
    0.6903    2.4250   -1.4299 H   0  0  0  0  0  0  0  0  0  0  0  0
    0.3724    0.5200   -0.4020 C   0  0  1  0  0  0  0  0  0  0  0  0
    1.0855    0.1292   -1.1282 H   0  0  0  0  0  0  0  0  0  0  0  0
    1.0225    0.5498    0.9914 C   0  0  0  0  0  0  0  0  0  0  0  0
    0.9001   -0.4040    1.7572 O   0  0  0  0  0  0  0  0  0  0  0  0
    1.6806    1.6647    1.3313 N   0  0  0  0  0  0  0  0  0  0  0  0
    1.7876    2.3779    0.6279 H   0  0  0  0  0  0  0  0  0  0  0  0
    2.3467    1.8592    2.6171 C   0  0  0  0  0  0  0  0  0  0  0  0
    3.1719    1.1500    2.7107 H   0  0  0  0  0  0  0  0  0  0  0  0
    2.7338    2.8758    2.6932 H   0  0  0  0  0  0  0  0  0  0  0  0
    1.6404    1.6783    3.4303 H   0  0  0  0  0  0  0  0  0  0  0  0
  5  6  2  0  0  0  0
  5  7  1  0  0  0  0
  2  3  1  0  0  0  0
  2  4  1  0  0  0  0
  2  5  1  0  0  0  0
  1  2  1  0  0  0  0
 19 20  2  0  0  0  0
 19 21  1  0  0  0  0
 17 18  1  0  0  0  0
 17 19  1  0  0  0  0
 14 15  1  0  0  0  0
 14 16  1  0  0  0  0
 14 17  1  0  0  0  0
 11 12  1  0  0  0  0
 11 13  1  0  0  0  0
 11 14  1  0  0  0  0
  8  9  1  0  0  0  0
  8 10  1  0  0  0  0
  8 11  1  0  0  0  0
  7  8  1  0  0  0  0
  7 17  1  0  0  0  0
 23 24  1  0  0  0  0
 23 25  1  0  0  0  0
 23 26  1  0  0  0  0
 21 22  1  0  0  0  0
 21 23  1  0  0  0  0
M  END
$$$$
default_name
  -OEChem-01062215323D

 26 26  0     1  0  0  0  0  0999 V2000
   -1.8446   -3.5060   -0.3010 H   0  0  0  0  0  0  0  0  0  0  0  0
   -2.0746   -2.4490   -0.4240 C   0  0  0  0  0  0  0  0  0  0  0  0
   -2.6906   -2.1160    0.4090 H   0  0  0  0  0  0  0  0  0  0  0  0
   -2.5986   -2.2980   -1.3650 H   0  0  0  0  0  0  0  0  0  0  0  0
   -0.7756   -1.6630   -0.4350 C   0  0  0  0  0  0  0  0  0  0  0  0
    0.2844   -2.2800   -0.4550 O   0  0  0  0  0  0  0  0  0  0  0  0
   -0.8246   -0.3180   -0.4350 N   0  0  0  0  0  0  0  0  0  0  0  0
   -2.0106    0.5080   -0.5910 C   0  0  0  0  0  0  0  0  0  0  0  0
   -2.2764    1.1290    0.2660 H   0  0  0  0  0  0  0  0  0  0  0  0
   -2.9044    0.0714   -1.0353 H   0  0  0  0  0  0  0  0  0  0  0  0
   -1.2674    1.3443   -1.6305 C   0  0  0  0  0  0  0  0  0  0  0  0
   -1.9071    2.1297   -2.0361 H   0  0  0  0  0  0  0  0  0  0  0  0
   -0.9061    0.6900   -2.4245 H   0  0  0  0  0  0  0  0  0  0  0  0
   -0.0827    1.9176   -0.8529 C   0  0  0  0  0  0  0  0  0  0  0  0
   -0.3686    2.5236    0.0091 H   0  0  0  0  0  0  0  0  0  0  0  0
    0.6903    2.4250   -1.4299 H   0  0  0  0  0  0  0  0  0  0  0  0
    0.3724    0.5200   -0.4020 C   0  0  1  0  0  0  0  0  0  0  0  0
    1.0855    0.1292   -1.1282 H   0  0  0  0  0  0  0  0  0  0  0  0
    1.0225    0.5498    0.9914 C   0  0  0  0  0  0  0  0  0  0  0  0
    1.1408   -0.4836    1.6466 O   0  0  0  0  0  0  0  0  0  0  0  0
    1.4072    1.7443    1.4572 N   0  0  0  0  0  0  0  0  0  0  0  0
    1.3314    2.5348    0.8373 H   0  0  0  0  0  0  0  0  0  0  0  0
    2.0323    1.9486    2.7618 C   0  0  0  0  0  0  0  0  0  0  0  0
    3.0022    1.4471    2.7835 H   0  0  0  0  0  0  0  0  0  0  0  0
    2.1719    3.0131    2.9525 H   0  0  0  0  0  0  0  0  0  0  0  0
    1.4029    1.5195    3.5445 H   0  0  0  0  0  0  0  0  0  0  0  0
  5  6  2  0  0  0  0
  5  7  1  0  0  0  0
  2  3  1  0  0  0  0
  2  4  1  0  0  0  0
  2  5  1  0  0  0  0
  1  2  1  0  0  0  0
 19 20  2  0  0  0  0
 19 21  1  0  0  0  0
 17 18  1  0  0  0  0
 17 19  1  0  0  0  0
 14 15  1  0  0  0  0
 14 16  1  0  0  0  0
 14 17  1  0  0  0  0
 11 12  1  0  0  0  0
 11 13  1  0  0  0  0
 11 14  1  0  0  0  0
  8  9  1  0  0  0  0
  8 10  1  0  0  0  0
  8 11  1  0  0  0  0
  7  8  1  0  0  0  0
  7 17  1  0  0  0  0
 23 24  1  0  0  0  0
 23 25  1  0  0  0  0
 23 26  1  0  0  0  0
 21 22  1  0  0  0  0
 21 23  1  0  0  0  0
M  END
$$$$
default_name
  -OEChem-01062215323D

 26 26  0     1  0  0  0  0  0999 V2000
   -1.8446   -3.5060   -0.3010 H   0  0  0  0  0  0  0  0  0  0  0  0
   -2.0746   -2.4490   -0.4240 C   0  0  0  0  0  0  0  0  0  0  0  0
   -2.6906   -2.1160    0.4090 H   0  0  0  0  0  0  0  0  0  0  0  0
   -2.5986   -2.2980   -1.3650 H   0  0  0  0  0  0  0  0  0  0  0  0
   -0.7756   -1.6630   -0.4350 C   0  0  0  0  0  0  0  0  0  0  0  0
    0.2844   -2.2800   -0.4550 O   0  0  0  0  0  0  0  0  0  0  0  0
   -0.8246   -0.3180   -0.4350 N   0  0  0  0  0  0  0  0  0  0  0  0
   -2.0106    0.5080   -0.5910 C   0  0  0  0  0  0  0  0  0  0  0  0
   -2.2764    1.1290    0.2660 H   0  0  0  0  0  0  0  0  0  0  0  0
   -2.9044    0.0714   -1.0353 H   0  0  0  0  0  0  0  0  0  0  0  0
   -1.2674    1.3443   -1.6305 C   0  0  0  0  0  0  0  0  0  0  0  0
   -1.9071    2.1297   -2.0361 H   0  0  0  0  0  0  0  0  0  0  0  0
   -0.9061    0.6900   -2.4245 H   0  0  0  0  0  0  0  0  0  0  0  0
   -0.0827    1.9176   -0.8529 C   0  0  0  0  0  0  0  0  0  0  0  0
   -0.3686    2.5236    0.0091 H   0  0  0  0  0  0  0  0  0  0  0  0
    0.6903    2.4250   -1.4299 H   0  0  0  0  0  0  0  0  0  0  0  0
    0.3724    0.5200   -0.4020 C   0  0  1  0  0  0  0  0  0  0  0  0
    1.0855    0.1292   -1.1282 H   0  0  0  0  0  0  0  0  0  0  0  0
    1.0225    0.5498    0.9914 C   0  0  0  0  0  0  0  0  0  0  0  0
    1.3914   -0.4919    1.5299 O   0  0  0  0  0  0  0  0  0  0  0  0
    1.1251    1.7432    1.5889 N   0  0  0  0  0  0  0  0  0  0  0  0
    0.8551    2.5565    1.0591 H   0  0  0  0  0  0  0  0  0  0  0  0
    1.7084    1.9454    2.9130 C   0  0  0  0  0  0  0  0  0  0  0  0
    2.7691    1.6863    2.8872 H   0  0  0  0  0  0  0  0  0  0  0  0
    1.5982    2.9857    3.2207 H   0  0  0  0  0  0  0  0  0  0  0  0
    1.2113    1.2980    3.6387 H   0  0  0  0  0  0  0  0  0  0  0  0
  5  6  2  0  0  0  0
  5  7  1  0  0  0  0
  2  3  1  0  0  0  0
  2  4  1  0  0  0  0
  2  5  1  0  0  0  0
  1  2  1  0  0  0  0
 19 20  2  0  0  0  0
 19 21  1  0  0  0  0
 17 18  1  0  0  0  0
 17 19  1  0  0  0  0
 14 15  1  0  0  0  0
 14 16  1  0  0  0  0
 14 17  1  0  0  0  0
 11 12  1  0  0  0  0
 11 13  1  0  0  0  0
 11 14  1  0  0  0  0
  8  9  1  0  0  0  0
  8 10  1  0  0  0  0
  8 11  1  0  0  0  0
  7  8  1  0  0  0  0
  7 17  1  0  0  0  0
 23 24  1  0  0  0  0
 23 25  1  0  0  0  0
 23 26  1  0  0  0  0
 21 22  1  0  0  0  0
 21 23  1  0  0  0  0
M  END
$$$$
default_name
  -OEChem-01062215323D

 26 26  0     1  0  0  0  0  0999 V2000
   -1.8446   -3.5060   -0.3010 H   0  0  0  0  0  0  0  0  0  0  0  0
   -2.0746   -2.4490   -0.4240 C   0  0  0  0  0  0  0  0  0  0  0  0
   -2.6906   -2.1160    0.4090 H   0  0  0  0  0  0  0  0  0  0  0  0
   -2.5986   -2.2980   -1.3650 H   0  0  0  0  0  0  0  0  0  0  0  0
   -0.7756   -1.6630   -0.4350 C   0  0  0  0  0  0  0  0  0  0  0  0
    0.2844   -2.2800   -0.4550 O   0  0  0  0  0  0  0  0  0  0  0  0
   -0.8246   -0.3180   -0.4350 N   0  0  0  0  0  0  0  0  0  0  0  0
   -2.0106    0.5080   -0.5910 C   0  0  0  0  0  0  0  0  0  0  0  0
   -2.2764    1.1290    0.2660 H   0  0  0  0  0  0  0  0  0  0  0  0
   -2.9044    0.0714   -1.0353 H   0  0  0  0  0  0  0  0  0  0  0  0
   -1.2674    1.3443   -1.6305 C   0  0  0  0  0  0  0  0  0  0  0  0
   -1.9071    2.1297   -2.0361 H   0  0  0  0  0  0  0  0  0  0  0  0
   -0.9061    0.6900   -2.4245 H   0  0  0  0  0  0  0  0  0  0  0  0
   -0.0827    1.9176   -0.8529 C   0  0  0  0  0  0  0  0  0  0  0  0
   -0.3686    2.5236    0.0091 H   0  0  0  0  0  0  0  0  0  0  0  0
    0.6903    2.4250   -1.4299 H   0  0  0  0  0  0  0  0  0  0  0  0
    0.3724    0.5200   -0.4020 C   0  0  1  0  0  0  0  0  0  0  0  0
    1.0855    0.1292   -1.1282 H   0  0  0  0  0  0  0  0  0  0  0  0
    1.0225    0.5498    0.9914 C   0  0  0  0  0  0  0  0  0  0  0  0
    1.6348   -0.4284    1.4150 O   0  0  0  0  0  0  0  0  0  0  0  0
    0.8535    1.6616    1.7173 N   0  0  0  0  0  0  0  0  0  0  0  0
    0.3910    2.4414    1.2781 H   0  0  0  0  0  0  0  0  0  0  0  0
    1.3971    1.8498    3.0603 C   0  0  0  0  0  0  0  0  0  0  0  0
    2.4883    1.8514    3.0146 H   0  0  0  0  0  0  0  0  0  0  0  0
    1.0518    2.7953    3.4797 H   0  0  0  0  0  0  0  0  0  0  0  0
    1.0786    1.0288    3.7063 H   0  0  0  0  0  0  0  0  0  0  0  0
  5  6  2  0  0  0  0
  5  7  1  0  0  0  0
  2  3  1  0  0  0  0
  2  4  1  0  0  0  0
  2  5  1  0  0  0  0
  1  2  1  0  0  0  0
 19 20  2  0  0  0  0
 19 21  1  0  0  0  0
 17 18  1  0  0  0  0
 17 19  1  0  0  0  0
 14 15  1  0  0  0  0
 14 16  1  0  0  0  0
 14 17  1  0  0  0  0
 11 12  1  0  0  0  0
 11 13  1  0  0  0  0
 11 14  1  0  0  0  0
  8  9  1  0  0  0  0
  8 10  1  0  0  0  0
  8 11  1  0  0  0  0
  7  8  1  0  0  0  0
  7 17  1  0  0  0  0
 23 24  1  0  0  0  0
 23 25  1  0  0  0  0
 23 26  1  0  0  0  0
 21 22  1  0  0  0  0
 21 23  1  0  0  0  0
M  END
$$$$
default_name
  -OEChem-01062215323D

 26 26  0     1  0  0  0  0  0999 V2000
   -1.8446   -3.5060   -0.3010 H   0  0  0  0  0  0  0  0  0  0  0  0
   -2.0746   -2.4490   -0.4240 C   0  0  0  0  0  0  0  0  0  0  0  0
   -2.6906   -2.1160    0.4090 H   0  0  0  0  0  0  0  0  0  0  0  0
   -2.5986   -2.2980   -1.3650 H   0  0  0  0  0  0  0  0  0  0  0  0
   -0.7756   -1.6630   -0.4350 C   0  0  0  0  0  0  0  0  0  0  0  0
    0.2844   -2.2800   -0.4550 O   0  0  0  0  0  0  0  0  0  0  0  0
   -0.8246   -0.3180   -0.4350 N   0  0  0  0  0  0  0  0  0  0  0  0
   -2.0106    0.5080   -0.5910 C   0  0  0  0  0  0  0  0  0  0  0  0
   -2.2764    1.1290    0.2660 H   0  0  0  0  0  0  0  0  0  0  0  0
   -2.9044    0.0714   -1.0353 H   0  0  0  0  0  0  0  0  0  0  0  0
   -1.2674    1.3443   -1.6305 C   0  0  0  0  0  0  0  0  0  0  0  0
   -1.9071    2.1297   -2.0361 H   0  0  0  0  0  0  0  0  0  0  0  0
   -0.9061    0.6900   -2.4245 H   0  0  0  0  0  0  0  0  0  0  0  0
   -0.0827    1.9176   -0.8529 C   0  0  0  0  0  0  0  0  0  0  0  0
   -0.3686    2.5236    0.0091 H   0  0  0  0  0  0  0  0  0  0  0  0
    0.6903    2.4250   -1.4299 H   0  0  0  0  0  0  0  0  0  0  0  0
    0.3724    0.5200   -0.4020 C   0  0  1  0  0  0  0  0  0  0  0  0
    1.0855    0.1292   -1.1282 H   0  0  0  0  0  0  0  0  0  0  0  0
    1.0225    0.5498    0.9914 C   0  0  0  0  0  0  0  0  0  0  0  0
    1.8545   -0.2975    1.3097 O   0  0  0  0  0  0  0  0  0  0  0  0
    0.6109    1.5051    1.8338 N   0  0  0  0  0  0  0  0  0  0  0  0
   -0.0292    2.1975    1.4794 H   0  0  0  0  0  0  0  0  0  0  0  0
    1.1196    1.6683    3.1937 C   0  0  0  0  0  0  0  0  0  0  0  0
    2.1790    1.9310    3.1572 H   0  0  0  0  0  0  0  0  0  0  0  0
    0.5701    2.4549    3.7118 H   0  0  0  0  0  0  0  0  0  0  0  0
    1.0140    0.7302    3.7429 H   0  0  0  0  0  0  0  0  0  0  0  0
  5  6  2  0  0  0  0
  5  7  1  0  0  0  0
  2  3  1  0  0  0  0
  2  4  1  0  0  0  0
  2  5  1  0  0  0  0
  1  2  1  0  0  0  0
 19 20  2  0  0  0  0
 19 21  1  0  0  0  0
 17 18  1  0  0  0  0
 17 19  1  0  0  0  0
 14 15  1  0  0  0  0
 14 16  1  0  0  0  0
 14 17  1  0  0  0  0
 11 12  1  0  0  0  0
 11 13  1  0  0  0  0
 11 14  1  0  0  0  0
  8  9  1  0  0  0  0
  8 10  1  0  0  0  0
  8 11  1  0  0  0  0
  7  8  1  0  0  0  0
  7 17  1  0  0  0  0
 23 24  1  0  0  0  0
 23 25  1  0  0  0  0
 23 26  1  0  0  0  0
 21 22  1  0  0  0  0
 21 23  1  0  0  0  0
M  END
$$$$
default_name
  -OEChem-01062215323D

 26 26  0     1  0  0  0  0  0999 V2000
   -1.8446   -3.5060   -0.3010 H   0  0  0  0  0  0  0  0  0  0  0  0
   -2.0746   -2.4490   -0.4240 C   0  0  0  0  0  0  0  0  0  0  0  0
   -2.6906   -2.1160    0.4090 H   0  0  0  0  0  0  0  0  0  0  0  0
   -2.5986   -2.2980   -1.3650 H   0  0  0  0  0  0  0  0  0  0  0  0
   -0.7756   -1.6630   -0.4350 C   0  0  0  0  0  0  0  0  0  0  0  0
    0.2844   -2.2800   -0.4550 O   0  0  0  0  0  0  0  0  0  0  0  0
   -0.8246   -0.3180   -0.4350 N   0  0  0  0  0  0  0  0  0  0  0  0
   -2.0106    0.5080   -0.5910 C   0  0  0  0  0  0  0  0  0  0  0  0
   -2.2764    1.1290    0.2660 H   0  0  0  0  0  0  0  0  0  0  0  0
   -2.9044    0.0714   -1.0353 H   0  0  0  0  0  0  0  0  0  0  0  0
   -1.2674    1.3443   -1.6305 C   0  0  0  0  0  0  0  0  0  0  0  0
   -1.9071    2.1297   -2.0361 H   0  0  0  0  0  0  0  0  0  0  0  0
   -0.9061    0.6900   -2.4245 H   0  0  0  0  0  0  0  0  0  0  0  0
   -0.0827    1.9176   -0.8529 C   0  0  0  0  0  0  0  0  0  0  0  0
   -0.3686    2.5236    0.0091 H   0  0  0  0  0  0  0  0  0  0  0  0
    0.6903    2.4250   -1.4299 H   0  0  0  0  0  0  0  0  0  0  0  0
    0.3724    0.5200   -0.4020 C   0  0  1  0  0  0  0  0  0  0  0  0
    1.0855    0.1292   -1.1282 H   0  0  0  0  0  0  0  0  0  0  0  0
    1.0225    0.5498    0.9914 C   0  0  0  0  0  0  0  0  0  0  0  0
    2.0354   -0.1079    1.2212 O   0  0  0  0  0  0  0  0  0  0  0  0
    0.4140    1.2843    1.9305 N   0  0  0  0  0  0  0  0  0  0  0  0
   -0.3769    1.8414    1.6492 H   0  0  0  0  0  0  0  0  0  0  0  0
    0.8947    1.4134    3.3041 C   0  0  0  0  0  0  0  0  0  0  0  0
    1.8623    1.9198    3.3053 H   0  0  0  0  0  0  0  0  0  0  0  0
    0.1857    1.9878    3.9011 H   0  0  0  0  0  0  0  0  0  0  0  0
    1.0217    0.4226    3.7459 H   0  0  0  0  0  0  0  0  0  0  0  0
  5  6  2  0  0  0  0
  5  7  1  0  0  0  0
  2  3  1  0  0  0  0
  2  4  1  0  0  0  0
  2  5  1  0  0  0  0
  1  2  1  0  0  0  0
 19 20  2  0  0  0  0
 19 21  1  0  0  0  0
 17 18  1  0  0  0  0
 17 19  1  0  0  0  0
 14 15  1  0  0  0  0
 14 16  1  0  0  0  0
 14 17  1  0  0  0  0
 11 12  1  0  0  0  0
 11 13  1  0  0  0  0
 11 14  1  0  0  0  0
  8  9  1  0  0  0  0
  8 10  1  0  0  0  0
  8 11  1  0  0  0  0
  7  8  1  0  0  0  0
  7 17  1  0  0  0  0
 23 24  1  0  0  0  0
 23 25  1  0  0  0  0
 23 26  1  0  0  0  0
 21 22  1  0  0  0  0
 21 23  1  0  0  0  0
M  END
$$$$
default_name
  -OEChem-01062215323D

 26 26  0     1  0  0  0  0  0999 V2000
   -1.8446   -3.5060   -0.3010 H   0  0  0  0  0  0  0  0  0  0  0  0
   -2.0746   -2.4490   -0.4240 C   0  0  0  0  0  0  0  0  0  0  0  0
   -2.6906   -2.1160    0.4090 H   0  0  0  0  0  0  0  0  0  0  0  0
   -2.5986   -2.2980   -1.3650 H   0  0  0  0  0  0  0  0  0  0  0  0
   -0.7756   -1.6630   -0.4350 C   0  0  0  0  0  0  0  0  0  0  0  0
    0.2844   -2.2800   -0.4550 O   0  0  0  0  0  0  0  0  0  0  0  0
   -0.8246   -0.3180   -0.4350 N   0  0  0  0  0  0  0  0  0  0  0  0
   -2.0106    0.5080   -0.5910 C   0  0  0  0  0  0  0  0  0  0  0  0
   -2.2764    1.1290    0.2660 H   0  0  0  0  0  0  0  0  0  0  0  0
   -2.9044    0.0714   -1.0353 H   0  0  0  0  0  0  0  0  0  0  0  0
   -1.2674    1.3443   -1.6305 C   0  0  0  0  0  0  0  0  0  0  0  0
   -1.9071    2.1297   -2.0361 H   0  0  0  0  0  0  0  0  0  0  0  0
   -0.9061    0.6900   -2.4245 H   0  0  0  0  0  0  0  0  0  0  0  0
   -0.0827    1.9176   -0.8529 C   0  0  0  0  0  0  0  0  0  0  0  0
   -0.3686    2.5236    0.0091 H   0  0  0  0  0  0  0  0  0  0  0  0
    0.6903    2.4250   -1.4299 H   0  0  0  0  0  0  0  0  0  0  0  0
    0.3724    0.5200   -0.4020 C   0  0  1  0  0  0  0  0  0  0  0  0
    1.0855    0.1292   -1.1282 H   0  0  0  0  0  0  0  0  0  0  0  0
    1.0225    0.5498    0.9914 C   0  0  0  0  0  0  0  0  0  0  0  0
    2.1653    0.1273    1.1556 O   0  0  0  0  0  0  0  0  0  0  0  0
    0.2759    1.0142    2.0007 N   0  0  0  0  0  0  0  0  0  0  0  0
   -0.6283    1.3973    1.7760 H   0  0  0  0  0  0  0  0  0  0  0  0
    0.7378    1.1023    3.3839 C   0  0  0  0  0  0  0  0  0  0  0  0
    1.5597    1.8185    3.4486 H   0  0  0  0  0  0  0  0  0  0  0  0
   -0.0751    1.4257    4.0348 H   0  0  0  0  0  0  0  0  0  0  0  0
    1.1013    0.1271    3.7151 H   0  0  0  0  0  0  0  0  0  0  0  0
  5  6  2  0  0  0  0
  5  7  1  0  0  0  0
  2  3  1  0  0  0  0
  2  4  1  0  0  0  0
  2  5  1  0  0  0  0
  1  2  1  0  0  0  0
 19 20  2  0  0  0  0
 19 21  1  0  0  0  0
 17 18  1  0  0  0  0
 17 19  1  0  0  0  0
 14 15  1  0  0  0  0
 14 16  1  0  0  0  0
 14 17  1  0  0  0  0
 11 12  1  0  0  0  0
 11 13  1  0  0  0  0
 11 14  1  0  0  0  0
  8  9  1  0  0  0  0
  8 10  1  0  0  0  0
  8 11  1  0  0  0  0
  7  8  1  0  0  0  0
  7 17  1  0  0  0  0
 23 24  1  0  0  0  0
 23 25  1  0  0  0  0
 23 26  1  0  0  0  0
 21 22  1  0  0  0  0
 21 23  1  0  0  0  0
M  END
$$$$
default_name
  -OEChem-01062215323D

 26 26  0     1  0  0  0  0  0999 V2000
   -1.8446   -3.5060   -0.3010 H   0  0  0  0  0  0  0  0  0  0  0  0
   -2.0746   -2.4490   -0.4240 C   0  0  0  0  0  0  0  0  0  0  0  0
   -2.6906   -2.1160    0.4090 H   0  0  0  0  0  0  0  0  0  0  0  0
   -2.5986   -2.2980   -1.3650 H   0  0  0  0  0  0  0  0  0  0  0  0
   -0.7756   -1.6630   -0.4350 C   0  0  0  0  0  0  0  0  0  0  0  0
    0.2844   -2.2800   -0.4550 O   0  0  0  0  0  0  0  0  0  0  0  0
   -0.8246   -0.3180   -0.4350 N   0  0  0  0  0  0  0  0  0  0  0  0
   -2.0106    0.5080   -0.5910 C   0  0  0  0  0  0  0  0  0  0  0  0
   -2.2764    1.1290    0.2660 H   0  0  0  0  0  0  0  0  0  0  0  0
   -2.9044    0.0714   -1.0353 H   0  0  0  0  0  0  0  0  0  0  0  0
   -1.2674    1.3443   -1.6305 C   0  0  0  0  0  0  0  0  0  0  0  0
   -1.9071    2.1297   -2.0361 H   0  0  0  0  0  0  0  0  0  0  0  0
   -0.9061    0.6900   -2.4245 H   0  0  0  0  0  0  0  0  0  0  0  0
   -0.0827    1.9176   -0.8529 C   0  0  0  0  0  0  0  0  0  0  0  0
   -0.3686    2.5236    0.0091 H   0  0  0  0  0  0  0  0  0  0  0  0
    0.6903    2.4250   -1.4299 H   0  0  0  0  0  0  0  0  0  0  0  0
    0.3724    0.5200   -0.4020 C   0  0  1  0  0  0  0  0  0  0  0  0
    1.0855    0.1292   -1.1282 H   0  0  0  0  0  0  0  0  0  0  0  0
    1.0225    0.5498    0.9914 C   0  0  0  0  0  0  0  0  0  0  0  0
    2.2352    0.3921    1.1172 O   0  0  0  0  0  0  0  0  0  0  0  0
    0.2063    0.7133    2.0396 N   0  0  0  0  0  0  0  0  0  0  0  0
   -0.7664    0.8954    1.8512 H   0  0  0  0  0  0  0  0  0  0  0  0
    0.6596    0.7563    3.4278 C   0  0  0  0  0  0  0  0  0  0  0  0
    1.2919    1.6341    3.5775 H   0  0  0  0  0  0  0  0  0  0  0  0
   -0.1945    0.8070    4.1038 H   0  0  0  0  0  0  0  0  0  0  0  0
    1.2474   -0.1364    3.6526 H   0  0  0  0  0  0  0  0  0  0  0  0
  5  6  2  0  0  0  0
  5  7  1  0  0  0  0
  2  3  1  0  0  0  0
  2  4  1  0  0  0  0
  2  5  1  0  0  0  0
  1  2  1  0  0  0  0
 19 20  2  0  0  0  0
 19 21  1  0  0  0  0
 17 18  1  0  0  0  0
 17 19  1  0  0  0  0
 14 15  1  0  0  0  0
 14 16  1  0  0  0  0
 14 17  1  0  0  0  0
 11 12  1  0  0  0  0
 11 13  1  0  0  0  0
 11 14  1  0  0  0  0
  8  9  1  0  0  0  0
  8 10  1  0  0  0  0
  8 11  1  0  0  0  0
  7  8  1  0  0  0  0
  7 17  1  0  0  0  0
 23 24  1  0  0  0  0
 23 25  1  0  0  0  0
 23 26  1  0  0  0  0
 21 22  1  0  0  0  0
 21 23  1  0  0  0  0
M  END
$$$$
default_name
  -OEChem-01062215323D

 26 26  0     1  0  0  0  0  0999 V2000
   -1.8446   -3.5060   -0.3010 H   0  0  0  0  0  0  0  0  0  0  0  0
   -2.0746   -2.4490   -0.4240 C   0  0  0  0  0  0  0  0  0  0  0  0
   -2.6906   -2.1160    0.4090 H   0  0  0  0  0  0  0  0  0  0  0  0
   -2.5986   -2.2980   -1.3650 H   0  0  0  0  0  0  0  0  0  0  0  0
   -0.7756   -1.6630   -0.4350 C   0  0  0  0  0  0  0  0  0  0  0  0
    0.2844   -2.2800   -0.4550 O   0  0  0  0  0  0  0  0  0  0  0  0
   -0.8246   -0.3180   -0.4350 N   0  0  0  0  0  0  0  0  0  0  0  0
   -2.0106    0.5080   -0.5910 C   0  0  0  0  0  0  0  0  0  0  0  0
   -2.2764    1.1290    0.2660 H   0  0  0  0  0  0  0  0  0  0  0  0
   -2.9044    0.0714   -1.0353 H   0  0  0  0  0  0  0  0  0  0  0  0
   -1.2674    1.3443   -1.6305 C   0  0  0  0  0  0  0  0  0  0  0  0
   -1.9071    2.1297   -2.0361 H   0  0  0  0  0  0  0  0  0  0  0  0
   -0.9061    0.6900   -2.4245 H   0  0  0  0  0  0  0  0  0  0  0  0
   -0.0827    1.9176   -0.8529 C   0  0  0  0  0  0  0  0  0  0  0  0
   -0.3686    2.5236    0.0091 H   0  0  0  0  0  0  0  0  0  0  0  0
    0.6903    2.4250   -1.4299 H   0  0  0  0  0  0  0  0  0  0  0  0
    0.3724    0.5200   -0.4020 C   0  0  1  0  0  0  0  0  0  0  0  0
    1.0855    0.1292   -1.1282 H   0  0  0  0  0  0  0  0  0  0  0  0
    1.0225    0.5498    0.9914 C   0  0  0  0  0  0  0  0  0  0  0  0
    2.2405    0.6685    1.1089 O   0  0  0  0  0  0  0  0  0  0  0  0
    0.2098    0.4020    2.0446 N   0  0  0  0  0  0  0  0  0  0  0  0
   -0.7818    0.3701    1.8696 H   0  0  0  0  0  0  0  0  0  0  0  0
    0.6654    0.3989    3.4328 C   0  0  0  0  0  0  0  0  0  0  0  0
    1.0772    1.3790    3.6831 H   0  0  0  0  0  0  0  0  0  0  0  0
   -0.1645    0.1738    4.1033 H   0  0  0  0  0  0  0  0  0  0  0  0
    1.4499   -0.3498    3.5627 H   0  0  0  0  0  0  0  0  0  0  0  0
  5  6  2  0  0  0  0
  5  7  1  0  0  0  0
  2  3  1  0  0  0  0
  2  4  1  0  0  0  0
  2  5  1  0  0  0  0
  1  2  1  0  0  0  0
 19 20  2  0  0  0  0
 19 21  1  0  0  0  0
 17 18  1  0  0  0  0
 17 19  1  0  0  0  0
 14 15  1  0  0  0  0
 14 16  1  0  0  0  0
 14 17  1  0  0  0  0
 11 12  1  0  0  0  0
 11 13  1  0  0  0  0
 11 14  1  0  0  0  0
  8  9  1  0  0  0  0
  8 10  1  0  0  0  0
  8 11  1  0  0  0  0
  7  8  1  0  0  0  0
  7 17  1  0  0  0  0
 23 24  1  0  0  0  0
 23 25  1  0  0  0  0
 23 26  1  0  0  0  0
 21 22  1  0  0  0  0
 21 23  1  0  0  0  0
M  END
$$$$
default_name
  -OEChem-01062215323D

 26 26  0     1  0  0  0  0  0999 V2000
   -1.8446   -3.5060   -0.3010 H   0  0  0  0  0  0  0  0  0  0  0  0
   -2.0746   -2.4490   -0.4240 C   0  0  0  0  0  0  0  0  0  0  0  0
   -2.6906   -2.1160    0.4090 H   0  0  0  0  0  0  0  0  0  0  0  0
   -2.5986   -2.2980   -1.3650 H   0  0  0  0  0  0  0  0  0  0  0  0
   -0.7756   -1.6630   -0.4350 C   0  0  0  0  0  0  0  0  0  0  0  0
    0.2844   -2.2800   -0.4550 O   0  0  0  0  0  0  0  0  0  0  0  0
   -0.8246   -0.3180   -0.4350 N   0  0  0  0  0  0  0  0  0  0  0  0
   -2.0106    0.5080   -0.5910 C   0  0  0  0  0  0  0  0  0  0  0  0
   -2.2764    1.1290    0.2660 H   0  0  0  0  0  0  0  0  0  0  0  0
   -2.9044    0.0714   -1.0353 H   0  0  0  0  0  0  0  0  0  0  0  0
   -1.2674    1.3443   -1.6305 C   0  0  0  0  0  0  0  0  0  0  0  0
   -1.9071    2.1297   -2.0361 H   0  0  0  0  0  0  0  0  0  0  0  0
   -0.9061    0.6900   -2.4245 H   0  0  0  0  0  0  0  0  0  0  0  0
   -0.0827    1.9176   -0.8529 C   0  0  0  0  0  0  0  0  0  0  0  0
   -0.3686    2.5236    0.0091 H   0  0  0  0  0  0  0  0  0  0  0  0
    0.6903    2.4250   -1.4299 H   0  0  0  0  0  0  0  0  0  0  0  0
    0.3724    0.5200   -0.4020 C   0  0  1  0  0  0  0  0  0  0  0  0
    1.0855    0.1292   -1.1282 H   0  0  0  0  0  0  0  0  0  0  0  0
    1.0225    0.5498    0.9914 C   0  0  0  0  0  0  0  0  0  0  0  0
    2.1807    0.9376    1.1310 O   0  0  0  0  0  0  0  0  0  0  0  0
    0.2862    0.1016    2.0154 N   0  0  0  0  0  0  0  0  0  0  0  0
   -0.6733   -0.1430    1.8300 H   0  0  0  0  0  0  0  0  0  0  0  0
    0.7549    0.0546    3.3984 C   0  0  0  0  0  0  0  0  0  0  0  0
    0.9301    1.0707    3.7584 H   0  0  0  0  0  0  0  0  0  0  0  0
    0.0131   -0.4306    4.0335 H   0  0  0  0  0  0  0  0  0  0  0  0
    1.6951   -0.4986    3.4514 H   0  0  0  0  0  0  0  0  0  0  0  0
  5  6  2  0  0  0  0
  5  7  1  0  0  0  0
  2  3  1  0  0  0  0
  2  4  1  0  0  0  0
  2  5  1  0  0  0  0
  1  2  1  0  0  0  0
 19 20  2  0  0  0  0
 19 21  1  0  0  0  0
 17 18  1  0  0  0  0
 17 19  1  0  0  0  0
 14 15  1  0  0  0  0
 14 16  1  0  0  0  0
 14 17  1  0  0  0  0
 11 12  1  0  0  0  0
 11 13  1  0  0  0  0
 11 14  1  0  0  0  0
  8  9  1  0  0  0  0
  8 10  1  0  0  0  0
  8 11  1  0  0  0  0
  7  8  1  0  0  0  0
  7 17  1  0  0  0  0
 23 24  1  0  0  0  0
 23 25  1  0  0  0  0
 23 26  1  0  0  0  0
 21 22  1  0  0  0  0
 21 23  1  0  0  0  0
M  END
$$$$
default_name
  -OEChem-01062215323D

 26 26  0     1  0  0  0  0  0999 V2000
   -1.8446   -3.5060   -0.3010 H   0  0  0  0  0  0  0  0  0  0  0  0
   -2.0746   -2.4490   -0.4240 C   0  0  0  0  0  0  0  0  0  0  0  0
   -2.6906   -2.1160    0.4090 H   0  0  0  0  0  0  0  0  0  0  0  0
   -2.5986   -2.2980   -1.3650 H   0  0  0  0  0  0  0  0  0  0  0  0
   -0.7756   -1.6630   -0.4350 C   0  0  0  0  0  0  0  0  0  0  0  0
    0.2844   -2.2800   -0.4550 O   0  0  0  0  0  0  0  0  0  0  0  0
   -0.8246   -0.3180   -0.4350 N   0  0  0  0  0  0  0  0  0  0  0  0
   -2.0106    0.5080   -0.5910 C   0  0  0  0  0  0  0  0  0  0  0  0
   -2.2764    1.1290    0.2660 H   0  0  0  0  0  0  0  0  0  0  0  0
   -2.9044    0.0714   -1.0353 H   0  0  0  0  0  0  0  0  0  0  0  0
   -1.2674    1.3443   -1.6305 C   0  0  0  0  0  0  0  0  0  0  0  0
   -1.9071    2.1297   -2.0361 H   0  0  0  0  0  0  0  0  0  0  0  0
   -0.9061    0.6900   -2.4245 H   0  0  0  0  0  0  0  0  0  0  0  0
   -0.0827    1.9176   -0.8529 C   0  0  0  0  0  0  0  0  0  0  0  0
   -0.3686    2.5236    0.0091 H   0  0  0  0  0  0  0  0  0  0  0  0
    0.6903    2.4250   -1.4299 H   0  0  0  0  0  0  0  0  0  0  0  0
    0.3724    0.5200   -0.4020 C   0  0  1  0  0  0  0  0  0  0  0  0
    1.0855    0.1292   -1.1282 H   0  0  0  0  0  0  0  0  0  0  0  0
    1.0225    0.5498    0.9914 C   0  0  0  0  0  0  0  0  0  0  0  0
    2.0600    1.1812    1.1821 O   0  0  0  0  0  0  0  0  0  0  0  0
    0.4303   -0.1674    1.9539 N   0  0  0  0  0  0  0  0  0  0  0  0
   -0.4484   -0.6088    1.7351 H   0  0  0  0  0  0  0  0  0  0  0  0
    0.9219   -0.2533    3.3271 C   0  0  0  0  0  0  0  0  0  0  0  0
    0.8607    0.7301    3.7980 H   0  0  0  0  0  0  0  0  0  0  0  0
    0.3260   -0.9653    3.8989 H   0  0  0  0  0  0  0  0  0  0  0  0
    1.9664   -0.5727    3.3265 H   0  0  0  0  0  0  0  0  0  0  0  0
  5  6  2  0  0  0  0
  5  7  1  0  0  0  0
  2  3  1  0  0  0  0
  2  4  1  0  0  0  0
  2  5  1  0  0  0  0
  1  2  1  0  0  0  0
 19 20  2  0  0  0  0
 19 21  1  0  0  0  0
 17 18  1  0  0  0  0
 17 19  1  0  0  0  0
 14 15  1  0  0  0  0
 14 16  1  0  0  0  0
 14 17  1  0  0  0  0
 11 12  1  0  0  0  0
 11 13  1  0  0  0  0
 11 14  1  0  0  0  0
  8  9  1  0  0  0  0
  8 10  1  0  0  0  0
  8 11  1  0  0  0  0
  7  8  1  0  0  0  0
  7 17  1  0  0  0  0
 23 24  1  0  0  0  0
 23 25  1  0  0  0  0
 23 26  1  0  0  0  0
 21 22  1  0  0  0  0
 21 23  1  0  0  0  0
M  END
$$$$
default_name
  -OEChem-01062215323D

 26 26  0     1  0  0  0  0  0999 V2000
   -1.8446   -3.5060   -0.3010 H   0  0  0  0  0  0  0  0  0  0  0  0
   -2.0746   -2.4490   -0.4240 C   0  0  0  0  0  0  0  0  0  0  0  0
   -2.6906   -2.1160    0.4090 H   0  0  0  0  0  0  0  0  0  0  0  0
   -2.5986   -2.2980   -1.3650 H   0  0  0  0  0  0  0  0  0  0  0  0
   -0.7756   -1.6630   -0.4350 C   0  0  0  0  0  0  0  0  0  0  0  0
    0.2844   -2.2800   -0.4550 O   0  0  0  0  0  0  0  0  0  0  0  0
   -0.8246   -0.3180   -0.4350 N   0  0  0  0  0  0  0  0  0  0  0  0
   -2.0106    0.5080   -0.5910 C   0  0  0  0  0  0  0  0  0  0  0  0
   -2.2764    1.1290    0.2660 H   0  0  0  0  0  0  0  0  0  0  0  0
   -2.9044    0.0714   -1.0353 H   0  0  0  0  0  0  0  0  0  0  0  0
   -1.2674    1.3443   -1.6305 C   0  0  0  0  0  0  0  0  0  0  0  0
   -1.9071    2.1297   -2.0361 H   0  0  0  0  0  0  0  0  0  0  0  0
   -0.9061    0.6900   -2.4245 H   0  0  0  0  0  0  0  0  0  0  0  0
   -0.0827    1.9176   -0.8529 C   0  0  0  0  0  0  0  0  0  0  0  0
   -0.3686    2.5236    0.0091 H   0  0  0  0  0  0  0  0  0  0  0  0
    0.6903    2.4250   -1.4299 H   0  0  0  0  0  0  0  0  0  0  0  0
    0.3724    0.5200   -0.4020 C   0  0  1  0  0  0  0  0  0  0  0  0
    1.0855    0.1292   -1.1282 H   0  0  0  0  0  0  0  0  0  0  0  0
    1.0225    0.5498    0.9914 C   0  0  0  0  0  0  0  0  0  0  0  0
    1.8866    1.3825    1.2587 O   0  0  0  0  0  0  0  0  0  0  0  0
    0.6323   -0.3867    1.8644 N   0  0  0  0  0  0  0  0  0  0  0  0
   -0.1224   -0.9956    1.5913 H   0  0  0  0  0  0  0  0  0  0  0  0
    1.1550   -0.5037    3.2237 C   0  0  0  0  0  0  0  0  0  0  0  0
    0.8737    0.3806    3.7995 H   0  0  0  0  0  0  0  0  0  0  0  0
    0.7529   -1.3936    3.7089 H   0  0  0  0  0  0  0  0  0  0  0  0
    2.2451   -0.5669    3.1963 H   0  0  0  0  0  0  0  0  0  0  0  0
  5  6  2  0  0  0  0
  5  7  1  0  0  0  0
  2  3  1  0  0  0  0
  2  4  1  0  0  0  0
  2  5  1  0  0  0  0
  1  2  1  0  0  0  0
 19 20  2  0  0  0  0
 19 21  1  0  0  0  0
 17 18  1  0  0  0  0
 17 19  1  0  0  0  0
 14 15  1  0  0  0  0
 14 16  1  0  0  0  0
 14 17  1  0  0  0  0
 11 12  1  0  0  0  0
 11 13  1  0  0  0  0
 11 14  1  0  0  0  0
  8  9  1  0  0  0  0
  8 10  1  0  0  0  0
  8 11  1  0  0  0  0
  7  8  1  0  0  0  0
  7 17  1  0  0  0  0
 23 24  1  0  0  0  0
 23 25  1  0  0  0  0
 23 26  1  0  0  0  0
 21 22  1  0  0  0  0
 21 23  1  0  0  0  0
M  END
$$$$
default_name
  -OEChem-01062215323D

 26 26  0     1  0  0  0  0  0999 V2000
   -1.8446   -3.5060   -0.3010 H   0  0  0  0  0  0  0  0  0  0  0  0
   -2.0746   -2.4490   -0.4240 C   0  0  0  0  0  0  0  0  0  0  0  0
   -2.6906   -2.1160    0.4090 H   0  0  0  0  0  0  0  0  0  0  0  0
   -2.5986   -2.2980   -1.3650 H   0  0  0  0  0  0  0  0  0  0  0  0
   -0.7756   -1.6630   -0.4350 C   0  0  0  0  0  0  0  0  0  0  0  0
    0.2844   -2.2800   -0.4550 O   0  0  0  0  0  0  0  0  0  0  0  0
   -0.8246   -0.3180   -0.4350 N   0  0  0  0  0  0  0  0  0  0  0  0
   -2.0106    0.5080   -0.5910 C   0  0  0  0  0  0  0  0  0  0  0  0
   -2.2764    1.1290    0.2660 H   0  0  0  0  0  0  0  0  0  0  0  0
   -2.9044    0.0714   -1.0353 H   0  0  0  0  0  0  0  0  0  0  0  0
   -1.2674    1.3443   -1.6305 C   0  0  0  0  0  0  0  0  0  0  0  0
   -1.9071    2.1297   -2.0361 H   0  0  0  0  0  0  0  0  0  0  0  0
   -0.9061    0.6900   -2.4245 H   0  0  0  0  0  0  0  0  0  0  0  0
   -0.0827    1.9176   -0.8529 C   0  0  0  0  0  0  0  0  0  0  0  0
   -0.3686    2.5236    0.0091 H   0  0  0  0  0  0  0  0  0  0  0  0
    0.6903    2.4250   -1.4299 H   0  0  0  0  0  0  0  0  0  0  0  0
    0.3724    0.5200   -0.4020 C   0  0  1  0  0  0  0  0  0  0  0  0
    1.0855    0.1292   -1.1282 H   0  0  0  0  0  0  0  0  0  0  0  0
    1.0225    0.5498    0.9914 C   0  0  0  0  0  0  0  0  0  0  0  0
    1.6722    1.5279    1.3556 O   0  0  0  0  0  0  0  0  0  0  0  0
    0.8784   -0.5415    1.7529 N   0  0  0  0  0  0  0  0  0  0  0  0
    0.2824   -1.2770    1.4084 H   0  0  0  0  0  0  0  0  0  0  0  0
    1.4385   -0.6796    3.0952 C   0  0  0  0  0  0  0  0  0  0  0  0
    0.9683    0.0459    3.7625 H   0  0  0  0  0  0  0  0  0  0  0  0
    1.2647   -1.6864    3.4764 H   0  0  0  0  0  0  0  0  0  0  0  0
    2.5123   -0.4818    3.0698 H   0  0  0  0  0  0  0  0  0  0  0  0
  5  6  2  0  0  0  0
  5  7  1  0  0  0  0
  2  3  1  0  0  0  0
  2  4  1  0  0  0  0
  2  5  1  0  0  0  0
  1  2  1  0  0  0  0
 19 20  2  0  0  0  0
 19 21  1  0  0  0  0
 17 18  1  0  0  0  0
 17 19  1  0  0  0  0
 14 15  1  0  0  0  0
 14 16  1  0  0  0  0
 14 17  1  0  0  0  0
 11 12  1  0  0  0  0
 11 13  1  0  0  0  0
 11 14  1  0  0  0  0
  8  9  1  0  0  0  0
  8 10  1  0  0  0  0
  8 11  1  0  0  0  0
  7  8  1  0  0  0  0
  7 17  1  0  0  0  0
 23 24  1  0  0  0  0
 23 25  1  0  0  0  0
 23 26  1  0  0  0  0
 21 22  1  0  0  0  0
 21 23  1  0  0  0  0
M  END
$$$$
default_name
  -OEChem-01062215323D

 26 26  0     1  0  0  0  0  0999 V2000
   -1.8446   -3.5060   -0.3010 H   0  0  0  0  0  0  0  0  0  0  0  0
   -2.0746   -2.4490   -0.4240 C   0  0  0  0  0  0  0  0  0  0  0  0
   -2.6906   -2.1160    0.4090 H   0  0  0  0  0  0  0  0  0  0  0  0
   -2.5986   -2.2980   -1.3650 H   0  0  0  0  0  0  0  0  0  0  0  0
   -0.7756   -1.6630   -0.4350 C   0  0  0  0  0  0  0  0  0  0  0  0
    0.2844   -2.2800   -0.4550 O   0  0  0  0  0  0  0  0  0  0  0  0
   -0.8246   -0.3180   -0.4350 N   0  0  0  0  0  0  0  0  0  0  0  0
   -2.0106    0.5080   -0.5910 C   0  0  0  0  0  0  0  0  0  0  0  0
   -2.2764    1.1290    0.2660 H   0  0  0  0  0  0  0  0  0  0  0  0
   -2.9044    0.0714   -1.0353 H   0  0  0  0  0  0  0  0  0  0  0  0
   -1.2674    1.3443   -1.6305 C   0  0  0  0  0  0  0  0  0  0  0  0
   -1.9071    2.1297   -2.0361 H   0  0  0  0  0  0  0  0  0  0  0  0
   -0.9061    0.6900   -2.4245 H   0  0  0  0  0  0  0  0  0  0  0  0
   -0.0827    1.9176   -0.8529 C   0  0  0  0  0  0  0  0  0  0  0  0
   -0.3686    2.5236    0.0091 H   0  0  0  0  0  0  0  0  0  0  0  0
    0.6903    2.4250   -1.4299 H   0  0  0  0  0  0  0  0  0  0  0  0
    0.3724    0.5200   -0.4020 C   0  0  1  0  0  0  0  0  0  0  0  0
    1.0855    0.1292   -1.1282 H   0  0  0  0  0  0  0  0  0  0  0  0
    1.0225    0.5498    0.9914 C   0  0  0  0  0  0  0  0  0  0  0  0
    1.4315    1.6075    1.4662 O   0  0  0  0  0  0  0  0  0  0  0  0
    1.1518   -0.6210    1.6270 N   0  0  0  0  0  0  0  0  0  0  0  0
    0.7386   -1.4339    1.1989 H   0  0  0  0  0  0  0  0  0  0  0  0
    1.7528   -0.7690    2.9504 C   0  0  0  0  0  0  0  0  0  0  0  0
    1.1379   -0.2512    3.6897 H   0  0  0  0  0  0  0  0  0  0  0  0
    1.8266   -1.8238    3.2171 H   0  0  0  0  0  0  0  0  0  0  0  0
    2.7498   -0.3231    2.9556 H   0  0  0  0  0  0  0  0  0  0  0  0
  5  6  2  0  0  0  0
  5  7  1  0  0  0  0
  2  3  1  0  0  0  0
  2  4  1  0  0  0  0
  2  5  1  0  0  0  0
  1  2  1  0  0  0  0
 19 20  2  0  0  0  0
 19 21  1  0  0  0  0
 17 18  1  0  0  0  0
 17 19  1  0  0  0  0
 14 15  1  0  0  0  0
 14 16  1  0  0  0  0
 14 17  1  0  0  0  0
 11 12  1  0  0  0  0
 11 13  1  0  0  0  0
 11 14  1  0  0  0  0
  8  9  1  0  0  0  0
  8 10  1  0  0  0  0
  8 11  1  0  0  0  0
  7  8  1  0  0  0  0
  7 17  1  0  0  0  0
 23 24  1  0  0  0  0
 23 25  1  0  0  0  0
 23 26  1  0  0  0  0
 21 22  1  0  0  0  0
 21 23  1  0  0  0  0
M  END
$$$$
default_name
  -OEChem-01062215323D

 26 26  0     1  0  0  0  0  0999 V2000
   -1.8446   -3.5060   -0.3010 H   0  0  0  0  0  0  0  0  0  0  0  0
   -2.0746   -2.4490   -0.4240 C   0  0  0  0  0  0  0  0  0  0  0  0
   -2.6906   -2.1160    0.4090 H   0  0  0  0  0  0  0  0  0  0  0  0
   -2.5986   -2.2980   -1.3650 H   0  0  0  0  0  0  0  0  0  0  0  0
   -0.7756   -1.6630   -0.4350 C   0  0  0  0  0  0  0  0  0  0  0  0
    0.2844   -2.2800   -0.4550 O   0  0  0  0  0  0  0  0  0  0  0  0
   -0.8246   -0.3180   -0.4350 N   0  0  0  0  0  0  0  0  0  0  0  0
   -2.0106    0.5080   -0.5910 C   0  0  0  0  0  0  0  0  0  0  0  0
   -2.2764    1.1290    0.2660 H   0  0  0  0  0  0  0  0  0  0  0  0
   -2.9044    0.0714   -1.0353 H   0  0  0  0  0  0  0  0  0  0  0  0
   -1.2674    1.3443   -1.6305 C   0  0  0  0  0  0  0  0  0  0  0  0
   -1.9071    2.1297   -2.0361 H   0  0  0  0  0  0  0  0  0  0  0  0
   -0.9061    0.6900   -2.4245 H   0  0  0  0  0  0  0  0  0  0  0  0
   -0.0827    1.9176   -0.8529 C   0  0  0  0  0  0  0  0  0  0  0  0
   -0.3686    2.5236    0.0091 H   0  0  0  0  0  0  0  0  0  0  0  0
    0.6903    2.4250   -1.4299 H   0  0  0  0  0  0  0  0  0  0  0  0
    0.3724    0.5200   -0.4020 C   0  0  1  0  0  0  0  0  0  0  0  0
    1.0855    0.1292   -1.1282 H   0  0  0  0  0  0  0  0  0  0  0  0
    1.0225    0.5498    0.9914 C   0  0  0  0  0  0  0  0  0  0  0  0
    1.1809    1.6158    1.5829 O   0  0  0  0  0  0  0  0  0  0  0  0
    1.4339   -0.6199    1.4954 N   0  0  0  0  0  0  0  0  0  0  0  0
    1.2149   -1.4556    0.9771 H   0  0  0  0  0  0  0  0  0  0  0  0
    2.0767   -0.7658    2.7993 C   0  0  0  0  0  0  0  0  0  0  0  0
    1.3711   -0.4904    3.5861 H   0  0  0  0  0  0  0  0  0  0  0  0
    2.4003   -1.7963    2.9489 H   0  0  0  0  0  0  0  0  0  0  0  0
    2.9414   -0.1015    2.8614 H   0  0  0  0  0  0  0  0  0  0  0  0
  5  6  2  0  0  0  0
  5  7  1  0  0  0  0
  2  3  1  0  0  0  0
  2  4  1  0  0  0  0
  2  5  1  0  0  0  0
  1  2  1  0  0  0  0
 19 20  2  0  0  0  0
 19 21  1  0  0  0  0
 17 18  1  0  0  0  0
 17 19  1  0  0  0  0
 14 15  1  0  0  0  0
 14 16  1  0  0  0  0
 14 17  1  0  0  0  0
 11 12  1  0  0  0  0
 11 13  1  0  0  0  0
 11 14  1  0  0  0  0
  8  9  1  0  0  0  0
  8 10  1  0  0  0  0
  8 11  1  0  0  0  0
  7  8  1  0  0  0  0
  7 17  1  0  0  0  0
 23 24  1  0  0  0  0
 23 25  1  0  0  0  0
 23 26  1  0  0  0  0
 21 22  1  0  0  0  0
 21 23  1  0  0  0  0
M  END
$$$$
default_name
  -OEChem-01062215323D

 26 26  0     1  0  0  0  0  0999 V2000
   -1.8446   -3.5060   -0.3010 H   0  0  0  0  0  0  0  0  0  0  0  0
   -2.0746   -2.4490   -0.4240 C   0  0  0  0  0  0  0  0  0  0  0  0
   -2.6906   -2.1160    0.4090 H   0  0  0  0  0  0  0  0  0  0  0  0
   -2.5986   -2.2980   -1.3650 H   0  0  0  0  0  0  0  0  0  0  0  0
   -0.7756   -1.6630   -0.4350 C   0  0  0  0  0  0  0  0  0  0  0  0
    0.2844   -2.2800   -0.4550 O   0  0  0  0  0  0  0  0  0  0  0  0
   -0.8246   -0.3180   -0.4350 N   0  0  0  0  0  0  0  0  0  0  0  0
   -2.0106    0.5080   -0.5910 C   0  0  0  0  0  0  0  0  0  0  0  0
   -2.2764    1.1290    0.2660 H   0  0  0  0  0  0  0  0  0  0  0  0
   -2.9044    0.0714   -1.0353 H   0  0  0  0  0  0  0  0  0  0  0  0
   -1.2674    1.3443   -1.6305 C   0  0  0  0  0  0  0  0  0  0  0  0
   -1.9071    2.1297   -2.0361 H   0  0  0  0  0  0  0  0  0  0  0  0
   -0.9061    0.6900   -2.4245 H   0  0  0  0  0  0  0  0  0  0  0  0
   -0.0827    1.9176   -0.8529 C   0  0  0  0  0  0  0  0  0  0  0  0
   -0.3686    2.5236    0.0091 H   0  0  0  0  0  0  0  0  0  0  0  0
    0.6903    2.4250   -1.4299 H   0  0  0  0  0  0  0  0  0  0  0  0
    0.3724    0.5200   -0.4020 C   0  0  1  0  0  0  0  0  0  0  0  0
    1.0855    0.1292   -1.1282 H   0  0  0  0  0  0  0  0  0  0  0  0
    1.0225    0.5498    0.9914 C   0  0  0  0  0  0  0  0  0  0  0  0
    0.9375    1.5523    1.6979 O   0  0  0  0  0  0  0  0  0  0  0  0
    1.7055   -0.5384    1.3669 N   0  0  0  0  0  0  0  0  0  0  0  0
    1.6790   -1.3406    0.7582 H   0  0  0  0  0  0  0  0  0  0  0  0
    2.3880   -0.6702    2.6520 C   0  0  0  0  0  0  0  0  0  0  0  0
    1.6519   -0.6555    3.4586 H   0  0  0  0  0  0  0  0  0  0  0  0
    2.9467   -1.6059    2.6899 H   0  0  0  0  0  0  0  0  0  0  0  0
    3.0741    0.1677    2.7938 H   0  0  0  0  0  0  0  0  0  0  0  0
  5  6  2  0  0  0  0
  5  7  1  0  0  0  0
  2  3  1  0  0  0  0
  2  4  1  0  0  0  0
  2  5  1  0  0  0  0
  1  2  1  0  0  0  0
 19 20  2  0  0  0  0
 19 21  1  0  0  0  0
 17 18  1  0  0  0  0
 17 19  1  0  0  0  0
 14 15  1  0  0  0  0
 14 16  1  0  0  0  0
 14 17  1  0  0  0  0
 11 12  1  0  0  0  0
 11 13  1  0  0  0  0
 11 14  1  0  0  0  0
  8  9  1  0  0  0  0
  8 10  1  0  0  0  0
  8 11  1  0  0  0  0
  7  8  1  0  0  0  0
  7 17  1  0  0  0  0
 23 24  1  0  0  0  0
 23 25  1  0  0  0  0
 23 26  1  0  0  0  0
 21 22  1  0  0  0  0
 21 23  1  0  0  0  0
M  END
$$$$
default_name
  -OEChem-01062215323D

 26 26  0     1  0  0  0  0  0999 V2000
   -1.8446   -3.5060   -0.3010 H   0  0  0  0  0  0  0  0  0  0  0  0
   -2.0746   -2.4490   -0.4240 C   0  0  0  0  0  0  0  0  0  0  0  0
   -2.6906   -2.1160    0.4090 H   0  0  0  0  0  0  0  0  0  0  0  0
   -2.5986   -2.2980   -1.3650 H   0  0  0  0  0  0  0  0  0  0  0  0
   -0.7756   -1.6630   -0.4350 C   0  0  0  0  0  0  0  0  0  0  0  0
    0.2844   -2.2800   -0.4550 O   0  0  0  0  0  0  0  0  0  0  0  0
   -0.8246   -0.3180   -0.4350 N   0  0  0  0  0  0  0  0  0  0  0  0
   -2.0106    0.5080   -0.5910 C   0  0  0  0  0  0  0  0  0  0  0  0
   -2.2764    1.1290    0.2660 H   0  0  0  0  0  0  0  0  0  0  0  0
   -2.9044    0.0714   -1.0353 H   0  0  0  0  0  0  0  0  0  0  0  0
   -1.2674    1.3443   -1.6305 C   0  0  0  0  0  0  0  0  0  0  0  0
   -1.9071    2.1297   -2.0361 H   0  0  0  0  0  0  0  0  0  0  0  0
   -0.9061    0.6900   -2.4245 H   0  0  0  0  0  0  0  0  0  0  0  0
   -0.0827    1.9176   -0.8529 C   0  0  0  0  0  0  0  0  0  0  0  0
   -0.3686    2.5236    0.0091 H   0  0  0  0  0  0  0  0  0  0  0  0
    0.6903    2.4250   -1.4299 H   0  0  0  0  0  0  0  0  0  0  0  0
    0.3724    0.5200   -0.4020 C   0  0  1  0  0  0  0  0  0  0  0  0
    1.0855    0.1292   -1.1282 H   0  0  0  0  0  0  0  0  0  0  0  0
    1.0225    0.5498    0.9914 C   0  0  0  0  0  0  0  0  0  0  0  0
    0.7178    1.4214    1.8032 O   0  0  0  0  0  0  0  0  0  0  0  0
    1.9480   -0.3818    1.2504 N   0  0  0  0  0  0  0  0  0  0  0  0
    2.0992   -1.0967    0.5569 H   0  0  0  0  0  0  0  0  0  0  0  0
    2.6656   -0.4888    2.5186 C   0  0  0  0  0  0  0  0  0  0  0  0
    1.9612   -0.7351    3.3160 H   0  0  0  0  0  0  0  0  0  0  0  0
    3.4284   -1.2656    2.4578 H   0  0  0  0  0  0  0  0  0  0  0  0
    3.1387    0.4663    2.7572 H   0  0  0  0  0  0  0  0  0  0  0  0
  5  6  2  0  0  0  0
  5  7  1  0  0  0  0
  2  3  1  0  0  0  0
  2  4  1  0  0  0  0
  2  5  1  0  0  0  0
  1  2  1  0  0  0  0
 19 20  2  0  0  0  0
 19 21  1  0  0  0  0
 17 18  1  0  0  0  0
 17 19  1  0  0  0  0
 14 15  1  0  0  0  0
 14 16  1  0  0  0  0
 14 17  1  0  0  0  0
 11 12  1  0  0  0  0
 11 13  1  0  0  0  0
 11 14  1  0  0  0  0
  8  9  1  0  0  0  0
  8 10  1  0  0  0  0
  8 11  1  0  0  0  0
  7  8  1  0  0  0  0
  7 17  1  0  0  0  0
 23 24  1  0  0  0  0
 23 25  1  0  0  0  0
 23 26  1  0  0  0  0
 21 22  1  0  0  0  0
 21 23  1  0  0  0  0
M  END
$$$$
default_name
  -OEChem-01062215323D

 26 26  0     1  0  0  0  0  0999 V2000
   -1.8446   -3.5060   -0.3010 H   0  0  0  0  0  0  0  0  0  0  0  0
   -2.0746   -2.4490   -0.4240 C   0  0  0  0  0  0  0  0  0  0  0  0
   -2.6906   -2.1160    0.4090 H   0  0  0  0  0  0  0  0  0  0  0  0
   -2.5986   -2.2980   -1.3650 H   0  0  0  0  0  0  0  0  0  0  0  0
   -0.7756   -1.6630   -0.4350 C   0  0  0  0  0  0  0  0  0  0  0  0
    0.2844   -2.2800   -0.4550 O   0  0  0  0  0  0  0  0  0  0  0  0
   -0.8246   -0.3180   -0.4350 N   0  0  0  0  0  0  0  0  0  0  0  0
   -2.0106    0.5080   -0.5910 C   0  0  0  0  0  0  0  0  0  0  0  0
   -2.2764    1.1290    0.2660 H   0  0  0  0  0  0  0  0  0  0  0  0
   -2.9044    0.0714   -1.0353 H   0  0  0  0  0  0  0  0  0  0  0  0
   -1.2674    1.3443   -1.6305 C   0  0  0  0  0  0  0  0  0  0  0  0
   -1.9071    2.1297   -2.0361 H   0  0  0  0  0  0  0  0  0  0  0  0
   -0.9061    0.6900   -2.4245 H   0  0  0  0  0  0  0  0  0  0  0  0
   -0.0827    1.9176   -0.8529 C   0  0  0  0  0  0  0  0  0  0  0  0
   -0.3686    2.5236    0.0091 H   0  0  0  0  0  0  0  0  0  0  0  0
    0.6903    2.4250   -1.4299 H   0  0  0  0  0  0  0  0  0  0  0  0
    0.3724    0.5200   -0.4020 C   0  0  1  0  0  0  0  0  0  0  0  0
    1.0855    0.1292   -1.1282 H   0  0  0  0  0  0  0  0  0  0  0  0
    1.0225    0.5498    0.9914 C   0  0  0  0  0  0  0  0  0  0  0  0
    0.5369    1.2318    1.8916 O   0  0  0  0  0  0  0  0  0  0  0  0
    2.1450   -0.1610    1.1538 N   0  0  0  0  0  0  0  0  0  0  0  0
    2.4469   -0.7405    0.3870 H   0  0  0  0  0  0  0  0  0  0  0  0
    2.8905   -0.2338    2.4082 C   0  0  0  0  0  0  0  0  0  0  0  0
    2.2779   -0.7239    3.1680 H   0  0  0  0  0  0  0  0  0  0  0  0
    3.8128   -0.7984    2.2685 H   0  0  0  0  0  0  0  0  0  0  0  0
    3.1310    0.7738    2.7542 H   0  0  0  0  0  0  0  0  0  0  0  0
  5  6  2  0  0  0  0
  5  7  1  0  0  0  0
  2  3  1  0  0  0  0
  2  4  1  0  0  0  0
  2  5  1  0  0  0  0
  1  2  1  0  0  0  0
 19 20  2  0  0  0  0
 19 21  1  0  0  0  0
 17 18  1  0  0  0  0
 17 19  1  0  0  0  0
 14 15  1  0  0  0  0
 14 16  1  0  0  0  0
 14 17  1  0  0  0  0
 11 12  1  0  0  0  0
 11 13  1  0  0  0  0
 11 14  1  0  0  0  0
  8  9  1  0  0  0  0
  8 10  1  0  0  0  0
  8 11  1  0  0  0  0
  7  8  1  0  0  0  0
  7 17  1  0  0  0  0
 23 24  1  0  0  0  0
 23 25  1  0  0  0  0
 23 26  1  0  0  0  0
 21 22  1  0  0  0  0
 21 23  1  0  0  0  0
M  END
$$$$
default_name
  -OEChem-01062215323D

 26 26  0     1  0  0  0  0  0999 V2000
   -1.8446   -3.5060   -0.3010 H   0  0  0  0  0  0  0  0  0  0  0  0
   -2.0746   -2.4490   -0.4240 C   0  0  0  0  0  0  0  0  0  0  0  0
   -2.6906   -2.1160    0.4090 H   0  0  0  0  0  0  0  0  0  0  0  0
   -2.5986   -2.2980   -1.3650 H   0  0  0  0  0  0  0  0  0  0  0  0
   -0.7756   -1.6630   -0.4350 C   0  0  0  0  0  0  0  0  0  0  0  0
    0.2844   -2.2800   -0.4550 O   0  0  0  0  0  0  0  0  0  0  0  0
   -0.8246   -0.3180   -0.4350 N   0  0  0  0  0  0  0  0  0  0  0  0
   -2.0106    0.5080   -0.5910 C   0  0  0  0  0  0  0  0  0  0  0  0
   -2.2764    1.1290    0.2660 H   0  0  0  0  0  0  0  0  0  0  0  0
   -2.9044    0.0714   -1.0353 H   0  0  0  0  0  0  0  0  0  0  0  0
   -1.2674    1.3443   -1.6305 C   0  0  0  0  0  0  0  0  0  0  0  0
   -1.9071    2.1297   -2.0361 H   0  0  0  0  0  0  0  0  0  0  0  0
   -0.9061    0.6900   -2.4245 H   0  0  0  0  0  0  0  0  0  0  0  0
   -0.0827    1.9176   -0.8529 C   0  0  0  0  0  0  0  0  0  0  0  0
   -0.3686    2.5236    0.0091 H   0  0  0  0  0  0  0  0  0  0  0  0
    0.6903    2.4250   -1.4299 H   0  0  0  0  0  0  0  0  0  0  0  0
    0.3724    0.5200   -0.4020 C   0  0  1  0  0  0  0  0  0  0  0  0
    1.0855    0.1292   -1.1282 H   0  0  0  0  0  0  0  0  0  0  0  0
    1.0225    0.5498    0.9914 C   0  0  0  0  0  0  0  0  0  0  0  0
    0.4070    0.9966    1.9573 O   0  0  0  0  0  0  0  0  0  0  0  0
    2.2830    0.1091    1.0836 N   0  0  0  0  0  0  0  0  0  0  0  0
    2.6983   -0.2964    0.2602 H   0  0  0  0  0  0  0  0  0  0  0  0
    3.0473    0.0773    2.3283 C   0  0  0  0  0  0  0  0  0  0  0  0
    2.5805   -0.6227    3.0246 H   0  0  0  0  0  0  0  0  0  0  0  0
    4.0736   -0.2364    2.1348 H   0  0  0  0  0  0  0  0  0  0  0  0
    3.0514    1.0694    2.7850 H   0  0  0  0  0  0  0  0  0  0  0  0
  5  6  2  0  0  0  0
  5  7  1  0  0  0  0
  2  3  1  0  0  0  0
  2  4  1  0  0  0  0
  2  5  1  0  0  0  0
  1  2  1  0  0  0  0
 19 20  2  0  0  0  0
 19 21  1  0  0  0  0
 17 18  1  0  0  0  0
 17 19  1  0  0  0  0
 14 15  1  0  0  0  0
 14 16  1  0  0  0  0
 14 17  1  0  0  0  0
 11 12  1  0  0  0  0
 11 13  1  0  0  0  0
 11 14  1  0  0  0  0
  8  9  1  0  0  0  0
  8 10  1  0  0  0  0
  8 11  1  0  0  0  0
  7  8  1  0  0  0  0
  7 17  1  0  0  0  0
 23 24  1  0  0  0  0
 23 25  1  0  0  0  0
 23 26  1  0  0  0  0
 21 22  1  0  0  0  0
 21 23  1  0  0  0  0
M  END
$$$$
default_name
  -OEChem-01062215323D

 26 26  0     1  0  0  0  0  0999 V2000
   -1.8446   -3.5060   -0.3010 H   0  0  0  0  0  0  0  0  0  0  0  0
   -2.0746   -2.4490   -0.4240 C   0  0  0  0  0  0  0  0  0  0  0  0
   -2.6906   -2.1160    0.4090 H   0  0  0  0  0  0  0  0  0  0  0  0
   -2.5986   -2.2980   -1.3650 H   0  0  0  0  0  0  0  0  0  0  0  0
   -0.7756   -1.6630   -0.4350 C   0  0  0  0  0  0  0  0  0  0  0  0
    0.2844   -2.2800   -0.4550 O   0  0  0  0  0  0  0  0  0  0  0  0
   -0.8246   -0.3180   -0.4350 N   0  0  0  0  0  0  0  0  0  0  0  0
   -2.0106    0.5080   -0.5910 C   0  0  0  0  0  0  0  0  0  0  0  0
   -2.2764    1.1290    0.2660 H   0  0  0  0  0  0  0  0  0  0  0  0
   -2.9044    0.0714   -1.0353 H   0  0  0  0  0  0  0  0  0  0  0  0
   -1.2674    1.3443   -1.6305 C   0  0  0  0  0  0  0  0  0  0  0  0
   -1.9071    2.1297   -2.0361 H   0  0  0  0  0  0  0  0  0  0  0  0
   -0.9061    0.6900   -2.4245 H   0  0  0  0  0  0  0  0  0  0  0  0
   -0.0827    1.9176   -0.8529 C   0  0  0  0  0  0  0  0  0  0  0  0
   -0.3686    2.5236    0.0091 H   0  0  0  0  0  0  0  0  0  0  0  0
    0.6903    2.4250   -1.4299 H   0  0  0  0  0  0  0  0  0  0  0  0
    0.3724    0.5200   -0.4020 C   0  0  1  0  0  0  0  0  0  0  0  0
    1.0855    0.1292   -1.1282 H   0  0  0  0  0  0  0  0  0  0  0  0
    1.0225    0.5498    0.9914 C   0  0  0  0  0  0  0  0  0  0  0  0
    0.3371    0.7318    1.9956 O   0  0  0  0  0  0  0  0  0  0  0  0
    2.3526    0.4100    1.0447 N   0  0  0  0  0  0  0  0  0  0  0  0
    2.8364    0.2054    0.1850 H   0  0  0  0  0  0  0  0  0  0  0  0
    3.1255    0.4233    2.2844 C   0  0  0  0  0  0  0  0  0  0  0  0
    2.8482   -0.4382    2.8957 H   0  0  0  0  0  0  0  0  0  0  0  0
    4.1930    0.3824    2.0658 H   0  0  0  0  0  0  0  0  0  0  0  0
    2.9054    1.3329    2.8475 H   0  0  0  0  0  0  0  0  0  0  0  0
  5  6  2  0  0  0  0
  5  7  1  0  0  0  0
  2  3  1  0  0  0  0
  2  4  1  0  0  0  0
  2  5  1  0  0  0  0
  1  2  1  0  0  0  0
 19 20  2  0  0  0  0
 19 21  1  0  0  0  0
 17 18  1  0  0  0  0
 17 19  1  0  0  0  0
 14 15  1  0  0  0  0
 14 16  1  0  0  0  0
 14 17  1  0  0  0  0
 11 12  1  0  0  0  0
 11 13  1  0  0  0  0
 11 14  1  0  0  0  0
  8  9  1  0  0  0  0
  8 10  1  0  0  0  0
  8 11  1  0  0  0  0
  7  8  1  0  0  0  0
  7 17  1  0  0  0  0
 23 24  1  0  0  0  0
 23 25  1  0  0  0  0
 23 26  1  0  0  0  0
 21 22  1  0  0  0  0
 21 23  1  0  0  0  0
M  END
$$$$
default_name
  -OEChem-01062215323D

 26 26  0     1  0  0  0  0  0999 V2000
   -1.8446   -3.5060   -0.3010 H   0  0  0  0  0  0  0  0  0  0  0  0
   -2.0746   -2.4490   -0.4240 C   0  0  0  0  0  0  0  0  0  0  0  0
   -2.6906   -2.1160    0.4090 H   0  0  0  0  0  0  0  0  0  0  0  0
   -2.5986   -2.2980   -1.3650 H   0  0  0  0  0  0  0  0  0  0  0  0
   -0.7756   -1.6630   -0.4350 C   0  0  0  0  0  0  0  0  0  0  0  0
    0.2844   -2.2800   -0.4550 O   0  0  0  0  0  0  0  0  0  0  0  0
   -0.8246   -0.3180   -0.4350 N   0  0  0  0  0  0  0  0  0  0  0  0
   -2.0106    0.5080   -0.5910 C   0  0  0  0  0  0  0  0  0  0  0  0
   -2.2764    1.1290    0.2660 H   0  0  0  0  0  0  0  0  0  0  0  0
   -2.9044    0.0714   -1.0353 H   0  0  0  0  0  0  0  0  0  0  0  0
   -1.2674    1.3443   -1.6305 C   0  0  0  0  0  0  0  0  0  0  0  0
   -1.9071    2.1297   -2.0361 H   0  0  0  0  0  0  0  0  0  0  0  0
   -0.9061    0.6900   -2.4245 H   0  0  0  0  0  0  0  0  0  0  0  0
   -0.0827    1.9176   -0.8529 C   0  0  0  0  0  0  0  0  0  0  0  0
   -0.3686    2.5236    0.0091 H   0  0  0  0  0  0  0  0  0  0  0  0
    0.6903    2.4250   -1.4299 H   0  0  0  0  0  0  0  0  0  0  0  0
    0.3724    0.5200   -0.4020 C   0  0  1  0  0  0  0  0  0  0  0  0
    1.0855    0.1292   -1.1282 H   0  0  0  0  0  0  0  0  0  0  0  0
    1.0225    0.5498    0.9914 C   0  0  0  0  0  0  0  0  0  0  0  0
    0.3318    0.4554    2.0040 O   0  0  0  0  0  0  0  0  0  0  0  0
    2.3491    0.7213    1.0396 N   0  0  0  0  0  0  0  0  0  0  0  0
    2.8518    0.7308    0.1666 H   0  0  0  0  0  0  0  0  0  0  0  0
    3.1197    0.7806    2.2795 C   0  0  0  0  0  0  0  0  0  0  0  0
    3.0630   -0.1831    2.7901 H   0  0  0  0  0  0  0  0  0  0  0  0
    4.1630    1.0155    2.0663 H   0  0  0  0  0  0  0  0  0  0  0  0
    2.7028    1.5463    2.9375 H   0  0  0  0  0  0  0  0  0  0  0  0
  5  6  2  0  0  0  0
  5  7  1  0  0  0  0
  2  3  1  0  0  0  0
  2  4  1  0  0  0  0
  2  5  1  0  0  0  0
  1  2  1  0  0  0  0
 19 20  2  0  0  0  0
 19 21  1  0  0  0  0
 17 18  1  0  0  0  0
 17 19  1  0  0  0  0
 14 15  1  0  0  0  0
 14 16  1  0  0  0  0
 14 17  1  0  0  0  0
 11 12  1  0  0  0  0
 11 13  1  0  0  0  0
 11 14  1  0  0  0  0
  8  9  1  0  0  0  0
  8 10  1  0  0  0  0
  8 11  1  0  0  0  0
  7  8  1  0  0  0  0
  7 17  1  0  0  0  0
 23 24  1  0  0  0  0
 23 25  1  0  0  0  0
 23 26  1  0  0  0  0
 21 22  1  0  0  0  0
 21 23  1  0  0  0  0
M  END
$$$$
default_name
  -OEChem-01062215323D

 26 26  0     1  0  0  0  0  0999 V2000
   -1.8446   -3.5060   -0.3010 H   0  0  0  0  0  0  0  0  0  0  0  0
   -2.0746   -2.4490   -0.4240 C   0  0  0  0  0  0  0  0  0  0  0  0
   -2.6906   -2.1160    0.4090 H   0  0  0  0  0  0  0  0  0  0  0  0
   -2.5986   -2.2980   -1.3650 H   0  0  0  0  0  0  0  0  0  0  0  0
   -0.7756   -1.6630   -0.4350 C   0  0  0  0  0  0  0  0  0  0  0  0
    0.2844   -2.2800   -0.4550 O   0  0  0  0  0  0  0  0  0  0  0  0
   -0.8246   -0.3180   -0.4350 N   0  0  0  0  0  0  0  0  0  0  0  0
   -2.0106    0.5080   -0.5910 C   0  0  0  0  0  0  0  0  0  0  0  0
   -2.2764    1.1290    0.2660 H   0  0  0  0  0  0  0  0  0  0  0  0
   -2.9044    0.0714   -1.0353 H   0  0  0  0  0  0  0  0  0  0  0  0
   -1.2674    1.3443   -1.6305 C   0  0  0  0  0  0  0  0  0  0  0  0
   -1.9071    2.1297   -2.0361 H   0  0  0  0  0  0  0  0  0  0  0  0
   -0.9061    0.6900   -2.4245 H   0  0  0  0  0  0  0  0  0  0  0  0
   -0.0827    1.9176   -0.8529 C   0  0  0  0  0  0  0  0  0  0  0  0
   -0.3686    2.5236    0.0091 H   0  0  0  0  0  0  0  0  0  0  0  0
    0.6903    2.4250   -1.4299 H   0  0  0  0  0  0  0  0  0  0  0  0
    0.3724    0.5200   -0.4020 C   0  0  1  0  0  0  0  0  0  0  0  0
    1.0855    0.1292   -1.1282 H   0  0  0  0  0  0  0  0  0  0  0  0
    1.0225    0.5498    0.9914 C   0  0  0  0  0  0  0  0  0  0  0  0
    0.3916    0.1863    1.9819 O   0  0  0  0  0  0  0  0  0  0  0  0
    2.2727    1.0217    1.0689 N   0  0  0  0  0  0  0  0  0  0  0  0
    2.7433    1.2438    0.2062 H   0  0  0  0  0  0  0  0  0  0  0  0
    3.0302    1.1250    2.3139 C   0  0  0  0  0  0  0  0  0  0  0  0
    3.2101    0.1252    2.7148 H   0  0  0  0  0  0  0  0  0  0  0  0
    3.9854    1.6200    2.1361 H   0  0  0  0  0  0  0  0  0  0  0  0
    2.4576    1.6951    3.0487 H   0  0  0  0  0  0  0  0  0  0  0  0
  5  6  2  0  0  0  0
  5  7  1  0  0  0  0
  2  3  1  0  0  0  0
  2  4  1  0  0  0  0
  2  5  1  0  0  0  0
  1  2  1  0  0  0  0
 19 20  2  0  0  0  0
 19 21  1  0  0  0  0
 17 18  1  0  0  0  0
 17 19  1  0  0  0  0
 14 15  1  0  0  0  0
 14 16  1  0  0  0  0
 14 17  1  0  0  0  0
 11 12  1  0  0  0  0
 11 13  1  0  0  0  0
 11 14  1  0  0  0  0
  8  9  1  0  0  0  0
  8 10  1  0  0  0  0
  8 11  1  0  0  0  0
  7  8  1  0  0  0  0
  7 17  1  0  0  0  0
 23 24  1  0  0  0  0
 23 25  1  0  0  0  0
 23 26  1  0  0  0  0
 21 22  1  0  0  0  0
 21 23  1  0  0  0  0
M  END
$$$$
default_name
  -OEChem-01062215323D

 26 26  0     1  0  0  0  0  0999 V2000
   -1.8446   -3.5060   -0.3010 H   0  0  0  0  0  0  0  0  0  0  0  0
   -2.0746   -2.4490   -0.4240 C   0  0  0  0  0  0  0  0  0  0  0  0
   -2.6906   -2.1160    0.4090 H   0  0  0  0  0  0  0  0  0  0  0  0
   -2.5986   -2.2980   -1.3650 H   0  0  0  0  0  0  0  0  0  0  0  0
   -0.7756   -1.6630   -0.4350 C   0  0  0  0  0  0  0  0  0  0  0  0
    0.2844   -2.2800   -0.4550 O   0  0  0  0  0  0  0  0  0  0  0  0
   -0.8246   -0.3180   -0.4350 N   0  0  0  0  0  0  0  0  0  0  0  0
   -2.0106    0.5080   -0.5910 C   0  0  0  0  0  0  0  0  0  0  0  0
   -2.2764    1.1290    0.2660 H   0  0  0  0  0  0  0  0  0  0  0  0
   -2.9044    0.0714   -1.0353 H   0  0  0  0  0  0  0  0  0  0  0  0
   -1.2674    1.3443   -1.6305 C   0  0  0  0  0  0  0  0  0  0  0  0
   -1.9071    2.1297   -2.0361 H   0  0  0  0  0  0  0  0  0  0  0  0
   -0.9061    0.6900   -2.4245 H   0  0  0  0  0  0  0  0  0  0  0  0
   -0.0827    1.9176   -0.8529 C   0  0  0  0  0  0  0  0  0  0  0  0
   -0.3686    2.5236    0.0091 H   0  0  0  0  0  0  0  0  0  0  0  0
    0.6903    2.4250   -1.4299 H   0  0  0  0  0  0  0  0  0  0  0  0
    0.3724    0.5200   -0.4020 C   0  0  1  0  0  0  0  0  0  0  0  0
    1.0855    0.1292   -1.1282 H   0  0  0  0  0  0  0  0  0  0  0  0
    1.0225    0.5498    0.9914 C   0  0  0  0  0  0  0  0  0  0  0  0
    0.5123   -0.0573    1.9307 O   0  0  0  0  0  0  0  0  0  0  0  0
    2.1286    1.2907    1.1303 N   0  0  0  0  0  0  0  0  0  0  0  0
    2.5184    1.7096    0.3012 H   0  0  0  0  0  0  0  0  0  0  0  0
    2.8632    1.4329    2.3852 C   0  0  0  0  0  0  0  0  0  0  0  0
    3.2795    0.4657    2.6752 H   0  0  0  0  0  0  0  0  0  0  0  0
    3.6726    2.1546    2.2707 H   0  0  0  0  0  0  0  0  0  0  0  0
    2.1864    1.7691    3.1736 H   0  0  0  0  0  0  0  0  0  0  0  0
  5  6  2  0  0  0  0
  5  7  1  0  0  0  0
  2  3  1  0  0  0  0
  2  4  1  0  0  0  0
  2  5  1  0  0  0  0
  1  2  1  0  0  0  0
 19 20  2  0  0  0  0
 19 21  1  0  0  0  0
 17 18  1  0  0  0  0
 17 19  1  0  0  0  0
 14 15  1  0  0  0  0
 14 16  1  0  0  0  0
 14 17  1  0  0  0  0
 11 12  1  0  0  0  0
 11 13  1  0  0  0  0
 11 14  1  0  0  0  0
  8  9  1  0  0  0  0
  8 10  1  0  0  0  0
  8 11  1  0  0  0  0
  7  8  1  0  0  0  0
  7 17  1  0  0  0  0
 23 24  1  0  0  0  0
 23 25  1  0  0  0  0
 23 26  1  0  0  0  0
 21 22  1  0  0  0  0
 21 23  1  0  0  0  0
M  END
$$$$
default_name
  -OEChem-01062215323D

 26 26  0     1  0  0  0  0  0999 V2000
   -1.8446   -3.5060   -0.3010 H   0  0  0  0  0  0  0  0  0  0  0  0
   -2.0746   -2.4490   -0.4240 C   0  0  0  0  0  0  0  0  0  0  0  0
   -2.6906   -2.1160    0.4090 H   0  0  0  0  0  0  0  0  0  0  0  0
   -2.5986   -2.2980   -1.3650 H   0  0  0  0  0  0  0  0  0  0  0  0
   -0.7756   -1.6630   -0.4350 C   0  0  0  0  0  0  0  0  0  0  0  0
    0.2844   -2.2800   -0.4550 O   0  0  0  0  0  0  0  0  0  0  0  0
   -0.8246   -0.3180   -0.4350 N   0  0  0  0  0  0  0  0  0  0  0  0
   -2.0106    0.5080   -0.5910 C   0  0  0  0  0  0  0  0  0  0  0  0
   -2.2764    1.1290    0.2660 H   0  0  0  0  0  0  0  0  0  0  0  0
   -2.9044    0.0714   -1.0353 H   0  0  0  0  0  0  0  0  0  0  0  0
   -1.2674    1.3443   -1.6305 C   0  0  0  0  0  0  0  0  0  0  0  0
   -1.9071    2.1297   -2.0361 H   0  0  0  0  0  0  0  0  0  0  0  0
   -0.9061    0.6900   -2.4245 H   0  0  0  0  0  0  0  0  0  0  0  0
   -0.0827    1.9176   -0.8529 C   0  0  0  0  0  0  0  0  0  0  0  0
   -0.3686    2.5236    0.0091 H   0  0  0  0  0  0  0  0  0  0  0  0
    0.6903    2.4250   -1.4299 H   0  0  0  0  0  0  0  0  0  0  0  0
    0.3724    0.5200   -0.4020 C   0  0  1  0  0  0  0  0  0  0  0  0
    1.0855    0.1292   -1.1282 H   0  0  0  0  0  0  0  0  0  0  0  0
    1.0225    0.5498    0.9914 C   0  0  0  0  0  0  0  0  0  0  0  0
    0.6857   -0.2586    1.8541 O   0  0  0  0  0  0  0  0  0  0  0  0
    1.9267    1.5100    1.2199 N   0  0  0  0  0  0  0  0  0  0  0  0
    2.1924    2.0964    0.4450 H   0  0  0  0  0  0  0  0  0  0  0  0
    2.6301    1.6833    2.4886 C   0  0  0  0  0  0  0  0  0  0  0  0
    3.2664    0.8153    2.6738 H   0  0  0  0  0  0  0  0  0  0  0  0
    3.2456    2.5830    2.4607 H   0  0  0  0  0  0  0  0  0  0  0  0
    1.9077    1.7634    3.3038 H   0  0  0  0  0  0  0  0  0  0  0  0
  5  6  2  0  0  0  0
  5  7  1  0  0  0  0
  2  3  1  0  0  0  0
  2  4  1  0  0  0  0
  2  5  1  0  0  0  0
  1  2  1  0  0  0  0
 19 20  2  0  0  0  0
 19 21  1  0  0  0  0
 17 18  1  0  0  0  0
 17 19  1  0  0  0  0
 14 15  1  0  0  0  0
 14 16  1  0  0  0  0
 14 17  1  0  0  0  0
 11 12  1  0  0  0  0
 11 13  1  0  0  0  0
 11 14  1  0  0  0  0
  8  9  1  0  0  0  0
  8 10  1  0  0  0  0
  8 11  1  0  0  0  0
  7  8  1  0  0  0  0
  7 17  1  0  0  0  0
 23 24  1  0  0  0  0
 23 25  1  0  0  0  0
 23 26  1  0  0  0  0
 21 22  1  0  0  0  0
 21 23  1  0  0  0  0
M  END
$$$$
default_name
  -OEChem-01062215323D

 26 26  0     1  0  0  0  0  0999 V2000
   -1.8446   -3.5060   -0.3010 H   0  0  0  0  0  0  0  0  0  0  0  0
   -2.0746   -2.4490   -0.4240 C   0  0  0  0  0  0  0  0  0  0  0  0
   -2.6906   -2.1160    0.4090 H   0  0  0  0  0  0  0  0  0  0  0  0
   -2.5986   -2.2980   -1.3650 H   0  0  0  0  0  0  0  0  0  0  0  0
   -0.7756   -1.6630   -0.4350 C   0  0  0  0  0  0  0  0  0  0  0  0
    0.2844   -2.2800   -0.4550 O   0  0  0  0  0  0  0  0  0  0  0  0
   -0.8246   -0.3180   -0.4350 N   0  0  0  0  0  0  0  0  0  0  0  0
   -2.0106    0.5080   -0.5910 C   0  0  0  0  0  0  0  0  0  0  0  0
   -2.2764    1.1290    0.2660 H   0  0  0  0  0  0  0  0  0  0  0  0
   -2.9044    0.0714   -1.0353 H   0  0  0  0  0  0  0  0  0  0  0  0
   -1.2674    1.3443   -1.6305 C   0  0  0  0  0  0  0  0  0  0  0  0
   -1.9071    2.1297   -2.0361 H   0  0  0  0  0  0  0  0  0  0  0  0
   -0.9061    0.6900   -2.4245 H   0  0  0  0  0  0  0  0  0  0  0  0
   -0.0827    1.9176   -0.8529 C   0  0  0  0  0  0  0  0  0  0  0  0
   -0.3686    2.5236    0.0091 H   0  0  0  0  0  0  0  0  0  0  0  0
    0.6903    2.4250   -1.4299 H   0  0  0  0  0  0  0  0  0  0  0  0
    0.3724    0.5200   -0.4020 C   0  0  1  0  0  0  0  0  0  0  0  0
    1.0855    0.1292   -1.1282 H   0  0  0  0  0  0  0  0  0  0  0  0
    1.0225    0.5498    0.9914 C   0  0  0  0  0  0  0  0  0  0  0  0
    0.9001   -0.4040    1.7572 O   0  0  0  0  0  0  0  0  0  0  0  0
    1.6806    1.6647    1.3313 N   0  0  0  0  0  0  0  0  0  0  0  0
    1.7876    2.3779    0.6279 H   0  0  0  0  0  0  0  0  0  0  0  0
    2.3467    1.8592    2.6171 C   0  0  0  0  0  0  0  0  0  0  0  0
    3.1719    1.1500    2.7107 H   0  0  0  0  0  0  0  0  0  0  0  0
    2.7338    2.8758    2.6932 H   0  0  0  0  0  0  0  0  0  0  0  0
    1.6404    1.6783    3.4303 H   0  0  0  0  0  0  0  0  0  0  0  0
  5  6  2  0  0  0  0
  5  7  1  0  0  0  0
  2  3  1  0  0  0  0
  2  4  1  0  0  0  0
  2  5  1  0  0  0  0
  1  2  1  0  0  0  0
 19 20  2  0  0  0  0
 19 21  1  0  0  0  0
 17 18  1  0  0  0  0
 17 19  1  0  0  0  0
 14 15  1  0  0  0  0
 14 16  1  0  0  0  0
 14 17  1  0  0  0  0
 11 12  1  0  0  0  0
 11 13  1  0  0  0  0
 11 14  1  0  0  0  0
  8  9  1  0  0  0  0
  8 10  1  0  0  0  0
  8 11  1  0  0  0  0
  7  8  1  0  0  0  0
  7 17  1  0  0  0  0
 23 24  1  0  0  0  0
 23 25  1  0  0  0  0
 23 26  1  0  0  0  0
 21 22  1  0  0  0  0
 21 23  1  0  0  0  0
M  END
$$$$
default_name
  -OEChem-01062215323D

 26 26  0     1  0  0  0  0  0999 V2000
   -1.8446   -3.5060   -0.3010 H   0  0  0  0  0  0  0  0  0  0  0  0
   -2.0746   -2.4490   -0.4240 C   0  0  0  0  0  0  0  0  0  0  0  0
   -2.6906   -2.1160    0.4090 H   0  0  0  0  0  0  0  0  0  0  0  0
   -2.5986   -2.2980   -1.3650 H   0  0  0  0  0  0  0  0  0  0  0  0
   -0.7756   -1.6630   -0.4350 C   0  0  0  0  0  0  0  0  0  0  0  0
    0.2844   -2.2800   -0.4550 O   0  0  0  0  0  0  0  0  0  0  0  0
   -0.8246   -0.3180   -0.4350 N   0  0  0  0  0  0  0  0  0  0  0  0
   -2.0106    0.5080   -0.5910 C   0  0  0  0  0  0  0  0  0  0  0  0
   -2.2764    1.1290    0.2660 H   0  0  0  0  0  0  0  0  0  0  0  0
   -2.9044    0.0714   -1.0353 H   0  0  0  0  0  0  0  0  0  0  0  0
   -1.2674    1.3443   -1.6305 C   0  0  0  0  0  0  0  0  0  0  0  0
   -1.9071    2.1297   -2.0361 H   0  0  0  0  0  0  0  0  0  0  0  0
   -0.9061    0.6900   -2.4245 H   0  0  0  0  0  0  0  0  0  0  0  0
   -0.0827    1.9176   -0.8529 C   0  0  0  0  0  0  0  0  0  0  0  0
   -0.3686    2.5236    0.0091 H   0  0  0  0  0  0  0  0  0  0  0  0
    0.6903    2.4250   -1.4299 H   0  0  0  0  0  0  0  0  0  0  0  0
    0.3724    0.5200   -0.4020 C   0  0  1  0  0  0  0  0  0  0  0  0
    1.0855    0.1292   -1.1282 H   0  0  0  0  0  0  0  0  0  0  0  0
    1.0225    0.5498    0.9914 C   0  0  0  0  0  0  0  0  0  0  0  0
    1.1408   -0.4836    1.6466 O   0  0  0  0  0  0  0  0  0  0  0  0
    1.4072    1.7443    1.4572 N   0  0  0  0  0  0  0  0  0  0  0  0
    1.3314    2.5348    0.8373 H   0  0  0  0  0  0  0  0  0  0  0  0
    2.0323    1.9486    2.7618 C   0  0  0  0  0  0  0  0  0  0  0  0
    3.0022    1.4471    2.7835 H   0  0  0  0  0  0  0  0  0  0  0  0
    2.1719    3.0131    2.9525 H   0  0  0  0  0  0  0  0  0  0  0  0
    1.4029    1.5195    3.5445 H   0  0  0  0  0  0  0  0  0  0  0  0
  5  6  2  0  0  0  0
  5  7  1  0  0  0  0
  2  3  1  0  0  0  0
  2  4  1  0  0  0  0
  2  5  1  0  0  0  0
  1  2  1  0  0  0  0
 19 20  2  0  0  0  0
 19 21  1  0  0  0  0
 17 18  1  0  0  0  0
 17 19  1  0  0  0  0
 14 15  1  0  0  0  0
 14 16  1  0  0  0  0
 14 17  1  0  0  0  0
 11 12  1  0  0  0  0
 11 13  1  0  0  0  0
 11 14  1  0  0  0  0
  8  9  1  0  0  0  0
  8 10  1  0  0  0  0
  8 11  1  0  0  0  0
  7  8  1  0  0  0  0
  7 17  1  0  0  0  0
 23 24  1  0  0  0  0
 23 25  1  0  0  0  0
 23 26  1  0  0  0  0
 21 22  1  0  0  0  0
 21 23  1  0  0  0  0
M  END
$$$$
default_name
  -OEChem-01062215323D

 26 26  0     1  0  0  0  0  0999 V2000
   -1.8446   -3.5060   -0.3010 H   0  0  0  0  0  0  0  0  0  0  0  0
   -2.0746   -2.4490   -0.4240 C   0  0  0  0  0  0  0  0  0  0  0  0
   -2.6906   -2.1160    0.4090 H   0  0  0  0  0  0  0  0  0  0  0  0
   -2.5986   -2.2980   -1.3650 H   0  0  0  0  0  0  0  0  0  0  0  0
   -0.7756   -1.6630   -0.4350 C   0  0  0  0  0  0  0  0  0  0  0  0
    0.2844   -2.2800   -0.4550 O   0  0  0  0  0  0  0  0  0  0  0  0
   -0.8246   -0.3180   -0.4350 N   0  0  0  0  0  0  0  0  0  0  0  0
   -2.0106    0.5080   -0.5910 C   0  0  0  0  0  0  0  0  0  0  0  0
   -2.2764    1.1290    0.2660 H   0  0  0  0  0  0  0  0  0  0  0  0
   -2.9044    0.0714   -1.0353 H   0  0  0  0  0  0  0  0  0  0  0  0
   -1.2674    1.3443   -1.6305 C   0  0  0  0  0  0  0  0  0  0  0  0
   -1.9071    2.1297   -2.0361 H   0  0  0  0  0  0  0  0  0  0  0  0
   -0.9061    0.6900   -2.4245 H   0  0  0  0  0  0  0  0  0  0  0  0
   -0.0827    1.9176   -0.8529 C   0  0  0  0  0  0  0  0  0  0  0  0
   -0.3686    2.5236    0.0091 H   0  0  0  0  0  0  0  0  0  0  0  0
    0.6903    2.4250   -1.4299 H   0  0  0  0  0  0  0  0  0  0  0  0
    0.3724    0.5200   -0.4020 C   0  0  1  0  0  0  0  0  0  0  0  0
    1.0855    0.1292   -1.1282 H   0  0  0  0  0  0  0  0  0  0  0  0
    1.0225    0.5498    0.9914 C   0  0  0  0  0  0  0  0  0  0  0  0
    1.3914   -0.4919    1.5299 O   0  0  0  0  0  0  0  0  0  0  0  0
    1.1251    1.7432    1.5889 N   0  0  0  0  0  0  0  0  0  0  0  0
    0.8551    2.5565    1.0591 H   0  0  0  0  0  0  0  0  0  0  0  0
    1.7084    1.9454    2.9130 C   0  0  0  0  0  0  0  0  0  0  0  0
    2.7691    1.6863    2.8872 H   0  0  0  0  0  0  0  0  0  0  0  0
    1.5982    2.9857    3.2207 H   0  0  0  0  0  0  0  0  0  0  0  0
    1.2113    1.2980    3.6387 H   0  0  0  0  0  0  0  0  0  0  0  0
  5  6  2  0  0  0  0
  5  7  1  0  0  0  0
  2  3  1  0  0  0  0
  2  4  1  0  0  0  0
  2  5  1  0  0  0  0
  1  2  1  0  0  0  0
 19 20  2  0  0  0  0
 19 21  1  0  0  0  0
 17 18  1  0  0  0  0
 17 19  1  0  0  0  0
 14 15  1  0  0  0  0
 14 16  1  0  0  0  0
 14 17  1  0  0  0  0
 11 12  1  0  0  0  0
 11 13  1  0  0  0  0
 11 14  1  0  0  0  0
  8  9  1  0  0  0  0
  8 10  1  0  0  0  0
  8 11  1  0  0  0  0
  7  8  1  0  0  0  0
  7 17  1  0  0  0  0
 23 24  1  0  0  0  0
 23 25  1  0  0  0  0
 23 26  1  0  0  0  0
 21 22  1  0  0  0  0
 21 23  1  0  0  0  0
M  END
$$$$
default_name
  -OEChem-01062215323D

 26 26  0     1  0  0  0  0  0999 V2000
   -1.8446   -3.5060   -0.3010 H   0  0  0  0  0  0  0  0  0  0  0  0
   -2.0746   -2.4490   -0.4240 C   0  0  0  0  0  0  0  0  0  0  0  0
   -2.6906   -2.1160    0.4090 H   0  0  0  0  0  0  0  0  0  0  0  0
   -2.5986   -2.2980   -1.3650 H   0  0  0  0  0  0  0  0  0  0  0  0
   -0.7756   -1.6630   -0.4350 C   0  0  0  0  0  0  0  0  0  0  0  0
    0.2844   -2.2800   -0.4550 O   0  0  0  0  0  0  0  0  0  0  0  0
   -0.8246   -0.3180   -0.4350 N   0  0  0  0  0  0  0  0  0  0  0  0
   -2.0106    0.5080   -0.5910 C   0  0  0  0  0  0  0  0  0  0  0  0
   -2.2764    1.1290    0.2660 H   0  0  0  0  0  0  0  0  0  0  0  0
   -2.9044    0.0714   -1.0353 H   0  0  0  0  0  0  0  0  0  0  0  0
   -1.2674    1.3443   -1.6305 C   0  0  0  0  0  0  0  0  0  0  0  0
   -1.9071    2.1297   -2.0361 H   0  0  0  0  0  0  0  0  0  0  0  0
   -0.9061    0.6900   -2.4245 H   0  0  0  0  0  0  0  0  0  0  0  0
   -0.0827    1.9176   -0.8529 C   0  0  0  0  0  0  0  0  0  0  0  0
   -0.3686    2.5236    0.0091 H   0  0  0  0  0  0  0  0  0  0  0  0
    0.6903    2.4250   -1.4299 H   0  0  0  0  0  0  0  0  0  0  0  0
    0.3724    0.5200   -0.4020 C   0  0  1  0  0  0  0  0  0  0  0  0
    1.0855    0.1292   -1.1282 H   0  0  0  0  0  0  0  0  0  0  0  0
    1.0225    0.5498    0.9914 C   0  0  0  0  0  0  0  0  0  0  0  0
    1.6348   -0.4284    1.4150 O   0  0  0  0  0  0  0  0  0  0  0  0
    0.8535    1.6616    1.7173 N   0  0  0  0  0  0  0  0  0  0  0  0
    0.3910    2.4414    1.2781 H   0  0  0  0  0  0  0  0  0  0  0  0
    1.3971    1.8498    3.0603 C   0  0  0  0  0  0  0  0  0  0  0  0
    2.4883    1.8514    3.0146 H   0  0  0  0  0  0  0  0  0  0  0  0
    1.0518    2.7953    3.4797 H   0  0  0  0  0  0  0  0  0  0  0  0
    1.0786    1.0288    3.7063 H   0  0  0  0  0  0  0  0  0  0  0  0
  5  6  2  0  0  0  0
  5  7  1  0  0  0  0
  2  3  1  0  0  0  0
  2  4  1  0  0  0  0
  2  5  1  0  0  0  0
  1  2  1  0  0  0  0
 19 20  2  0  0  0  0
 19 21  1  0  0  0  0
 17 18  1  0  0  0  0
 17 19  1  0  0  0  0
 14 15  1  0  0  0  0
 14 16  1  0  0  0  0
 14 17  1  0  0  0  0
 11 12  1  0  0  0  0
 11 13  1  0  0  0  0
 11 14  1  0  0  0  0
  8  9  1  0  0  0  0
  8 10  1  0  0  0  0
  8 11  1  0  0  0  0
  7  8  1  0  0  0  0
  7 17  1  0  0  0  0
 23 24  1  0  0  0  0
 23 25  1  0  0  0  0
 23 26  1  0  0  0  0
 21 22  1  0  0  0  0
 21 23  1  0  0  0  0
M  END
$$$$
default_name
  -OEChem-01062215323D

 26 26  0     1  0  0  0  0  0999 V2000
   -1.8446   -3.5060   -0.3010 H   0  0  0  0  0  0  0  0  0  0  0  0
   -2.0746   -2.4490   -0.4240 C   0  0  0  0  0  0  0  0  0  0  0  0
   -2.6906   -2.1160    0.4090 H   0  0  0  0  0  0  0  0  0  0  0  0
   -2.5986   -2.2980   -1.3650 H   0  0  0  0  0  0  0  0  0  0  0  0
   -0.7756   -1.6630   -0.4350 C   0  0  0  0  0  0  0  0  0  0  0  0
    0.2844   -2.2800   -0.4550 O   0  0  0  0  0  0  0  0  0  0  0  0
   -0.8246   -0.3180   -0.4350 N   0  0  0  0  0  0  0  0  0  0  0  0
   -2.0106    0.5080   -0.5910 C   0  0  0  0  0  0  0  0  0  0  0  0
   -2.2764    1.1290    0.2660 H   0  0  0  0  0  0  0  0  0  0  0  0
   -2.9044    0.0714   -1.0353 H   0  0  0  0  0  0  0  0  0  0  0  0
   -1.2674    1.3443   -1.6305 C   0  0  0  0  0  0  0  0  0  0  0  0
   -1.9071    2.1297   -2.0361 H   0  0  0  0  0  0  0  0  0  0  0  0
   -0.9061    0.6900   -2.4245 H   0  0  0  0  0  0  0  0  0  0  0  0
   -0.0827    1.9176   -0.8529 C   0  0  0  0  0  0  0  0  0  0  0  0
   -0.3686    2.5236    0.0091 H   0  0  0  0  0  0  0  0  0  0  0  0
    0.6903    2.4250   -1.4299 H   0  0  0  0  0  0  0  0  0  0  0  0
    0.3724    0.5200   -0.4020 C   0  0  1  0  0  0  0  0  0  0  0  0
    1.0855    0.1292   -1.1282 H   0  0  0  0  0  0  0  0  0  0  0  0
    1.0225    0.5498    0.9914 C   0  0  0  0  0  0  0  0  0  0  0  0
    1.8545   -0.2975    1.3097 O   0  0  0  0  0  0  0  0  0  0  0  0
    0.6109    1.5051    1.8338 N   0  0  0  0  0  0  0  0  0  0  0  0
   -0.0292    2.1975    1.4794 H   0  0  0  0  0  0  0  0  0  0  0  0
    1.1196    1.6683    3.1937 C   0  0  0  0  0  0  0  0  0  0  0  0
    2.1790    1.9310    3.1572 H   0  0  0  0  0  0  0  0  0  0  0  0
    0.5701    2.4549    3.7118 H   0  0  0  0  0  0  0  0  0  0  0  0
    1.0140    0.7302    3.7429 H   0  0  0  0  0  0  0  0  0  0  0  0
  5  6  2  0  0  0  0
  5  7  1  0  0  0  0
  2  3  1  0  0  0  0
  2  4  1  0  0  0  0
  2  5  1  0  0  0  0
  1  2  1  0  0  0  0
 19 20  2  0  0  0  0
 19 21  1  0  0  0  0
 17 18  1  0  0  0  0
 17 19  1  0  0  0  0
 14 15  1  0  0  0  0
 14 16  1  0  0  0  0
 14 17  1  0  0  0  0
 11 12  1  0  0  0  0
 11 13  1  0  0  0  0
 11 14  1  0  0  0  0
  8  9  1  0  0  0  0
  8 10  1  0  0  0  0
  8 11  1  0  0  0  0
  7  8  1  0  0  0  0
  7 17  1  0  0  0  0
 23 24  1  0  0  0  0
 23 25  1  0  0  0  0
 23 26  1  0  0  0  0
 21 22  1  0  0  0  0
 21 23  1  0  0  0  0
M  END
$$$$
default_name
  -OEChem-01062215323D

 26 26  0     1  0  0  0  0  0999 V2000
   -1.8446   -3.5060   -0.3010 H   0  0  0  0  0  0  0  0  0  0  0  0
   -2.0746   -2.4490   -0.4240 C   0  0  0  0  0  0  0  0  0  0  0  0
   -2.6906   -2.1160    0.4090 H   0  0  0  0  0  0  0  0  0  0  0  0
   -2.5986   -2.2980   -1.3650 H   0  0  0  0  0  0  0  0  0  0  0  0
   -0.7756   -1.6630   -0.4350 C   0  0  0  0  0  0  0  0  0  0  0  0
    0.2844   -2.2800   -0.4550 O   0  0  0  0  0  0  0  0  0  0  0  0
   -0.8246   -0.3180   -0.4350 N   0  0  0  0  0  0  0  0  0  0  0  0
   -2.0106    0.5080   -0.5910 C   0  0  0  0  0  0  0  0  0  0  0  0
   -2.2764    1.1290    0.2660 H   0  0  0  0  0  0  0  0  0  0  0  0
   -2.9044    0.0714   -1.0353 H   0  0  0  0  0  0  0  0  0  0  0  0
   -1.2674    1.3443   -1.6305 C   0  0  0  0  0  0  0  0  0  0  0  0
   -1.9071    2.1297   -2.0361 H   0  0  0  0  0  0  0  0  0  0  0  0
   -0.9061    0.6900   -2.4245 H   0  0  0  0  0  0  0  0  0  0  0  0
   -0.0827    1.9176   -0.8529 C   0  0  0  0  0  0  0  0  0  0  0  0
   -0.3686    2.5236    0.0091 H   0  0  0  0  0  0  0  0  0  0  0  0
    0.6903    2.4250   -1.4299 H   0  0  0  0  0  0  0  0  0  0  0  0
    0.3724    0.5200   -0.4020 C   0  0  1  0  0  0  0  0  0  0  0  0
    1.0855    0.1292   -1.1282 H   0  0  0  0  0  0  0  0  0  0  0  0
    1.0225    0.5498    0.9914 C   0  0  0  0  0  0  0  0  0  0  0  0
    2.0354   -0.1079    1.2212 O   0  0  0  0  0  0  0  0  0  0  0  0
    0.4140    1.2843    1.9305 N   0  0  0  0  0  0  0  0  0  0  0  0
   -0.3769    1.8414    1.6492 H   0  0  0  0  0  0  0  0  0  0  0  0
    0.8947    1.4134    3.3041 C   0  0  0  0  0  0  0  0  0  0  0  0
    1.8623    1.9198    3.3053 H   0  0  0  0  0  0  0  0  0  0  0  0
    0.1857    1.9878    3.9011 H   0  0  0  0  0  0  0  0  0  0  0  0
    1.0217    0.4226    3.7459 H   0  0  0  0  0  0  0  0  0  0  0  0
  5  6  2  0  0  0  0
  5  7  1  0  0  0  0
  2  3  1  0  0  0  0
  2  4  1  0  0  0  0
  2  5  1  0  0  0  0
  1  2  1  0  0  0  0
 19 20  2  0  0  0  0
 19 21  1  0  0  0  0
 17 18  1  0  0  0  0
 17 19  1  0  0  0  0
 14 15  1  0  0  0  0
 14 16  1  0  0  0  0
 14 17  1  0  0  0  0
 11 12  1  0  0  0  0
 11 13  1  0  0  0  0
 11 14  1  0  0  0  0
  8  9  1  0  0  0  0
  8 10  1  0  0  0  0
  8 11  1  0  0  0  0
  7  8  1  0  0  0  0
  7 17  1  0  0  0  0
 23 24  1  0  0  0  0
 23 25  1  0  0  0  0
 23 26  1  0  0  0  0
 21 22  1  0  0  0  0
 21 23  1  0  0  0  0
M  END
$$$$
default_name
  -OEChem-01062215323D

 26 26  0     1  0  0  0  0  0999 V2000
   -1.8446   -3.5060   -0.3010 H   0  0  0  0  0  0  0  0  0  0  0  0
   -2.0746   -2.4490   -0.4240 C   0  0  0  0  0  0  0  0  0  0  0  0
   -2.6906   -2.1160    0.4090 H   0  0  0  0  0  0  0  0  0  0  0  0
   -2.5986   -2.2980   -1.3650 H   0  0  0  0  0  0  0  0  0  0  0  0
   -0.7756   -1.6630   -0.4350 C   0  0  0  0  0  0  0  0  0  0  0  0
    0.2844   -2.2800   -0.4550 O   0  0  0  0  0  0  0  0  0  0  0  0
   -0.8246   -0.3180   -0.4350 N   0  0  0  0  0  0  0  0  0  0  0  0
   -2.0106    0.5080   -0.5910 C   0  0  0  0  0  0  0  0  0  0  0  0
   -2.2764    1.1290    0.2660 H   0  0  0  0  0  0  0  0  0  0  0  0
   -2.9044    0.0714   -1.0353 H   0  0  0  0  0  0  0  0  0  0  0  0
   -1.2674    1.3443   -1.6305 C   0  0  0  0  0  0  0  0  0  0  0  0
   -1.9071    2.1297   -2.0361 H   0  0  0  0  0  0  0  0  0  0  0  0
   -0.9061    0.6900   -2.4245 H   0  0  0  0  0  0  0  0  0  0  0  0
   -0.0827    1.9176   -0.8529 C   0  0  0  0  0  0  0  0  0  0  0  0
   -0.3686    2.5236    0.0091 H   0  0  0  0  0  0  0  0  0  0  0  0
    0.6903    2.4250   -1.4299 H   0  0  0  0  0  0  0  0  0  0  0  0
    0.3724    0.5200   -0.4020 C   0  0  1  0  0  0  0  0  0  0  0  0
    1.0855    0.1292   -1.1282 H   0  0  0  0  0  0  0  0  0  0  0  0
    1.0225    0.5498    0.9914 C   0  0  0  0  0  0  0  0  0  0  0  0
    2.1653    0.1273    1.1556 O   0  0  0  0  0  0  0  0  0  0  0  0
    0.2759    1.0142    2.0007 N   0  0  0  0  0  0  0  0  0  0  0  0
   -0.6283    1.3973    1.7760 H   0  0  0  0  0  0  0  0  0  0  0  0
    0.7378    1.1023    3.3839 C   0  0  0  0  0  0  0  0  0  0  0  0
    1.5597    1.8185    3.4486 H   0  0  0  0  0  0  0  0  0  0  0  0
   -0.0751    1.4257    4.0348 H   0  0  0  0  0  0  0  0  0  0  0  0
    1.1013    0.1271    3.7151 H   0  0  0  0  0  0  0  0  0  0  0  0
  5  6  2  0  0  0  0
  5  7  1  0  0  0  0
  2  3  1  0  0  0  0
  2  4  1  0  0  0  0
  2  5  1  0  0  0  0
  1  2  1  0  0  0  0
 19 20  2  0  0  0  0
 19 21  1  0  0  0  0
 17 18  1  0  0  0  0
 17 19  1  0  0  0  0
 14 15  1  0  0  0  0
 14 16  1  0  0  0  0
 14 17  1  0  0  0  0
 11 12  1  0  0  0  0
 11 13  1  0  0  0  0
 11 14  1  0  0  0  0
  8  9  1  0  0  0  0
  8 10  1  0  0  0  0
  8 11  1  0  0  0  0
  7  8  1  0  0  0  0
  7 17  1  0  0  0  0
 23 24  1  0  0  0  0
 23 25  1  0  0  0  0
 23 26  1  0  0  0  0
 21 22  1  0  0  0  0
 21 23  1  0  0  0  0
M  END
$$$$
default_name
  -OEChem-01062215323D

 26 26  0     1  0  0  0  0  0999 V2000
   -1.8446   -3.5060   -0.3010 H   0  0  0  0  0  0  0  0  0  0  0  0
   -2.0746   -2.4490   -0.4240 C   0  0  0  0  0  0  0  0  0  0  0  0
   -2.6906   -2.1160    0.4090 H   0  0  0  0  0  0  0  0  0  0  0  0
   -2.5986   -2.2980   -1.3650 H   0  0  0  0  0  0  0  0  0  0  0  0
   -0.7756   -1.6630   -0.4350 C   0  0  0  0  0  0  0  0  0  0  0  0
    0.2844   -2.2800   -0.4550 O   0  0  0  0  0  0  0  0  0  0  0  0
   -0.8246   -0.3180   -0.4350 N   0  0  0  0  0  0  0  0  0  0  0  0
   -2.0106    0.5080   -0.5910 C   0  0  0  0  0  0  0  0  0  0  0  0
   -2.2764    1.1290    0.2660 H   0  0  0  0  0  0  0  0  0  0  0  0
   -2.9044    0.0714   -1.0353 H   0  0  0  0  0  0  0  0  0  0  0  0
   -1.2674    1.3443   -1.6305 C   0  0  0  0  0  0  0  0  0  0  0  0
   -1.9071    2.1297   -2.0361 H   0  0  0  0  0  0  0  0  0  0  0  0
   -0.9061    0.6900   -2.4245 H   0  0  0  0  0  0  0  0  0  0  0  0
   -0.0827    1.9176   -0.8529 C   0  0  0  0  0  0  0  0  0  0  0  0
   -0.3686    2.5236    0.0091 H   0  0  0  0  0  0  0  0  0  0  0  0
    0.6903    2.4250   -1.4299 H   0  0  0  0  0  0  0  0  0  0  0  0
    0.3724    0.5200   -0.4020 C   0  0  1  0  0  0  0  0  0  0  0  0
    1.0855    0.1292   -1.1282 H   0  0  0  0  0  0  0  0  0  0  0  0
    1.0225    0.5498    0.9914 C   0  0  0  0  0  0  0  0  0  0  0  0
    2.2352    0.3921    1.1172 O   0  0  0  0  0  0  0  0  0  0  0  0
    0.2063    0.7133    2.0396 N   0  0  0  0  0  0  0  0  0  0  0  0
   -0.7664    0.8954    1.8512 H   0  0  0  0  0  0  0  0  0  0  0  0
    0.6596    0.7563    3.4278 C   0  0  0  0  0  0  0  0  0  0  0  0
    1.2919    1.6341    3.5775 H   0  0  0  0  0  0  0  0  0  0  0  0
   -0.1945    0.8070    4.1038 H   0  0  0  0  0  0  0  0  0  0  0  0
    1.2474   -0.1364    3.6526 H   0  0  0  0  0  0  0  0  0  0  0  0
  5  6  2  0  0  0  0
  5  7  1  0  0  0  0
  2  3  1  0  0  0  0
  2  4  1  0  0  0  0
  2  5  1  0  0  0  0
  1  2  1  0  0  0  0
 19 20  2  0  0  0  0
 19 21  1  0  0  0  0
 17 18  1  0  0  0  0
 17 19  1  0  0  0  0
 14 15  1  0  0  0  0
 14 16  1  0  0  0  0
 14 17  1  0  0  0  0
 11 12  1  0  0  0  0
 11 13  1  0  0  0  0
 11 14  1  0  0  0  0
  8  9  1  0  0  0  0
  8 10  1  0  0  0  0
  8 11  1  0  0  0  0
  7  8  1  0  0  0  0
  7 17  1  0  0  0  0
 23 24  1  0  0  0  0
 23 25  1  0  0  0  0
 23 26  1  0  0  0  0
 21 22  1  0  0  0  0
 21 23  1  0  0  0  0
M  END
$$$$
default_name
  -OEChem-01062215323D

 26 26  0     1  0  0  0  0  0999 V2000
   -1.8446   -3.5060   -0.3010 H   0  0  0  0  0  0  0  0  0  0  0  0
   -2.0746   -2.4490   -0.4240 C   0  0  0  0  0  0  0  0  0  0  0  0
   -2.6906   -2.1160    0.4090 H   0  0  0  0  0  0  0  0  0  0  0  0
   -2.5986   -2.2980   -1.3650 H   0  0  0  0  0  0  0  0  0  0  0  0
   -0.7756   -1.6630   -0.4350 C   0  0  0  0  0  0  0  0  0  0  0  0
    0.2844   -2.2800   -0.4550 O   0  0  0  0  0  0  0  0  0  0  0  0
   -0.8246   -0.3180   -0.4350 N   0  0  0  0  0  0  0  0  0  0  0  0
   -2.0106    0.5080   -0.5910 C   0  0  0  0  0  0  0  0  0  0  0  0
   -2.2764    1.1290    0.2660 H   0  0  0  0  0  0  0  0  0  0  0  0
   -2.9044    0.0714   -1.0353 H   0  0  0  0  0  0  0  0  0  0  0  0
   -1.2674    1.3443   -1.6305 C   0  0  0  0  0  0  0  0  0  0  0  0
   -1.9071    2.1297   -2.0361 H   0  0  0  0  0  0  0  0  0  0  0  0
   -0.9061    0.6900   -2.4245 H   0  0  0  0  0  0  0  0  0  0  0  0
   -0.0827    1.9176   -0.8529 C   0  0  0  0  0  0  0  0  0  0  0  0
   -0.3686    2.5236    0.0091 H   0  0  0  0  0  0  0  0  0  0  0  0
    0.6903    2.4250   -1.4299 H   0  0  0  0  0  0  0  0  0  0  0  0
    0.3724    0.5200   -0.4020 C   0  0  1  0  0  0  0  0  0  0  0  0
    1.0855    0.1292   -1.1282 H   0  0  0  0  0  0  0  0  0  0  0  0
    1.0225    0.5498    0.9914 C   0  0  0  0  0  0  0  0  0  0  0  0
    2.2405    0.6685    1.1089 O   0  0  0  0  0  0  0  0  0  0  0  0
    0.2098    0.4020    2.0446 N   0  0  0  0  0  0  0  0  0  0  0  0
   -0.7818    0.3701    1.8696 H   0  0  0  0  0  0  0  0  0  0  0  0
    0.6654    0.3989    3.4328 C   0  0  0  0  0  0  0  0  0  0  0  0
    1.0772    1.3790    3.6831 H   0  0  0  0  0  0  0  0  0  0  0  0
   -0.1645    0.1738    4.1033 H   0  0  0  0  0  0  0  0  0  0  0  0
    1.4499   -0.3498    3.5627 H   0  0  0  0  0  0  0  0  0  0  0  0
  5  6  2  0  0  0  0
  5  7  1  0  0  0  0
  2  3  1  0  0  0  0
  2  4  1  0  0  0  0
  2  5  1  0  0  0  0
  1  2  1  0  0  0  0
 19 20  2  0  0  0  0
 19 21  1  0  0  0  0
 17 18  1  0  0  0  0
 17 19  1  0  0  0  0
 14 15  1  0  0  0  0
 14 16  1  0  0  0  0
 14 17  1  0  0  0  0
 11 12  1  0  0  0  0
 11 13  1  0  0  0  0
 11 14  1  0  0  0  0
  8  9  1  0  0  0  0
  8 10  1  0  0  0  0
  8 11  1  0  0  0  0
  7  8  1  0  0  0  0
  7 17  1  0  0  0  0
 23 24  1  0  0  0  0
 23 25  1  0  0  0  0
 23 26  1  0  0  0  0
 21 22  1  0  0  0  0
 21 23  1  0  0  0  0
M  END
$$$$
default_name
  -OEChem-01062215323D

 26 26  0     1  0  0  0  0  0999 V2000
   -1.8446   -3.5060   -0.3010 H   0  0  0  0  0  0  0  0  0  0  0  0
   -2.0746   -2.4490   -0.4240 C   0  0  0  0  0  0  0  0  0  0  0  0
   -2.6906   -2.1160    0.4090 H   0  0  0  0  0  0  0  0  0  0  0  0
   -2.5986   -2.2980   -1.3650 H   0  0  0  0  0  0  0  0  0  0  0  0
   -0.7756   -1.6630   -0.4350 C   0  0  0  0  0  0  0  0  0  0  0  0
    0.2844   -2.2800   -0.4550 O   0  0  0  0  0  0  0  0  0  0  0  0
   -0.8246   -0.3180   -0.4350 N   0  0  0  0  0  0  0  0  0  0  0  0
   -2.0106    0.5080   -0.5910 C   0  0  0  0  0  0  0  0  0  0  0  0
   -2.2764    1.1290    0.2660 H   0  0  0  0  0  0  0  0  0  0  0  0
   -2.9044    0.0714   -1.0353 H   0  0  0  0  0  0  0  0  0  0  0  0
   -1.2674    1.3443   -1.6305 C   0  0  0  0  0  0  0  0  0  0  0  0
   -1.9071    2.1297   -2.0361 H   0  0  0  0  0  0  0  0  0  0  0  0
   -0.9061    0.6900   -2.4245 H   0  0  0  0  0  0  0  0  0  0  0  0
   -0.0827    1.9176   -0.8529 C   0  0  0  0  0  0  0  0  0  0  0  0
   -0.3686    2.5236    0.0091 H   0  0  0  0  0  0  0  0  0  0  0  0
    0.6903    2.4250   -1.4299 H   0  0  0  0  0  0  0  0  0  0  0  0
    0.3724    0.5200   -0.4020 C   0  0  1  0  0  0  0  0  0  0  0  0
    1.0855    0.1292   -1.1282 H   0  0  0  0  0  0  0  0  0  0  0  0
    1.0225    0.5498    0.9914 C   0  0  0  0  0  0  0  0  0  0  0  0
    2.1807    0.9376    1.1310 O   0  0  0  0  0  0  0  0  0  0  0  0
    0.2862    0.1016    2.0154 N   0  0  0  0  0  0  0  0  0  0  0  0
   -0.6733   -0.1430    1.8300 H   0  0  0  0  0  0  0  0  0  0  0  0
    0.7549    0.0546    3.3984 C   0  0  0  0  0  0  0  0  0  0  0  0
    0.9301    1.0707    3.7584 H   0  0  0  0  0  0  0  0  0  0  0  0
    0.0131   -0.4306    4.0335 H   0  0  0  0  0  0  0  0  0  0  0  0
    1.6951   -0.4986    3.4514 H   0  0  0  0  0  0  0  0  0  0  0  0
  5  6  2  0  0  0  0
  5  7  1  0  0  0  0
  2  3  1  0  0  0  0
  2  4  1  0  0  0  0
  2  5  1  0  0  0  0
  1  2  1  0  0  0  0
 19 20  2  0  0  0  0
 19 21  1  0  0  0  0
 17 18  1  0  0  0  0
 17 19  1  0  0  0  0
 14 15  1  0  0  0  0
 14 16  1  0  0  0  0
 14 17  1  0  0  0  0
 11 12  1  0  0  0  0
 11 13  1  0  0  0  0
 11 14  1  0  0  0  0
  8  9  1  0  0  0  0
  8 10  1  0  0  0  0
  8 11  1  0  0  0  0
  7  8  1  0  0  0  0
  7 17  1  0  0  0  0
 23 24  1  0  0  0  0
 23 25  1  0  0  0  0
 23 26  1  0  0  0  0
 21 22  1  0  0  0  0
 21 23  1  0  0  0  0
M  END
$$$$
default_name
  -OEChem-01062215323D

 26 26  0     1  0  0  0  0  0999 V2000
   -1.8446   -3.5060   -0.3010 H   0  0  0  0  0  0  0  0  0  0  0  0
   -2.0746   -2.4490   -0.4240 C   0  0  0  0  0  0  0  0  0  0  0  0
   -2.6906   -2.1160    0.4090 H   0  0  0  0  0  0  0  0  0  0  0  0
   -2.5986   -2.2980   -1.3650 H   0  0  0  0  0  0  0  0  0  0  0  0
   -0.7756   -1.6630   -0.4350 C   0  0  0  0  0  0  0  0  0  0  0  0
    0.2844   -2.2800   -0.4550 O   0  0  0  0  0  0  0  0  0  0  0  0
   -0.8246   -0.3180   -0.4350 N   0  0  0  0  0  0  0  0  0  0  0  0
   -2.0106    0.5080   -0.5910 C   0  0  0  0  0  0  0  0  0  0  0  0
   -2.2764    1.1290    0.2660 H   0  0  0  0  0  0  0  0  0  0  0  0
   -2.9044    0.0714   -1.0353 H   0  0  0  0  0  0  0  0  0  0  0  0
   -1.2674    1.3443   -1.6305 C   0  0  0  0  0  0  0  0  0  0  0  0
   -1.9071    2.1297   -2.0361 H   0  0  0  0  0  0  0  0  0  0  0  0
   -0.9061    0.6900   -2.4245 H   0  0  0  0  0  0  0  0  0  0  0  0
   -0.0827    1.9176   -0.8529 C   0  0  0  0  0  0  0  0  0  0  0  0
   -0.3686    2.5236    0.0091 H   0  0  0  0  0  0  0  0  0  0  0  0
    0.6903    2.4250   -1.4299 H   0  0  0  0  0  0  0  0  0  0  0  0
    0.3724    0.5200   -0.4020 C   0  0  1  0  0  0  0  0  0  0  0  0
    1.0855    0.1292   -1.1282 H   0  0  0  0  0  0  0  0  0  0  0  0
    1.0225    0.5498    0.9914 C   0  0  0  0  0  0  0  0  0  0  0  0
    2.0600    1.1812    1.1821 O   0  0  0  0  0  0  0  0  0  0  0  0
    0.4303   -0.1674    1.9539 N   0  0  0  0  0  0  0  0  0  0  0  0
   -0.4484   -0.6088    1.7351 H   0  0  0  0  0  0  0  0  0  0  0  0
    0.9219   -0.2533    3.3271 C   0  0  0  0  0  0  0  0  0  0  0  0
    0.8607    0.7301    3.7980 H   0  0  0  0  0  0  0  0  0  0  0  0
    0.3260   -0.9653    3.8989 H   0  0  0  0  0  0  0  0  0  0  0  0
    1.9664   -0.5727    3.3265 H   0  0  0  0  0  0  0  0  0  0  0  0
  5  6  2  0  0  0  0
  5  7  1  0  0  0  0
  2  3  1  0  0  0  0
  2  4  1  0  0  0  0
  2  5  1  0  0  0  0
  1  2  1  0  0  0  0
 19 20  2  0  0  0  0
 19 21  1  0  0  0  0
 17 18  1  0  0  0  0
 17 19  1  0  0  0  0
 14 15  1  0  0  0  0
 14 16  1  0  0  0  0
 14 17  1  0  0  0  0
 11 12  1  0  0  0  0
 11 13  1  0  0  0  0
 11 14  1  0  0  0  0
  8  9  1  0  0  0  0
  8 10  1  0  0  0  0
  8 11  1  0  0  0  0
  7  8  1  0  0  0  0
  7 17  1  0  0  0  0
 23 24  1  0  0  0  0
 23 25  1  0  0  0  0
 23 26  1  0  0  0  0
 21 22  1  0  0  0  0
 21 23  1  0  0  0  0
M  END
$$$$
default_name
  -OEChem-01062215323D

 26 26  0     1  0  0  0  0  0999 V2000
   -1.8446   -3.5060   -0.3010 H   0  0  0  0  0  0  0  0  0  0  0  0
   -2.0746   -2.4490   -0.4240 C   0  0  0  0  0  0  0  0  0  0  0  0
   -2.6906   -2.1160    0.4090 H   0  0  0  0  0  0  0  0  0  0  0  0
   -2.5986   -2.2980   -1.3650 H   0  0  0  0  0  0  0  0  0  0  0  0
   -0.7756   -1.6630   -0.4350 C   0  0  0  0  0  0  0  0  0  0  0  0
    0.2844   -2.2800   -0.4550 O   0  0  0  0  0  0  0  0  0  0  0  0
   -0.8246   -0.3180   -0.4350 N   0  0  0  0  0  0  0  0  0  0  0  0
   -2.0106    0.5080   -0.5910 C   0  0  0  0  0  0  0  0  0  0  0  0
   -2.2764    1.1290    0.2660 H   0  0  0  0  0  0  0  0  0  0  0  0
   -2.9044    0.0714   -1.0353 H   0  0  0  0  0  0  0  0  0  0  0  0
   -1.2674    1.3443   -1.6305 C   0  0  0  0  0  0  0  0  0  0  0  0
   -1.9071    2.1297   -2.0361 H   0  0  0  0  0  0  0  0  0  0  0  0
   -0.9061    0.6900   -2.4245 H   0  0  0  0  0  0  0  0  0  0  0  0
   -0.0827    1.9176   -0.8529 C   0  0  0  0  0  0  0  0  0  0  0  0
   -0.3686    2.5236    0.0091 H   0  0  0  0  0  0  0  0  0  0  0  0
    0.6903    2.4250   -1.4299 H   0  0  0  0  0  0  0  0  0  0  0  0
    0.3724    0.5200   -0.4020 C   0  0  1  0  0  0  0  0  0  0  0  0
    1.0855    0.1292   -1.1282 H   0  0  0  0  0  0  0  0  0  0  0  0
    1.0225    0.5498    0.9914 C   0  0  0  0  0  0  0  0  0  0  0  0
    1.8866    1.3825    1.2587 O   0  0  0  0  0  0  0  0  0  0  0  0
    0.6323   -0.3867    1.8644 N   0  0  0  0  0  0  0  0  0  0  0  0
   -0.1224   -0.9956    1.5913 H   0  0  0  0  0  0  0  0  0  0  0  0
    1.1550   -0.5037    3.2237 C   0  0  0  0  0  0  0  0  0  0  0  0
    0.8737    0.3806    3.7995 H   0  0  0  0  0  0  0  0  0  0  0  0
    0.7529   -1.3936    3.7089 H   0  0  0  0  0  0  0  0  0  0  0  0
    2.2451   -0.5669    3.1963 H   0  0  0  0  0  0  0  0  0  0  0  0
  5  6  2  0  0  0  0
  5  7  1  0  0  0  0
  2  3  1  0  0  0  0
  2  4  1  0  0  0  0
  2  5  1  0  0  0  0
  1  2  1  0  0  0  0
 19 20  2  0  0  0  0
 19 21  1  0  0  0  0
 17 18  1  0  0  0  0
 17 19  1  0  0  0  0
 14 15  1  0  0  0  0
 14 16  1  0  0  0  0
 14 17  1  0  0  0  0
 11 12  1  0  0  0  0
 11 13  1  0  0  0  0
 11 14  1  0  0  0  0
  8  9  1  0  0  0  0
  8 10  1  0  0  0  0
  8 11  1  0  0  0  0
  7  8  1  0  0  0  0
  7 17  1  0  0  0  0
 23 24  1  0  0  0  0
 23 25  1  0  0  0  0
 23 26  1  0  0  0  0
 21 22  1  0  0  0  0
 21 23  1  0  0  0  0
M  END
$$$$
default_name
  -OEChem-01062215323D

 26 26  0     1  0  0  0  0  0999 V2000
   -1.8446   -3.5060   -0.3010 H   0  0  0  0  0  0  0  0  0  0  0  0
   -2.0746   -2.4490   -0.4240 C   0  0  0  0  0  0  0  0  0  0  0  0
   -2.6906   -2.1160    0.4090 H   0  0  0  0  0  0  0  0  0  0  0  0
   -2.5986   -2.2980   -1.3650 H   0  0  0  0  0  0  0  0  0  0  0  0
   -0.7756   -1.6630   -0.4350 C   0  0  0  0  0  0  0  0  0  0  0  0
    0.2844   -2.2800   -0.4550 O   0  0  0  0  0  0  0  0  0  0  0  0
   -0.8246   -0.3180   -0.4350 N   0  0  0  0  0  0  0  0  0  0  0  0
   -2.0106    0.5080   -0.5910 C   0  0  0  0  0  0  0  0  0  0  0  0
   -2.2764    1.1290    0.2660 H   0  0  0  0  0  0  0  0  0  0  0  0
   -2.9044    0.0714   -1.0353 H   0  0  0  0  0  0  0  0  0  0  0  0
   -1.2674    1.3443   -1.6305 C   0  0  0  0  0  0  0  0  0  0  0  0
   -1.9071    2.1297   -2.0361 H   0  0  0  0  0  0  0  0  0  0  0  0
   -0.9061    0.6900   -2.4245 H   0  0  0  0  0  0  0  0  0  0  0  0
   -0.0827    1.9176   -0.8529 C   0  0  0  0  0  0  0  0  0  0  0  0
   -0.3686    2.5236    0.0091 H   0  0  0  0  0  0  0  0  0  0  0  0
    0.6903    2.4250   -1.4299 H   0  0  0  0  0  0  0  0  0  0  0  0
    0.3724    0.5200   -0.4020 C   0  0  1  0  0  0  0  0  0  0  0  0
    1.0855    0.1292   -1.1282 H   0  0  0  0  0  0  0  0  0  0  0  0
    1.0225    0.5498    0.9914 C   0  0  0  0  0  0  0  0  0  0  0  0
    1.6722    1.5279    1.3556 O   0  0  0  0  0  0  0  0  0  0  0  0
    0.8784   -0.5415    1.7529 N   0  0  0  0  0  0  0  0  0  0  0  0
    0.2824   -1.2770    1.4084 H   0  0  0  0  0  0  0  0  0  0  0  0
    1.4385   -0.6796    3.0952 C   0  0  0  0  0  0  0  0  0  0  0  0
    0.9683    0.0459    3.7625 H   0  0  0  0  0  0  0  0  0  0  0  0
    1.2647   -1.6864    3.4764 H   0  0  0  0  0  0  0  0  0  0  0  0
    2.5123   -0.4818    3.0698 H   0  0  0  0  0  0  0  0  0  0  0  0
  5  6  2  0  0  0  0
  5  7  1  0  0  0  0
  2  3  1  0  0  0  0
  2  4  1  0  0  0  0
  2  5  1  0  0  0  0
  1  2  1  0  0  0  0
 19 20  2  0  0  0  0
 19 21  1  0  0  0  0
 17 18  1  0  0  0  0
 17 19  1  0  0  0  0
 14 15  1  0  0  0  0
 14 16  1  0  0  0  0
 14 17  1  0  0  0  0
 11 12  1  0  0  0  0
 11 13  1  0  0  0  0
 11 14  1  0  0  0  0
  8  9  1  0  0  0  0
  8 10  1  0  0  0  0
  8 11  1  0  0  0  0
  7  8  1  0  0  0  0
  7 17  1  0  0  0  0
 23 24  1  0  0  0  0
 23 25  1  0  0  0  0
 23 26  1  0  0  0  0
 21 22  1  0  0  0  0
 21 23  1  0  0  0  0
M  END
$$$$
default_name
  -OEChem-01062215323D

 26 26  0     1  0  0  0  0  0999 V2000
   -1.8446   -3.5060   -0.3010 H   0  0  0  0  0  0  0  0  0  0  0  0
   -2.0746   -2.4490   -0.4240 C   0  0  0  0  0  0  0  0  0  0  0  0
   -2.6906   -2.1160    0.4090 H   0  0  0  0  0  0  0  0  0  0  0  0
   -2.5986   -2.2980   -1.3650 H   0  0  0  0  0  0  0  0  0  0  0  0
   -0.7756   -1.6630   -0.4350 C   0  0  0  0  0  0  0  0  0  0  0  0
    0.2844   -2.2800   -0.4550 O   0  0  0  0  0  0  0  0  0  0  0  0
   -0.8246   -0.3180   -0.4350 N   0  0  0  0  0  0  0  0  0  0  0  0
   -2.0106    0.5080   -0.5910 C   0  0  0  0  0  0  0  0  0  0  0  0
   -2.2764    1.1290    0.2660 H   0  0  0  0  0  0  0  0  0  0  0  0
   -2.9044    0.0714   -1.0353 H   0  0  0  0  0  0  0  0  0  0  0  0
   -1.2674    1.3443   -1.6305 C   0  0  0  0  0  0  0  0  0  0  0  0
   -1.9071    2.1297   -2.0361 H   0  0  0  0  0  0  0  0  0  0  0  0
   -0.9061    0.6900   -2.4245 H   0  0  0  0  0  0  0  0  0  0  0  0
   -0.0827    1.9176   -0.8529 C   0  0  0  0  0  0  0  0  0  0  0  0
   -0.3686    2.5236    0.0091 H   0  0  0  0  0  0  0  0  0  0  0  0
    0.6903    2.4250   -1.4299 H   0  0  0  0  0  0  0  0  0  0  0  0
    0.3724    0.5200   -0.4020 C   0  0  1  0  0  0  0  0  0  0  0  0
    1.0855    0.1292   -1.1282 H   0  0  0  0  0  0  0  0  0  0  0  0
    1.0225    0.5498    0.9914 C   0  0  0  0  0  0  0  0  0  0  0  0
    1.4315    1.6075    1.4662 O   0  0  0  0  0  0  0  0  0  0  0  0
    1.1518   -0.6210    1.6270 N   0  0  0  0  0  0  0  0  0  0  0  0
    0.7386   -1.4339    1.1989 H   0  0  0  0  0  0  0  0  0  0  0  0
    1.7528   -0.7690    2.9504 C   0  0  0  0  0  0  0  0  0  0  0  0
    1.1379   -0.2512    3.6897 H   0  0  0  0  0  0  0  0  0  0  0  0
    1.8266   -1.8238    3.2171 H   0  0  0  0  0  0  0  0  0  0  0  0
    2.7498   -0.3231    2.9556 H   0  0  0  0  0  0  0  0  0  0  0  0
  5  6  2  0  0  0  0
  5  7  1  0  0  0  0
  2  3  1  0  0  0  0
  2  4  1  0  0  0  0
  2  5  1  0  0  0  0
  1  2  1  0  0  0  0
 19 20  2  0  0  0  0
 19 21  1  0  0  0  0
 17 18  1  0  0  0  0
 17 19  1  0  0  0  0
 14 15  1  0  0  0  0
 14 16  1  0  0  0  0
 14 17  1  0  0  0  0
 11 12  1  0  0  0  0
 11 13  1  0  0  0  0
 11 14  1  0  0  0  0
  8  9  1  0  0  0  0
  8 10  1  0  0  0  0
  8 11  1  0  0  0  0
  7  8  1  0  0  0  0
  7 17  1  0  0  0  0
 23 24  1  0  0  0  0
 23 25  1  0  0  0  0
 23 26  1  0  0  0  0
 21 22  1  0  0  0  0
 21 23  1  0  0  0  0
M  END
$$$$
default_name
  -OEChem-01062215323D

 26 26  0     1  0  0  0  0  0999 V2000
   -1.8446   -3.5060   -0.3010 H   0  0  0  0  0  0  0  0  0  0  0  0
   -2.0746   -2.4490   -0.4240 C   0  0  0  0  0  0  0  0  0  0  0  0
   -2.6906   -2.1160    0.4090 H   0  0  0  0  0  0  0  0  0  0  0  0
   -2.5986   -2.2980   -1.3650 H   0  0  0  0  0  0  0  0  0  0  0  0
   -0.7756   -1.6630   -0.4350 C   0  0  0  0  0  0  0  0  0  0  0  0
    0.2844   -2.2800   -0.4550 O   0  0  0  0  0  0  0  0  0  0  0  0
   -0.8246   -0.3180   -0.4350 N   0  0  0  0  0  0  0  0  0  0  0  0
   -2.0106    0.5080   -0.5910 C   0  0  0  0  0  0  0  0  0  0  0  0
   -2.2764    1.1290    0.2660 H   0  0  0  0  0  0  0  0  0  0  0  0
   -2.9044    0.0714   -1.0353 H   0  0  0  0  0  0  0  0  0  0  0  0
   -1.2674    1.3443   -1.6305 C   0  0  0  0  0  0  0  0  0  0  0  0
   -1.9071    2.1297   -2.0361 H   0  0  0  0  0  0  0  0  0  0  0  0
   -0.9061    0.6900   -2.4245 H   0  0  0  0  0  0  0  0  0  0  0  0
   -0.0827    1.9176   -0.8529 C   0  0  0  0  0  0  0  0  0  0  0  0
   -0.3686    2.5236    0.0091 H   0  0  0  0  0  0  0  0  0  0  0  0
    0.6903    2.4250   -1.4299 H   0  0  0  0  0  0  0  0  0  0  0  0
    0.3724    0.5200   -0.4020 C   0  0  1  0  0  0  0  0  0  0  0  0
    1.0855    0.1292   -1.1282 H   0  0  0  0  0  0  0  0  0  0  0  0
    1.0225    0.5498    0.9914 C   0  0  0  0  0  0  0  0  0  0  0  0
    1.1809    1.6158    1.5829 O   0  0  0  0  0  0  0  0  0  0  0  0
    1.4339   -0.6199    1.4954 N   0  0  0  0  0  0  0  0  0  0  0  0
    1.2149   -1.4556    0.9771 H   0  0  0  0  0  0  0  0  0  0  0  0
    2.0767   -0.7658    2.7993 C   0  0  0  0  0  0  0  0  0  0  0  0
    1.3711   -0.4904    3.5861 H   0  0  0  0  0  0  0  0  0  0  0  0
    2.4003   -1.7963    2.9489 H   0  0  0  0  0  0  0  0  0  0  0  0
    2.9414   -0.1015    2.8614 H   0  0  0  0  0  0  0  0  0  0  0  0
  5  6  2  0  0  0  0
  5  7  1  0  0  0  0
  2  3  1  0  0  0  0
  2  4  1  0  0  0  0
  2  5  1  0  0  0  0
  1  2  1  0  0  0  0
 19 20  2  0  0  0  0
 19 21  1  0  0  0  0
 17 18  1  0  0  0  0
 17 19  1  0  0  0  0
 14 15  1  0  0  0  0
 14 16  1  0  0  0  0
 14 17  1  0  0  0  0
 11 12  1  0  0  0  0
 11 13  1  0  0  0  0
 11 14  1  0  0  0  0
  8  9  1  0  0  0  0
  8 10  1  0  0  0  0
  8 11  1  0  0  0  0
  7  8  1  0  0  0  0
  7 17  1  0  0  0  0
 23 24  1  0  0  0  0
 23 25  1  0  0  0  0
 23 26  1  0  0  0  0
 21 22  1  0  0  0  0
 21 23  1  0  0  0  0
M  END
$$$$
default_name
  -OEChem-01062215323D

 26 26  0     1  0  0  0  0  0999 V2000
   -1.8446   -3.5060   -0.3010 H   0  0  0  0  0  0  0  0  0  0  0  0
   -2.0746   -2.4490   -0.4240 C   0  0  0  0  0  0  0  0  0  0  0  0
   -2.6906   -2.1160    0.4090 H   0  0  0  0  0  0  0  0  0  0  0  0
   -2.5986   -2.2980   -1.3650 H   0  0  0  0  0  0  0  0  0  0  0  0
   -0.7756   -1.6630   -0.4350 C   0  0  0  0  0  0  0  0  0  0  0  0
    0.2844   -2.2800   -0.4550 O   0  0  0  0  0  0  0  0  0  0  0  0
   -0.8246   -0.3180   -0.4350 N   0  0  0  0  0  0  0  0  0  0  0  0
   -2.0106    0.5080   -0.5910 C   0  0  0  0  0  0  0  0  0  0  0  0
   -2.2764    1.1290    0.2660 H   0  0  0  0  0  0  0  0  0  0  0  0
   -2.9044    0.0714   -1.0353 H   0  0  0  0  0  0  0  0  0  0  0  0
   -1.2674    1.3443   -1.6305 C   0  0  0  0  0  0  0  0  0  0  0  0
   -1.9071    2.1297   -2.0361 H   0  0  0  0  0  0  0  0  0  0  0  0
   -0.9061    0.6900   -2.4245 H   0  0  0  0  0  0  0  0  0  0  0  0
   -0.0827    1.9176   -0.8529 C   0  0  0  0  0  0  0  0  0  0  0  0
   -0.3686    2.5236    0.0091 H   0  0  0  0  0  0  0  0  0  0  0  0
    0.6903    2.4250   -1.4299 H   0  0  0  0  0  0  0  0  0  0  0  0
    0.3724    0.5200   -0.4020 C   0  0  1  0  0  0  0  0  0  0  0  0
    1.0855    0.1292   -1.1282 H   0  0  0  0  0  0  0  0  0  0  0  0
    1.0225    0.5498    0.9914 C   0  0  0  0  0  0  0  0  0  0  0  0
    0.9375    1.5523    1.6979 O   0  0  0  0  0  0  0  0  0  0  0  0
    1.7055   -0.5384    1.3669 N   0  0  0  0  0  0  0  0  0  0  0  0
    1.6790   -1.3406    0.7582 H   0  0  0  0  0  0  0  0  0  0  0  0
    2.3880   -0.6702    2.6520 C   0  0  0  0  0  0  0  0  0  0  0  0
    1.6519   -0.6555    3.4586 H   0  0  0  0  0  0  0  0  0  0  0  0
    2.9467   -1.6059    2.6899 H   0  0  0  0  0  0  0  0  0  0  0  0
    3.0741    0.1677    2.7938 H   0  0  0  0  0  0  0  0  0  0  0  0
  5  6  2  0  0  0  0
  5  7  1  0  0  0  0
  2  3  1  0  0  0  0
  2  4  1  0  0  0  0
  2  5  1  0  0  0  0
  1  2  1  0  0  0  0
 19 20  2  0  0  0  0
 19 21  1  0  0  0  0
 17 18  1  0  0  0  0
 17 19  1  0  0  0  0
 14 15  1  0  0  0  0
 14 16  1  0  0  0  0
 14 17  1  0  0  0  0
 11 12  1  0  0  0  0
 11 13  1  0  0  0  0
 11 14  1  0  0  0  0
  8  9  1  0  0  0  0
  8 10  1  0  0  0  0
  8 11  1  0  0  0  0
  7  8  1  0  0  0  0
  7 17  1  0  0  0  0
 23 24  1  0  0  0  0
 23 25  1  0  0  0  0
 23 26  1  0  0  0  0
 21 22  1  0  0  0  0
 21 23  1  0  0  0  0
M  END
$$$$
default_name
  -OEChem-01062215323D

 26 26  0     1  0  0  0  0  0999 V2000
   -1.8446   -3.5060   -0.3010 H   0  0  0  0  0  0  0  0  0  0  0  0
   -2.0746   -2.4490   -0.4240 C   0  0  0  0  0  0  0  0  0  0  0  0
   -2.6906   -2.1160    0.4090 H   0  0  0  0  0  0  0  0  0  0  0  0
   -2.5986   -2.2980   -1.3650 H   0  0  0  0  0  0  0  0  0  0  0  0
   -0.7756   -1.6630   -0.4350 C   0  0  0  0  0  0  0  0  0  0  0  0
    0.2844   -2.2800   -0.4550 O   0  0  0  0  0  0  0  0  0  0  0  0
   -0.8246   -0.3180   -0.4350 N   0  0  0  0  0  0  0  0  0  0  0  0
   -2.0106    0.5080   -0.5910 C   0  0  0  0  0  0  0  0  0  0  0  0
   -2.2764    1.1290    0.2660 H   0  0  0  0  0  0  0  0  0  0  0  0
   -2.9044    0.0714   -1.0353 H   0  0  0  0  0  0  0  0  0  0  0  0
   -1.2674    1.3443   -1.6305 C   0  0  0  0  0  0  0  0  0  0  0  0
   -1.9071    2.1297   -2.0361 H   0  0  0  0  0  0  0  0  0  0  0  0
   -0.9061    0.6900   -2.4245 H   0  0  0  0  0  0  0  0  0  0  0  0
   -0.0827    1.9176   -0.8529 C   0  0  0  0  0  0  0  0  0  0  0  0
   -0.3686    2.5236    0.0091 H   0  0  0  0  0  0  0  0  0  0  0  0
    0.6903    2.4250   -1.4299 H   0  0  0  0  0  0  0  0  0  0  0  0
    0.3724    0.5200   -0.4020 C   0  0  1  0  0  0  0  0  0  0  0  0
    1.0855    0.1292   -1.1282 H   0  0  0  0  0  0  0  0  0  0  0  0
    1.0225    0.5498    0.9914 C   0  0  0  0  0  0  0  0  0  0  0  0
    0.7178    1.4214    1.8032 O   0  0  0  0  0  0  0  0  0  0  0  0
    1.9480   -0.3818    1.2504 N   0  0  0  0  0  0  0  0  0  0  0  0
    2.0992   -1.0967    0.5569 H   0  0  0  0  0  0  0  0  0  0  0  0
    2.6656   -0.4888    2.5186 C   0  0  0  0  0  0  0  0  0  0  0  0
    1.9612   -0.7351    3.3160 H   0  0  0  0  0  0  0  0  0  0  0  0
    3.4284   -1.2656    2.4578 H   0  0  0  0  0  0  0  0  0  0  0  0
    3.1387    0.4663    2.7572 H   0  0  0  0  0  0  0  0  0  0  0  0
  5  6  2  0  0  0  0
  5  7  1  0  0  0  0
  2  3  1  0  0  0  0
  2  4  1  0  0  0  0
  2  5  1  0  0  0  0
  1  2  1  0  0  0  0
 19 20  2  0  0  0  0
 19 21  1  0  0  0  0
 17 18  1  0  0  0  0
 17 19  1  0  0  0  0
 14 15  1  0  0  0  0
 14 16  1  0  0  0  0
 14 17  1  0  0  0  0
 11 12  1  0  0  0  0
 11 13  1  0  0  0  0
 11 14  1  0  0  0  0
  8  9  1  0  0  0  0
  8 10  1  0  0  0  0
  8 11  1  0  0  0  0
  7  8  1  0  0  0  0
  7 17  1  0  0  0  0
 23 24  1  0  0  0  0
 23 25  1  0  0  0  0
 23 26  1  0  0  0  0
 21 22  1  0  0  0  0
 21 23  1  0  0  0  0
M  END
$$$$
default_name
  -OEChem-01062215323D

 26 26  0     1  0  0  0  0  0999 V2000
   -1.8446   -3.5060   -0.3010 H   0  0  0  0  0  0  0  0  0  0  0  0
   -2.0746   -2.4490   -0.4240 C   0  0  0  0  0  0  0  0  0  0  0  0
   -2.6906   -2.1160    0.4090 H   0  0  0  0  0  0  0  0  0  0  0  0
   -2.5986   -2.2980   -1.3650 H   0  0  0  0  0  0  0  0  0  0  0  0
   -0.7756   -1.6630   -0.4350 C   0  0  0  0  0  0  0  0  0  0  0  0
    0.2844   -2.2800   -0.4550 O   0  0  0  0  0  0  0  0  0  0  0  0
   -0.8246   -0.3180   -0.4350 N   0  0  0  0  0  0  0  0  0  0  0  0
   -2.0106    0.5080   -0.5910 C   0  0  0  0  0  0  0  0  0  0  0  0
   -2.2764    1.1290    0.2660 H   0  0  0  0  0  0  0  0  0  0  0  0
   -2.9044    0.0714   -1.0353 H   0  0  0  0  0  0  0  0  0  0  0  0
   -1.2674    1.3443   -1.6305 C   0  0  0  0  0  0  0  0  0  0  0  0
   -1.9071    2.1297   -2.0361 H   0  0  0  0  0  0  0  0  0  0  0  0
   -0.9061    0.6900   -2.4245 H   0  0  0  0  0  0  0  0  0  0  0  0
   -0.0827    1.9176   -0.8529 C   0  0  0  0  0  0  0  0  0  0  0  0
   -0.3686    2.5236    0.0091 H   0  0  0  0  0  0  0  0  0  0  0  0
    0.6903    2.4250   -1.4299 H   0  0  0  0  0  0  0  0  0  0  0  0
    0.3724    0.5200   -0.4020 C   0  0  1  0  0  0  0  0  0  0  0  0
    1.0855    0.1292   -1.1282 H   0  0  0  0  0  0  0  0  0  0  0  0
    1.0225    0.5498    0.9914 C   0  0  0  0  0  0  0  0  0  0  0  0
    0.5369    1.2318    1.8916 O   0  0  0  0  0  0  0  0  0  0  0  0
    2.1450   -0.1610    1.1538 N   0  0  0  0  0  0  0  0  0  0  0  0
    2.4469   -0.7405    0.3870 H   0  0  0  0  0  0  0  0  0  0  0  0
    2.8905   -0.2338    2.4082 C   0  0  0  0  0  0  0  0  0  0  0  0
    2.2779   -0.7239    3.1680 H   0  0  0  0  0  0  0  0  0  0  0  0
    3.8128   -0.7984    2.2685 H   0  0  0  0  0  0  0  0  0  0  0  0
    3.1310    0.7738    2.7542 H   0  0  0  0  0  0  0  0  0  0  0  0
  5  6  2  0  0  0  0
  5  7  1  0  0  0  0
  2  3  1  0  0  0  0
  2  4  1  0  0  0  0
  2  5  1  0  0  0  0
  1  2  1  0  0  0  0
 19 20  2  0  0  0  0
 19 21  1  0  0  0  0
 17 18  1  0  0  0  0
 17 19  1  0  0  0  0
 14 15  1  0  0  0  0
 14 16  1  0  0  0  0
 14 17  1  0  0  0  0
 11 12  1  0  0  0  0
 11 13  1  0  0  0  0
 11 14  1  0  0  0  0
  8  9  1  0  0  0  0
  8 10  1  0  0  0  0
  8 11  1  0  0  0  0
  7  8  1  0  0  0  0
  7 17  1  0  0  0  0
 23 24  1  0  0  0  0
 23 25  1  0  0  0  0
 23 26  1  0  0  0  0
 21 22  1  0  0  0  0
 21 23  1  0  0  0  0
M  END
$$$$
default_name
  -OEChem-01062215323D

 26 26  0     1  0  0  0  0  0999 V2000
   -1.8446   -3.5060   -0.3010 H   0  0  0  0  0  0  0  0  0  0  0  0
   -2.0746   -2.4490   -0.4240 C   0  0  0  0  0  0  0  0  0  0  0  0
   -2.6906   -2.1160    0.4090 H   0  0  0  0  0  0  0  0  0  0  0  0
   -2.5986   -2.2980   -1.3650 H   0  0  0  0  0  0  0  0  0  0  0  0
   -0.7756   -1.6630   -0.4350 C   0  0  0  0  0  0  0  0  0  0  0  0
    0.2844   -2.2800   -0.4550 O   0  0  0  0  0  0  0  0  0  0  0  0
   -0.8246   -0.3180   -0.4350 N   0  0  0  0  0  0  0  0  0  0  0  0
   -2.0106    0.5080   -0.5910 C   0  0  0  0  0  0  0  0  0  0  0  0
   -2.2764    1.1290    0.2660 H   0  0  0  0  0  0  0  0  0  0  0  0
   -2.9044    0.0714   -1.0353 H   0  0  0  0  0  0  0  0  0  0  0  0
   -1.2674    1.3443   -1.6305 C   0  0  0  0  0  0  0  0  0  0  0  0
   -1.9071    2.1297   -2.0361 H   0  0  0  0  0  0  0  0  0  0  0  0
   -0.9061    0.6900   -2.4245 H   0  0  0  0  0  0  0  0  0  0  0  0
   -0.0827    1.9176   -0.8529 C   0  0  0  0  0  0  0  0  0  0  0  0
   -0.3686    2.5236    0.0091 H   0  0  0  0  0  0  0  0  0  0  0  0
    0.6903    2.4250   -1.4299 H   0  0  0  0  0  0  0  0  0  0  0  0
    0.3724    0.5200   -0.4020 C   0  0  1  0  0  0  0  0  0  0  0  0
    1.0855    0.1292   -1.1282 H   0  0  0  0  0  0  0  0  0  0  0  0
    1.0225    0.5498    0.9914 C   0  0  0  0  0  0  0  0  0  0  0  0
    0.4070    0.9966    1.9573 O   0  0  0  0  0  0  0  0  0  0  0  0
    2.2830    0.1091    1.0836 N   0  0  0  0  0  0  0  0  0  0  0  0
    2.6983   -0.2964    0.2602 H   0  0  0  0  0  0  0  0  0  0  0  0
    3.0473    0.0773    2.3283 C   0  0  0  0  0  0  0  0  0  0  0  0
    2.5805   -0.6227    3.0246 H   0  0  0  0  0  0  0  0  0  0  0  0
    4.0736   -0.2364    2.1348 H   0  0  0  0  0  0  0  0  0  0  0  0
    3.0514    1.0694    2.7850 H   0  0  0  0  0  0  0  0  0  0  0  0
  5  6  2  0  0  0  0
  5  7  1  0  0  0  0
  2  3  1  0  0  0  0
  2  4  1  0  0  0  0
  2  5  1  0  0  0  0
  1  2  1  0  0  0  0
 19 20  2  0  0  0  0
 19 21  1  0  0  0  0
 17 18  1  0  0  0  0
 17 19  1  0  0  0  0
 14 15  1  0  0  0  0
 14 16  1  0  0  0  0
 14 17  1  0  0  0  0
 11 12  1  0  0  0  0
 11 13  1  0  0  0  0
 11 14  1  0  0  0  0
  8  9  1  0  0  0  0
  8 10  1  0  0  0  0
  8 11  1  0  0  0  0
  7  8  1  0  0  0  0
  7 17  1  0  0  0  0
 23 24  1  0  0  0  0
 23 25  1  0  0  0  0
 23 26  1  0  0  0  0
 21 22  1  0  0  0  0
 21 23  1  0  0  0  0
M  END
$$$$
default_name
  -OEChem-01062215323D

 26 26  0     1  0  0  0  0  0999 V2000
   -1.8446   -3.5060   -0.3010 H   0  0  0  0  0  0  0  0  0  0  0  0
   -2.0746   -2.4490   -0.4240 C   0  0  0  0  0  0  0  0  0  0  0  0
   -2.6906   -2.1160    0.4090 H   0  0  0  0  0  0  0  0  0  0  0  0
   -2.5986   -2.2980   -1.3650 H   0  0  0  0  0  0  0  0  0  0  0  0
   -0.7756   -1.6630   -0.4350 C   0  0  0  0  0  0  0  0  0  0  0  0
    0.2844   -2.2800   -0.4550 O   0  0  0  0  0  0  0  0  0  0  0  0
   -0.8246   -0.3180   -0.4350 N   0  0  0  0  0  0  0  0  0  0  0  0
   -2.0106    0.5080   -0.5910 C   0  0  0  0  0  0  0  0  0  0  0  0
   -2.2764    1.1290    0.2660 H   0  0  0  0  0  0  0  0  0  0  0  0
   -2.9044    0.0714   -1.0353 H   0  0  0  0  0  0  0  0  0  0  0  0
   -1.2674    1.3443   -1.6305 C   0  0  0  0  0  0  0  0  0  0  0  0
   -1.9071    2.1297   -2.0361 H   0  0  0  0  0  0  0  0  0  0  0  0
   -0.9061    0.6900   -2.4245 H   0  0  0  0  0  0  0  0  0  0  0  0
   -0.0827    1.9176   -0.8529 C   0  0  0  0  0  0  0  0  0  0  0  0
   -0.3686    2.5236    0.0091 H   0  0  0  0  0  0  0  0  0  0  0  0
    0.6903    2.4250   -1.4299 H   0  0  0  0  0  0  0  0  0  0  0  0
    0.3724    0.5200   -0.4020 C   0  0  1  0  0  0  0  0  0  0  0  0
    1.0855    0.1292   -1.1282 H   0  0  0  0  0  0  0  0  0  0  0  0
    1.0225    0.5498    0.9914 C   0  0  0  0  0  0  0  0  0  0  0  0
    0.3371    0.7318    1.9956 O   0  0  0  0  0  0  0  0  0  0  0  0
    2.3526    0.4100    1.0447 N   0  0  0  0  0  0  0  0  0  0  0  0
    2.8364    0.2054    0.1850 H   0  0  0  0  0  0  0  0  0  0  0  0
    3.1255    0.4233    2.2844 C   0  0  0  0  0  0  0  0  0  0  0  0
    2.8482   -0.4382    2.8957 H   0  0  0  0  0  0  0  0  0  0  0  0
    4.1930    0.3824    2.0658 H   0  0  0  0  0  0  0  0  0  0  0  0
    2.9054    1.3329    2.8475 H   0  0  0  0  0  0  0  0  0  0  0  0
  5  6  2  0  0  0  0
  5  7  1  0  0  0  0
  2  3  1  0  0  0  0
  2  4  1  0  0  0  0
  2  5  1  0  0  0  0
  1  2  1  0  0  0  0
 19 20  2  0  0  0  0
 19 21  1  0  0  0  0
 17 18  1  0  0  0  0
 17 19  1  0  0  0  0
 14 15  1  0  0  0  0
 14 16  1  0  0  0  0
 14 17  1  0  0  0  0
 11 12  1  0  0  0  0
 11 13  1  0  0  0  0
 11 14  1  0  0  0  0
  8  9  1  0  0  0  0
  8 10  1  0  0  0  0
  8 11  1  0  0  0  0
  7  8  1  0  0  0  0
  7 17  1  0  0  0  0
 23 24  1  0  0  0  0
 23 25  1  0  0  0  0
 23 26  1  0  0  0  0
 21 22  1  0  0  0  0
 21 23  1  0  0  0  0
M  END
$$$$
default_name
  -OEChem-01062215323D

 26 26  0     1  0  0  0  0  0999 V2000
   -1.8446   -3.5060   -0.3010 H   0  0  0  0  0  0  0  0  0  0  0  0
   -2.0746   -2.4490   -0.4240 C   0  0  0  0  0  0  0  0  0  0  0  0
   -2.6906   -2.1160    0.4090 H   0  0  0  0  0  0  0  0  0  0  0  0
   -2.5986   -2.2980   -1.3650 H   0  0  0  0  0  0  0  0  0  0  0  0
   -0.7756   -1.6630   -0.4350 C   0  0  0  0  0  0  0  0  0  0  0  0
    0.2844   -2.2800   -0.4550 O   0  0  0  0  0  0  0  0  0  0  0  0
   -0.8246   -0.3180   -0.4350 N   0  0  0  0  0  0  0  0  0  0  0  0
   -2.0106    0.5080   -0.5910 C   0  0  0  0  0  0  0  0  0  0  0  0
   -2.2764    1.1290    0.2660 H   0  0  0  0  0  0  0  0  0  0  0  0
   -2.9044    0.0714   -1.0353 H   0  0  0  0  0  0  0  0  0  0  0  0
   -1.2674    1.3443   -1.6305 C   0  0  0  0  0  0  0  0  0  0  0  0
   -1.9071    2.1297   -2.0361 H   0  0  0  0  0  0  0  0  0  0  0  0
   -0.9061    0.6900   -2.4245 H   0  0  0  0  0  0  0  0  0  0  0  0
   -0.0827    1.9176   -0.8529 C   0  0  0  0  0  0  0  0  0  0  0  0
   -0.3686    2.5236    0.0091 H   0  0  0  0  0  0  0  0  0  0  0  0
    0.6903    2.4250   -1.4299 H   0  0  0  0  0  0  0  0  0  0  0  0
    0.3724    0.5200   -0.4020 C   0  0  1  0  0  0  0  0  0  0  0  0
    1.0855    0.1292   -1.1282 H   0  0  0  0  0  0  0  0  0  0  0  0
    1.0225    0.5498    0.9914 C   0  0  0  0  0  0  0  0  0  0  0  0
    0.3318    0.4554    2.0040 O   0  0  0  0  0  0  0  0  0  0  0  0
    2.3491    0.7213    1.0396 N   0  0  0  0  0  0  0  0  0  0  0  0
    2.8518    0.7308    0.1666 H   0  0  0  0  0  0  0  0  0  0  0  0
    3.1197    0.7806    2.2795 C   0  0  0  0  0  0  0  0  0  0  0  0
    3.0630   -0.1831    2.7901 H   0  0  0  0  0  0  0  0  0  0  0  0
    4.1630    1.0155    2.0663 H   0  0  0  0  0  0  0  0  0  0  0  0
    2.7028    1.5463    2.9375 H   0  0  0  0  0  0  0  0  0  0  0  0
  5  6  2  0  0  0  0
  5  7  1  0  0  0  0
  2  3  1  0  0  0  0
  2  4  1  0  0  0  0
  2  5  1  0  0  0  0
  1  2  1  0  0  0  0
 19 20  2  0  0  0  0
 19 21  1  0  0  0  0
 17 18  1  0  0  0  0
 17 19  1  0  0  0  0
 14 15  1  0  0  0  0
 14 16  1  0  0  0  0
 14 17  1  0  0  0  0
 11 12  1  0  0  0  0
 11 13  1  0  0  0  0
 11 14  1  0  0  0  0
  8  9  1  0  0  0  0
  8 10  1  0  0  0  0
  8 11  1  0  0  0  0
  7  8  1  0  0  0  0
  7 17  1  0  0  0  0
 23 24  1  0  0  0  0
 23 25  1  0  0  0  0
 23 26  1  0  0  0  0
 21 22  1  0  0  0  0
 21 23  1  0  0  0  0
M  END
$$$$
default_name
  -OEChem-01062215323D

 26 26  0     1  0  0  0  0  0999 V2000
   -1.8446   -3.5060   -0.3010 H   0  0  0  0  0  0  0  0  0  0  0  0
   -2.0746   -2.4490   -0.4240 C   0  0  0  0  0  0  0  0  0  0  0  0
   -2.6906   -2.1160    0.4090 H   0  0  0  0  0  0  0  0  0  0  0  0
   -2.5986   -2.2980   -1.3650 H   0  0  0  0  0  0  0  0  0  0  0  0
   -0.7756   -1.6630   -0.4350 C   0  0  0  0  0  0  0  0  0  0  0  0
    0.2844   -2.2800   -0.4550 O   0  0  0  0  0  0  0  0  0  0  0  0
   -0.8246   -0.3180   -0.4350 N   0  0  0  0  0  0  0  0  0  0  0  0
   -2.0106    0.5080   -0.5910 C   0  0  0  0  0  0  0  0  0  0  0  0
   -2.2764    1.1290    0.2660 H   0  0  0  0  0  0  0  0  0  0  0  0
   -2.9044    0.0714   -1.0353 H   0  0  0  0  0  0  0  0  0  0  0  0
   -1.2674    1.3443   -1.6305 C   0  0  0  0  0  0  0  0  0  0  0  0
   -1.9071    2.1297   -2.0361 H   0  0  0  0  0  0  0  0  0  0  0  0
   -0.9061    0.6900   -2.4245 H   0  0  0  0  0  0  0  0  0  0  0  0
   -0.0827    1.9176   -0.8529 C   0  0  0  0  0  0  0  0  0  0  0  0
   -0.3686    2.5236    0.0091 H   0  0  0  0  0  0  0  0  0  0  0  0
    0.6903    2.4250   -1.4299 H   0  0  0  0  0  0  0  0  0  0  0  0
    0.3724    0.5200   -0.4020 C   0  0  1  0  0  0  0  0  0  0  0  0
    1.0855    0.1292   -1.1282 H   0  0  0  0  0  0  0  0  0  0  0  0
    1.0225    0.5498    0.9914 C   0  0  0  0  0  0  0  0  0  0  0  0
    0.3916    0.1863    1.9819 O   0  0  0  0  0  0  0  0  0  0  0  0
    2.2727    1.0217    1.0689 N   0  0  0  0  0  0  0  0  0  0  0  0
    2.7433    1.2438    0.2062 H   0  0  0  0  0  0  0  0  0  0  0  0
    3.0302    1.1250    2.3139 C   0  0  0  0  0  0  0  0  0  0  0  0
    3.2101    0.1252    2.7148 H   0  0  0  0  0  0  0  0  0  0  0  0
    3.9854    1.6200    2.1361 H   0  0  0  0  0  0  0  0  0  0  0  0
    2.4576    1.6951    3.0487 H   0  0  0  0  0  0  0  0  0  0  0  0
  5  6  2  0  0  0  0
  5  7  1  0  0  0  0
  2  3  1  0  0  0  0
  2  4  1  0  0  0  0
  2  5  1  0  0  0  0
  1  2  1  0  0  0  0
 19 20  2  0  0  0  0
 19 21  1  0  0  0  0
 17 18  1  0  0  0  0
 17 19  1  0  0  0  0
 14 15  1  0  0  0  0
 14 16  1  0  0  0  0
 14 17  1  0  0  0  0
 11 12  1  0  0  0  0
 11 13  1  0  0  0  0
 11 14  1  0  0  0  0
  8  9  1  0  0  0  0
  8 10  1  0  0  0  0
  8 11  1  0  0  0  0
  7  8  1  0  0  0  0
  7 17  1  0  0  0  0
 23 24  1  0  0  0  0
 23 25  1  0  0  0  0
 23 26  1  0  0  0  0
 21 22  1  0  0  0  0
 21 23  1  0  0  0  0
M  END
$$$$
default_name
  -OEChem-01062215323D

 26 26  0     1  0  0  0  0  0999 V2000
   -1.8446   -3.5060   -0.3010 H   0  0  0  0  0  0  0  0  0  0  0  0
   -2.0746   -2.4490   -0.4240 C   0  0  0  0  0  0  0  0  0  0  0  0
   -2.6906   -2.1160    0.4090 H   0  0  0  0  0  0  0  0  0  0  0  0
   -2.5986   -2.2980   -1.3650 H   0  0  0  0  0  0  0  0  0  0  0  0
   -0.7756   -1.6630   -0.4350 C   0  0  0  0  0  0  0  0  0  0  0  0
    0.2844   -2.2800   -0.4550 O   0  0  0  0  0  0  0  0  0  0  0  0
   -0.8246   -0.3180   -0.4350 N   0  0  0  0  0  0  0  0  0  0  0  0
   -2.0106    0.5080   -0.5910 C   0  0  0  0  0  0  0  0  0  0  0  0
   -2.2764    1.1290    0.2660 H   0  0  0  0  0  0  0  0  0  0  0  0
   -2.9044    0.0714   -1.0353 H   0  0  0  0  0  0  0  0  0  0  0  0
   -1.2674    1.3443   -1.6305 C   0  0  0  0  0  0  0  0  0  0  0  0
   -1.9071    2.1297   -2.0361 H   0  0  0  0  0  0  0  0  0  0  0  0
   -0.9061    0.6900   -2.4245 H   0  0  0  0  0  0  0  0  0  0  0  0
   -0.0827    1.9176   -0.8529 C   0  0  0  0  0  0  0  0  0  0  0  0
   -0.3686    2.5236    0.0091 H   0  0  0  0  0  0  0  0  0  0  0  0
    0.6903    2.4250   -1.4299 H   0  0  0  0  0  0  0  0  0  0  0  0
    0.3724    0.5200   -0.4020 C   0  0  1  0  0  0  0  0  0  0  0  0
    1.0855    0.1292   -1.1282 H   0  0  0  0  0  0  0  0  0  0  0  0
    1.0225    0.5498    0.9914 C   0  0  0  0  0  0  0  0  0  0  0  0
    0.5123   -0.0573    1.9307 O   0  0  0  0  0  0  0  0  0  0  0  0
    2.1286    1.2907    1.1303 N   0  0  0  0  0  0  0  0  0  0  0  0
    2.5184    1.7096    0.3012 H   0  0  0  0  0  0  0  0  0  0  0  0
    2.8632    1.4329    2.3852 C   0  0  0  0  0  0  0  0  0  0  0  0
    3.2795    0.4657    2.6752 H   0  0  0  0  0  0  0  0  0  0  0  0
    3.6726    2.1546    2.2707 H   0  0  0  0  0  0  0  0  0  0  0  0
    2.1864    1.7691    3.1736 H   0  0  0  0  0  0  0  0  0  0  0  0
  5  6  2  0  0  0  0
  5  7  1  0  0  0  0
  2  3  1  0  0  0  0
  2  4  1  0  0  0  0
  2  5  1  0  0  0  0
  1  2  1  0  0  0  0
 19 20  2  0  0  0  0
 19 21  1  0  0  0  0
 17 18  1  0  0  0  0
 17 19  1  0  0  0  0
 14 15  1  0  0  0  0
 14 16  1  0  0  0  0
 14 17  1  0  0  0  0
 11 12  1  0  0  0  0
 11 13  1  0  0  0  0
 11 14  1  0  0  0  0
  8  9  1  0  0  0  0
  8 10  1  0  0  0  0
  8 11  1  0  0  0  0
  7  8  1  0  0  0  0
  7 17  1  0  0  0  0
 23 24  1  0  0  0  0
 23 25  1  0  0  0  0
 23 26  1  0  0  0  0
 21 22  1  0  0  0  0
 21 23  1  0  0  0  0
M  END
$$$$
default_name
  -OEChem-01062215323D

 26 26  0     1  0  0  0  0  0999 V2000
   -1.8446   -3.5060   -0.3010 H   0  0  0  0  0  0  0  0  0  0  0  0
   -2.0746   -2.4490   -0.4240 C   0  0  0  0  0  0  0  0  0  0  0  0
   -2.6906   -2.1160    0.4090 H   0  0  0  0  0  0  0  0  0  0  0  0
   -2.5986   -2.2980   -1.3650 H   0  0  0  0  0  0  0  0  0  0  0  0
   -0.7756   -1.6630   -0.4350 C   0  0  0  0  0  0  0  0  0  0  0  0
    0.2844   -2.2800   -0.4550 O   0  0  0  0  0  0  0  0  0  0  0  0
   -0.8246   -0.3180   -0.4350 N   0  0  0  0  0  0  0  0  0  0  0  0
   -2.0106    0.5080   -0.5910 C   0  0  0  0  0  0  0  0  0  0  0  0
   -2.2764    1.1290    0.2660 H   0  0  0  0  0  0  0  0  0  0  0  0
   -2.9044    0.0714   -1.0353 H   0  0  0  0  0  0  0  0  0  0  0  0
   -1.2674    1.3443   -1.6305 C   0  0  0  0  0  0  0  0  0  0  0  0
   -1.9071    2.1297   -2.0361 H   0  0  0  0  0  0  0  0  0  0  0  0
   -0.9061    0.6900   -2.4245 H   0  0  0  0  0  0  0  0  0  0  0  0
   -0.0827    1.9176   -0.8529 C   0  0  0  0  0  0  0  0  0  0  0  0
   -0.3686    2.5236    0.0091 H   0  0  0  0  0  0  0  0  0  0  0  0
    0.6903    2.4250   -1.4299 H   0  0  0  0  0  0  0  0  0  0  0  0
    0.3724    0.5200   -0.4020 C   0  0  1  0  0  0  0  0  0  0  0  0
    1.0855    0.1292   -1.1282 H   0  0  0  0  0  0  0  0  0  0  0  0
    1.0225    0.5498    0.9914 C   0  0  0  0  0  0  0  0  0  0  0  0
    0.6857   -0.2586    1.8541 O   0  0  0  0  0  0  0  0  0  0  0  0
    1.9267    1.5100    1.2199 N   0  0  0  0  0  0  0  0  0  0  0  0
    2.1924    2.0964    0.4450 H   0  0  0  0  0  0  0  0  0  0  0  0
    2.6301    1.6833    2.4886 C   0  0  0  0  0  0  0  0  0  0  0  0
    3.2664    0.8153    2.6738 H   0  0  0  0  0  0  0  0  0  0  0  0
    3.2456    2.5830    2.4607 H   0  0  0  0  0  0  0  0  0  0  0  0
    1.9077    1.7634    3.3038 H   0  0  0  0  0  0  0  0  0  0  0  0
  5  6  2  0  0  0  0
  5  7  1  0  0  0  0
  2  3  1  0  0  0  0
  2  4  1  0  0  0  0
  2  5  1  0  0  0  0
  1  2  1  0  0  0  0
 19 20  2  0  0  0  0
 19 21  1  0  0  0  0
 17 18  1  0  0  0  0
 17 19  1  0  0  0  0
 14 15  1  0  0  0  0
 14 16  1  0  0  0  0
 14 17  1  0  0  0  0
 11 12  1  0  0  0  0
 11 13  1  0  0  0  0
 11 14  1  0  0  0  0
  8  9  1  0  0  0  0
  8 10  1  0  0  0  0
  8 11  1  0  0  0  0
  7  8  1  0  0  0  0
  7 17  1  0  0  0  0
 23 24  1  0  0  0  0
 23 25  1  0  0  0  0
 23 26  1  0  0  0  0
 21 22  1  0  0  0  0
 21 23  1  0  0  0  0
M  END
$$$$
default_name
  -OEChem-01062215323D

 26 26  0     1  0  0  0  0  0999 V2000
   -1.8446   -3.5060   -0.3010 H   0  0  0  0  0  0  0  0  0  0  0  0
   -2.0746   -2.4490   -0.4240 C   0  0  0  0  0  0  0  0  0  0  0  0
   -2.6906   -2.1160    0.4090 H   0  0  0  0  0  0  0  0  0  0  0  0
   -2.5986   -2.2980   -1.3650 H   0  0  0  0  0  0  0  0  0  0  0  0
   -0.7756   -1.6630   -0.4350 C   0  0  0  0  0  0  0  0  0  0  0  0
    0.2844   -2.2800   -0.4550 O   0  0  0  0  0  0  0  0  0  0  0  0
   -0.8246   -0.3180   -0.4350 N   0  0  0  0  0  0  0  0  0  0  0  0
   -2.0106    0.5080   -0.5910 C   0  0  0  0  0  0  0  0  0  0  0  0
   -2.2764    1.1290    0.2660 H   0  0  0  0  0  0  0  0  0  0  0  0
   -2.9044    0.0714   -1.0353 H   0  0  0  0  0  0  0  0  0  0  0  0
   -1.2674    1.3443   -1.6305 C   0  0  0  0  0  0  0  0  0  0  0  0
   -1.9071    2.1297   -2.0361 H   0  0  0  0  0  0  0  0  0  0  0  0
   -0.9061    0.6900   -2.4245 H   0  0  0  0  0  0  0  0  0  0  0  0
   -0.0827    1.9176   -0.8529 C   0  0  0  0  0  0  0  0  0  0  0  0
   -0.3686    2.5236    0.0091 H   0  0  0  0  0  0  0  0  0  0  0  0
    0.6903    2.4250   -1.4299 H   0  0  0  0  0  0  0  0  0  0  0  0
    0.3724    0.5200   -0.4020 C   0  0  1  0  0  0  0  0  0  0  0  0
    1.0855    0.1292   -1.1282 H   0  0  0  0  0  0  0  0  0  0  0  0
    1.0225    0.5498    0.9914 C   0  0  0  0  0  0  0  0  0  0  0  0
    0.9001   -0.4040    1.7572 O   0  0  0  0  0  0  0  0  0  0  0  0
    1.6806    1.6647    1.3313 N   0  0  0  0  0  0  0  0  0  0  0  0
    1.7876    2.3779    0.6279 H   0  0  0  0  0  0  0  0  0  0  0  0
    2.3467    1.8592    2.6171 C   0  0  0  0  0  0  0  0  0  0  0  0
    3.1719    1.1500    2.7107 H   0  0  0  0  0  0  0  0  0  0  0  0
    2.7338    2.8758    2.6932 H   0  0  0  0  0  0  0  0  0  0  0  0
    1.6404    1.6783    3.4303 H   0  0  0  0  0  0  0  0  0  0  0  0
  5  6  2  0  0  0  0
  5  7  1  0  0  0  0
  2  3  1  0  0  0  0
  2  4  1  0  0  0  0
  2  5  1  0  0  0  0
  1  2  1  0  0  0  0
 19 20  2  0  0  0  0
 19 21  1  0  0  0  0
 17 18  1  0  0  0  0
 17 19  1  0  0  0  0
 14 15  1  0  0  0  0
 14 16  1  0  0  0  0
 14 17  1  0  0  0  0
 11 12  1  0  0  0  0
 11 13  1  0  0  0  0
 11 14  1  0  0  0  0
  8  9  1  0  0  0  0
  8 10  1  0  0  0  0
  8 11  1  0  0  0  0
  7  8  1  0  0  0  0
  7 17  1  0  0  0  0
 23 24  1  0  0  0  0
 23 25  1  0  0  0  0
 23 26  1  0  0  0  0
 21 22  1  0  0  0  0
 21 23  1  0  0  0  0
M  END
$$$$
default_name
  -OEChem-01062215323D

 26 26  0     1  0  0  0  0  0999 V2000
   -1.8446   -3.5060   -0.3010 H   0  0  0  0  0  0  0  0  0  0  0  0
   -2.0746   -2.4490   -0.4240 C   0  0  0  0  0  0  0  0  0  0  0  0
   -2.6906   -2.1160    0.4090 H   0  0  0  0  0  0  0  0  0  0  0  0
   -2.5986   -2.2980   -1.3650 H   0  0  0  0  0  0  0  0  0  0  0  0
   -0.7756   -1.6630   -0.4350 C   0  0  0  0  0  0  0  0  0  0  0  0
    0.2844   -2.2800   -0.4550 O   0  0  0  0  0  0  0  0  0  0  0  0
   -0.8246   -0.3180   -0.4350 N   0  0  0  0  0  0  0  0  0  0  0  0
   -2.0106    0.5080   -0.5910 C   0  0  0  0  0  0  0  0  0  0  0  0
   -2.2764    1.1290    0.2660 H   0  0  0  0  0  0  0  0  0  0  0  0
   -2.9044    0.0714   -1.0353 H   0  0  0  0  0  0  0  0  0  0  0  0
   -1.2674    1.3443   -1.6305 C   0  0  0  0  0  0  0  0  0  0  0  0
   -1.9071    2.1297   -2.0361 H   0  0  0  0  0  0  0  0  0  0  0  0
   -0.9061    0.6900   -2.4245 H   0  0  0  0  0  0  0  0  0  0  0  0
   -0.0827    1.9176   -0.8529 C   0  0  0  0  0  0  0  0  0  0  0  0
   -0.3686    2.5236    0.0091 H   0  0  0  0  0  0  0  0  0  0  0  0
    0.6903    2.4250   -1.4299 H   0  0  0  0  0  0  0  0  0  0  0  0
    0.3724    0.5200   -0.4020 C   0  0  1  0  0  0  0  0  0  0  0  0
    1.0855    0.1292   -1.1282 H   0  0  0  0  0  0  0  0  0  0  0  0
    1.0225    0.5498    0.9914 C   0  0  0  0  0  0  0  0  0  0  0  0
    1.1408   -0.4836    1.6466 O   0  0  0  0  0  0  0  0  0  0  0  0
    1.4072    1.7443    1.4572 N   0  0  0  0  0  0  0  0  0  0  0  0
    1.3314    2.5348    0.8373 H   0  0  0  0  0  0  0  0  0  0  0  0
    2.0323    1.9486    2.7618 C   0  0  0  0  0  0  0  0  0  0  0  0
    3.0022    1.4471    2.7835 H   0  0  0  0  0  0  0  0  0  0  0  0
    2.1719    3.0131    2.9525 H   0  0  0  0  0  0  0  0  0  0  0  0
    1.4029    1.5195    3.5445 H   0  0  0  0  0  0  0  0  0  0  0  0
  5  6  2  0  0  0  0
  5  7  1  0  0  0  0
  2  3  1  0  0  0  0
  2  4  1  0  0  0  0
  2  5  1  0  0  0  0
  1  2  1  0  0  0  0
 19 20  2  0  0  0  0
 19 21  1  0  0  0  0
 17 18  1  0  0  0  0
 17 19  1  0  0  0  0
 14 15  1  0  0  0  0
 14 16  1  0  0  0  0
 14 17  1  0  0  0  0
 11 12  1  0  0  0  0
 11 13  1  0  0  0  0
 11 14  1  0  0  0  0
  8  9  1  0  0  0  0
  8 10  1  0  0  0  0
  8 11  1  0  0  0  0
  7  8  1  0  0  0  0
  7 17  1  0  0  0  0
 23 24  1  0  0  0  0
 23 25  1  0  0  0  0
 23 26  1  0  0  0  0
 21 22  1  0  0  0  0
 21 23  1  0  0  0  0
M  END
$$$$
default_name
  -OEChem-01062215323D

 26 26  0     1  0  0  0  0  0999 V2000
   -1.8446   -3.5060   -0.3010 H   0  0  0  0  0  0  0  0  0  0  0  0
   -2.0746   -2.4490   -0.4240 C   0  0  0  0  0  0  0  0  0  0  0  0
   -2.6906   -2.1160    0.4090 H   0  0  0  0  0  0  0  0  0  0  0  0
   -2.5986   -2.2980   -1.3650 H   0  0  0  0  0  0  0  0  0  0  0  0
   -0.7756   -1.6630   -0.4350 C   0  0  0  0  0  0  0  0  0  0  0  0
    0.2844   -2.2800   -0.4550 O   0  0  0  0  0  0  0  0  0  0  0  0
   -0.8246   -0.3180   -0.4350 N   0  0  0  0  0  0  0  0  0  0  0  0
   -2.0106    0.5080   -0.5910 C   0  0  0  0  0  0  0  0  0  0  0  0
   -2.2764    1.1290    0.2660 H   0  0  0  0  0  0  0  0  0  0  0  0
   -2.9044    0.0714   -1.0353 H   0  0  0  0  0  0  0  0  0  0  0  0
   -1.2674    1.3443   -1.6305 C   0  0  0  0  0  0  0  0  0  0  0  0
   -1.9071    2.1297   -2.0361 H   0  0  0  0  0  0  0  0  0  0  0  0
   -0.9061    0.6900   -2.4245 H   0  0  0  0  0  0  0  0  0  0  0  0
   -0.0827    1.9176   -0.8529 C   0  0  0  0  0  0  0  0  0  0  0  0
   -0.3686    2.5236    0.0091 H   0  0  0  0  0  0  0  0  0  0  0  0
    0.6903    2.4250   -1.4299 H   0  0  0  0  0  0  0  0  0  0  0  0
    0.3724    0.5200   -0.4020 C   0  0  1  0  0  0  0  0  0  0  0  0
    1.0855    0.1292   -1.1282 H   0  0  0  0  0  0  0  0  0  0  0  0
    1.0225    0.5498    0.9914 C   0  0  0  0  0  0  0  0  0  0  0  0
    1.3914   -0.4919    1.5299 O   0  0  0  0  0  0  0  0  0  0  0  0
    1.1251    1.7432    1.5889 N   0  0  0  0  0  0  0  0  0  0  0  0
    0.8551    2.5565    1.0591 H   0  0  0  0  0  0  0  0  0  0  0  0
    1.7084    1.9454    2.9130 C   0  0  0  0  0  0  0  0  0  0  0  0
    2.7691    1.6863    2.8872 H   0  0  0  0  0  0  0  0  0  0  0  0
    1.5982    2.9857    3.2207 H   0  0  0  0  0  0  0  0  0  0  0  0
    1.2113    1.2980    3.6387 H   0  0  0  0  0  0  0  0  0  0  0  0
  5  6  2  0  0  0  0
  5  7  1  0  0  0  0
  2  3  1  0  0  0  0
  2  4  1  0  0  0  0
  2  5  1  0  0  0  0
  1  2  1  0  0  0  0
 19 20  2  0  0  0  0
 19 21  1  0  0  0  0
 17 18  1  0  0  0  0
 17 19  1  0  0  0  0
 14 15  1  0  0  0  0
 14 16  1  0  0  0  0
 14 17  1  0  0  0  0
 11 12  1  0  0  0  0
 11 13  1  0  0  0  0
 11 14  1  0  0  0  0
  8  9  1  0  0  0  0
  8 10  1  0  0  0  0
  8 11  1  0  0  0  0
  7  8  1  0  0  0  0
  7 17  1  0  0  0  0
 23 24  1  0  0  0  0
 23 25  1  0  0  0  0
 23 26  1  0  0  0  0
 21 22  1  0  0  0  0
 21 23  1  0  0  0  0
M  END
$$$$
default_name
  -OEChem-01062215323D

 26 26  0     1  0  0  0  0  0999 V2000
   -1.8446   -3.5060   -0.3010 H   0  0  0  0  0  0  0  0  0  0  0  0
   -2.0746   -2.4490   -0.4240 C   0  0  0  0  0  0  0  0  0  0  0  0
   -2.6906   -2.1160    0.4090 H   0  0  0  0  0  0  0  0  0  0  0  0
   -2.5986   -2.2980   -1.3650 H   0  0  0  0  0  0  0  0  0  0  0  0
   -0.7756   -1.6630   -0.4350 C   0  0  0  0  0  0  0  0  0  0  0  0
    0.2844   -2.2800   -0.4550 O   0  0  0  0  0  0  0  0  0  0  0  0
   -0.8246   -0.3180   -0.4350 N   0  0  0  0  0  0  0  0  0  0  0  0
   -2.0106    0.5080   -0.5910 C   0  0  0  0  0  0  0  0  0  0  0  0
   -2.2764    1.1290    0.2660 H   0  0  0  0  0  0  0  0  0  0  0  0
   -2.9044    0.0714   -1.0353 H   0  0  0  0  0  0  0  0  0  0  0  0
   -1.2674    1.3443   -1.6305 C   0  0  0  0  0  0  0  0  0  0  0  0
   -1.9071    2.1297   -2.0361 H   0  0  0  0  0  0  0  0  0  0  0  0
   -0.9061    0.6900   -2.4245 H   0  0  0  0  0  0  0  0  0  0  0  0
   -0.0827    1.9176   -0.8529 C   0  0  0  0  0  0  0  0  0  0  0  0
   -0.3686    2.5236    0.0091 H   0  0  0  0  0  0  0  0  0  0  0  0
    0.6903    2.4250   -1.4299 H   0  0  0  0  0  0  0  0  0  0  0  0
    0.3724    0.5200   -0.4020 C   0  0  1  0  0  0  0  0  0  0  0  0
    1.0855    0.1292   -1.1282 H   0  0  0  0  0  0  0  0  0  0  0  0
    1.0225    0.5498    0.9914 C   0  0  0  0  0  0  0  0  0  0  0  0
    1.6348   -0.4284    1.4150 O   0  0  0  0  0  0  0  0  0  0  0  0
    0.8535    1.6616    1.7173 N   0  0  0  0  0  0  0  0  0  0  0  0
    0.3910    2.4414    1.2781 H   0  0  0  0  0  0  0  0  0  0  0  0
    1.3971    1.8498    3.0603 C   0  0  0  0  0  0  0  0  0  0  0  0
    2.4883    1.8514    3.0146 H   0  0  0  0  0  0  0  0  0  0  0  0
    1.0518    2.7953    3.4797 H   0  0  0  0  0  0  0  0  0  0  0  0
    1.0786    1.0288    3.7063 H   0  0  0  0  0  0  0  0  0  0  0  0
  5  6  2  0  0  0  0
  5  7  1  0  0  0  0
  2  3  1  0  0  0  0
  2  4  1  0  0  0  0
  2  5  1  0  0  0  0
  1  2  1  0  0  0  0
 19 20  2  0  0  0  0
 19 21  1  0  0  0  0
 17 18  1  0  0  0  0
 17 19  1  0  0  0  0
 14 15  1  0  0  0  0
 14 16  1  0  0  0  0
 14 17  1  0  0  0  0
 11 12  1  0  0  0  0
 11 13  1  0  0  0  0
 11 14  1  0  0  0  0
  8  9  1  0  0  0  0
  8 10  1  0  0  0  0
  8 11  1  0  0  0  0
  7  8  1  0  0  0  0
  7 17  1  0  0  0  0
 23 24  1  0  0  0  0
 23 25  1  0  0  0  0
 23 26  1  0  0  0  0
 21 22  1  0  0  0  0
 21 23  1  0  0  0  0
M  END
$$$$
default_name
  -OEChem-01062215323D

 26 26  0     1  0  0  0  0  0999 V2000
   -1.8446   -3.5060   -0.3010 H   0  0  0  0  0  0  0  0  0  0  0  0
   -2.0746   -2.4490   -0.4240 C   0  0  0  0  0  0  0  0  0  0  0  0
   -2.6906   -2.1160    0.4090 H   0  0  0  0  0  0  0  0  0  0  0  0
   -2.5986   -2.2980   -1.3650 H   0  0  0  0  0  0  0  0  0  0  0  0
   -0.7756   -1.6630   -0.4350 C   0  0  0  0  0  0  0  0  0  0  0  0
    0.2844   -2.2800   -0.4550 O   0  0  0  0  0  0  0  0  0  0  0  0
   -0.8246   -0.3180   -0.4350 N   0  0  0  0  0  0  0  0  0  0  0  0
   -2.0106    0.5080   -0.5910 C   0  0  0  0  0  0  0  0  0  0  0  0
   -2.2764    1.1290    0.2660 H   0  0  0  0  0  0  0  0  0  0  0  0
   -2.9044    0.0714   -1.0353 H   0  0  0  0  0  0  0  0  0  0  0  0
   -1.2674    1.3443   -1.6305 C   0  0  0  0  0  0  0  0  0  0  0  0
   -1.9071    2.1297   -2.0361 H   0  0  0  0  0  0  0  0  0  0  0  0
   -0.9061    0.6900   -2.4245 H   0  0  0  0  0  0  0  0  0  0  0  0
   -0.0827    1.9176   -0.8529 C   0  0  0  0  0  0  0  0  0  0  0  0
   -0.3686    2.5236    0.0091 H   0  0  0  0  0  0  0  0  0  0  0  0
    0.6903    2.4250   -1.4299 H   0  0  0  0  0  0  0  0  0  0  0  0
    0.3724    0.5200   -0.4020 C   0  0  1  0  0  0  0  0  0  0  0  0
    1.0855    0.1292   -1.1282 H   0  0  0  0  0  0  0  0  0  0  0  0
    1.0225    0.5498    0.9914 C   0  0  0  0  0  0  0  0  0  0  0  0
    1.8545   -0.2975    1.3097 O   0  0  0  0  0  0  0  0  0  0  0  0
    0.6109    1.5051    1.8338 N   0  0  0  0  0  0  0  0  0  0  0  0
   -0.0292    2.1975    1.4794 H   0  0  0  0  0  0  0  0  0  0  0  0
    1.1196    1.6683    3.1937 C   0  0  0  0  0  0  0  0  0  0  0  0
    2.1790    1.9310    3.1572 H   0  0  0  0  0  0  0  0  0  0  0  0
    0.5701    2.4549    3.7118 H   0  0  0  0  0  0  0  0  0  0  0  0
    1.0140    0.7302    3.7429 H   0  0  0  0  0  0  0  0  0  0  0  0
  5  6  2  0  0  0  0
  5  7  1  0  0  0  0
  2  3  1  0  0  0  0
  2  4  1  0  0  0  0
  2  5  1  0  0  0  0
  1  2  1  0  0  0  0
 19 20  2  0  0  0  0
 19 21  1  0  0  0  0
 17 18  1  0  0  0  0
 17 19  1  0  0  0  0
 14 15  1  0  0  0  0
 14 16  1  0  0  0  0
 14 17  1  0  0  0  0
 11 12  1  0  0  0  0
 11 13  1  0  0  0  0
 11 14  1  0  0  0  0
  8  9  1  0  0  0  0
  8 10  1  0  0  0  0
  8 11  1  0  0  0  0
  7  8  1  0  0  0  0
  7 17  1  0  0  0  0
 23 24  1  0  0  0  0
 23 25  1  0  0  0  0
 23 26  1  0  0  0  0
 21 22  1  0  0  0  0
 21 23  1  0  0  0  0
M  END
$$$$
default_name
  -OEChem-01062215323D

 26 26  0     1  0  0  0  0  0999 V2000
   -1.8446   -3.5060   -0.3010 H   0  0  0  0  0  0  0  0  0  0  0  0
   -2.0746   -2.4490   -0.4240 C   0  0  0  0  0  0  0  0  0  0  0  0
   -2.6906   -2.1160    0.4090 H   0  0  0  0  0  0  0  0  0  0  0  0
   -2.5986   -2.2980   -1.3650 H   0  0  0  0  0  0  0  0  0  0  0  0
   -0.7756   -1.6630   -0.4350 C   0  0  0  0  0  0  0  0  0  0  0  0
    0.2844   -2.2800   -0.4550 O   0  0  0  0  0  0  0  0  0  0  0  0
   -0.8246   -0.3180   -0.4350 N   0  0  0  0  0  0  0  0  0  0  0  0
   -2.0106    0.5080   -0.5910 C   0  0  0  0  0  0  0  0  0  0  0  0
   -2.2764    1.1290    0.2660 H   0  0  0  0  0  0  0  0  0  0  0  0
   -2.9044    0.0714   -1.0353 H   0  0  0  0  0  0  0  0  0  0  0  0
   -1.2674    1.3443   -1.6305 C   0  0  0  0  0  0  0  0  0  0  0  0
   -1.9071    2.1297   -2.0361 H   0  0  0  0  0  0  0  0  0  0  0  0
   -0.9061    0.6900   -2.4245 H   0  0  0  0  0  0  0  0  0  0  0  0
   -0.0827    1.9176   -0.8529 C   0  0  0  0  0  0  0  0  0  0  0  0
   -0.3686    2.5236    0.0091 H   0  0  0  0  0  0  0  0  0  0  0  0
    0.6903    2.4250   -1.4299 H   0  0  0  0  0  0  0  0  0  0  0  0
    0.3724    0.5200   -0.4020 C   0  0  1  0  0  0  0  0  0  0  0  0
    1.0855    0.1292   -1.1282 H   0  0  0  0  0  0  0  0  0  0  0  0
    1.0225    0.5498    0.9914 C   0  0  0  0  0  0  0  0  0  0  0  0
    2.0354   -0.1079    1.2212 O   0  0  0  0  0  0  0  0  0  0  0  0
    0.4140    1.2843    1.9305 N   0  0  0  0  0  0  0  0  0  0  0  0
   -0.3769    1.8414    1.6492 H   0  0  0  0  0  0  0  0  0  0  0  0
    0.8947    1.4134    3.3041 C   0  0  0  0  0  0  0  0  0  0  0  0
    1.8623    1.9198    3.3053 H   0  0  0  0  0  0  0  0  0  0  0  0
    0.1857    1.9878    3.9011 H   0  0  0  0  0  0  0  0  0  0  0  0
    1.0217    0.4226    3.7459 H   0  0  0  0  0  0  0  0  0  0  0  0
  5  6  2  0  0  0  0
  5  7  1  0  0  0  0
  2  3  1  0  0  0  0
  2  4  1  0  0  0  0
  2  5  1  0  0  0  0
  1  2  1  0  0  0  0
 19 20  2  0  0  0  0
 19 21  1  0  0  0  0
 17 18  1  0  0  0  0
 17 19  1  0  0  0  0
 14 15  1  0  0  0  0
 14 16  1  0  0  0  0
 14 17  1  0  0  0  0
 11 12  1  0  0  0  0
 11 13  1  0  0  0  0
 11 14  1  0  0  0  0
  8  9  1  0  0  0  0
  8 10  1  0  0  0  0
  8 11  1  0  0  0  0
  7  8  1  0  0  0  0
  7 17  1  0  0  0  0
 23 24  1  0  0  0  0
 23 25  1  0  0  0  0
 23 26  1  0  0  0  0
 21 22  1  0  0  0  0
 21 23  1  0  0  0  0
M  END
$$$$
default_name
  -OEChem-01062215323D

 26 26  0     1  0  0  0  0  0999 V2000
   -1.8446   -3.5060   -0.3010 H   0  0  0  0  0  0  0  0  0  0  0  0
   -2.0746   -2.4490   -0.4240 C   0  0  0  0  0  0  0  0  0  0  0  0
   -2.6906   -2.1160    0.4090 H   0  0  0  0  0  0  0  0  0  0  0  0
   -2.5986   -2.2980   -1.3650 H   0  0  0  0  0  0  0  0  0  0  0  0
   -0.7756   -1.6630   -0.4350 C   0  0  0  0  0  0  0  0  0  0  0  0
    0.2844   -2.2800   -0.4550 O   0  0  0  0  0  0  0  0  0  0  0  0
   -0.8246   -0.3180   -0.4350 N   0  0  0  0  0  0  0  0  0  0  0  0
   -2.0106    0.5080   -0.5910 C   0  0  0  0  0  0  0  0  0  0  0  0
   -2.2764    1.1290    0.2660 H   0  0  0  0  0  0  0  0  0  0  0  0
   -2.9044    0.0714   -1.0353 H   0  0  0  0  0  0  0  0  0  0  0  0
   -1.2674    1.3443   -1.6305 C   0  0  0  0  0  0  0  0  0  0  0  0
   -1.9071    2.1297   -2.0361 H   0  0  0  0  0  0  0  0  0  0  0  0
   -0.9061    0.6900   -2.4245 H   0  0  0  0  0  0  0  0  0  0  0  0
   -0.0827    1.9176   -0.8529 C   0  0  0  0  0  0  0  0  0  0  0  0
   -0.3686    2.5236    0.0091 H   0  0  0  0  0  0  0  0  0  0  0  0
    0.6903    2.4250   -1.4299 H   0  0  0  0  0  0  0  0  0  0  0  0
    0.3724    0.5200   -0.4020 C   0  0  1  0  0  0  0  0  0  0  0  0
    1.0855    0.1292   -1.1282 H   0  0  0  0  0  0  0  0  0  0  0  0
    1.0225    0.5498    0.9914 C   0  0  0  0  0  0  0  0  0  0  0  0
    2.1653    0.1273    1.1556 O   0  0  0  0  0  0  0  0  0  0  0  0
    0.2759    1.0142    2.0007 N   0  0  0  0  0  0  0  0  0  0  0  0
   -0.6283    1.3973    1.7760 H   0  0  0  0  0  0  0  0  0  0  0  0
    0.7378    1.1023    3.3839 C   0  0  0  0  0  0  0  0  0  0  0  0
    1.5597    1.8185    3.4486 H   0  0  0  0  0  0  0  0  0  0  0  0
   -0.0751    1.4257    4.0348 H   0  0  0  0  0  0  0  0  0  0  0  0
    1.1013    0.1271    3.7151 H   0  0  0  0  0  0  0  0  0  0  0  0
  5  6  2  0  0  0  0
  5  7  1  0  0  0  0
  2  3  1  0  0  0  0
  2  4  1  0  0  0  0
  2  5  1  0  0  0  0
  1  2  1  0  0  0  0
 19 20  2  0  0  0  0
 19 21  1  0  0  0  0
 17 18  1  0  0  0  0
 17 19  1  0  0  0  0
 14 15  1  0  0  0  0
 14 16  1  0  0  0  0
 14 17  1  0  0  0  0
 11 12  1  0  0  0  0
 11 13  1  0  0  0  0
 11 14  1  0  0  0  0
  8  9  1  0  0  0  0
  8 10  1  0  0  0  0
  8 11  1  0  0  0  0
  7  8  1  0  0  0  0
  7 17  1  0  0  0  0
 23 24  1  0  0  0  0
 23 25  1  0  0  0  0
 23 26  1  0  0  0  0
 21 22  1  0  0  0  0
 21 23  1  0  0  0  0
M  END
$$$$
default_name
  -OEChem-01062215323D

 26 26  0     1  0  0  0  0  0999 V2000
   -1.8446   -3.5060   -0.3010 H   0  0  0  0  0  0  0  0  0  0  0  0
   -2.0746   -2.4490   -0.4240 C   0  0  0  0  0  0  0  0  0  0  0  0
   -2.6906   -2.1160    0.4090 H   0  0  0  0  0  0  0  0  0  0  0  0
   -2.5986   -2.2980   -1.3650 H   0  0  0  0  0  0  0  0  0  0  0  0
   -0.7756   -1.6630   -0.4350 C   0  0  0  0  0  0  0  0  0  0  0  0
    0.2844   -2.2800   -0.4550 O   0  0  0  0  0  0  0  0  0  0  0  0
   -0.8246   -0.3180   -0.4350 N   0  0  0  0  0  0  0  0  0  0  0  0
   -2.0106    0.5080   -0.5910 C   0  0  0  0  0  0  0  0  0  0  0  0
   -2.2764    1.1290    0.2660 H   0  0  0  0  0  0  0  0  0  0  0  0
   -2.9044    0.0714   -1.0353 H   0  0  0  0  0  0  0  0  0  0  0  0
   -1.2674    1.3443   -1.6305 C   0  0  0  0  0  0  0  0  0  0  0  0
   -1.9071    2.1297   -2.0361 H   0  0  0  0  0  0  0  0  0  0  0  0
   -0.9061    0.6900   -2.4245 H   0  0  0  0  0  0  0  0  0  0  0  0
   -0.0827    1.9176   -0.8529 C   0  0  0  0  0  0  0  0  0  0  0  0
   -0.3686    2.5236    0.0091 H   0  0  0  0  0  0  0  0  0  0  0  0
    0.6903    2.4250   -1.4299 H   0  0  0  0  0  0  0  0  0  0  0  0
    0.3724    0.5200   -0.4020 C   0  0  1  0  0  0  0  0  0  0  0  0
    1.0855    0.1292   -1.1282 H   0  0  0  0  0  0  0  0  0  0  0  0
    1.0225    0.5498    0.9914 C   0  0  0  0  0  0  0  0  0  0  0  0
    2.2352    0.3921    1.1172 O   0  0  0  0  0  0  0  0  0  0  0  0
    0.2063    0.7133    2.0396 N   0  0  0  0  0  0  0  0  0  0  0  0
   -0.7664    0.8954    1.8512 H   0  0  0  0  0  0  0  0  0  0  0  0
    0.6596    0.7563    3.4278 C   0  0  0  0  0  0  0  0  0  0  0  0
    1.2919    1.6341    3.5775 H   0  0  0  0  0  0  0  0  0  0  0  0
   -0.1945    0.8070    4.1038 H   0  0  0  0  0  0  0  0  0  0  0  0
    1.2474   -0.1364    3.6526 H   0  0  0  0  0  0  0  0  0  0  0  0
  5  6  2  0  0  0  0
  5  7  1  0  0  0  0
  2  3  1  0  0  0  0
  2  4  1  0  0  0  0
  2  5  1  0  0  0  0
  1  2  1  0  0  0  0
 19 20  2  0  0  0  0
 19 21  1  0  0  0  0
 17 18  1  0  0  0  0
 17 19  1  0  0  0  0
 14 15  1  0  0  0  0
 14 16  1  0  0  0  0
 14 17  1  0  0  0  0
 11 12  1  0  0  0  0
 11 13  1  0  0  0  0
 11 14  1  0  0  0  0
  8  9  1  0  0  0  0
  8 10  1  0  0  0  0
  8 11  1  0  0  0  0
  7  8  1  0  0  0  0
  7 17  1  0  0  0  0
 23 24  1  0  0  0  0
 23 25  1  0  0  0  0
 23 26  1  0  0  0  0
 21 22  1  0  0  0  0
 21 23  1  0  0  0  0
M  END
$$$$
default_name
  -OEChem-01062215323D

 26 26  0     1  0  0  0  0  0999 V2000
   -1.8446   -3.5060   -0.3010 H   0  0  0  0  0  0  0  0  0  0  0  0
   -2.0746   -2.4490   -0.4240 C   0  0  0  0  0  0  0  0  0  0  0  0
   -2.6906   -2.1160    0.4090 H   0  0  0  0  0  0  0  0  0  0  0  0
   -2.5986   -2.2980   -1.3650 H   0  0  0  0  0  0  0  0  0  0  0  0
   -0.7756   -1.6630   -0.4350 C   0  0  0  0  0  0  0  0  0  0  0  0
    0.2844   -2.2800   -0.4550 O   0  0  0  0  0  0  0  0  0  0  0  0
   -0.8246   -0.3180   -0.4350 N   0  0  0  0  0  0  0  0  0  0  0  0
   -2.0106    0.5080   -0.5910 C   0  0  0  0  0  0  0  0  0  0  0  0
   -2.2764    1.1290    0.2660 H   0  0  0  0  0  0  0  0  0  0  0  0
   -2.9044    0.0714   -1.0353 H   0  0  0  0  0  0  0  0  0  0  0  0
   -1.2674    1.3443   -1.6305 C   0  0  0  0  0  0  0  0  0  0  0  0
   -1.9071    2.1297   -2.0361 H   0  0  0  0  0  0  0  0  0  0  0  0
   -0.9061    0.6900   -2.4245 H   0  0  0  0  0  0  0  0  0  0  0  0
   -0.0827    1.9176   -0.8529 C   0  0  0  0  0  0  0  0  0  0  0  0
   -0.3686    2.5236    0.0091 H   0  0  0  0  0  0  0  0  0  0  0  0
    0.6903    2.4250   -1.4299 H   0  0  0  0  0  0  0  0  0  0  0  0
    0.3724    0.5200   -0.4020 C   0  0  1  0  0  0  0  0  0  0  0  0
    1.0855    0.1292   -1.1282 H   0  0  0  0  0  0  0  0  0  0  0  0
    1.0225    0.5498    0.9914 C   0  0  0  0  0  0  0  0  0  0  0  0
    2.2405    0.6685    1.1089 O   0  0  0  0  0  0  0  0  0  0  0  0
    0.2098    0.4020    2.0446 N   0  0  0  0  0  0  0  0  0  0  0  0
   -0.7818    0.3701    1.8696 H   0  0  0  0  0  0  0  0  0  0  0  0
    0.6654    0.3989    3.4328 C   0  0  0  0  0  0  0  0  0  0  0  0
    1.0772    1.3790    3.6831 H   0  0  0  0  0  0  0  0  0  0  0  0
   -0.1645    0.1738    4.1033 H   0  0  0  0  0  0  0  0  0  0  0  0
    1.4499   -0.3498    3.5627 H   0  0  0  0  0  0  0  0  0  0  0  0
  5  6  2  0  0  0  0
  5  7  1  0  0  0  0
  2  3  1  0  0  0  0
  2  4  1  0  0  0  0
  2  5  1  0  0  0  0
  1  2  1  0  0  0  0
 19 20  2  0  0  0  0
 19 21  1  0  0  0  0
 17 18  1  0  0  0  0
 17 19  1  0  0  0  0
 14 15  1  0  0  0  0
 14 16  1  0  0  0  0
 14 17  1  0  0  0  0
 11 12  1  0  0  0  0
 11 13  1  0  0  0  0
 11 14  1  0  0  0  0
  8  9  1  0  0  0  0
  8 10  1  0  0  0  0
  8 11  1  0  0  0  0
  7  8  1  0  0  0  0
  7 17  1  0  0  0  0
 23 24  1  0  0  0  0
 23 25  1  0  0  0  0
 23 26  1  0  0  0  0
 21 22  1  0  0  0  0
 21 23  1  0  0  0  0
M  END
$$$$
default_name
  -OEChem-01062215323D

 26 26  0     1  0  0  0  0  0999 V2000
   -1.8446   -3.5060   -0.3010 H   0  0  0  0  0  0  0  0  0  0  0  0
   -2.0746   -2.4490   -0.4240 C   0  0  0  0  0  0  0  0  0  0  0  0
   -2.6906   -2.1160    0.4090 H   0  0  0  0  0  0  0  0  0  0  0  0
   -2.5986   -2.2980   -1.3650 H   0  0  0  0  0  0  0  0  0  0  0  0
   -0.7756   -1.6630   -0.4350 C   0  0  0  0  0  0  0  0  0  0  0  0
    0.2844   -2.2800   -0.4550 O   0  0  0  0  0  0  0  0  0  0  0  0
   -0.8246   -0.3180   -0.4350 N   0  0  0  0  0  0  0  0  0  0  0  0
   -2.0106    0.5080   -0.5910 C   0  0  0  0  0  0  0  0  0  0  0  0
   -2.2764    1.1290    0.2660 H   0  0  0  0  0  0  0  0  0  0  0  0
   -2.9044    0.0714   -1.0353 H   0  0  0  0  0  0  0  0  0  0  0  0
   -1.2674    1.3443   -1.6305 C   0  0  0  0  0  0  0  0  0  0  0  0
   -1.9071    2.1297   -2.0361 H   0  0  0  0  0  0  0  0  0  0  0  0
   -0.9061    0.6900   -2.4245 H   0  0  0  0  0  0  0  0  0  0  0  0
   -0.0827    1.9176   -0.8529 C   0  0  0  0  0  0  0  0  0  0  0  0
   -0.3686    2.5236    0.0091 H   0  0  0  0  0  0  0  0  0  0  0  0
    0.6903    2.4250   -1.4299 H   0  0  0  0  0  0  0  0  0  0  0  0
    0.3724    0.5200   -0.4020 C   0  0  1  0  0  0  0  0  0  0  0  0
    1.0855    0.1292   -1.1282 H   0  0  0  0  0  0  0  0  0  0  0  0
    1.0225    0.5498    0.9914 C   0  0  0  0  0  0  0  0  0  0  0  0
    2.1807    0.9376    1.1310 O   0  0  0  0  0  0  0  0  0  0  0  0
    0.2862    0.1016    2.0154 N   0  0  0  0  0  0  0  0  0  0  0  0
   -0.6733   -0.1430    1.8300 H   0  0  0  0  0  0  0  0  0  0  0  0
    0.7549    0.0546    3.3984 C   0  0  0  0  0  0  0  0  0  0  0  0
    0.9301    1.0707    3.7584 H   0  0  0  0  0  0  0  0  0  0  0  0
    0.0131   -0.4306    4.0335 H   0  0  0  0  0  0  0  0  0  0  0  0
    1.6951   -0.4986    3.4514 H   0  0  0  0  0  0  0  0  0  0  0  0
  5  6  2  0  0  0  0
  5  7  1  0  0  0  0
  2  3  1  0  0  0  0
  2  4  1  0  0  0  0
  2  5  1  0  0  0  0
  1  2  1  0  0  0  0
 19 20  2  0  0  0  0
 19 21  1  0  0  0  0
 17 18  1  0  0  0  0
 17 19  1  0  0  0  0
 14 15  1  0  0  0  0
 14 16  1  0  0  0  0
 14 17  1  0  0  0  0
 11 12  1  0  0  0  0
 11 13  1  0  0  0  0
 11 14  1  0  0  0  0
  8  9  1  0  0  0  0
  8 10  1  0  0  0  0
  8 11  1  0  0  0  0
  7  8  1  0  0  0  0
  7 17  1  0  0  0  0
 23 24  1  0  0  0  0
 23 25  1  0  0  0  0
 23 26  1  0  0  0  0
 21 22  1  0  0  0  0
 21 23  1  0  0  0  0
M  END
$$$$
default_name
  -OEChem-01062215323D

 26 26  0     1  0  0  0  0  0999 V2000
   -1.8446   -3.5060   -0.3010 H   0  0  0  0  0  0  0  0  0  0  0  0
   -2.0746   -2.4490   -0.4240 C   0  0  0  0  0  0  0  0  0  0  0  0
   -2.6906   -2.1160    0.4090 H   0  0  0  0  0  0  0  0  0  0  0  0
   -2.5986   -2.2980   -1.3650 H   0  0  0  0  0  0  0  0  0  0  0  0
   -0.7756   -1.6630   -0.4350 C   0  0  0  0  0  0  0  0  0  0  0  0
    0.2844   -2.2800   -0.4550 O   0  0  0  0  0  0  0  0  0  0  0  0
   -0.8246   -0.3180   -0.4350 N   0  0  0  0  0  0  0  0  0  0  0  0
   -2.0106    0.5080   -0.5910 C   0  0  0  0  0  0  0  0  0  0  0  0
   -2.2764    1.1290    0.2660 H   0  0  0  0  0  0  0  0  0  0  0  0
   -2.9044    0.0714   -1.0353 H   0  0  0  0  0  0  0  0  0  0  0  0
   -1.2674    1.3443   -1.6305 C   0  0  0  0  0  0  0  0  0  0  0  0
   -1.9071    2.1297   -2.0361 H   0  0  0  0  0  0  0  0  0  0  0  0
   -0.9061    0.6900   -2.4245 H   0  0  0  0  0  0  0  0  0  0  0  0
   -0.0827    1.9176   -0.8529 C   0  0  0  0  0  0  0  0  0  0  0  0
   -0.3686    2.5236    0.0091 H   0  0  0  0  0  0  0  0  0  0  0  0
    0.6903    2.4250   -1.4299 H   0  0  0  0  0  0  0  0  0  0  0  0
    0.3724    0.5200   -0.4020 C   0  0  1  0  0  0  0  0  0  0  0  0
    1.0855    0.1292   -1.1282 H   0  0  0  0  0  0  0  0  0  0  0  0
    1.0225    0.5498    0.9914 C   0  0  0  0  0  0  0  0  0  0  0  0
    2.0600    1.1812    1.1821 O   0  0  0  0  0  0  0  0  0  0  0  0
    0.4303   -0.1674    1.9539 N   0  0  0  0  0  0  0  0  0  0  0  0
   -0.4484   -0.6088    1.7351 H   0  0  0  0  0  0  0  0  0  0  0  0
    0.9219   -0.2533    3.3271 C   0  0  0  0  0  0  0  0  0  0  0  0
    0.8607    0.7301    3.7980 H   0  0  0  0  0  0  0  0  0  0  0  0
    0.3260   -0.9653    3.8989 H   0  0  0  0  0  0  0  0  0  0  0  0
    1.9664   -0.5727    3.3265 H   0  0  0  0  0  0  0  0  0  0  0  0
  5  6  2  0  0  0  0
  5  7  1  0  0  0  0
  2  3  1  0  0  0  0
  2  4  1  0  0  0  0
  2  5  1  0  0  0  0
  1  2  1  0  0  0  0
 19 20  2  0  0  0  0
 19 21  1  0  0  0  0
 17 18  1  0  0  0  0
 17 19  1  0  0  0  0
 14 15  1  0  0  0  0
 14 16  1  0  0  0  0
 14 17  1  0  0  0  0
 11 12  1  0  0  0  0
 11 13  1  0  0  0  0
 11 14  1  0  0  0  0
  8  9  1  0  0  0  0
  8 10  1  0  0  0  0
  8 11  1  0  0  0  0
  7  8  1  0  0  0  0
  7 17  1  0  0  0  0
 23 24  1  0  0  0  0
 23 25  1  0  0  0  0
 23 26  1  0  0  0  0
 21 22  1  0  0  0  0
 21 23  1  0  0  0  0
M  END
$$$$
default_name
  -OEChem-01062215323D

 26 26  0     1  0  0  0  0  0999 V2000
   -1.8446   -3.5060   -0.3010 H   0  0  0  0  0  0  0  0  0  0  0  0
   -2.0746   -2.4490   -0.4240 C   0  0  0  0  0  0  0  0  0  0  0  0
   -2.6906   -2.1160    0.4090 H   0  0  0  0  0  0  0  0  0  0  0  0
   -2.5986   -2.2980   -1.3650 H   0  0  0  0  0  0  0  0  0  0  0  0
   -0.7756   -1.6630   -0.4350 C   0  0  0  0  0  0  0  0  0  0  0  0
    0.2844   -2.2800   -0.4550 O   0  0  0  0  0  0  0  0  0  0  0  0
   -0.8246   -0.3180   -0.4350 N   0  0  0  0  0  0  0  0  0  0  0  0
   -2.0106    0.5080   -0.5910 C   0  0  0  0  0  0  0  0  0  0  0  0
   -2.2764    1.1290    0.2660 H   0  0  0  0  0  0  0  0  0  0  0  0
   -2.9044    0.0714   -1.0353 H   0  0  0  0  0  0  0  0  0  0  0  0
   -1.2674    1.3443   -1.6305 C   0  0  0  0  0  0  0  0  0  0  0  0
   -1.9071    2.1297   -2.0361 H   0  0  0  0  0  0  0  0  0  0  0  0
   -0.9061    0.6900   -2.4245 H   0  0  0  0  0  0  0  0  0  0  0  0
   -0.0827    1.9176   -0.8529 C   0  0  0  0  0  0  0  0  0  0  0  0
   -0.3686    2.5236    0.0091 H   0  0  0  0  0  0  0  0  0  0  0  0
    0.6903    2.4250   -1.4299 H   0  0  0  0  0  0  0  0  0  0  0  0
    0.3724    0.5200   -0.4020 C   0  0  1  0  0  0  0  0  0  0  0  0
    1.0855    0.1292   -1.1282 H   0  0  0  0  0  0  0  0  0  0  0  0
    1.0225    0.5498    0.9914 C   0  0  0  0  0  0  0  0  0  0  0  0
    1.8866    1.3825    1.2587 O   0  0  0  0  0  0  0  0  0  0  0  0
    0.6323   -0.3867    1.8644 N   0  0  0  0  0  0  0  0  0  0  0  0
   -0.1224   -0.9956    1.5913 H   0  0  0  0  0  0  0  0  0  0  0  0
    1.1550   -0.5037    3.2237 C   0  0  0  0  0  0  0  0  0  0  0  0
    0.8737    0.3806    3.7995 H   0  0  0  0  0  0  0  0  0  0  0  0
    0.7529   -1.3936    3.7089 H   0  0  0  0  0  0  0  0  0  0  0  0
    2.2451   -0.5669    3.1963 H   0  0  0  0  0  0  0  0  0  0  0  0
  5  6  2  0  0  0  0
  5  7  1  0  0  0  0
  2  3  1  0  0  0  0
  2  4  1  0  0  0  0
  2  5  1  0  0  0  0
  1  2  1  0  0  0  0
 19 20  2  0  0  0  0
 19 21  1  0  0  0  0
 17 18  1  0  0  0  0
 17 19  1  0  0  0  0
 14 15  1  0  0  0  0
 14 16  1  0  0  0  0
 14 17  1  0  0  0  0
 11 12  1  0  0  0  0
 11 13  1  0  0  0  0
 11 14  1  0  0  0  0
  8  9  1  0  0  0  0
  8 10  1  0  0  0  0
  8 11  1  0  0  0  0
  7  8  1  0  0  0  0
  7 17  1  0  0  0  0
 23 24  1  0  0  0  0
 23 25  1  0  0  0  0
 23 26  1  0  0  0  0
 21 22  1  0  0  0  0
 21 23  1  0  0  0  0
M  END
$$$$
default_name
  -OEChem-01062215323D

 26 26  0     1  0  0  0  0  0999 V2000
   -1.8446   -3.5060   -0.3010 H   0  0  0  0  0  0  0  0  0  0  0  0
   -2.0746   -2.4490   -0.4240 C   0  0  0  0  0  0  0  0  0  0  0  0
   -2.6906   -2.1160    0.4090 H   0  0  0  0  0  0  0  0  0  0  0  0
   -2.5986   -2.2980   -1.3650 H   0  0  0  0  0  0  0  0  0  0  0  0
   -0.7756   -1.6630   -0.4350 C   0  0  0  0  0  0  0  0  0  0  0  0
    0.2844   -2.2800   -0.4550 O   0  0  0  0  0  0  0  0  0  0  0  0
   -0.8246   -0.3180   -0.4350 N   0  0  0  0  0  0  0  0  0  0  0  0
   -2.0106    0.5080   -0.5910 C   0  0  0  0  0  0  0  0  0  0  0  0
   -2.2764    1.1290    0.2660 H   0  0  0  0  0  0  0  0  0  0  0  0
   -2.9044    0.0714   -1.0353 H   0  0  0  0  0  0  0  0  0  0  0  0
   -1.2674    1.3443   -1.6305 C   0  0  0  0  0  0  0  0  0  0  0  0
   -1.9071    2.1297   -2.0361 H   0  0  0  0  0  0  0  0  0  0  0  0
   -0.9061    0.6900   -2.4245 H   0  0  0  0  0  0  0  0  0  0  0  0
   -0.0827    1.9176   -0.8529 C   0  0  0  0  0  0  0  0  0  0  0  0
   -0.3686    2.5236    0.0091 H   0  0  0  0  0  0  0  0  0  0  0  0
    0.6903    2.4250   -1.4299 H   0  0  0  0  0  0  0  0  0  0  0  0
    0.3724    0.5200   -0.4020 C   0  0  1  0  0  0  0  0  0  0  0  0
    1.0855    0.1292   -1.1282 H   0  0  0  0  0  0  0  0  0  0  0  0
    1.0225    0.5498    0.9914 C   0  0  0  0  0  0  0  0  0  0  0  0
    1.6722    1.5279    1.3556 O   0  0  0  0  0  0  0  0  0  0  0  0
    0.8784   -0.5415    1.7529 N   0  0  0  0  0  0  0  0  0  0  0  0
    0.2824   -1.2770    1.4084 H   0  0  0  0  0  0  0  0  0  0  0  0
    1.4385   -0.6796    3.0952 C   0  0  0  0  0  0  0  0  0  0  0  0
    0.9683    0.0459    3.7625 H   0  0  0  0  0  0  0  0  0  0  0  0
    1.2647   -1.6864    3.4764 H   0  0  0  0  0  0  0  0  0  0  0  0
    2.5123   -0.4818    3.0698 H   0  0  0  0  0  0  0  0  0  0  0  0
  5  6  2  0  0  0  0
  5  7  1  0  0  0  0
  2  3  1  0  0  0  0
  2  4  1  0  0  0  0
  2  5  1  0  0  0  0
  1  2  1  0  0  0  0
 19 20  2  0  0  0  0
 19 21  1  0  0  0  0
 17 18  1  0  0  0  0
 17 19  1  0  0  0  0
 14 15  1  0  0  0  0
 14 16  1  0  0  0  0
 14 17  1  0  0  0  0
 11 12  1  0  0  0  0
 11 13  1  0  0  0  0
 11 14  1  0  0  0  0
  8  9  1  0  0  0  0
  8 10  1  0  0  0  0
  8 11  1  0  0  0  0
  7  8  1  0  0  0  0
  7 17  1  0  0  0  0
 23 24  1  0  0  0  0
 23 25  1  0  0  0  0
 23 26  1  0  0  0  0
 21 22  1  0  0  0  0
 21 23  1  0  0  0  0
M  END
$$$$
default_name
  -OEChem-01062215323D

 26 26  0     1  0  0  0  0  0999 V2000
   -1.8446   -3.5060   -0.3010 H   0  0  0  0  0  0  0  0  0  0  0  0
   -2.0746   -2.4490   -0.4240 C   0  0  0  0  0  0  0  0  0  0  0  0
   -2.6906   -2.1160    0.4090 H   0  0  0  0  0  0  0  0  0  0  0  0
   -2.5986   -2.2980   -1.3650 H   0  0  0  0  0  0  0  0  0  0  0  0
   -0.7756   -1.6630   -0.4350 C   0  0  0  0  0  0  0  0  0  0  0  0
    0.2844   -2.2800   -0.4550 O   0  0  0  0  0  0  0  0  0  0  0  0
   -0.8246   -0.3180   -0.4350 N   0  0  0  0  0  0  0  0  0  0  0  0
   -2.0106    0.5080   -0.5910 C   0  0  0  0  0  0  0  0  0  0  0  0
   -2.2764    1.1290    0.2660 H   0  0  0  0  0  0  0  0  0  0  0  0
   -2.9044    0.0714   -1.0353 H   0  0  0  0  0  0  0  0  0  0  0  0
   -1.2674    1.3443   -1.6305 C   0  0  0  0  0  0  0  0  0  0  0  0
   -1.9071    2.1297   -2.0361 H   0  0  0  0  0  0  0  0  0  0  0  0
   -0.9061    0.6900   -2.4245 H   0  0  0  0  0  0  0  0  0  0  0  0
   -0.0827    1.9176   -0.8529 C   0  0  0  0  0  0  0  0  0  0  0  0
   -0.3686    2.5236    0.0091 H   0  0  0  0  0  0  0  0  0  0  0  0
    0.6903    2.4250   -1.4299 H   0  0  0  0  0  0  0  0  0  0  0  0
    0.3724    0.5200   -0.4020 C   0  0  1  0  0  0  0  0  0  0  0  0
    1.0855    0.1292   -1.1282 H   0  0  0  0  0  0  0  0  0  0  0  0
    1.0225    0.5498    0.9914 C   0  0  0  0  0  0  0  0  0  0  0  0
    1.4315    1.6075    1.4662 O   0  0  0  0  0  0  0  0  0  0  0  0
    1.1518   -0.6210    1.6270 N   0  0  0  0  0  0  0  0  0  0  0  0
    0.7386   -1.4339    1.1989 H   0  0  0  0  0  0  0  0  0  0  0  0
    1.7528   -0.7690    2.9504 C   0  0  0  0  0  0  0  0  0  0  0  0
    1.1379   -0.2512    3.6897 H   0  0  0  0  0  0  0  0  0  0  0  0
    1.8266   -1.8238    3.2171 H   0  0  0  0  0  0  0  0  0  0  0  0
    2.7498   -0.3231    2.9556 H   0  0  0  0  0  0  0  0  0  0  0  0
  5  6  2  0  0  0  0
  5  7  1  0  0  0  0
  2  3  1  0  0  0  0
  2  4  1  0  0  0  0
  2  5  1  0  0  0  0
  1  2  1  0  0  0  0
 19 20  2  0  0  0  0
 19 21  1  0  0  0  0
 17 18  1  0  0  0  0
 17 19  1  0  0  0  0
 14 15  1  0  0  0  0
 14 16  1  0  0  0  0
 14 17  1  0  0  0  0
 11 12  1  0  0  0  0
 11 13  1  0  0  0  0
 11 14  1  0  0  0  0
  8  9  1  0  0  0  0
  8 10  1  0  0  0  0
  8 11  1  0  0  0  0
  7  8  1  0  0  0  0
  7 17  1  0  0  0  0
 23 24  1  0  0  0  0
 23 25  1  0  0  0  0
 23 26  1  0  0  0  0
 21 22  1  0  0  0  0
 21 23  1  0  0  0  0
M  END
$$$$
default_name
  -OEChem-01062215323D

 26 26  0     1  0  0  0  0  0999 V2000
   -1.8446   -3.5060   -0.3010 H   0  0  0  0  0  0  0  0  0  0  0  0
   -2.0746   -2.4490   -0.4240 C   0  0  0  0  0  0  0  0  0  0  0  0
   -2.6906   -2.1160    0.4090 H   0  0  0  0  0  0  0  0  0  0  0  0
   -2.5986   -2.2980   -1.3650 H   0  0  0  0  0  0  0  0  0  0  0  0
   -0.7756   -1.6630   -0.4350 C   0  0  0  0  0  0  0  0  0  0  0  0
    0.2844   -2.2800   -0.4550 O   0  0  0  0  0  0  0  0  0  0  0  0
   -0.8246   -0.3180   -0.4350 N   0  0  0  0  0  0  0  0  0  0  0  0
   -2.0106    0.5080   -0.5910 C   0  0  0  0  0  0  0  0  0  0  0  0
   -2.2764    1.1290    0.2660 H   0  0  0  0  0  0  0  0  0  0  0  0
   -2.9044    0.0714   -1.0353 H   0  0  0  0  0  0  0  0  0  0  0  0
   -1.2674    1.3443   -1.6305 C   0  0  0  0  0  0  0  0  0  0  0  0
   -1.9071    2.1297   -2.0361 H   0  0  0  0  0  0  0  0  0  0  0  0
   -0.9061    0.6900   -2.4245 H   0  0  0  0  0  0  0  0  0  0  0  0
   -0.0827    1.9176   -0.8529 C   0  0  0  0  0  0  0  0  0  0  0  0
   -0.3686    2.5236    0.0091 H   0  0  0  0  0  0  0  0  0  0  0  0
    0.6903    2.4250   -1.4299 H   0  0  0  0  0  0  0  0  0  0  0  0
    0.3724    0.5200   -0.4020 C   0  0  1  0  0  0  0  0  0  0  0  0
    1.0855    0.1292   -1.1282 H   0  0  0  0  0  0  0  0  0  0  0  0
    1.0225    0.5498    0.9914 C   0  0  0  0  0  0  0  0  0  0  0  0
    1.1809    1.6158    1.5829 O   0  0  0  0  0  0  0  0  0  0  0  0
    1.4339   -0.6199    1.4954 N   0  0  0  0  0  0  0  0  0  0  0  0
    1.2149   -1.4556    0.9771 H   0  0  0  0  0  0  0  0  0  0  0  0
    2.0767   -0.7658    2.7993 C   0  0  0  0  0  0  0  0  0  0  0  0
    1.3711   -0.4904    3.5861 H   0  0  0  0  0  0  0  0  0  0  0  0
    2.4003   -1.7963    2.9489 H   0  0  0  0  0  0  0  0  0  0  0  0
    2.9414   -0.1015    2.8614 H   0  0  0  0  0  0  0  0  0  0  0  0
  5  6  2  0  0  0  0
  5  7  1  0  0  0  0
  2  3  1  0  0  0  0
  2  4  1  0  0  0  0
  2  5  1  0  0  0  0
  1  2  1  0  0  0  0
 19 20  2  0  0  0  0
 19 21  1  0  0  0  0
 17 18  1  0  0  0  0
 17 19  1  0  0  0  0
 14 15  1  0  0  0  0
 14 16  1  0  0  0  0
 14 17  1  0  0  0  0
 11 12  1  0  0  0  0
 11 13  1  0  0  0  0
 11 14  1  0  0  0  0
  8  9  1  0  0  0  0
  8 10  1  0  0  0  0
  8 11  1  0  0  0  0
  7  8  1  0  0  0  0
  7 17  1  0  0  0  0
 23 24  1  0  0  0  0
 23 25  1  0  0  0  0
 23 26  1  0  0  0  0
 21 22  1  0  0  0  0
 21 23  1  0  0  0  0
M  END
$$$$
default_name
  -OEChem-01062215323D

 26 26  0     1  0  0  0  0  0999 V2000
   -1.8446   -3.5060   -0.3010 H   0  0  0  0  0  0  0  0  0  0  0  0
   -2.0746   -2.4490   -0.4240 C   0  0  0  0  0  0  0  0  0  0  0  0
   -2.6906   -2.1160    0.4090 H   0  0  0  0  0  0  0  0  0  0  0  0
   -2.5986   -2.2980   -1.3650 H   0  0  0  0  0  0  0  0  0  0  0  0
   -0.7756   -1.6630   -0.4350 C   0  0  0  0  0  0  0  0  0  0  0  0
    0.2844   -2.2800   -0.4550 O   0  0  0  0  0  0  0  0  0  0  0  0
   -0.8246   -0.3180   -0.4350 N   0  0  0  0  0  0  0  0  0  0  0  0
   -2.0106    0.5080   -0.5910 C   0  0  0  0  0  0  0  0  0  0  0  0
   -2.2764    1.1290    0.2660 H   0  0  0  0  0  0  0  0  0  0  0  0
   -2.9044    0.0714   -1.0353 H   0  0  0  0  0  0  0  0  0  0  0  0
   -1.2674    1.3443   -1.6305 C   0  0  0  0  0  0  0  0  0  0  0  0
   -1.9071    2.1297   -2.0361 H   0  0  0  0  0  0  0  0  0  0  0  0
   -0.9061    0.6900   -2.4245 H   0  0  0  0  0  0  0  0  0  0  0  0
   -0.0827    1.9176   -0.8529 C   0  0  0  0  0  0  0  0  0  0  0  0
   -0.3686    2.5236    0.0091 H   0  0  0  0  0  0  0  0  0  0  0  0
    0.6903    2.4250   -1.4299 H   0  0  0  0  0  0  0  0  0  0  0  0
    0.3724    0.5200   -0.4020 C   0  0  1  0  0  0  0  0  0  0  0  0
    1.0855    0.1292   -1.1282 H   0  0  0  0  0  0  0  0  0  0  0  0
    1.0225    0.5498    0.9914 C   0  0  0  0  0  0  0  0  0  0  0  0
    0.9375    1.5523    1.6979 O   0  0  0  0  0  0  0  0  0  0  0  0
    1.7055   -0.5384    1.3669 N   0  0  0  0  0  0  0  0  0  0  0  0
    1.6790   -1.3406    0.7582 H   0  0  0  0  0  0  0  0  0  0  0  0
    2.3880   -0.6702    2.6520 C   0  0  0  0  0  0  0  0  0  0  0  0
    1.6519   -0.6555    3.4586 H   0  0  0  0  0  0  0  0  0  0  0  0
    2.9467   -1.6059    2.6899 H   0  0  0  0  0  0  0  0  0  0  0  0
    3.0741    0.1677    2.7938 H   0  0  0  0  0  0  0  0  0  0  0  0
  5  6  2  0  0  0  0
  5  7  1  0  0  0  0
  2  3  1  0  0  0  0
  2  4  1  0  0  0  0
  2  5  1  0  0  0  0
  1  2  1  0  0  0  0
 19 20  2  0  0  0  0
 19 21  1  0  0  0  0
 17 18  1  0  0  0  0
 17 19  1  0  0  0  0
 14 15  1  0  0  0  0
 14 16  1  0  0  0  0
 14 17  1  0  0  0  0
 11 12  1  0  0  0  0
 11 13  1  0  0  0  0
 11 14  1  0  0  0  0
  8  9  1  0  0  0  0
  8 10  1  0  0  0  0
  8 11  1  0  0  0  0
  7  8  1  0  0  0  0
  7 17  1  0  0  0  0
 23 24  1  0  0  0  0
 23 25  1  0  0  0  0
 23 26  1  0  0  0  0
 21 22  1  0  0  0  0
 21 23  1  0  0  0  0
M  END
$$$$
default_name
  -OEChem-01062215323D

 26 26  0     1  0  0  0  0  0999 V2000
   -1.8446   -3.5060   -0.3010 H   0  0  0  0  0  0  0  0  0  0  0  0
   -2.0746   -2.4490   -0.4240 C   0  0  0  0  0  0  0  0  0  0  0  0
   -2.6906   -2.1160    0.4090 H   0  0  0  0  0  0  0  0  0  0  0  0
   -2.5986   -2.2980   -1.3650 H   0  0  0  0  0  0  0  0  0  0  0  0
   -0.7756   -1.6630   -0.4350 C   0  0  0  0  0  0  0  0  0  0  0  0
    0.2844   -2.2800   -0.4550 O   0  0  0  0  0  0  0  0  0  0  0  0
   -0.8246   -0.3180   -0.4350 N   0  0  0  0  0  0  0  0  0  0  0  0
   -2.0106    0.5080   -0.5910 C   0  0  0  0  0  0  0  0  0  0  0  0
   -2.2764    1.1290    0.2660 H   0  0  0  0  0  0  0  0  0  0  0  0
   -2.9044    0.0714   -1.0353 H   0  0  0  0  0  0  0  0  0  0  0  0
   -1.2674    1.3443   -1.6305 C   0  0  0  0  0  0  0  0  0  0  0  0
   -1.9071    2.1297   -2.0361 H   0  0  0  0  0  0  0  0  0  0  0  0
   -0.9061    0.6900   -2.4245 H   0  0  0  0  0  0  0  0  0  0  0  0
   -0.0827    1.9176   -0.8529 C   0  0  0  0  0  0  0  0  0  0  0  0
   -0.3686    2.5236    0.0091 H   0  0  0  0  0  0  0  0  0  0  0  0
    0.6903    2.4250   -1.4299 H   0  0  0  0  0  0  0  0  0  0  0  0
    0.3724    0.5200   -0.4020 C   0  0  1  0  0  0  0  0  0  0  0  0
    1.0855    0.1292   -1.1282 H   0  0  0  0  0  0  0  0  0  0  0  0
    1.0225    0.5498    0.9914 C   0  0  0  0  0  0  0  0  0  0  0  0
    0.7178    1.4214    1.8032 O   0  0  0  0  0  0  0  0  0  0  0  0
    1.9480   -0.3818    1.2504 N   0  0  0  0  0  0  0  0  0  0  0  0
    2.0992   -1.0967    0.5569 H   0  0  0  0  0  0  0  0  0  0  0  0
    2.6656   -0.4888    2.5186 C   0  0  0  0  0  0  0  0  0  0  0  0
    1.9612   -0.7351    3.3160 H   0  0  0  0  0  0  0  0  0  0  0  0
    3.4284   -1.2656    2.4578 H   0  0  0  0  0  0  0  0  0  0  0  0
    3.1387    0.4663    2.7572 H   0  0  0  0  0  0  0  0  0  0  0  0
  5  6  2  0  0  0  0
  5  7  1  0  0  0  0
  2  3  1  0  0  0  0
  2  4  1  0  0  0  0
  2  5  1  0  0  0  0
  1  2  1  0  0  0  0
 19 20  2  0  0  0  0
 19 21  1  0  0  0  0
 17 18  1  0  0  0  0
 17 19  1  0  0  0  0
 14 15  1  0  0  0  0
 14 16  1  0  0  0  0
 14 17  1  0  0  0  0
 11 12  1  0  0  0  0
 11 13  1  0  0  0  0
 11 14  1  0  0  0  0
  8  9  1  0  0  0  0
  8 10  1  0  0  0  0
  8 11  1  0  0  0  0
  7  8  1  0  0  0  0
  7 17  1  0  0  0  0
 23 24  1  0  0  0  0
 23 25  1  0  0  0  0
 23 26  1  0  0  0  0
 21 22  1  0  0  0  0
 21 23  1  0  0  0  0
M  END
$$$$
default_name
  -OEChem-01062215323D

 26 26  0     1  0  0  0  0  0999 V2000
   -1.8446   -3.5060   -0.3010 H   0  0  0  0  0  0  0  0  0  0  0  0
   -2.0746   -2.4490   -0.4240 C   0  0  0  0  0  0  0  0  0  0  0  0
   -2.6906   -2.1160    0.4090 H   0  0  0  0  0  0  0  0  0  0  0  0
   -2.5986   -2.2980   -1.3650 H   0  0  0  0  0  0  0  0  0  0  0  0
   -0.7756   -1.6630   -0.4350 C   0  0  0  0  0  0  0  0  0  0  0  0
    0.2844   -2.2800   -0.4550 O   0  0  0  0  0  0  0  0  0  0  0  0
   -0.8246   -0.3180   -0.4350 N   0  0  0  0  0  0  0  0  0  0  0  0
   -2.0106    0.5080   -0.5910 C   0  0  0  0  0  0  0  0  0  0  0  0
   -2.2764    1.1290    0.2660 H   0  0  0  0  0  0  0  0  0  0  0  0
   -2.9044    0.0714   -1.0353 H   0  0  0  0  0  0  0  0  0  0  0  0
   -1.2674    1.3443   -1.6305 C   0  0  0  0  0  0  0  0  0  0  0  0
   -1.9071    2.1297   -2.0361 H   0  0  0  0  0  0  0  0  0  0  0  0
   -0.9061    0.6900   -2.4245 H   0  0  0  0  0  0  0  0  0  0  0  0
   -0.0827    1.9176   -0.8529 C   0  0  0  0  0  0  0  0  0  0  0  0
   -0.3686    2.5236    0.0091 H   0  0  0  0  0  0  0  0  0  0  0  0
    0.6903    2.4250   -1.4299 H   0  0  0  0  0  0  0  0  0  0  0  0
    0.3724    0.5200   -0.4020 C   0  0  1  0  0  0  0  0  0  0  0  0
    1.0855    0.1292   -1.1282 H   0  0  0  0  0  0  0  0  0  0  0  0
    1.0225    0.5498    0.9914 C   0  0  0  0  0  0  0  0  0  0  0  0
    0.5369    1.2318    1.8916 O   0  0  0  0  0  0  0  0  0  0  0  0
    2.1450   -0.1610    1.1538 N   0  0  0  0  0  0  0  0  0  0  0  0
    2.4469   -0.7405    0.3870 H   0  0  0  0  0  0  0  0  0  0  0  0
    2.8905   -0.2338    2.4082 C   0  0  0  0  0  0  0  0  0  0  0  0
    2.2779   -0.7239    3.1680 H   0  0  0  0  0  0  0  0  0  0  0  0
    3.8128   -0.7984    2.2685 H   0  0  0  0  0  0  0  0  0  0  0  0
    3.1310    0.7738    2.7542 H   0  0  0  0  0  0  0  0  0  0  0  0
  5  6  2  0  0  0  0
  5  7  1  0  0  0  0
  2  3  1  0  0  0  0
  2  4  1  0  0  0  0
  2  5  1  0  0  0  0
  1  2  1  0  0  0  0
 19 20  2  0  0  0  0
 19 21  1  0  0  0  0
 17 18  1  0  0  0  0
 17 19  1  0  0  0  0
 14 15  1  0  0  0  0
 14 16  1  0  0  0  0
 14 17  1  0  0  0  0
 11 12  1  0  0  0  0
 11 13  1  0  0  0  0
 11 14  1  0  0  0  0
  8  9  1  0  0  0  0
  8 10  1  0  0  0  0
  8 11  1  0  0  0  0
  7  8  1  0  0  0  0
  7 17  1  0  0  0  0
 23 24  1  0  0  0  0
 23 25  1  0  0  0  0
 23 26  1  0  0  0  0
 21 22  1  0  0  0  0
 21 23  1  0  0  0  0
M  END
$$$$
default_name
  -OEChem-01062215323D

 26 26  0     1  0  0  0  0  0999 V2000
   -1.8446   -3.5060   -0.3010 H   0  0  0  0  0  0  0  0  0  0  0  0
   -2.0746   -2.4490   -0.4240 C   0  0  0  0  0  0  0  0  0  0  0  0
   -2.6906   -2.1160    0.4090 H   0  0  0  0  0  0  0  0  0  0  0  0
   -2.5986   -2.2980   -1.3650 H   0  0  0  0  0  0  0  0  0  0  0  0
   -0.7756   -1.6630   -0.4350 C   0  0  0  0  0  0  0  0  0  0  0  0
    0.2844   -2.2800   -0.4550 O   0  0  0  0  0  0  0  0  0  0  0  0
   -0.8246   -0.3180   -0.4350 N   0  0  0  0  0  0  0  0  0  0  0  0
   -2.0106    0.5080   -0.5910 C   0  0  0  0  0  0  0  0  0  0  0  0
   -2.2764    1.1290    0.2660 H   0  0  0  0  0  0  0  0  0  0  0  0
   -2.9044    0.0714   -1.0353 H   0  0  0  0  0  0  0  0  0  0  0  0
   -1.2674    1.3443   -1.6305 C   0  0  0  0  0  0  0  0  0  0  0  0
   -1.9071    2.1297   -2.0361 H   0  0  0  0  0  0  0  0  0  0  0  0
   -0.9061    0.6900   -2.4245 H   0  0  0  0  0  0  0  0  0  0  0  0
   -0.0827    1.9176   -0.8529 C   0  0  0  0  0  0  0  0  0  0  0  0
   -0.3686    2.5236    0.0091 H   0  0  0  0  0  0  0  0  0  0  0  0
    0.6903    2.4250   -1.4299 H   0  0  0  0  0  0  0  0  0  0  0  0
    0.3724    0.5200   -0.4020 C   0  0  1  0  0  0  0  0  0  0  0  0
    1.0855    0.1292   -1.1282 H   0  0  0  0  0  0  0  0  0  0  0  0
    1.0225    0.5498    0.9914 C   0  0  0  0  0  0  0  0  0  0  0  0
    0.4070    0.9966    1.9573 O   0  0  0  0  0  0  0  0  0  0  0  0
    2.2830    0.1091    1.0836 N   0  0  0  0  0  0  0  0  0  0  0  0
    2.6983   -0.2964    0.2602 H   0  0  0  0  0  0  0  0  0  0  0  0
    3.0473    0.0773    2.3283 C   0  0  0  0  0  0  0  0  0  0  0  0
    2.5805   -0.6227    3.0246 H   0  0  0  0  0  0  0  0  0  0  0  0
    4.0736   -0.2364    2.1348 H   0  0  0  0  0  0  0  0  0  0  0  0
    3.0514    1.0694    2.7850 H   0  0  0  0  0  0  0  0  0  0  0  0
  5  6  2  0  0  0  0
  5  7  1  0  0  0  0
  2  3  1  0  0  0  0
  2  4  1  0  0  0  0
  2  5  1  0  0  0  0
  1  2  1  0  0  0  0
 19 20  2  0  0  0  0
 19 21  1  0  0  0  0
 17 18  1  0  0  0  0
 17 19  1  0  0  0  0
 14 15  1  0  0  0  0
 14 16  1  0  0  0  0
 14 17  1  0  0  0  0
 11 12  1  0  0  0  0
 11 13  1  0  0  0  0
 11 14  1  0  0  0  0
  8  9  1  0  0  0  0
  8 10  1  0  0  0  0
  8 11  1  0  0  0  0
  7  8  1  0  0  0  0
  7 17  1  0  0  0  0
 23 24  1  0  0  0  0
 23 25  1  0  0  0  0
 23 26  1  0  0  0  0
 21 22  1  0  0  0  0
 21 23  1  0  0  0  0
M  END
$$$$
default_name
  -OEChem-01062215323D

 26 26  0     1  0  0  0  0  0999 V2000
   -1.8446   -3.5060   -0.3010 H   0  0  0  0  0  0  0  0  0  0  0  0
   -2.0746   -2.4490   -0.4240 C   0  0  0  0  0  0  0  0  0  0  0  0
   -2.6906   -2.1160    0.4090 H   0  0  0  0  0  0  0  0  0  0  0  0
   -2.5986   -2.2980   -1.3650 H   0  0  0  0  0  0  0  0  0  0  0  0
   -0.7756   -1.6630   -0.4350 C   0  0  0  0  0  0  0  0  0  0  0  0
    0.2844   -2.2800   -0.4550 O   0  0  0  0  0  0  0  0  0  0  0  0
   -0.8246   -0.3180   -0.4350 N   0  0  0  0  0  0  0  0  0  0  0  0
   -2.0106    0.5080   -0.5910 C   0  0  0  0  0  0  0  0  0  0  0  0
   -2.2764    1.1290    0.2660 H   0  0  0  0  0  0  0  0  0  0  0  0
   -2.9044    0.0714   -1.0353 H   0  0  0  0  0  0  0  0  0  0  0  0
   -1.2674    1.3443   -1.6305 C   0  0  0  0  0  0  0  0  0  0  0  0
   -1.9071    2.1297   -2.0361 H   0  0  0  0  0  0  0  0  0  0  0  0
   -0.9061    0.6900   -2.4245 H   0  0  0  0  0  0  0  0  0  0  0  0
   -0.0827    1.9176   -0.8529 C   0  0  0  0  0  0  0  0  0  0  0  0
   -0.3686    2.5236    0.0091 H   0  0  0  0  0  0  0  0  0  0  0  0
    0.6903    2.4250   -1.4299 H   0  0  0  0  0  0  0  0  0  0  0  0
    0.3724    0.5200   -0.4020 C   0  0  1  0  0  0  0  0  0  0  0  0
    1.0855    0.1292   -1.1282 H   0  0  0  0  0  0  0  0  0  0  0  0
    1.0225    0.5498    0.9914 C   0  0  0  0  0  0  0  0  0  0  0  0
    0.3371    0.7318    1.9956 O   0  0  0  0  0  0  0  0  0  0  0  0
    2.3526    0.4100    1.0447 N   0  0  0  0  0  0  0  0  0  0  0  0
    2.8364    0.2054    0.1850 H   0  0  0  0  0  0  0  0  0  0  0  0
    3.1255    0.4233    2.2844 C   0  0  0  0  0  0  0  0  0  0  0  0
    2.8482   -0.4382    2.8957 H   0  0  0  0  0  0  0  0  0  0  0  0
    4.1930    0.3824    2.0658 H   0  0  0  0  0  0  0  0  0  0  0  0
    2.9054    1.3329    2.8475 H   0  0  0  0  0  0  0  0  0  0  0  0
  5  6  2  0  0  0  0
  5  7  1  0  0  0  0
  2  3  1  0  0  0  0
  2  4  1  0  0  0  0
  2  5  1  0  0  0  0
  1  2  1  0  0  0  0
 19 20  2  0  0  0  0
 19 21  1  0  0  0  0
 17 18  1  0  0  0  0
 17 19  1  0  0  0  0
 14 15  1  0  0  0  0
 14 16  1  0  0  0  0
 14 17  1  0  0  0  0
 11 12  1  0  0  0  0
 11 13  1  0  0  0  0
 11 14  1  0  0  0  0
  8  9  1  0  0  0  0
  8 10  1  0  0  0  0
  8 11  1  0  0  0  0
  7  8  1  0  0  0  0
  7 17  1  0  0  0  0
 23 24  1  0  0  0  0
 23 25  1  0  0  0  0
 23 26  1  0  0  0  0
 21 22  1  0  0  0  0
 21 23  1  0  0  0  0
M  END
$$$$
default_name
  -OEChem-01062215323D

 26 26  0     1  0  0  0  0  0999 V2000
   -1.8446   -3.5060   -0.3010 H   0  0  0  0  0  0  0  0  0  0  0  0
   -2.0746   -2.4490   -0.4240 C   0  0  0  0  0  0  0  0  0  0  0  0
   -2.6906   -2.1160    0.4090 H   0  0  0  0  0  0  0  0  0  0  0  0
   -2.5986   -2.2980   -1.3650 H   0  0  0  0  0  0  0  0  0  0  0  0
   -0.7756   -1.6630   -0.4350 C   0  0  0  0  0  0  0  0  0  0  0  0
    0.2844   -2.2800   -0.4550 O   0  0  0  0  0  0  0  0  0  0  0  0
   -0.8246   -0.3180   -0.4350 N   0  0  0  0  0  0  0  0  0  0  0  0
   -2.0106    0.5080   -0.5910 C   0  0  0  0  0  0  0  0  0  0  0  0
   -2.2764    1.1290    0.2660 H   0  0  0  0  0  0  0  0  0  0  0  0
   -2.9044    0.0714   -1.0353 H   0  0  0  0  0  0  0  0  0  0  0  0
   -1.2674    1.3443   -1.6305 C   0  0  0  0  0  0  0  0  0  0  0  0
   -1.9071    2.1297   -2.0361 H   0  0  0  0  0  0  0  0  0  0  0  0
   -0.9061    0.6900   -2.4245 H   0  0  0  0  0  0  0  0  0  0  0  0
   -0.0827    1.9176   -0.8529 C   0  0  0  0  0  0  0  0  0  0  0  0
   -0.3686    2.5236    0.0091 H   0  0  0  0  0  0  0  0  0  0  0  0
    0.6903    2.4250   -1.4299 H   0  0  0  0  0  0  0  0  0  0  0  0
    0.3724    0.5200   -0.4020 C   0  0  1  0  0  0  0  0  0  0  0  0
    1.0855    0.1292   -1.1282 H   0  0  0  0  0  0  0  0  0  0  0  0
    1.0225    0.5498    0.9914 C   0  0  0  0  0  0  0  0  0  0  0  0
    0.3318    0.4554    2.0040 O   0  0  0  0  0  0  0  0  0  0  0  0
    2.3491    0.7213    1.0396 N   0  0  0  0  0  0  0  0  0  0  0  0
    2.8518    0.7308    0.1666 H   0  0  0  0  0  0  0  0  0  0  0  0
    3.1197    0.7806    2.2795 C   0  0  0  0  0  0  0  0  0  0  0  0
    3.0630   -0.1831    2.7901 H   0  0  0  0  0  0  0  0  0  0  0  0
    4.1630    1.0155    2.0663 H   0  0  0  0  0  0  0  0  0  0  0  0
    2.7028    1.5463    2.9375 H   0  0  0  0  0  0  0  0  0  0  0  0
  5  6  2  0  0  0  0
  5  7  1  0  0  0  0
  2  3  1  0  0  0  0
  2  4  1  0  0  0  0
  2  5  1  0  0  0  0
  1  2  1  0  0  0  0
 19 20  2  0  0  0  0
 19 21  1  0  0  0  0
 17 18  1  0  0  0  0
 17 19  1  0  0  0  0
 14 15  1  0  0  0  0
 14 16  1  0  0  0  0
 14 17  1  0  0  0  0
 11 12  1  0  0  0  0
 11 13  1  0  0  0  0
 11 14  1  0  0  0  0
  8  9  1  0  0  0  0
  8 10  1  0  0  0  0
  8 11  1  0  0  0  0
  7  8  1  0  0  0  0
  7 17  1  0  0  0  0
 23 24  1  0  0  0  0
 23 25  1  0  0  0  0
 23 26  1  0  0  0  0
 21 22  1  0  0  0  0
 21 23  1  0  0  0  0
M  END
$$$$
default_name
  -OEChem-01062215323D

 26 26  0     1  0  0  0  0  0999 V2000
   -1.8446   -3.5060   -0.3010 H   0  0  0  0  0  0  0  0  0  0  0  0
   -2.0746   -2.4490   -0.4240 C   0  0  0  0  0  0  0  0  0  0  0  0
   -2.6906   -2.1160    0.4090 H   0  0  0  0  0  0  0  0  0  0  0  0
   -2.5986   -2.2980   -1.3650 H   0  0  0  0  0  0  0  0  0  0  0  0
   -0.7756   -1.6630   -0.4350 C   0  0  0  0  0  0  0  0  0  0  0  0
    0.2844   -2.2800   -0.4550 O   0  0  0  0  0  0  0  0  0  0  0  0
   -0.8246   -0.3180   -0.4350 N   0  0  0  0  0  0  0  0  0  0  0  0
   -2.0106    0.5080   -0.5910 C   0  0  0  0  0  0  0  0  0  0  0  0
   -2.2764    1.1290    0.2660 H   0  0  0  0  0  0  0  0  0  0  0  0
   -2.9044    0.0714   -1.0353 H   0  0  0  0  0  0  0  0  0  0  0  0
   -1.2674    1.3443   -1.6305 C   0  0  0  0  0  0  0  0  0  0  0  0
   -1.9071    2.1297   -2.0361 H   0  0  0  0  0  0  0  0  0  0  0  0
   -0.9061    0.6900   -2.4245 H   0  0  0  0  0  0  0  0  0  0  0  0
   -0.0827    1.9176   -0.8529 C   0  0  0  0  0  0  0  0  0  0  0  0
   -0.3686    2.5236    0.0091 H   0  0  0  0  0  0  0  0  0  0  0  0
    0.6903    2.4250   -1.4299 H   0  0  0  0  0  0  0  0  0  0  0  0
    0.3724    0.5200   -0.4020 C   0  0  1  0  0  0  0  0  0  0  0  0
    1.0855    0.1292   -1.1282 H   0  0  0  0  0  0  0  0  0  0  0  0
    1.0225    0.5498    0.9914 C   0  0  0  0  0  0  0  0  0  0  0  0
    0.3916    0.1863    1.9819 O   0  0  0  0  0  0  0  0  0  0  0  0
    2.2727    1.0217    1.0689 N   0  0  0  0  0  0  0  0  0  0  0  0
    2.7433    1.2438    0.2062 H   0  0  0  0  0  0  0  0  0  0  0  0
    3.0302    1.1250    2.3139 C   0  0  0  0  0  0  0  0  0  0  0  0
    3.2101    0.1252    2.7148 H   0  0  0  0  0  0  0  0  0  0  0  0
    3.9854    1.6200    2.1361 H   0  0  0  0  0  0  0  0  0  0  0  0
    2.4576    1.6951    3.0487 H   0  0  0  0  0  0  0  0  0  0  0  0
  5  6  2  0  0  0  0
  5  7  1  0  0  0  0
  2  3  1  0  0  0  0
  2  4  1  0  0  0  0
  2  5  1  0  0  0  0
  1  2  1  0  0  0  0
 19 20  2  0  0  0  0
 19 21  1  0  0  0  0
 17 18  1  0  0  0  0
 17 19  1  0  0  0  0
 14 15  1  0  0  0  0
 14 16  1  0  0  0  0
 14 17  1  0  0  0  0
 11 12  1  0  0  0  0
 11 13  1  0  0  0  0
 11 14  1  0  0  0  0
  8  9  1  0  0  0  0
  8 10  1  0  0  0  0
  8 11  1  0  0  0  0
  7  8  1  0  0  0  0
  7 17  1  0  0  0  0
 23 24  1  0  0  0  0
 23 25  1  0  0  0  0
 23 26  1  0  0  0  0
 21 22  1  0  0  0  0
 21 23  1  0  0  0  0
M  END
$$$$
default_name
  -OEChem-01062215323D

 26 26  0     1  0  0  0  0  0999 V2000
   -1.8446   -3.5060   -0.3010 H   0  0  0  0  0  0  0  0  0  0  0  0
   -2.0746   -2.4490   -0.4240 C   0  0  0  0  0  0  0  0  0  0  0  0
   -2.6906   -2.1160    0.4090 H   0  0  0  0  0  0  0  0  0  0  0  0
   -2.5986   -2.2980   -1.3650 H   0  0  0  0  0  0  0  0  0  0  0  0
   -0.7756   -1.6630   -0.4350 C   0  0  0  0  0  0  0  0  0  0  0  0
    0.2844   -2.2800   -0.4550 O   0  0  0  0  0  0  0  0  0  0  0  0
   -0.8246   -0.3180   -0.4350 N   0  0  0  0  0  0  0  0  0  0  0  0
   -2.0106    0.5080   -0.5910 C   0  0  0  0  0  0  0  0  0  0  0  0
   -2.2764    1.1290    0.2660 H   0  0  0  0  0  0  0  0  0  0  0  0
   -2.9044    0.0714   -1.0353 H   0  0  0  0  0  0  0  0  0  0  0  0
   -1.2674    1.3443   -1.6305 C   0  0  0  0  0  0  0  0  0  0  0  0
   -1.9071    2.1297   -2.0361 H   0  0  0  0  0  0  0  0  0  0  0  0
   -0.9061    0.6900   -2.4245 H   0  0  0  0  0  0  0  0  0  0  0  0
   -0.0827    1.9176   -0.8529 C   0  0  0  0  0  0  0  0  0  0  0  0
   -0.3686    2.5236    0.0091 H   0  0  0  0  0  0  0  0  0  0  0  0
    0.6903    2.4250   -1.4299 H   0  0  0  0  0  0  0  0  0  0  0  0
    0.3724    0.5200   -0.4020 C   0  0  1  0  0  0  0  0  0  0  0  0
    1.0855    0.1292   -1.1282 H   0  0  0  0  0  0  0  0  0  0  0  0
    1.0225    0.5498    0.9914 C   0  0  0  0  0  0  0  0  0  0  0  0
    0.5123   -0.0573    1.9307 O   0  0  0  0  0  0  0  0  0  0  0  0
    2.1286    1.2907    1.1303 N   0  0  0  0  0  0  0  0  0  0  0  0
    2.5184    1.7096    0.3012 H   0  0  0  0  0  0  0  0  0  0  0  0
    2.8632    1.4329    2.3852 C   0  0  0  0  0  0  0  0  0  0  0  0
    3.2795    0.4657    2.6752 H   0  0  0  0  0  0  0  0  0  0  0  0
    3.6726    2.1546    2.2707 H   0  0  0  0  0  0  0  0  0  0  0  0
    2.1864    1.7691    3.1736 H   0  0  0  0  0  0  0  0  0  0  0  0
  5  6  2  0  0  0  0
  5  7  1  0  0  0  0
  2  3  1  0  0  0  0
  2  4  1  0  0  0  0
  2  5  1  0  0  0  0
  1  2  1  0  0  0  0
 19 20  2  0  0  0  0
 19 21  1  0  0  0  0
 17 18  1  0  0  0  0
 17 19  1  0  0  0  0
 14 15  1  0  0  0  0
 14 16  1  0  0  0  0
 14 17  1  0  0  0  0
 11 12  1  0  0  0  0
 11 13  1  0  0  0  0
 11 14  1  0  0  0  0
  8  9  1  0  0  0  0
  8 10  1  0  0  0  0
  8 11  1  0  0  0  0
  7  8  1  0  0  0  0
  7 17  1  0  0  0  0
 23 24  1  0  0  0  0
 23 25  1  0  0  0  0
 23 26  1  0  0  0  0
 21 22  1  0  0  0  0
 21 23  1  0  0  0  0
M  END
$$$$
default_name
  -OEChem-01062215323D

 26 26  0     1  0  0  0  0  0999 V2000
   -1.8446   -3.5060   -0.3010 H   0  0  0  0  0  0  0  0  0  0  0  0
   -2.0746   -2.4490   -0.4240 C   0  0  0  0  0  0  0  0  0  0  0  0
   -2.6906   -2.1160    0.4090 H   0  0  0  0  0  0  0  0  0  0  0  0
   -2.5986   -2.2980   -1.3650 H   0  0  0  0  0  0  0  0  0  0  0  0
   -0.7756   -1.6630   -0.4350 C   0  0  0  0  0  0  0  0  0  0  0  0
    0.2844   -2.2800   -0.4550 O   0  0  0  0  0  0  0  0  0  0  0  0
   -0.8246   -0.3180   -0.4350 N   0  0  0  0  0  0  0  0  0  0  0  0
   -2.0106    0.5080   -0.5910 C   0  0  0  0  0  0  0  0  0  0  0  0
   -2.2764    1.1290    0.2660 H   0  0  0  0  0  0  0  0  0  0  0  0
   -2.9044    0.0714   -1.0353 H   0  0  0  0  0  0  0  0  0  0  0  0
   -1.2674    1.3443   -1.6305 C   0  0  0  0  0  0  0  0  0  0  0  0
   -1.9071    2.1297   -2.0361 H   0  0  0  0  0  0  0  0  0  0  0  0
   -0.9061    0.6900   -2.4245 H   0  0  0  0  0  0  0  0  0  0  0  0
   -0.0827    1.9176   -0.8529 C   0  0  0  0  0  0  0  0  0  0  0  0
   -0.3686    2.5236    0.0091 H   0  0  0  0  0  0  0  0  0  0  0  0
    0.6903    2.4250   -1.4299 H   0  0  0  0  0  0  0  0  0  0  0  0
    0.3724    0.5200   -0.4020 C   0  0  1  0  0  0  0  0  0  0  0  0
    1.0855    0.1292   -1.1282 H   0  0  0  0  0  0  0  0  0  0  0  0
    1.0225    0.5498    0.9914 C   0  0  0  0  0  0  0  0  0  0  0  0
    0.6857   -0.2586    1.8541 O   0  0  0  0  0  0  0  0  0  0  0  0
    1.9267    1.5100    1.2199 N   0  0  0  0  0  0  0  0  0  0  0  0
    2.1924    2.0964    0.4450 H   0  0  0  0  0  0  0  0  0  0  0  0
    2.6301    1.6833    2.4886 C   0  0  0  0  0  0  0  0  0  0  0  0
    3.2664    0.8153    2.6738 H   0  0  0  0  0  0  0  0  0  0  0  0
    3.2456    2.5830    2.4607 H   0  0  0  0  0  0  0  0  0  0  0  0
    1.9077    1.7634    3.3038 H   0  0  0  0  0  0  0  0  0  0  0  0
  5  6  2  0  0  0  0
  5  7  1  0  0  0  0
  2  3  1  0  0  0  0
  2  4  1  0  0  0  0
  2  5  1  0  0  0  0
  1  2  1  0  0  0  0
 19 20  2  0  0  0  0
 19 21  1  0  0  0  0
 17 18  1  0  0  0  0
 17 19  1  0  0  0  0
 14 15  1  0  0  0  0
 14 16  1  0  0  0  0
 14 17  1  0  0  0  0
 11 12  1  0  0  0  0
 11 13  1  0  0  0  0
 11 14  1  0  0  0  0
  8  9  1  0  0  0  0
  8 10  1  0  0  0  0
  8 11  1  0  0  0  0
  7  8  1  0  0  0  0
  7 17  1  0  0  0  0
 23 24  1  0  0  0  0
 23 25  1  0  0  0  0
 23 26  1  0  0  0  0
 21 22  1  0  0  0  0
 21 23  1  0  0  0  0
M  END
$$$$
default_name
  -OEChem-01062215323D

 26 26  0     1  0  0  0  0  0999 V2000
   -1.8446   -3.5060   -0.3010 H   0  0  0  0  0  0  0  0  0  0  0  0
   -2.0746   -2.4490   -0.4240 C   0  0  0  0  0  0  0  0  0  0  0  0
   -2.6906   -2.1160    0.4090 H   0  0  0  0  0  0  0  0  0  0  0  0
   -2.5986   -2.2980   -1.3650 H   0  0  0  0  0  0  0  0  0  0  0  0
   -0.7756   -1.6630   -0.4350 C   0  0  0  0  0  0  0  0  0  0  0  0
    0.2844   -2.2800   -0.4550 O   0  0  0  0  0  0  0  0  0  0  0  0
   -0.8246   -0.3180   -0.4350 N   0  0  0  0  0  0  0  0  0  0  0  0
   -2.0106    0.5080   -0.5910 C   0  0  0  0  0  0  0  0  0  0  0  0
   -2.2764    1.1290    0.2660 H   0  0  0  0  0  0  0  0  0  0  0  0
   -2.9044    0.0714   -1.0353 H   0  0  0  0  0  0  0  0  0  0  0  0
   -1.2674    1.3443   -1.6305 C   0  0  0  0  0  0  0  0  0  0  0  0
   -1.9071    2.1297   -2.0361 H   0  0  0  0  0  0  0  0  0  0  0  0
   -0.9061    0.6900   -2.4245 H   0  0  0  0  0  0  0  0  0  0  0  0
   -0.0827    1.9176   -0.8529 C   0  0  0  0  0  0  0  0  0  0  0  0
   -0.3686    2.5236    0.0091 H   0  0  0  0  0  0  0  0  0  0  0  0
    0.6903    2.4250   -1.4299 H   0  0  0  0  0  0  0  0  0  0  0  0
    0.3724    0.5200   -0.4020 C   0  0  1  0  0  0  0  0  0  0  0  0
    1.0855    0.1292   -1.1282 H   0  0  0  0  0  0  0  0  0  0  0  0
    1.0225    0.5498    0.9914 C   0  0  0  0  0  0  0  0  0  0  0  0
    0.9001   -0.4040    1.7572 O   0  0  0  0  0  0  0  0  0  0  0  0
    1.6806    1.6647    1.3313 N   0  0  0  0  0  0  0  0  0  0  0  0
    1.7876    2.3779    0.6279 H   0  0  0  0  0  0  0  0  0  0  0  0
    2.3467    1.8592    2.6171 C   0  0  0  0  0  0  0  0  0  0  0  0
    3.1719    1.1500    2.7107 H   0  0  0  0  0  0  0  0  0  0  0  0
    2.7338    2.8758    2.6932 H   0  0  0  0  0  0  0  0  0  0  0  0
    1.6404    1.6783    3.4303 H   0  0  0  0  0  0  0  0  0  0  0  0
  5  6  2  0  0  0  0
  5  7  1  0  0  0  0
  2  3  1  0  0  0  0
  2  4  1  0  0  0  0
  2  5  1  0  0  0  0
  1  2  1  0  0  0  0
 19 20  2  0  0  0  0
 19 21  1  0  0  0  0
 17 18  1  0  0  0  0
 17 19  1  0  0  0  0
 14 15  1  0  0  0  0
 14 16  1  0  0  0  0
 14 17  1  0  0  0  0
 11 12  1  0  0  0  0
 11 13  1  0  0  0  0
 11 14  1  0  0  0  0
  8  9  1  0  0  0  0
  8 10  1  0  0  0  0
  8 11  1  0  0  0  0
  7  8  1  0  0  0  0
  7 17  1  0  0  0  0
 23 24  1  0  0  0  0
 23 25  1  0  0  0  0
 23 26  1  0  0  0  0
 21 22  1  0  0  0  0
 21 23  1  0  0  0  0
M  END
$$$$
default_name
  -OEChem-01062215323D

 26 26  0     1  0  0  0  0  0999 V2000
   -1.8446   -3.5060   -0.3010 H   0  0  0  0  0  0  0  0  0  0  0  0
   -2.0746   -2.4490   -0.4240 C   0  0  0  0  0  0  0  0  0  0  0  0
   -2.6906   -2.1160    0.4090 H   0  0  0  0  0  0  0  0  0  0  0  0
   -2.5986   -2.2980   -1.3650 H   0  0  0  0  0  0  0  0  0  0  0  0
   -0.7756   -1.6630   -0.4350 C   0  0  0  0  0  0  0  0  0  0  0  0
    0.2844   -2.2800   -0.4550 O   0  0  0  0  0  0  0  0  0  0  0  0
   -0.8246   -0.3180   -0.4350 N   0  0  0  0  0  0  0  0  0  0  0  0
   -2.0106    0.5080   -0.5910 C   0  0  0  0  0  0  0  0  0  0  0  0
   -2.2764    1.1290    0.2660 H   0  0  0  0  0  0  0  0  0  0  0  0
   -2.9044    0.0714   -1.0353 H   0  0  0  0  0  0  0  0  0  0  0  0
   -1.2674    1.3443   -1.6305 C   0  0  0  0  0  0  0  0  0  0  0  0
   -1.9071    2.1297   -2.0361 H   0  0  0  0  0  0  0  0  0  0  0  0
   -0.9061    0.6900   -2.4245 H   0  0  0  0  0  0  0  0  0  0  0  0
   -0.0827    1.9176   -0.8529 C   0  0  0  0  0  0  0  0  0  0  0  0
   -0.3686    2.5236    0.0091 H   0  0  0  0  0  0  0  0  0  0  0  0
    0.6903    2.4250   -1.4299 H   0  0  0  0  0  0  0  0  0  0  0  0
    0.3724    0.5200   -0.4020 C   0  0  1  0  0  0  0  0  0  0  0  0
    1.0855    0.1292   -1.1282 H   0  0  0  0  0  0  0  0  0  0  0  0
    1.0225    0.5498    0.9914 C   0  0  0  0  0  0  0  0  0  0  0  0
    1.1408   -0.4836    1.6466 O   0  0  0  0  0  0  0  0  0  0  0  0
    1.4072    1.7443    1.4572 N   0  0  0  0  0  0  0  0  0  0  0  0
    1.3314    2.5348    0.8373 H   0  0  0  0  0  0  0  0  0  0  0  0
    2.0323    1.9486    2.7618 C   0  0  0  0  0  0  0  0  0  0  0  0
    3.0022    1.4471    2.7835 H   0  0  0  0  0  0  0  0  0  0  0  0
    2.1719    3.0131    2.9525 H   0  0  0  0  0  0  0  0  0  0  0  0
    1.4029    1.5195    3.5445 H   0  0  0  0  0  0  0  0  0  0  0  0
  5  6  2  0  0  0  0
  5  7  1  0  0  0  0
  2  3  1  0  0  0  0
  2  4  1  0  0  0  0
  2  5  1  0  0  0  0
  1  2  1  0  0  0  0
 19 20  2  0  0  0  0
 19 21  1  0  0  0  0
 17 18  1  0  0  0  0
 17 19  1  0  0  0  0
 14 15  1  0  0  0  0
 14 16  1  0  0  0  0
 14 17  1  0  0  0  0
 11 12  1  0  0  0  0
 11 13  1  0  0  0  0
 11 14  1  0  0  0  0
  8  9  1  0  0  0  0
  8 10  1  0  0  0  0
  8 11  1  0  0  0  0
  7  8  1  0  0  0  0
  7 17  1  0  0  0  0
 23 24  1  0  0  0  0
 23 25  1  0  0  0  0
 23 26  1  0  0  0  0
 21 22  1  0  0  0  0
 21 23  1  0  0  0  0
M  END
$$$$
default_name
  -OEChem-01062215323D

 26 26  0     1  0  0  0  0  0999 V2000
   -1.8446   -3.5060   -0.3010 H   0  0  0  0  0  0  0  0  0  0  0  0
   -2.0746   -2.4490   -0.4240 C   0  0  0  0  0  0  0  0  0  0  0  0
   -2.6906   -2.1160    0.4090 H   0  0  0  0  0  0  0  0  0  0  0  0
   -2.5986   -2.2980   -1.3650 H   0  0  0  0  0  0  0  0  0  0  0  0
   -0.7756   -1.6630   -0.4350 C   0  0  0  0  0  0  0  0  0  0  0  0
    0.2844   -2.2800   -0.4550 O   0  0  0  0  0  0  0  0  0  0  0  0
   -0.8246   -0.3180   -0.4350 N   0  0  0  0  0  0  0  0  0  0  0  0
   -2.0106    0.5080   -0.5910 C   0  0  0  0  0  0  0  0  0  0  0  0
   -2.2764    1.1290    0.2660 H   0  0  0  0  0  0  0  0  0  0  0  0
   -2.9044    0.0714   -1.0353 H   0  0  0  0  0  0  0  0  0  0  0  0
   -1.2674    1.3443   -1.6305 C   0  0  0  0  0  0  0  0  0  0  0  0
   -1.9071    2.1297   -2.0361 H   0  0  0  0  0  0  0  0  0  0  0  0
   -0.9061    0.6900   -2.4245 H   0  0  0  0  0  0  0  0  0  0  0  0
   -0.0827    1.9176   -0.8529 C   0  0  0  0  0  0  0  0  0  0  0  0
   -0.3686    2.5236    0.0091 H   0  0  0  0  0  0  0  0  0  0  0  0
    0.6903    2.4250   -1.4299 H   0  0  0  0  0  0  0  0  0  0  0  0
    0.3724    0.5200   -0.4020 C   0  0  1  0  0  0  0  0  0  0  0  0
    1.0855    0.1292   -1.1282 H   0  0  0  0  0  0  0  0  0  0  0  0
    1.0225    0.5498    0.9914 C   0  0  0  0  0  0  0  0  0  0  0  0
    1.3914   -0.4919    1.5299 O   0  0  0  0  0  0  0  0  0  0  0  0
    1.1251    1.7432    1.5889 N   0  0  0  0  0  0  0  0  0  0  0  0
    0.8551    2.5565    1.0591 H   0  0  0  0  0  0  0  0  0  0  0  0
    1.7084    1.9454    2.9130 C   0  0  0  0  0  0  0  0  0  0  0  0
    2.7691    1.6863    2.8872 H   0  0  0  0  0  0  0  0  0  0  0  0
    1.5982    2.9857    3.2207 H   0  0  0  0  0  0  0  0  0  0  0  0
    1.2113    1.2980    3.6387 H   0  0  0  0  0  0  0  0  0  0  0  0
  5  6  2  0  0  0  0
  5  7  1  0  0  0  0
  2  3  1  0  0  0  0
  2  4  1  0  0  0  0
  2  5  1  0  0  0  0
  1  2  1  0  0  0  0
 19 20  2  0  0  0  0
 19 21  1  0  0  0  0
 17 18  1  0  0  0  0
 17 19  1  0  0  0  0
 14 15  1  0  0  0  0
 14 16  1  0  0  0  0
 14 17  1  0  0  0  0
 11 12  1  0  0  0  0
 11 13  1  0  0  0  0
 11 14  1  0  0  0  0
  8  9  1  0  0  0  0
  8 10  1  0  0  0  0
  8 11  1  0  0  0  0
  7  8  1  0  0  0  0
  7 17  1  0  0  0  0
 23 24  1  0  0  0  0
 23 25  1  0  0  0  0
 23 26  1  0  0  0  0
 21 22  1  0  0  0  0
 21 23  1  0  0  0  0
M  END
$$$$
default_name
  -OEChem-01062215323D

 26 26  0     1  0  0  0  0  0999 V2000
   -1.8446   -3.5060   -0.3010 H   0  0  0  0  0  0  0  0  0  0  0  0
   -2.0746   -2.4490   -0.4240 C   0  0  0  0  0  0  0  0  0  0  0  0
   -2.6906   -2.1160    0.4090 H   0  0  0  0  0  0  0  0  0  0  0  0
   -2.5986   -2.2980   -1.3650 H   0  0  0  0  0  0  0  0  0  0  0  0
   -0.7756   -1.6630   -0.4350 C   0  0  0  0  0  0  0  0  0  0  0  0
    0.2844   -2.2800   -0.4550 O   0  0  0  0  0  0  0  0  0  0  0  0
   -0.8246   -0.3180   -0.4350 N   0  0  0  0  0  0  0  0  0  0  0  0
   -2.0106    0.5080   -0.5910 C   0  0  0  0  0  0  0  0  0  0  0  0
   -2.2764    1.1290    0.2660 H   0  0  0  0  0  0  0  0  0  0  0  0
   -2.9044    0.0714   -1.0353 H   0  0  0  0  0  0  0  0  0  0  0  0
   -1.2674    1.3443   -1.6305 C   0  0  0  0  0  0  0  0  0  0  0  0
   -1.9071    2.1297   -2.0361 H   0  0  0  0  0  0  0  0  0  0  0  0
   -0.9061    0.6900   -2.4245 H   0  0  0  0  0  0  0  0  0  0  0  0
   -0.0827    1.9176   -0.8529 C   0  0  0  0  0  0  0  0  0  0  0  0
   -0.3686    2.5236    0.0091 H   0  0  0  0  0  0  0  0  0  0  0  0
    0.6903    2.4250   -1.4299 H   0  0  0  0  0  0  0  0  0  0  0  0
    0.3724    0.5200   -0.4020 C   0  0  1  0  0  0  0  0  0  0  0  0
    1.0855    0.1292   -1.1282 H   0  0  0  0  0  0  0  0  0  0  0  0
    1.0225    0.5498    0.9914 C   0  0  0  0  0  0  0  0  0  0  0  0
    1.6348   -0.4284    1.4150 O   0  0  0  0  0  0  0  0  0  0  0  0
    0.8535    1.6616    1.7173 N   0  0  0  0  0  0  0  0  0  0  0  0
    0.3910    2.4414    1.2781 H   0  0  0  0  0  0  0  0  0  0  0  0
    1.3971    1.8498    3.0603 C   0  0  0  0  0  0  0  0  0  0  0  0
    2.4883    1.8514    3.0146 H   0  0  0  0  0  0  0  0  0  0  0  0
    1.0518    2.7953    3.4797 H   0  0  0  0  0  0  0  0  0  0  0  0
    1.0786    1.0288    3.7063 H   0  0  0  0  0  0  0  0  0  0  0  0
  5  6  2  0  0  0  0
  5  7  1  0  0  0  0
  2  3  1  0  0  0  0
  2  4  1  0  0  0  0
  2  5  1  0  0  0  0
  1  2  1  0  0  0  0
 19 20  2  0  0  0  0
 19 21  1  0  0  0  0
 17 18  1  0  0  0  0
 17 19  1  0  0  0  0
 14 15  1  0  0  0  0
 14 16  1  0  0  0  0
 14 17  1  0  0  0  0
 11 12  1  0  0  0  0
 11 13  1  0  0  0  0
 11 14  1  0  0  0  0
  8  9  1  0  0  0  0
  8 10  1  0  0  0  0
  8 11  1  0  0  0  0
  7  8  1  0  0  0  0
  7 17  1  0  0  0  0
 23 24  1  0  0  0  0
 23 25  1  0  0  0  0
 23 26  1  0  0  0  0
 21 22  1  0  0  0  0
 21 23  1  0  0  0  0
M  END
$$$$
default_name
  -OEChem-01062215323D

 26 26  0     1  0  0  0  0  0999 V2000
   -1.8446   -3.5060   -0.3010 H   0  0  0  0  0  0  0  0  0  0  0  0
   -2.0746   -2.4490   -0.4240 C   0  0  0  0  0  0  0  0  0  0  0  0
   -2.6906   -2.1160    0.4090 H   0  0  0  0  0  0  0  0  0  0  0  0
   -2.5986   -2.2980   -1.3650 H   0  0  0  0  0  0  0  0  0  0  0  0
   -0.7756   -1.6630   -0.4350 C   0  0  0  0  0  0  0  0  0  0  0  0
    0.2844   -2.2800   -0.4550 O   0  0  0  0  0  0  0  0  0  0  0  0
   -0.8246   -0.3180   -0.4350 N   0  0  0  0  0  0  0  0  0  0  0  0
   -2.0106    0.5080   -0.5910 C   0  0  0  0  0  0  0  0  0  0  0  0
   -2.2764    1.1290    0.2660 H   0  0  0  0  0  0  0  0  0  0  0  0
   -2.9044    0.0714   -1.0353 H   0  0  0  0  0  0  0  0  0  0  0  0
   -1.2674    1.3443   -1.6305 C   0  0  0  0  0  0  0  0  0  0  0  0
   -1.9071    2.1297   -2.0361 H   0  0  0  0  0  0  0  0  0  0  0  0
   -0.9061    0.6900   -2.4245 H   0  0  0  0  0  0  0  0  0  0  0  0
   -0.0827    1.9176   -0.8529 C   0  0  0  0  0  0  0  0  0  0  0  0
   -0.3686    2.5236    0.0091 H   0  0  0  0  0  0  0  0  0  0  0  0
    0.6903    2.4250   -1.4299 H   0  0  0  0  0  0  0  0  0  0  0  0
    0.3724    0.5200   -0.4020 C   0  0  1  0  0  0  0  0  0  0  0  0
    1.0855    0.1292   -1.1282 H   0  0  0  0  0  0  0  0  0  0  0  0
    1.0225    0.5498    0.9914 C   0  0  0  0  0  0  0  0  0  0  0  0
    1.8545   -0.2975    1.3097 O   0  0  0  0  0  0  0  0  0  0  0  0
    0.6109    1.5051    1.8338 N   0  0  0  0  0  0  0  0  0  0  0  0
   -0.0292    2.1975    1.4794 H   0  0  0  0  0  0  0  0  0  0  0  0
    1.1196    1.6683    3.1937 C   0  0  0  0  0  0  0  0  0  0  0  0
    2.1790    1.9310    3.1572 H   0  0  0  0  0  0  0  0  0  0  0  0
    0.5701    2.4549    3.7118 H   0  0  0  0  0  0  0  0  0  0  0  0
    1.0140    0.7302    3.7429 H   0  0  0  0  0  0  0  0  0  0  0  0
  5  6  2  0  0  0  0
  5  7  1  0  0  0  0
  2  3  1  0  0  0  0
  2  4  1  0  0  0  0
  2  5  1  0  0  0  0
  1  2  1  0  0  0  0
 19 20  2  0  0  0  0
 19 21  1  0  0  0  0
 17 18  1  0  0  0  0
 17 19  1  0  0  0  0
 14 15  1  0  0  0  0
 14 16  1  0  0  0  0
 14 17  1  0  0  0  0
 11 12  1  0  0  0  0
 11 13  1  0  0  0  0
 11 14  1  0  0  0  0
  8  9  1  0  0  0  0
  8 10  1  0  0  0  0
  8 11  1  0  0  0  0
  7  8  1  0  0  0  0
  7 17  1  0  0  0  0
 23 24  1  0  0  0  0
 23 25  1  0  0  0  0
 23 26  1  0  0  0  0
 21 22  1  0  0  0  0
 21 23  1  0  0  0  0
M  END
$$$$
default_name
  -OEChem-01062215323D

 26 26  0     1  0  0  0  0  0999 V2000
   -1.8446   -3.5060   -0.3010 H   0  0  0  0  0  0  0  0  0  0  0  0
   -2.0746   -2.4490   -0.4240 C   0  0  0  0  0  0  0  0  0  0  0  0
   -2.6906   -2.1160    0.4090 H   0  0  0  0  0  0  0  0  0  0  0  0
   -2.5986   -2.2980   -1.3650 H   0  0  0  0  0  0  0  0  0  0  0  0
   -0.7756   -1.6630   -0.4350 C   0  0  0  0  0  0  0  0  0  0  0  0
    0.2844   -2.2800   -0.4550 O   0  0  0  0  0  0  0  0  0  0  0  0
   -0.8246   -0.3180   -0.4350 N   0  0  0  0  0  0  0  0  0  0  0  0
   -2.0106    0.5080   -0.5910 C   0  0  0  0  0  0  0  0  0  0  0  0
   -2.2764    1.1290    0.2660 H   0  0  0  0  0  0  0  0  0  0  0  0
   -2.9044    0.0714   -1.0353 H   0  0  0  0  0  0  0  0  0  0  0  0
   -1.2674    1.3443   -1.6305 C   0  0  0  0  0  0  0  0  0  0  0  0
   -1.9071    2.1297   -2.0361 H   0  0  0  0  0  0  0  0  0  0  0  0
   -0.9061    0.6900   -2.4245 H   0  0  0  0  0  0  0  0  0  0  0  0
   -0.0827    1.9176   -0.8529 C   0  0  0  0  0  0  0  0  0  0  0  0
   -0.3686    2.5236    0.0091 H   0  0  0  0  0  0  0  0  0  0  0  0
    0.6903    2.4250   -1.4299 H   0  0  0  0  0  0  0  0  0  0  0  0
    0.3724    0.5200   -0.4020 C   0  0  1  0  0  0  0  0  0  0  0  0
    1.0855    0.1292   -1.1282 H   0  0  0  0  0  0  0  0  0  0  0  0
    1.0225    0.5498    0.9914 C   0  0  0  0  0  0  0  0  0  0  0  0
    2.0354   -0.1079    1.2212 O   0  0  0  0  0  0  0  0  0  0  0  0
    0.4140    1.2843    1.9305 N   0  0  0  0  0  0  0  0  0  0  0  0
   -0.3769    1.8414    1.6492 H   0  0  0  0  0  0  0  0  0  0  0  0
    0.8947    1.4134    3.3041 C   0  0  0  0  0  0  0  0  0  0  0  0
    1.8623    1.9198    3.3053 H   0  0  0  0  0  0  0  0  0  0  0  0
    0.1857    1.9878    3.9011 H   0  0  0  0  0  0  0  0  0  0  0  0
    1.0217    0.4226    3.7459 H   0  0  0  0  0  0  0  0  0  0  0  0
  5  6  2  0  0  0  0
  5  7  1  0  0  0  0
  2  3  1  0  0  0  0
  2  4  1  0  0  0  0
  2  5  1  0  0  0  0
  1  2  1  0  0  0  0
 19 20  2  0  0  0  0
 19 21  1  0  0  0  0
 17 18  1  0  0  0  0
 17 19  1  0  0  0  0
 14 15  1  0  0  0  0
 14 16  1  0  0  0  0
 14 17  1  0  0  0  0
 11 12  1  0  0  0  0
 11 13  1  0  0  0  0
 11 14  1  0  0  0  0
  8  9  1  0  0  0  0
  8 10  1  0  0  0  0
  8 11  1  0  0  0  0
  7  8  1  0  0  0  0
  7 17  1  0  0  0  0
 23 24  1  0  0  0  0
 23 25  1  0  0  0  0
 23 26  1  0  0  0  0
 21 22  1  0  0  0  0
 21 23  1  0  0  0  0
M  END
$$$$
default_name
  -OEChem-01062215323D

 26 26  0     1  0  0  0  0  0999 V2000
   -1.8446   -3.5060   -0.3010 H   0  0  0  0  0  0  0  0  0  0  0  0
   -2.0746   -2.4490   -0.4240 C   0  0  0  0  0  0  0  0  0  0  0  0
   -2.6906   -2.1160    0.4090 H   0  0  0  0  0  0  0  0  0  0  0  0
   -2.5986   -2.2980   -1.3650 H   0  0  0  0  0  0  0  0  0  0  0  0
   -0.7756   -1.6630   -0.4350 C   0  0  0  0  0  0  0  0  0  0  0  0
    0.2844   -2.2800   -0.4550 O   0  0  0  0  0  0  0  0  0  0  0  0
   -0.8246   -0.3180   -0.4350 N   0  0  0  0  0  0  0  0  0  0  0  0
   -2.0106    0.5080   -0.5910 C   0  0  0  0  0  0  0  0  0  0  0  0
   -2.2764    1.1290    0.2660 H   0  0  0  0  0  0  0  0  0  0  0  0
   -2.9044    0.0714   -1.0353 H   0  0  0  0  0  0  0  0  0  0  0  0
   -1.2674    1.3443   -1.6305 C   0  0  0  0  0  0  0  0  0  0  0  0
   -1.9071    2.1297   -2.0361 H   0  0  0  0  0  0  0  0  0  0  0  0
   -0.9061    0.6900   -2.4245 H   0  0  0  0  0  0  0  0  0  0  0  0
   -0.0827    1.9176   -0.8529 C   0  0  0  0  0  0  0  0  0  0  0  0
   -0.3686    2.5236    0.0091 H   0  0  0  0  0  0  0  0  0  0  0  0
    0.6903    2.4250   -1.4299 H   0  0  0  0  0  0  0  0  0  0  0  0
    0.3724    0.5200   -0.4020 C   0  0  1  0  0  0  0  0  0  0  0  0
    1.0855    0.1292   -1.1282 H   0  0  0  0  0  0  0  0  0  0  0  0
    1.0225    0.5498    0.9914 C   0  0  0  0  0  0  0  0  0  0  0  0
    2.1653    0.1273    1.1556 O   0  0  0  0  0  0  0  0  0  0  0  0
    0.2759    1.0142    2.0007 N   0  0  0  0  0  0  0  0  0  0  0  0
   -0.6283    1.3973    1.7760 H   0  0  0  0  0  0  0  0  0  0  0  0
    0.7378    1.1023    3.3839 C   0  0  0  0  0  0  0  0  0  0  0  0
    1.5597    1.8185    3.4486 H   0  0  0  0  0  0  0  0  0  0  0  0
   -0.0751    1.4257    4.0348 H   0  0  0  0  0  0  0  0  0  0  0  0
    1.1013    0.1271    3.7151 H   0  0  0  0  0  0  0  0  0  0  0  0
  5  6  2  0  0  0  0
  5  7  1  0  0  0  0
  2  3  1  0  0  0  0
  2  4  1  0  0  0  0
  2  5  1  0  0  0  0
  1  2  1  0  0  0  0
 19 20  2  0  0  0  0
 19 21  1  0  0  0  0
 17 18  1  0  0  0  0
 17 19  1  0  0  0  0
 14 15  1  0  0  0  0
 14 16  1  0  0  0  0
 14 17  1  0  0  0  0
 11 12  1  0  0  0  0
 11 13  1  0  0  0  0
 11 14  1  0  0  0  0
  8  9  1  0  0  0  0
  8 10  1  0  0  0  0
  8 11  1  0  0  0  0
  7  8  1  0  0  0  0
  7 17  1  0  0  0  0
 23 24  1  0  0  0  0
 23 25  1  0  0  0  0
 23 26  1  0  0  0  0
 21 22  1  0  0  0  0
 21 23  1  0  0  0  0
M  END
$$$$
default_name
  -OEChem-01062215323D

 26 26  0     1  0  0  0  0  0999 V2000
   -1.8446   -3.5060   -0.3010 H   0  0  0  0  0  0  0  0  0  0  0  0
   -2.0746   -2.4490   -0.4240 C   0  0  0  0  0  0  0  0  0  0  0  0
   -2.6906   -2.1160    0.4090 H   0  0  0  0  0  0  0  0  0  0  0  0
   -2.5986   -2.2980   -1.3650 H   0  0  0  0  0  0  0  0  0  0  0  0
   -0.7756   -1.6630   -0.4350 C   0  0  0  0  0  0  0  0  0  0  0  0
    0.2844   -2.2800   -0.4550 O   0  0  0  0  0  0  0  0  0  0  0  0
   -0.8246   -0.3180   -0.4350 N   0  0  0  0  0  0  0  0  0  0  0  0
   -2.0106    0.5080   -0.5910 C   0  0  0  0  0  0  0  0  0  0  0  0
   -2.2764    1.1290    0.2660 H   0  0  0  0  0  0  0  0  0  0  0  0
   -2.9044    0.0714   -1.0353 H   0  0  0  0  0  0  0  0  0  0  0  0
   -1.2674    1.3443   -1.6305 C   0  0  0  0  0  0  0  0  0  0  0  0
   -1.9071    2.1297   -2.0361 H   0  0  0  0  0  0  0  0  0  0  0  0
   -0.9061    0.6900   -2.4245 H   0  0  0  0  0  0  0  0  0  0  0  0
   -0.0827    1.9176   -0.8529 C   0  0  0  0  0  0  0  0  0  0  0  0
   -0.3686    2.5236    0.0091 H   0  0  0  0  0  0  0  0  0  0  0  0
    0.6903    2.4250   -1.4299 H   0  0  0  0  0  0  0  0  0  0  0  0
    0.3724    0.5200   -0.4020 C   0  0  1  0  0  0  0  0  0  0  0  0
    1.0855    0.1292   -1.1282 H   0  0  0  0  0  0  0  0  0  0  0  0
    1.0225    0.5498    0.9914 C   0  0  0  0  0  0  0  0  0  0  0  0
    2.2352    0.3921    1.1172 O   0  0  0  0  0  0  0  0  0  0  0  0
    0.2063    0.7133    2.0396 N   0  0  0  0  0  0  0  0  0  0  0  0
   -0.7664    0.8954    1.8512 H   0  0  0  0  0  0  0  0  0  0  0  0
    0.6596    0.7563    3.4278 C   0  0  0  0  0  0  0  0  0  0  0  0
    1.2919    1.6341    3.5775 H   0  0  0  0  0  0  0  0  0  0  0  0
   -0.1945    0.8070    4.1038 H   0  0  0  0  0  0  0  0  0  0  0  0
    1.2474   -0.1364    3.6526 H   0  0  0  0  0  0  0  0  0  0  0  0
  5  6  2  0  0  0  0
  5  7  1  0  0  0  0
  2  3  1  0  0  0  0
  2  4  1  0  0  0  0
  2  5  1  0  0  0  0
  1  2  1  0  0  0  0
 19 20  2  0  0  0  0
 19 21  1  0  0  0  0
 17 18  1  0  0  0  0
 17 19  1  0  0  0  0
 14 15  1  0  0  0  0
 14 16  1  0  0  0  0
 14 17  1  0  0  0  0
 11 12  1  0  0  0  0
 11 13  1  0  0  0  0
 11 14  1  0  0  0  0
  8  9  1  0  0  0  0
  8 10  1  0  0  0  0
  8 11  1  0  0  0  0
  7  8  1  0  0  0  0
  7 17  1  0  0  0  0
 23 24  1  0  0  0  0
 23 25  1  0  0  0  0
 23 26  1  0  0  0  0
 21 22  1  0  0  0  0
 21 23  1  0  0  0  0
M  END
$$$$
default_name
  -OEChem-01062215323D

 26 26  0     1  0  0  0  0  0999 V2000
   -1.8446   -3.5060   -0.3010 H   0  0  0  0  0  0  0  0  0  0  0  0
   -2.0746   -2.4490   -0.4240 C   0  0  0  0  0  0  0  0  0  0  0  0
   -2.6906   -2.1160    0.4090 H   0  0  0  0  0  0  0  0  0  0  0  0
   -2.5986   -2.2980   -1.3650 H   0  0  0  0  0  0  0  0  0  0  0  0
   -0.7756   -1.6630   -0.4350 C   0  0  0  0  0  0  0  0  0  0  0  0
    0.2844   -2.2800   -0.4550 O   0  0  0  0  0  0  0  0  0  0  0  0
   -0.8246   -0.3180   -0.4350 N   0  0  0  0  0  0  0  0  0  0  0  0
   -2.0106    0.5080   -0.5910 C   0  0  0  0  0  0  0  0  0  0  0  0
   -2.2764    1.1290    0.2660 H   0  0  0  0  0  0  0  0  0  0  0  0
   -2.9044    0.0714   -1.0353 H   0  0  0  0  0  0  0  0  0  0  0  0
   -1.2674    1.3443   -1.6305 C   0  0  0  0  0  0  0  0  0  0  0  0
   -1.9071    2.1297   -2.0361 H   0  0  0  0  0  0  0  0  0  0  0  0
   -0.9061    0.6900   -2.4245 H   0  0  0  0  0  0  0  0  0  0  0  0
   -0.0827    1.9176   -0.8529 C   0  0  0  0  0  0  0  0  0  0  0  0
   -0.3686    2.5236    0.0091 H   0  0  0  0  0  0  0  0  0  0  0  0
    0.6903    2.4250   -1.4299 H   0  0  0  0  0  0  0  0  0  0  0  0
    0.3724    0.5200   -0.4020 C   0  0  1  0  0  0  0  0  0  0  0  0
    1.0855    0.1292   -1.1282 H   0  0  0  0  0  0  0  0  0  0  0  0
    1.0225    0.5498    0.9914 C   0  0  0  0  0  0  0  0  0  0  0  0
    2.2405    0.6685    1.1089 O   0  0  0  0  0  0  0  0  0  0  0  0
    0.2098    0.4020    2.0446 N   0  0  0  0  0  0  0  0  0  0  0  0
   -0.7818    0.3701    1.8696 H   0  0  0  0  0  0  0  0  0  0  0  0
    0.6654    0.3989    3.4328 C   0  0  0  0  0  0  0  0  0  0  0  0
    1.0772    1.3790    3.6831 H   0  0  0  0  0  0  0  0  0  0  0  0
   -0.1645    0.1738    4.1033 H   0  0  0  0  0  0  0  0  0  0  0  0
    1.4499   -0.3498    3.5627 H   0  0  0  0  0  0  0  0  0  0  0  0
  5  6  2  0  0  0  0
  5  7  1  0  0  0  0
  2  3  1  0  0  0  0
  2  4  1  0  0  0  0
  2  5  1  0  0  0  0
  1  2  1  0  0  0  0
 19 20  2  0  0  0  0
 19 21  1  0  0  0  0
 17 18  1  0  0  0  0
 17 19  1  0  0  0  0
 14 15  1  0  0  0  0
 14 16  1  0  0  0  0
 14 17  1  0  0  0  0
 11 12  1  0  0  0  0
 11 13  1  0  0  0  0
 11 14  1  0  0  0  0
  8  9  1  0  0  0  0
  8 10  1  0  0  0  0
  8 11  1  0  0  0  0
  7  8  1  0  0  0  0
  7 17  1  0  0  0  0
 23 24  1  0  0  0  0
 23 25  1  0  0  0  0
 23 26  1  0  0  0  0
 21 22  1  0  0  0  0
 21 23  1  0  0  0  0
M  END
$$$$
default_name
  -OEChem-01062215323D

 26 26  0     1  0  0  0  0  0999 V2000
   -1.8446   -3.5060   -0.3010 H   0  0  0  0  0  0  0  0  0  0  0  0
   -2.0746   -2.4490   -0.4240 C   0  0  0  0  0  0  0  0  0  0  0  0
   -2.6906   -2.1160    0.4090 H   0  0  0  0  0  0  0  0  0  0  0  0
   -2.5986   -2.2980   -1.3650 H   0  0  0  0  0  0  0  0  0  0  0  0
   -0.7756   -1.6630   -0.4350 C   0  0  0  0  0  0  0  0  0  0  0  0
    0.2844   -2.2800   -0.4550 O   0  0  0  0  0  0  0  0  0  0  0  0
   -0.8246   -0.3180   -0.4350 N   0  0  0  0  0  0  0  0  0  0  0  0
   -2.0106    0.5080   -0.5910 C   0  0  0  0  0  0  0  0  0  0  0  0
   -2.2764    1.1290    0.2660 H   0  0  0  0  0  0  0  0  0  0  0  0
   -2.9044    0.0714   -1.0353 H   0  0  0  0  0  0  0  0  0  0  0  0
   -1.2674    1.3443   -1.6305 C   0  0  0  0  0  0  0  0  0  0  0  0
   -1.9071    2.1297   -2.0361 H   0  0  0  0  0  0  0  0  0  0  0  0
   -0.9061    0.6900   -2.4245 H   0  0  0  0  0  0  0  0  0  0  0  0
   -0.0827    1.9176   -0.8529 C   0  0  0  0  0  0  0  0  0  0  0  0
   -0.3686    2.5236    0.0091 H   0  0  0  0  0  0  0  0  0  0  0  0
    0.6903    2.4250   -1.4299 H   0  0  0  0  0  0  0  0  0  0  0  0
    0.3724    0.5200   -0.4020 C   0  0  1  0  0  0  0  0  0  0  0  0
    1.0855    0.1292   -1.1282 H   0  0  0  0  0  0  0  0  0  0  0  0
    1.0225    0.5498    0.9914 C   0  0  0  0  0  0  0  0  0  0  0  0
    2.1807    0.9376    1.1310 O   0  0  0  0  0  0  0  0  0  0  0  0
    0.2862    0.1016    2.0154 N   0  0  0  0  0  0  0  0  0  0  0  0
   -0.6733   -0.1430    1.8300 H   0  0  0  0  0  0  0  0  0  0  0  0
    0.7549    0.0546    3.3984 C   0  0  0  0  0  0  0  0  0  0  0  0
    0.9301    1.0707    3.7584 H   0  0  0  0  0  0  0  0  0  0  0  0
    0.0131   -0.4306    4.0335 H   0  0  0  0  0  0  0  0  0  0  0  0
    1.6951   -0.4986    3.4514 H   0  0  0  0  0  0  0  0  0  0  0  0
  5  6  2  0  0  0  0
  5  7  1  0  0  0  0
  2  3  1  0  0  0  0
  2  4  1  0  0  0  0
  2  5  1  0  0  0  0
  1  2  1  0  0  0  0
 19 20  2  0  0  0  0
 19 21  1  0  0  0  0
 17 18  1  0  0  0  0
 17 19  1  0  0  0  0
 14 15  1  0  0  0  0
 14 16  1  0  0  0  0
 14 17  1  0  0  0  0
 11 12  1  0  0  0  0
 11 13  1  0  0  0  0
 11 14  1  0  0  0  0
  8  9  1  0  0  0  0
  8 10  1  0  0  0  0
  8 11  1  0  0  0  0
  7  8  1  0  0  0  0
  7 17  1  0  0  0  0
 23 24  1  0  0  0  0
 23 25  1  0  0  0  0
 23 26  1  0  0  0  0
 21 22  1  0  0  0  0
 21 23  1  0  0  0  0
M  END
$$$$
default_name
  -OEChem-01062215323D

 26 26  0     1  0  0  0  0  0999 V2000
   -1.8446   -3.5060   -0.3010 H   0  0  0  0  0  0  0  0  0  0  0  0
   -2.0746   -2.4490   -0.4240 C   0  0  0  0  0  0  0  0  0  0  0  0
   -2.6906   -2.1160    0.4090 H   0  0  0  0  0  0  0  0  0  0  0  0
   -2.5986   -2.2980   -1.3650 H   0  0  0  0  0  0  0  0  0  0  0  0
   -0.7756   -1.6630   -0.4350 C   0  0  0  0  0  0  0  0  0  0  0  0
    0.2844   -2.2800   -0.4550 O   0  0  0  0  0  0  0  0  0  0  0  0
   -0.8246   -0.3180   -0.4350 N   0  0  0  0  0  0  0  0  0  0  0  0
   -2.0106    0.5080   -0.5910 C   0  0  0  0  0  0  0  0  0  0  0  0
   -2.2764    1.1290    0.2660 H   0  0  0  0  0  0  0  0  0  0  0  0
   -2.9044    0.0714   -1.0353 H   0  0  0  0  0  0  0  0  0  0  0  0
   -1.2674    1.3443   -1.6305 C   0  0  0  0  0  0  0  0  0  0  0  0
   -1.9071    2.1297   -2.0361 H   0  0  0  0  0  0  0  0  0  0  0  0
   -0.9061    0.6900   -2.4245 H   0  0  0  0  0  0  0  0  0  0  0  0
   -0.0827    1.9176   -0.8529 C   0  0  0  0  0  0  0  0  0  0  0  0
   -0.3686    2.5236    0.0091 H   0  0  0  0  0  0  0  0  0  0  0  0
    0.6903    2.4250   -1.4299 H   0  0  0  0  0  0  0  0  0  0  0  0
    0.3724    0.5200   -0.4020 C   0  0  1  0  0  0  0  0  0  0  0  0
    1.0855    0.1292   -1.1282 H   0  0  0  0  0  0  0  0  0  0  0  0
    1.0225    0.5498    0.9914 C   0  0  0  0  0  0  0  0  0  0  0  0
    2.0600    1.1812    1.1821 O   0  0  0  0  0  0  0  0  0  0  0  0
    0.4303   -0.1674    1.9539 N   0  0  0  0  0  0  0  0  0  0  0  0
   -0.4484   -0.6088    1.7351 H   0  0  0  0  0  0  0  0  0  0  0  0
    0.9219   -0.2533    3.3271 C   0  0  0  0  0  0  0  0  0  0  0  0
    0.8607    0.7301    3.7980 H   0  0  0  0  0  0  0  0  0  0  0  0
    0.3260   -0.9653    3.8989 H   0  0  0  0  0  0  0  0  0  0  0  0
    1.9664   -0.5727    3.3265 H   0  0  0  0  0  0  0  0  0  0  0  0
  5  6  2  0  0  0  0
  5  7  1  0  0  0  0
  2  3  1  0  0  0  0
  2  4  1  0  0  0  0
  2  5  1  0  0  0  0
  1  2  1  0  0  0  0
 19 20  2  0  0  0  0
 19 21  1  0  0  0  0
 17 18  1  0  0  0  0
 17 19  1  0  0  0  0
 14 15  1  0  0  0  0
 14 16  1  0  0  0  0
 14 17  1  0  0  0  0
 11 12  1  0  0  0  0
 11 13  1  0  0  0  0
 11 14  1  0  0  0  0
  8  9  1  0  0  0  0
  8 10  1  0  0  0  0
  8 11  1  0  0  0  0
  7  8  1  0  0  0  0
  7 17  1  0  0  0  0
 23 24  1  0  0  0  0
 23 25  1  0  0  0  0
 23 26  1  0  0  0  0
 21 22  1  0  0  0  0
 21 23  1  0  0  0  0
M  END
$$$$
default_name
  -OEChem-01062215323D

 26 26  0     1  0  0  0  0  0999 V2000
   -1.8446   -3.5060   -0.3010 H   0  0  0  0  0  0  0  0  0  0  0  0
   -2.0746   -2.4490   -0.4240 C   0  0  0  0  0  0  0  0  0  0  0  0
   -2.6906   -2.1160    0.4090 H   0  0  0  0  0  0  0  0  0  0  0  0
   -2.5986   -2.2980   -1.3650 H   0  0  0  0  0  0  0  0  0  0  0  0
   -0.7756   -1.6630   -0.4350 C   0  0  0  0  0  0  0  0  0  0  0  0
    0.2844   -2.2800   -0.4550 O   0  0  0  0  0  0  0  0  0  0  0  0
   -0.8246   -0.3180   -0.4350 N   0  0  0  0  0  0  0  0  0  0  0  0
   -2.0106    0.5080   -0.5910 C   0  0  0  0  0  0  0  0  0  0  0  0
   -2.2764    1.1290    0.2660 H   0  0  0  0  0  0  0  0  0  0  0  0
   -2.9044    0.0714   -1.0353 H   0  0  0  0  0  0  0  0  0  0  0  0
   -1.2674    1.3443   -1.6305 C   0  0  0  0  0  0  0  0  0  0  0  0
   -1.9071    2.1297   -2.0361 H   0  0  0  0  0  0  0  0  0  0  0  0
   -0.9061    0.6900   -2.4245 H   0  0  0  0  0  0  0  0  0  0  0  0
   -0.0827    1.9176   -0.8529 C   0  0  0  0  0  0  0  0  0  0  0  0
   -0.3686    2.5236    0.0091 H   0  0  0  0  0  0  0  0  0  0  0  0
    0.6903    2.4250   -1.4299 H   0  0  0  0  0  0  0  0  0  0  0  0
    0.3724    0.5200   -0.4020 C   0  0  1  0  0  0  0  0  0  0  0  0
    1.0855    0.1292   -1.1282 H   0  0  0  0  0  0  0  0  0  0  0  0
    1.0225    0.5498    0.9914 C   0  0  0  0  0  0  0  0  0  0  0  0
    1.8866    1.3825    1.2587 O   0  0  0  0  0  0  0  0  0  0  0  0
    0.6323   -0.3867    1.8644 N   0  0  0  0  0  0  0  0  0  0  0  0
   -0.1224   -0.9956    1.5913 H   0  0  0  0  0  0  0  0  0  0  0  0
    1.1550   -0.5037    3.2237 C   0  0  0  0  0  0  0  0  0  0  0  0
    0.8737    0.3806    3.7995 H   0  0  0  0  0  0  0  0  0  0  0  0
    0.7529   -1.3936    3.7089 H   0  0  0  0  0  0  0  0  0  0  0  0
    2.2451   -0.5669    3.1963 H   0  0  0  0  0  0  0  0  0  0  0  0
  5  6  2  0  0  0  0
  5  7  1  0  0  0  0
  2  3  1  0  0  0  0
  2  4  1  0  0  0  0
  2  5  1  0  0  0  0
  1  2  1  0  0  0  0
 19 20  2  0  0  0  0
 19 21  1  0  0  0  0
 17 18  1  0  0  0  0
 17 19  1  0  0  0  0
 14 15  1  0  0  0  0
 14 16  1  0  0  0  0
 14 17  1  0  0  0  0
 11 12  1  0  0  0  0
 11 13  1  0  0  0  0
 11 14  1  0  0  0  0
  8  9  1  0  0  0  0
  8 10  1  0  0  0  0
  8 11  1  0  0  0  0
  7  8  1  0  0  0  0
  7 17  1  0  0  0  0
 23 24  1  0  0  0  0
 23 25  1  0  0  0  0
 23 26  1  0  0  0  0
 21 22  1  0  0  0  0
 21 23  1  0  0  0  0
M  END
$$$$
default_name
  -OEChem-01062215323D

 26 26  0     1  0  0  0  0  0999 V2000
   -1.8446   -3.5060   -0.3010 H   0  0  0  0  0  0  0  0  0  0  0  0
   -2.0746   -2.4490   -0.4240 C   0  0  0  0  0  0  0  0  0  0  0  0
   -2.6906   -2.1160    0.4090 H   0  0  0  0  0  0  0  0  0  0  0  0
   -2.5986   -2.2980   -1.3650 H   0  0  0  0  0  0  0  0  0  0  0  0
   -0.7756   -1.6630   -0.4350 C   0  0  0  0  0  0  0  0  0  0  0  0
    0.2844   -2.2800   -0.4550 O   0  0  0  0  0  0  0  0  0  0  0  0
   -0.8246   -0.3180   -0.4350 N   0  0  0  0  0  0  0  0  0  0  0  0
   -2.0106    0.5080   -0.5910 C   0  0  0  0  0  0  0  0  0  0  0  0
   -2.2764    1.1290    0.2660 H   0  0  0  0  0  0  0  0  0  0  0  0
   -2.9044    0.0714   -1.0353 H   0  0  0  0  0  0  0  0  0  0  0  0
   -1.2674    1.3443   -1.6305 C   0  0  0  0  0  0  0  0  0  0  0  0
   -1.9071    2.1297   -2.0361 H   0  0  0  0  0  0  0  0  0  0  0  0
   -0.9061    0.6900   -2.4245 H   0  0  0  0  0  0  0  0  0  0  0  0
   -0.0827    1.9176   -0.8529 C   0  0  0  0  0  0  0  0  0  0  0  0
   -0.3686    2.5236    0.0091 H   0  0  0  0  0  0  0  0  0  0  0  0
    0.6903    2.4250   -1.4299 H   0  0  0  0  0  0  0  0  0  0  0  0
    0.3724    0.5200   -0.4020 C   0  0  1  0  0  0  0  0  0  0  0  0
    1.0855    0.1292   -1.1282 H   0  0  0  0  0  0  0  0  0  0  0  0
    1.0225    0.5498    0.9914 C   0  0  0  0  0  0  0  0  0  0  0  0
    1.6722    1.5279    1.3556 O   0  0  0  0  0  0  0  0  0  0  0  0
    0.8784   -0.5415    1.7529 N   0  0  0  0  0  0  0  0  0  0  0  0
    0.2824   -1.2770    1.4084 H   0  0  0  0  0  0  0  0  0  0  0  0
    1.4385   -0.6796    3.0952 C   0  0  0  0  0  0  0  0  0  0  0  0
    0.9683    0.0459    3.7625 H   0  0  0  0  0  0  0  0  0  0  0  0
    1.2647   -1.6864    3.4764 H   0  0  0  0  0  0  0  0  0  0  0  0
    2.5123   -0.4818    3.0698 H   0  0  0  0  0  0  0  0  0  0  0  0
  5  6  2  0  0  0  0
  5  7  1  0  0  0  0
  2  3  1  0  0  0  0
  2  4  1  0  0  0  0
  2  5  1  0  0  0  0
  1  2  1  0  0  0  0
 19 20  2  0  0  0  0
 19 21  1  0  0  0  0
 17 18  1  0  0  0  0
 17 19  1  0  0  0  0
 14 15  1  0  0  0  0
 14 16  1  0  0  0  0
 14 17  1  0  0  0  0
 11 12  1  0  0  0  0
 11 13  1  0  0  0  0
 11 14  1  0  0  0  0
  8  9  1  0  0  0  0
  8 10  1  0  0  0  0
  8 11  1  0  0  0  0
  7  8  1  0  0  0  0
  7 17  1  0  0  0  0
 23 24  1  0  0  0  0
 23 25  1  0  0  0  0
 23 26  1  0  0  0  0
 21 22  1  0  0  0  0
 21 23  1  0  0  0  0
M  END
$$$$
default_name
  -OEChem-01062215323D

 26 26  0     1  0  0  0  0  0999 V2000
   -1.8446   -3.5060   -0.3010 H   0  0  0  0  0  0  0  0  0  0  0  0
   -2.0746   -2.4490   -0.4240 C   0  0  0  0  0  0  0  0  0  0  0  0
   -2.6906   -2.1160    0.4090 H   0  0  0  0  0  0  0  0  0  0  0  0
   -2.5986   -2.2980   -1.3650 H   0  0  0  0  0  0  0  0  0  0  0  0
   -0.7756   -1.6630   -0.4350 C   0  0  0  0  0  0  0  0  0  0  0  0
    0.2844   -2.2800   -0.4550 O   0  0  0  0  0  0  0  0  0  0  0  0
   -0.8246   -0.3180   -0.4350 N   0  0  0  0  0  0  0  0  0  0  0  0
   -2.0106    0.5080   -0.5910 C   0  0  0  0  0  0  0  0  0  0  0  0
   -2.2764    1.1290    0.2660 H   0  0  0  0  0  0  0  0  0  0  0  0
   -2.9044    0.0714   -1.0353 H   0  0  0  0  0  0  0  0  0  0  0  0
   -1.2674    1.3443   -1.6305 C   0  0  0  0  0  0  0  0  0  0  0  0
   -1.9071    2.1297   -2.0361 H   0  0  0  0  0  0  0  0  0  0  0  0
   -0.9061    0.6900   -2.4245 H   0  0  0  0  0  0  0  0  0  0  0  0
   -0.0827    1.9176   -0.8529 C   0  0  0  0  0  0  0  0  0  0  0  0
   -0.3686    2.5236    0.0091 H   0  0  0  0  0  0  0  0  0  0  0  0
    0.6903    2.4250   -1.4299 H   0  0  0  0  0  0  0  0  0  0  0  0
    0.3724    0.5200   -0.4020 C   0  0  1  0  0  0  0  0  0  0  0  0
    1.0855    0.1292   -1.1282 H   0  0  0  0  0  0  0  0  0  0  0  0
    1.0225    0.5498    0.9914 C   0  0  0  0  0  0  0  0  0  0  0  0
    1.4315    1.6075    1.4662 O   0  0  0  0  0  0  0  0  0  0  0  0
    1.1518   -0.6210    1.6270 N   0  0  0  0  0  0  0  0  0  0  0  0
    0.7386   -1.4339    1.1989 H   0  0  0  0  0  0  0  0  0  0  0  0
    1.7528   -0.7690    2.9504 C   0  0  0  0  0  0  0  0  0  0  0  0
    1.1379   -0.2512    3.6897 H   0  0  0  0  0  0  0  0  0  0  0  0
    1.8266   -1.8238    3.2171 H   0  0  0  0  0  0  0  0  0  0  0  0
    2.7498   -0.3231    2.9556 H   0  0  0  0  0  0  0  0  0  0  0  0
  5  6  2  0  0  0  0
  5  7  1  0  0  0  0
  2  3  1  0  0  0  0
  2  4  1  0  0  0  0
  2  5  1  0  0  0  0
  1  2  1  0  0  0  0
 19 20  2  0  0  0  0
 19 21  1  0  0  0  0
 17 18  1  0  0  0  0
 17 19  1  0  0  0  0
 14 15  1  0  0  0  0
 14 16  1  0  0  0  0
 14 17  1  0  0  0  0
 11 12  1  0  0  0  0
 11 13  1  0  0  0  0
 11 14  1  0  0  0  0
  8  9  1  0  0  0  0
  8 10  1  0  0  0  0
  8 11  1  0  0  0  0
  7  8  1  0  0  0  0
  7 17  1  0  0  0  0
 23 24  1  0  0  0  0
 23 25  1  0  0  0  0
 23 26  1  0  0  0  0
 21 22  1  0  0  0  0
 21 23  1  0  0  0  0
M  END
$$$$
default_name
  -OEChem-01062215323D

 26 26  0     1  0  0  0  0  0999 V2000
   -1.8446   -3.5060   -0.3010 H   0  0  0  0  0  0  0  0  0  0  0  0
   -2.0746   -2.4490   -0.4240 C   0  0  0  0  0  0  0  0  0  0  0  0
   -2.6906   -2.1160    0.4090 H   0  0  0  0  0  0  0  0  0  0  0  0
   -2.5986   -2.2980   -1.3650 H   0  0  0  0  0  0  0  0  0  0  0  0
   -0.7756   -1.6630   -0.4350 C   0  0  0  0  0  0  0  0  0  0  0  0
    0.2844   -2.2800   -0.4550 O   0  0  0  0  0  0  0  0  0  0  0  0
   -0.8246   -0.3180   -0.4350 N   0  0  0  0  0  0  0  0  0  0  0  0
   -2.0106    0.5080   -0.5910 C   0  0  0  0  0  0  0  0  0  0  0  0
   -2.2764    1.1290    0.2660 H   0  0  0  0  0  0  0  0  0  0  0  0
   -2.9044    0.0714   -1.0353 H   0  0  0  0  0  0  0  0  0  0  0  0
   -1.2674    1.3443   -1.6305 C   0  0  0  0  0  0  0  0  0  0  0  0
   -1.9071    2.1297   -2.0361 H   0  0  0  0  0  0  0  0  0  0  0  0
   -0.9061    0.6900   -2.4245 H   0  0  0  0  0  0  0  0  0  0  0  0
   -0.0827    1.9176   -0.8529 C   0  0  0  0  0  0  0  0  0  0  0  0
   -0.3686    2.5236    0.0091 H   0  0  0  0  0  0  0  0  0  0  0  0
    0.6903    2.4250   -1.4299 H   0  0  0  0  0  0  0  0  0  0  0  0
    0.3724    0.5200   -0.4020 C   0  0  1  0  0  0  0  0  0  0  0  0
    1.0855    0.1292   -1.1282 H   0  0  0  0  0  0  0  0  0  0  0  0
    1.0225    0.5498    0.9914 C   0  0  0  0  0  0  0  0  0  0  0  0
    1.1809    1.6158    1.5829 O   0  0  0  0  0  0  0  0  0  0  0  0
    1.4339   -0.6199    1.4954 N   0  0  0  0  0  0  0  0  0  0  0  0
    1.2149   -1.4556    0.9771 H   0  0  0  0  0  0  0  0  0  0  0  0
    2.0767   -0.7658    2.7993 C   0  0  0  0  0  0  0  0  0  0  0  0
    1.3711   -0.4904    3.5861 H   0  0  0  0  0  0  0  0  0  0  0  0
    2.4003   -1.7963    2.9489 H   0  0  0  0  0  0  0  0  0  0  0  0
    2.9414   -0.1015    2.8614 H   0  0  0  0  0  0  0  0  0  0  0  0
  5  6  2  0  0  0  0
  5  7  1  0  0  0  0
  2  3  1  0  0  0  0
  2  4  1  0  0  0  0
  2  5  1  0  0  0  0
  1  2  1  0  0  0  0
 19 20  2  0  0  0  0
 19 21  1  0  0  0  0
 17 18  1  0  0  0  0
 17 19  1  0  0  0  0
 14 15  1  0  0  0  0
 14 16  1  0  0  0  0
 14 17  1  0  0  0  0
 11 12  1  0  0  0  0
 11 13  1  0  0  0  0
 11 14  1  0  0  0  0
  8  9  1  0  0  0  0
  8 10  1  0  0  0  0
  8 11  1  0  0  0  0
  7  8  1  0  0  0  0
  7 17  1  0  0  0  0
 23 24  1  0  0  0  0
 23 25  1  0  0  0  0
 23 26  1  0  0  0  0
 21 22  1  0  0  0  0
 21 23  1  0  0  0  0
M  END
$$$$
default_name
  -OEChem-01062215323D

 26 26  0     1  0  0  0  0  0999 V2000
   -1.8446   -3.5060   -0.3010 H   0  0  0  0  0  0  0  0  0  0  0  0
   -2.0746   -2.4490   -0.4240 C   0  0  0  0  0  0  0  0  0  0  0  0
   -2.6906   -2.1160    0.4090 H   0  0  0  0  0  0  0  0  0  0  0  0
   -2.5986   -2.2980   -1.3650 H   0  0  0  0  0  0  0  0  0  0  0  0
   -0.7756   -1.6630   -0.4350 C   0  0  0  0  0  0  0  0  0  0  0  0
    0.2844   -2.2800   -0.4550 O   0  0  0  0  0  0  0  0  0  0  0  0
   -0.8246   -0.3180   -0.4350 N   0  0  0  0  0  0  0  0  0  0  0  0
   -2.0106    0.5080   -0.5910 C   0  0  0  0  0  0  0  0  0  0  0  0
   -2.2764    1.1290    0.2660 H   0  0  0  0  0  0  0  0  0  0  0  0
   -2.9044    0.0714   -1.0353 H   0  0  0  0  0  0  0  0  0  0  0  0
   -1.2674    1.3443   -1.6305 C   0  0  0  0  0  0  0  0  0  0  0  0
   -1.9071    2.1297   -2.0361 H   0  0  0  0  0  0  0  0  0  0  0  0
   -0.9061    0.6900   -2.4245 H   0  0  0  0  0  0  0  0  0  0  0  0
   -0.0827    1.9176   -0.8529 C   0  0  0  0  0  0  0  0  0  0  0  0
   -0.3686    2.5236    0.0091 H   0  0  0  0  0  0  0  0  0  0  0  0
    0.6903    2.4250   -1.4299 H   0  0  0  0  0  0  0  0  0  0  0  0
    0.3724    0.5200   -0.4020 C   0  0  1  0  0  0  0  0  0  0  0  0
    1.0855    0.1292   -1.1282 H   0  0  0  0  0  0  0  0  0  0  0  0
    1.0225    0.5498    0.9914 C   0  0  0  0  0  0  0  0  0  0  0  0
    0.9375    1.5523    1.6979 O   0  0  0  0  0  0  0  0  0  0  0  0
    1.7055   -0.5384    1.3669 N   0  0  0  0  0  0  0  0  0  0  0  0
    1.6790   -1.3406    0.7582 H   0  0  0  0  0  0  0  0  0  0  0  0
    2.3880   -0.6702    2.6520 C   0  0  0  0  0  0  0  0  0  0  0  0
    1.6519   -0.6555    3.4586 H   0  0  0  0  0  0  0  0  0  0  0  0
    2.9467   -1.6059    2.6899 H   0  0  0  0  0  0  0  0  0  0  0  0
    3.0741    0.1677    2.7938 H   0  0  0  0  0  0  0  0  0  0  0  0
  5  6  2  0  0  0  0
  5  7  1  0  0  0  0
  2  3  1  0  0  0  0
  2  4  1  0  0  0  0
  2  5  1  0  0  0  0
  1  2  1  0  0  0  0
 19 20  2  0  0  0  0
 19 21  1  0  0  0  0
 17 18  1  0  0  0  0
 17 19  1  0  0  0  0
 14 15  1  0  0  0  0
 14 16  1  0  0  0  0
 14 17  1  0  0  0  0
 11 12  1  0  0  0  0
 11 13  1  0  0  0  0
 11 14  1  0  0  0  0
  8  9  1  0  0  0  0
  8 10  1  0  0  0  0
  8 11  1  0  0  0  0
  7  8  1  0  0  0  0
  7 17  1  0  0  0  0
 23 24  1  0  0  0  0
 23 25  1  0  0  0  0
 23 26  1  0  0  0  0
 21 22  1  0  0  0  0
 21 23  1  0  0  0  0
M  END
$$$$
default_name
  -OEChem-01062215323D

 26 26  0     1  0  0  0  0  0999 V2000
   -1.8446   -3.5060   -0.3010 H   0  0  0  0  0  0  0  0  0  0  0  0
   -2.0746   -2.4490   -0.4240 C   0  0  0  0  0  0  0  0  0  0  0  0
   -2.6906   -2.1160    0.4090 H   0  0  0  0  0  0  0  0  0  0  0  0
   -2.5986   -2.2980   -1.3650 H   0  0  0  0  0  0  0  0  0  0  0  0
   -0.7756   -1.6630   -0.4350 C   0  0  0  0  0  0  0  0  0  0  0  0
    0.2844   -2.2800   -0.4550 O   0  0  0  0  0  0  0  0  0  0  0  0
   -0.8246   -0.3180   -0.4350 N   0  0  0  0  0  0  0  0  0  0  0  0
   -2.0106    0.5080   -0.5910 C   0  0  0  0  0  0  0  0  0  0  0  0
   -2.2764    1.1290    0.2660 H   0  0  0  0  0  0  0  0  0  0  0  0
   -2.9044    0.0714   -1.0353 H   0  0  0  0  0  0  0  0  0  0  0  0
   -1.2674    1.3443   -1.6305 C   0  0  0  0  0  0  0  0  0  0  0  0
   -1.9071    2.1297   -2.0361 H   0  0  0  0  0  0  0  0  0  0  0  0
   -0.9061    0.6900   -2.4245 H   0  0  0  0  0  0  0  0  0  0  0  0
   -0.0827    1.9176   -0.8529 C   0  0  0  0  0  0  0  0  0  0  0  0
   -0.3686    2.5236    0.0091 H   0  0  0  0  0  0  0  0  0  0  0  0
    0.6903    2.4250   -1.4299 H   0  0  0  0  0  0  0  0  0  0  0  0
    0.3724    0.5200   -0.4020 C   0  0  1  0  0  0  0  0  0  0  0  0
    1.0855    0.1292   -1.1282 H   0  0  0  0  0  0  0  0  0  0  0  0
    1.0225    0.5498    0.9914 C   0  0  0  0  0  0  0  0  0  0  0  0
    0.7178    1.4214    1.8032 O   0  0  0  0  0  0  0  0  0  0  0  0
    1.9480   -0.3818    1.2504 N   0  0  0  0  0  0  0  0  0  0  0  0
    2.0992   -1.0967    0.5569 H   0  0  0  0  0  0  0  0  0  0  0  0
    2.6656   -0.4888    2.5186 C   0  0  0  0  0  0  0  0  0  0  0  0
    1.9612   -0.7351    3.3160 H   0  0  0  0  0  0  0  0  0  0  0  0
    3.4284   -1.2656    2.4578 H   0  0  0  0  0  0  0  0  0  0  0  0
    3.1387    0.4663    2.7572 H   0  0  0  0  0  0  0  0  0  0  0  0
  5  6  2  0  0  0  0
  5  7  1  0  0  0  0
  2  3  1  0  0  0  0
  2  4  1  0  0  0  0
  2  5  1  0  0  0  0
  1  2  1  0  0  0  0
 19 20  2  0  0  0  0
 19 21  1  0  0  0  0
 17 18  1  0  0  0  0
 17 19  1  0  0  0  0
 14 15  1  0  0  0  0
 14 16  1  0  0  0  0
 14 17  1  0  0  0  0
 11 12  1  0  0  0  0
 11 13  1  0  0  0  0
 11 14  1  0  0  0  0
  8  9  1  0  0  0  0
  8 10  1  0  0  0  0
  8 11  1  0  0  0  0
  7  8  1  0  0  0  0
  7 17  1  0  0  0  0
 23 24  1  0  0  0  0
 23 25  1  0  0  0  0
 23 26  1  0  0  0  0
 21 22  1  0  0  0  0
 21 23  1  0  0  0  0
M  END
$$$$
default_name
  -OEChem-01062215323D

 26 26  0     1  0  0  0  0  0999 V2000
   -1.8446   -3.5060   -0.3010 H   0  0  0  0  0  0  0  0  0  0  0  0
   -2.0746   -2.4490   -0.4240 C   0  0  0  0  0  0  0  0  0  0  0  0
   -2.6906   -2.1160    0.4090 H   0  0  0  0  0  0  0  0  0  0  0  0
   -2.5986   -2.2980   -1.3650 H   0  0  0  0  0  0  0  0  0  0  0  0
   -0.7756   -1.6630   -0.4350 C   0  0  0  0  0  0  0  0  0  0  0  0
    0.2844   -2.2800   -0.4550 O   0  0  0  0  0  0  0  0  0  0  0  0
   -0.8246   -0.3180   -0.4350 N   0  0  0  0  0  0  0  0  0  0  0  0
   -2.0106    0.5080   -0.5910 C   0  0  0  0  0  0  0  0  0  0  0  0
   -2.2764    1.1290    0.2660 H   0  0  0  0  0  0  0  0  0  0  0  0
   -2.9044    0.0714   -1.0353 H   0  0  0  0  0  0  0  0  0  0  0  0
   -1.2674    1.3443   -1.6305 C   0  0  0  0  0  0  0  0  0  0  0  0
   -1.9071    2.1297   -2.0361 H   0  0  0  0  0  0  0  0  0  0  0  0
   -0.9061    0.6900   -2.4245 H   0  0  0  0  0  0  0  0  0  0  0  0
   -0.0827    1.9176   -0.8529 C   0  0  0  0  0  0  0  0  0  0  0  0
   -0.3686    2.5236    0.0091 H   0  0  0  0  0  0  0  0  0  0  0  0
    0.6903    2.4250   -1.4299 H   0  0  0  0  0  0  0  0  0  0  0  0
    0.3724    0.5200   -0.4020 C   0  0  1  0  0  0  0  0  0  0  0  0
    1.0855    0.1292   -1.1282 H   0  0  0  0  0  0  0  0  0  0  0  0
    1.0225    0.5498    0.9914 C   0  0  0  0  0  0  0  0  0  0  0  0
    0.5369    1.2318    1.8916 O   0  0  0  0  0  0  0  0  0  0  0  0
    2.1450   -0.1610    1.1538 N   0  0  0  0  0  0  0  0  0  0  0  0
    2.4469   -0.7405    0.3870 H   0  0  0  0  0  0  0  0  0  0  0  0
    2.8905   -0.2338    2.4082 C   0  0  0  0  0  0  0  0  0  0  0  0
    2.2779   -0.7239    3.1680 H   0  0  0  0  0  0  0  0  0  0  0  0
    3.8128   -0.7984    2.2685 H   0  0  0  0  0  0  0  0  0  0  0  0
    3.1310    0.7738    2.7542 H   0  0  0  0  0  0  0  0  0  0  0  0
  5  6  2  0  0  0  0
  5  7  1  0  0  0  0
  2  3  1  0  0  0  0
  2  4  1  0  0  0  0
  2  5  1  0  0  0  0
  1  2  1  0  0  0  0
 19 20  2  0  0  0  0
 19 21  1  0  0  0  0
 17 18  1  0  0  0  0
 17 19  1  0  0  0  0
 14 15  1  0  0  0  0
 14 16  1  0  0  0  0
 14 17  1  0  0  0  0
 11 12  1  0  0  0  0
 11 13  1  0  0  0  0
 11 14  1  0  0  0  0
  8  9  1  0  0  0  0
  8 10  1  0  0  0  0
  8 11  1  0  0  0  0
  7  8  1  0  0  0  0
  7 17  1  0  0  0  0
 23 24  1  0  0  0  0
 23 25  1  0  0  0  0
 23 26  1  0  0  0  0
 21 22  1  0  0  0  0
 21 23  1  0  0  0  0
M  END
$$$$
default_name
  -OEChem-01062215323D

 26 26  0     1  0  0  0  0  0999 V2000
   -1.8446   -3.5060   -0.3010 H   0  0  0  0  0  0  0  0  0  0  0  0
   -2.0746   -2.4490   -0.4240 C   0  0  0  0  0  0  0  0  0  0  0  0
   -2.6906   -2.1160    0.4090 H   0  0  0  0  0  0  0  0  0  0  0  0
   -2.5986   -2.2980   -1.3650 H   0  0  0  0  0  0  0  0  0  0  0  0
   -0.7756   -1.6630   -0.4350 C   0  0  0  0  0  0  0  0  0  0  0  0
    0.2844   -2.2800   -0.4550 O   0  0  0  0  0  0  0  0  0  0  0  0
   -0.8246   -0.3180   -0.4350 N   0  0  0  0  0  0  0  0  0  0  0  0
   -2.0106    0.5080   -0.5910 C   0  0  0  0  0  0  0  0  0  0  0  0
   -2.2764    1.1290    0.2660 H   0  0  0  0  0  0  0  0  0  0  0  0
   -2.9044    0.0714   -1.0353 H   0  0  0  0  0  0  0  0  0  0  0  0
   -1.2674    1.3443   -1.6305 C   0  0  0  0  0  0  0  0  0  0  0  0
   -1.9071    2.1297   -2.0361 H   0  0  0  0  0  0  0  0  0  0  0  0
   -0.9061    0.6900   -2.4245 H   0  0  0  0  0  0  0  0  0  0  0  0
   -0.0827    1.9176   -0.8529 C   0  0  0  0  0  0  0  0  0  0  0  0
   -0.3686    2.5236    0.0091 H   0  0  0  0  0  0  0  0  0  0  0  0
    0.6903    2.4250   -1.4299 H   0  0  0  0  0  0  0  0  0  0  0  0
    0.3724    0.5200   -0.4020 C   0  0  1  0  0  0  0  0  0  0  0  0
    1.0855    0.1292   -1.1282 H   0  0  0  0  0  0  0  0  0  0  0  0
    1.0225    0.5498    0.9914 C   0  0  0  0  0  0  0  0  0  0  0  0
    0.4070    0.9966    1.9573 O   0  0  0  0  0  0  0  0  0  0  0  0
    2.2830    0.1091    1.0836 N   0  0  0  0  0  0  0  0  0  0  0  0
    2.6983   -0.2964    0.2602 H   0  0  0  0  0  0  0  0  0  0  0  0
    3.0473    0.0773    2.3283 C   0  0  0  0  0  0  0  0  0  0  0  0
    2.5805   -0.6227    3.0246 H   0  0  0  0  0  0  0  0  0  0  0  0
    4.0736   -0.2364    2.1348 H   0  0  0  0  0  0  0  0  0  0  0  0
    3.0514    1.0694    2.7850 H   0  0  0  0  0  0  0  0  0  0  0  0
  5  6  2  0  0  0  0
  5  7  1  0  0  0  0
  2  3  1  0  0  0  0
  2  4  1  0  0  0  0
  2  5  1  0  0  0  0
  1  2  1  0  0  0  0
 19 20  2  0  0  0  0
 19 21  1  0  0  0  0
 17 18  1  0  0  0  0
 17 19  1  0  0  0  0
 14 15  1  0  0  0  0
 14 16  1  0  0  0  0
 14 17  1  0  0  0  0
 11 12  1  0  0  0  0
 11 13  1  0  0  0  0
 11 14  1  0  0  0  0
  8  9  1  0  0  0  0
  8 10  1  0  0  0  0
  8 11  1  0  0  0  0
  7  8  1  0  0  0  0
  7 17  1  0  0  0  0
 23 24  1  0  0  0  0
 23 25  1  0  0  0  0
 23 26  1  0  0  0  0
 21 22  1  0  0  0  0
 21 23  1  0  0  0  0
M  END
$$$$
default_name
  -OEChem-01062215323D

 26 26  0     1  0  0  0  0  0999 V2000
   -1.8446   -3.5060   -0.3010 H   0  0  0  0  0  0  0  0  0  0  0  0
   -2.0746   -2.4490   -0.4240 C   0  0  0  0  0  0  0  0  0  0  0  0
   -2.6906   -2.1160    0.4090 H   0  0  0  0  0  0  0  0  0  0  0  0
   -2.5986   -2.2980   -1.3650 H   0  0  0  0  0  0  0  0  0  0  0  0
   -0.7756   -1.6630   -0.4350 C   0  0  0  0  0  0  0  0  0  0  0  0
    0.2844   -2.2800   -0.4550 O   0  0  0  0  0  0  0  0  0  0  0  0
   -0.8246   -0.3180   -0.4350 N   0  0  0  0  0  0  0  0  0  0  0  0
   -2.0106    0.5080   -0.5910 C   0  0  0  0  0  0  0  0  0  0  0  0
   -2.2764    1.1290    0.2660 H   0  0  0  0  0  0  0  0  0  0  0  0
   -2.9044    0.0714   -1.0353 H   0  0  0  0  0  0  0  0  0  0  0  0
   -1.2674    1.3443   -1.6305 C   0  0  0  0  0  0  0  0  0  0  0  0
   -1.9071    2.1297   -2.0361 H   0  0  0  0  0  0  0  0  0  0  0  0
   -0.9061    0.6900   -2.4245 H   0  0  0  0  0  0  0  0  0  0  0  0
   -0.0827    1.9176   -0.8529 C   0  0  0  0  0  0  0  0  0  0  0  0
   -0.3686    2.5236    0.0091 H   0  0  0  0  0  0  0  0  0  0  0  0
    0.6903    2.4250   -1.4299 H   0  0  0  0  0  0  0  0  0  0  0  0
    0.3724    0.5200   -0.4020 C   0  0  1  0  0  0  0  0  0  0  0  0
    1.0855    0.1292   -1.1282 H   0  0  0  0  0  0  0  0  0  0  0  0
    1.0225    0.5498    0.9914 C   0  0  0  0  0  0  0  0  0  0  0  0
    0.3371    0.7318    1.9956 O   0  0  0  0  0  0  0  0  0  0  0  0
    2.3526    0.4100    1.0447 N   0  0  0  0  0  0  0  0  0  0  0  0
    2.8364    0.2054    0.1850 H   0  0  0  0  0  0  0  0  0  0  0  0
    3.1255    0.4233    2.2844 C   0  0  0  0  0  0  0  0  0  0  0  0
    2.8482   -0.4382    2.8957 H   0  0  0  0  0  0  0  0  0  0  0  0
    4.1930    0.3824    2.0658 H   0  0  0  0  0  0  0  0  0  0  0  0
    2.9054    1.3329    2.8475 H   0  0  0  0  0  0  0  0  0  0  0  0
  5  6  2  0  0  0  0
  5  7  1  0  0  0  0
  2  3  1  0  0  0  0
  2  4  1  0  0  0  0
  2  5  1  0  0  0  0
  1  2  1  0  0  0  0
 19 20  2  0  0  0  0
 19 21  1  0  0  0  0
 17 18  1  0  0  0  0
 17 19  1  0  0  0  0
 14 15  1  0  0  0  0
 14 16  1  0  0  0  0
 14 17  1  0  0  0  0
 11 12  1  0  0  0  0
 11 13  1  0  0  0  0
 11 14  1  0  0  0  0
  8  9  1  0  0  0  0
  8 10  1  0  0  0  0
  8 11  1  0  0  0  0
  7  8  1  0  0  0  0
  7 17  1  0  0  0  0
 23 24  1  0  0  0  0
 23 25  1  0  0  0  0
 23 26  1  0  0  0  0
 21 22  1  0  0  0  0
 21 23  1  0  0  0  0
M  END
$$$$
default_name
  -OEChem-01062215323D

 26 26  0     1  0  0  0  0  0999 V2000
   -1.8446   -3.5060   -0.3010 H   0  0  0  0  0  0  0  0  0  0  0  0
   -2.0746   -2.4490   -0.4240 C   0  0  0  0  0  0  0  0  0  0  0  0
   -2.6906   -2.1160    0.4090 H   0  0  0  0  0  0  0  0  0  0  0  0
   -2.5986   -2.2980   -1.3650 H   0  0  0  0  0  0  0  0  0  0  0  0
   -0.7756   -1.6630   -0.4350 C   0  0  0  0  0  0  0  0  0  0  0  0
    0.2844   -2.2800   -0.4550 O   0  0  0  0  0  0  0  0  0  0  0  0
   -0.8246   -0.3180   -0.4350 N   0  0  0  0  0  0  0  0  0  0  0  0
   -2.0106    0.5080   -0.5910 C   0  0  0  0  0  0  0  0  0  0  0  0
   -2.2764    1.1290    0.2660 H   0  0  0  0  0  0  0  0  0  0  0  0
   -2.9044    0.0714   -1.0353 H   0  0  0  0  0  0  0  0  0  0  0  0
   -1.2674    1.3443   -1.6305 C   0  0  0  0  0  0  0  0  0  0  0  0
   -1.9071    2.1297   -2.0361 H   0  0  0  0  0  0  0  0  0  0  0  0
   -0.9061    0.6900   -2.4245 H   0  0  0  0  0  0  0  0  0  0  0  0
   -0.0827    1.9176   -0.8529 C   0  0  0  0  0  0  0  0  0  0  0  0
   -0.3686    2.5236    0.0091 H   0  0  0  0  0  0  0  0  0  0  0  0
    0.6903    2.4250   -1.4299 H   0  0  0  0  0  0  0  0  0  0  0  0
    0.3724    0.5200   -0.4020 C   0  0  1  0  0  0  0  0  0  0  0  0
    1.0855    0.1292   -1.1282 H   0  0  0  0  0  0  0  0  0  0  0  0
    1.0225    0.5498    0.9914 C   0  0  0  0  0  0  0  0  0  0  0  0
    0.3318    0.4554    2.0040 O   0  0  0  0  0  0  0  0  0  0  0  0
    2.3491    0.7213    1.0396 N   0  0  0  0  0  0  0  0  0  0  0  0
    2.8518    0.7308    0.1666 H   0  0  0  0  0  0  0  0  0  0  0  0
    3.1197    0.7806    2.2795 C   0  0  0  0  0  0  0  0  0  0  0  0
    3.0630   -0.1831    2.7901 H   0  0  0  0  0  0  0  0  0  0  0  0
    4.1630    1.0155    2.0663 H   0  0  0  0  0  0  0  0  0  0  0  0
    2.7028    1.5463    2.9375 H   0  0  0  0  0  0  0  0  0  0  0  0
  5  6  2  0  0  0  0
  5  7  1  0  0  0  0
  2  3  1  0  0  0  0
  2  4  1  0  0  0  0
  2  5  1  0  0  0  0
  1  2  1  0  0  0  0
 19 20  2  0  0  0  0
 19 21  1  0  0  0  0
 17 18  1  0  0  0  0
 17 19  1  0  0  0  0
 14 15  1  0  0  0  0
 14 16  1  0  0  0  0
 14 17  1  0  0  0  0
 11 12  1  0  0  0  0
 11 13  1  0  0  0  0
 11 14  1  0  0  0  0
  8  9  1  0  0  0  0
  8 10  1  0  0  0  0
  8 11  1  0  0  0  0
  7  8  1  0  0  0  0
  7 17  1  0  0  0  0
 23 24  1  0  0  0  0
 23 25  1  0  0  0  0
 23 26  1  0  0  0  0
 21 22  1  0  0  0  0
 21 23  1  0  0  0  0
M  END
$$$$
default_name
  -OEChem-01062215323D

 26 26  0     1  0  0  0  0  0999 V2000
   -1.8446   -3.5060   -0.3010 H   0  0  0  0  0  0  0  0  0  0  0  0
   -2.0746   -2.4490   -0.4240 C   0  0  0  0  0  0  0  0  0  0  0  0
   -2.6906   -2.1160    0.4090 H   0  0  0  0  0  0  0  0  0  0  0  0
   -2.5986   -2.2980   -1.3650 H   0  0  0  0  0  0  0  0  0  0  0  0
   -0.7756   -1.6630   -0.4350 C   0  0  0  0  0  0  0  0  0  0  0  0
    0.2844   -2.2800   -0.4550 O   0  0  0  0  0  0  0  0  0  0  0  0
   -0.8246   -0.3180   -0.4350 N   0  0  0  0  0  0  0  0  0  0  0  0
   -2.0106    0.5080   -0.5910 C   0  0  0  0  0  0  0  0  0  0  0  0
   -2.2764    1.1290    0.2660 H   0  0  0  0  0  0  0  0  0  0  0  0
   -2.9044    0.0714   -1.0353 H   0  0  0  0  0  0  0  0  0  0  0  0
   -1.2674    1.3443   -1.6305 C   0  0  0  0  0  0  0  0  0  0  0  0
   -1.9071    2.1297   -2.0361 H   0  0  0  0  0  0  0  0  0  0  0  0
   -0.9061    0.6900   -2.4245 H   0  0  0  0  0  0  0  0  0  0  0  0
   -0.0827    1.9176   -0.8529 C   0  0  0  0  0  0  0  0  0  0  0  0
   -0.3686    2.5236    0.0091 H   0  0  0  0  0  0  0  0  0  0  0  0
    0.6903    2.4250   -1.4299 H   0  0  0  0  0  0  0  0  0  0  0  0
    0.3724    0.5200   -0.4020 C   0  0  1  0  0  0  0  0  0  0  0  0
    1.0855    0.1292   -1.1282 H   0  0  0  0  0  0  0  0  0  0  0  0
    1.0225    0.5498    0.9914 C   0  0  0  0  0  0  0  0  0  0  0  0
    0.3916    0.1863    1.9819 O   0  0  0  0  0  0  0  0  0  0  0  0
    2.2727    1.0217    1.0689 N   0  0  0  0  0  0  0  0  0  0  0  0
    2.7433    1.2438    0.2062 H   0  0  0  0  0  0  0  0  0  0  0  0
    3.0302    1.1250    2.3139 C   0  0  0  0  0  0  0  0  0  0  0  0
    3.2101    0.1252    2.7148 H   0  0  0  0  0  0  0  0  0  0  0  0
    3.9854    1.6200    2.1361 H   0  0  0  0  0  0  0  0  0  0  0  0
    2.4576    1.6951    3.0487 H   0  0  0  0  0  0  0  0  0  0  0  0
  5  6  2  0  0  0  0
  5  7  1  0  0  0  0
  2  3  1  0  0  0  0
  2  4  1  0  0  0  0
  2  5  1  0  0  0  0
  1  2  1  0  0  0  0
 19 20  2  0  0  0  0
 19 21  1  0  0  0  0
 17 18  1  0  0  0  0
 17 19  1  0  0  0  0
 14 15  1  0  0  0  0
 14 16  1  0  0  0  0
 14 17  1  0  0  0  0
 11 12  1  0  0  0  0
 11 13  1  0  0  0  0
 11 14  1  0  0  0  0
  8  9  1  0  0  0  0
  8 10  1  0  0  0  0
  8 11  1  0  0  0  0
  7  8  1  0  0  0  0
  7 17  1  0  0  0  0
 23 24  1  0  0  0  0
 23 25  1  0  0  0  0
 23 26  1  0  0  0  0
 21 22  1  0  0  0  0
 21 23  1  0  0  0  0
M  END
$$$$
default_name
  -OEChem-01062215323D

 26 26  0     1  0  0  0  0  0999 V2000
   -1.8446   -3.5060   -0.3010 H   0  0  0  0  0  0  0  0  0  0  0  0
   -2.0746   -2.4490   -0.4240 C   0  0  0  0  0  0  0  0  0  0  0  0
   -2.6906   -2.1160    0.4090 H   0  0  0  0  0  0  0  0  0  0  0  0
   -2.5986   -2.2980   -1.3650 H   0  0  0  0  0  0  0  0  0  0  0  0
   -0.7756   -1.6630   -0.4350 C   0  0  0  0  0  0  0  0  0  0  0  0
    0.2844   -2.2800   -0.4550 O   0  0  0  0  0  0  0  0  0  0  0  0
   -0.8246   -0.3180   -0.4350 N   0  0  0  0  0  0  0  0  0  0  0  0
   -2.0106    0.5080   -0.5910 C   0  0  0  0  0  0  0  0  0  0  0  0
   -2.2764    1.1290    0.2660 H   0  0  0  0  0  0  0  0  0  0  0  0
   -2.9044    0.0714   -1.0353 H   0  0  0  0  0  0  0  0  0  0  0  0
   -1.2674    1.3443   -1.6305 C   0  0  0  0  0  0  0  0  0  0  0  0
   -1.9071    2.1297   -2.0361 H   0  0  0  0  0  0  0  0  0  0  0  0
   -0.9061    0.6900   -2.4245 H   0  0  0  0  0  0  0  0  0  0  0  0
   -0.0827    1.9176   -0.8529 C   0  0  0  0  0  0  0  0  0  0  0  0
   -0.3686    2.5236    0.0091 H   0  0  0  0  0  0  0  0  0  0  0  0
    0.6903    2.4250   -1.4299 H   0  0  0  0  0  0  0  0  0  0  0  0
    0.3724    0.5200   -0.4020 C   0  0  1  0  0  0  0  0  0  0  0  0
    1.0855    0.1292   -1.1282 H   0  0  0  0  0  0  0  0  0  0  0  0
    1.0225    0.5498    0.9914 C   0  0  0  0  0  0  0  0  0  0  0  0
    0.5123   -0.0573    1.9307 O   0  0  0  0  0  0  0  0  0  0  0  0
    2.1286    1.2907    1.1303 N   0  0  0  0  0  0  0  0  0  0  0  0
    2.5184    1.7096    0.3012 H   0  0  0  0  0  0  0  0  0  0  0  0
    2.8632    1.4329    2.3852 C   0  0  0  0  0  0  0  0  0  0  0  0
    3.2795    0.4657    2.6752 H   0  0  0  0  0  0  0  0  0  0  0  0
    3.6726    2.1546    2.2707 H   0  0  0  0  0  0  0  0  0  0  0  0
    2.1864    1.7691    3.1736 H   0  0  0  0  0  0  0  0  0  0  0  0
  5  6  2  0  0  0  0
  5  7  1  0  0  0  0
  2  3  1  0  0  0  0
  2  4  1  0  0  0  0
  2  5  1  0  0  0  0
  1  2  1  0  0  0  0
 19 20  2  0  0  0  0
 19 21  1  0  0  0  0
 17 18  1  0  0  0  0
 17 19  1  0  0  0  0
 14 15  1  0  0  0  0
 14 16  1  0  0  0  0
 14 17  1  0  0  0  0
 11 12  1  0  0  0  0
 11 13  1  0  0  0  0
 11 14  1  0  0  0  0
  8  9  1  0  0  0  0
  8 10  1  0  0  0  0
  8 11  1  0  0  0  0
  7  8  1  0  0  0  0
  7 17  1  0  0  0  0
 23 24  1  0  0  0  0
 23 25  1  0  0  0  0
 23 26  1  0  0  0  0
 21 22  1  0  0  0  0
 21 23  1  0  0  0  0
M  END
$$$$
default_name
  -OEChem-01062215323D

 26 26  0     1  0  0  0  0  0999 V2000
   -1.8446   -3.5060   -0.3010 H   0  0  0  0  0  0  0  0  0  0  0  0
   -2.0746   -2.4490   -0.4240 C   0  0  0  0  0  0  0  0  0  0  0  0
   -2.6906   -2.1160    0.4090 H   0  0  0  0  0  0  0  0  0  0  0  0
   -2.5986   -2.2980   -1.3650 H   0  0  0  0  0  0  0  0  0  0  0  0
   -0.7756   -1.6630   -0.4350 C   0  0  0  0  0  0  0  0  0  0  0  0
    0.2844   -2.2800   -0.4550 O   0  0  0  0  0  0  0  0  0  0  0  0
   -0.8246   -0.3180   -0.4350 N   0  0  0  0  0  0  0  0  0  0  0  0
   -2.0106    0.5080   -0.5910 C   0  0  0  0  0  0  0  0  0  0  0  0
   -2.2764    1.1290    0.2660 H   0  0  0  0  0  0  0  0  0  0  0  0
   -2.9044    0.0714   -1.0353 H   0  0  0  0  0  0  0  0  0  0  0  0
   -1.2674    1.3443   -1.6305 C   0  0  0  0  0  0  0  0  0  0  0  0
   -1.9071    2.1297   -2.0361 H   0  0  0  0  0  0  0  0  0  0  0  0
   -0.9061    0.6900   -2.4245 H   0  0  0  0  0  0  0  0  0  0  0  0
   -0.0827    1.9176   -0.8529 C   0  0  0  0  0  0  0  0  0  0  0  0
   -0.3686    2.5236    0.0091 H   0  0  0  0  0  0  0  0  0  0  0  0
    0.6903    2.4250   -1.4299 H   0  0  0  0  0  0  0  0  0  0  0  0
    0.3724    0.5200   -0.4020 C   0  0  1  0  0  0  0  0  0  0  0  0
    1.0855    0.1292   -1.1282 H   0  0  0  0  0  0  0  0  0  0  0  0
    1.0225    0.5498    0.9914 C   0  0  0  0  0  0  0  0  0  0  0  0
    0.6857   -0.2586    1.8541 O   0  0  0  0  0  0  0  0  0  0  0  0
    1.9267    1.5100    1.2199 N   0  0  0  0  0  0  0  0  0  0  0  0
    2.1924    2.0964    0.4450 H   0  0  0  0  0  0  0  0  0  0  0  0
    2.6301    1.6833    2.4886 C   0  0  0  0  0  0  0  0  0  0  0  0
    3.2664    0.8153    2.6738 H   0  0  0  0  0  0  0  0  0  0  0  0
    3.2456    2.5830    2.4607 H   0  0  0  0  0  0  0  0  0  0  0  0
    1.9077    1.7634    3.3038 H   0  0  0  0  0  0  0  0  0  0  0  0
  5  6  2  0  0  0  0
  5  7  1  0  0  0  0
  2  3  1  0  0  0  0
  2  4  1  0  0  0  0
  2  5  1  0  0  0  0
  1  2  1  0  0  0  0
 19 20  2  0  0  0  0
 19 21  1  0  0  0  0
 17 18  1  0  0  0  0
 17 19  1  0  0  0  0
 14 15  1  0  0  0  0
 14 16  1  0  0  0  0
 14 17  1  0  0  0  0
 11 12  1  0  0  0  0
 11 13  1  0  0  0  0
 11 14  1  0  0  0  0
  8  9  1  0  0  0  0
  8 10  1  0  0  0  0
  8 11  1  0  0  0  0
  7  8  1  0  0  0  0
  7 17  1  0  0  0  0
 23 24  1  0  0  0  0
 23 25  1  0  0  0  0
 23 26  1  0  0  0  0
 21 22  1  0  0  0  0
 21 23  1  0  0  0  0
M  END
$$$$
default_name
  -OEChem-01062215323D

 26 26  0     1  0  0  0  0  0999 V2000
   -1.8446   -3.5060   -0.3010 H   0  0  0  0  0  0  0  0  0  0  0  0
   -2.0746   -2.4490   -0.4240 C   0  0  0  0  0  0  0  0  0  0  0  0
   -2.6906   -2.1160    0.4090 H   0  0  0  0  0  0  0  0  0  0  0  0
   -2.5986   -2.2980   -1.3650 H   0  0  0  0  0  0  0  0  0  0  0  0
   -0.7756   -1.6630   -0.4350 C   0  0  0  0  0  0  0  0  0  0  0  0
    0.2844   -2.2800   -0.4550 O   0  0  0  0  0  0  0  0  0  0  0  0
   -0.8246   -0.3180   -0.4350 N   0  0  0  0  0  0  0  0  0  0  0  0
   -2.0106    0.5080   -0.5910 C   0  0  0  0  0  0  0  0  0  0  0  0
   -2.2764    1.1290    0.2660 H   0  0  0  0  0  0  0  0  0  0  0  0
   -2.9044    0.0714   -1.0353 H   0  0  0  0  0  0  0  0  0  0  0  0
   -1.2674    1.3443   -1.6305 C   0  0  0  0  0  0  0  0  0  0  0  0
   -1.9071    2.1297   -2.0361 H   0  0  0  0  0  0  0  0  0  0  0  0
   -0.9061    0.6900   -2.4245 H   0  0  0  0  0  0  0  0  0  0  0  0
   -0.0827    1.9176   -0.8529 C   0  0  0  0  0  0  0  0  0  0  0  0
   -0.3686    2.5236    0.0091 H   0  0  0  0  0  0  0  0  0  0  0  0
    0.6903    2.4250   -1.4299 H   0  0  0  0  0  0  0  0  0  0  0  0
    0.3724    0.5200   -0.4020 C   0  0  1  0  0  0  0  0  0  0  0  0
    1.0855    0.1292   -1.1282 H   0  0  0  0  0  0  0  0  0  0  0  0
    1.0225    0.5498    0.9914 C   0  0  0  0  0  0  0  0  0  0  0  0
    0.9001   -0.4040    1.7572 O   0  0  0  0  0  0  0  0  0  0  0  0
    1.6806    1.6647    1.3313 N   0  0  0  0  0  0  0  0  0  0  0  0
    1.7876    2.3779    0.6279 H   0  0  0  0  0  0  0  0  0  0  0  0
    2.3467    1.8592    2.6171 C   0  0  0  0  0  0  0  0  0  0  0  0
    3.1719    1.1500    2.7107 H   0  0  0  0  0  0  0  0  0  0  0  0
    2.7338    2.8758    2.6932 H   0  0  0  0  0  0  0  0  0  0  0  0
    1.6404    1.6783    3.4303 H   0  0  0  0  0  0  0  0  0  0  0  0
  5  6  2  0  0  0  0
  5  7  1  0  0  0  0
  2  3  1  0  0  0  0
  2  4  1  0  0  0  0
  2  5  1  0  0  0  0
  1  2  1  0  0  0  0
 19 20  2  0  0  0  0
 19 21  1  0  0  0  0
 17 18  1  0  0  0  0
 17 19  1  0  0  0  0
 14 15  1  0  0  0  0
 14 16  1  0  0  0  0
 14 17  1  0  0  0  0
 11 12  1  0  0  0  0
 11 13  1  0  0  0  0
 11 14  1  0  0  0  0
  8  9  1  0  0  0  0
  8 10  1  0  0  0  0
  8 11  1  0  0  0  0
  7  8  1  0  0  0  0
  7 17  1  0  0  0  0
 23 24  1  0  0  0  0
 23 25  1  0  0  0  0
 23 26  1  0  0  0  0
 21 22  1  0  0  0  0
 21 23  1  0  0  0  0
M  END
$$$$
default_name
  -OEChem-01062215323D

 26 26  0     1  0  0  0  0  0999 V2000
   -1.8446   -3.5060   -0.3010 H   0  0  0  0  0  0  0  0  0  0  0  0
   -2.0746   -2.4490   -0.4240 C   0  0  0  0  0  0  0  0  0  0  0  0
   -2.6906   -2.1160    0.4090 H   0  0  0  0  0  0  0  0  0  0  0  0
   -2.5986   -2.2980   -1.3650 H   0  0  0  0  0  0  0  0  0  0  0  0
   -0.7756   -1.6630   -0.4350 C   0  0  0  0  0  0  0  0  0  0  0  0
    0.2844   -2.2800   -0.4550 O   0  0  0  0  0  0  0  0  0  0  0  0
   -0.8246   -0.3180   -0.4350 N   0  0  0  0  0  0  0  0  0  0  0  0
   -2.0106    0.5080   -0.5910 C   0  0  0  0  0  0  0  0  0  0  0  0
   -2.2764    1.1290    0.2660 H   0  0  0  0  0  0  0  0  0  0  0  0
   -2.9044    0.0714   -1.0353 H   0  0  0  0  0  0  0  0  0  0  0  0
   -1.2674    1.3443   -1.6305 C   0  0  0  0  0  0  0  0  0  0  0  0
   -1.9071    2.1297   -2.0361 H   0  0  0  0  0  0  0  0  0  0  0  0
   -0.9061    0.6900   -2.4245 H   0  0  0  0  0  0  0  0  0  0  0  0
   -0.0827    1.9176   -0.8529 C   0  0  0  0  0  0  0  0  0  0  0  0
   -0.3686    2.5236    0.0091 H   0  0  0  0  0  0  0  0  0  0  0  0
    0.6903    2.4250   -1.4299 H   0  0  0  0  0  0  0  0  0  0  0  0
    0.3724    0.5200   -0.4020 C   0  0  1  0  0  0  0  0  0  0  0  0
    1.0855    0.1292   -1.1282 H   0  0  0  0  0  0  0  0  0  0  0  0
    1.0225    0.5498    0.9914 C   0  0  0  0  0  0  0  0  0  0  0  0
    1.1408   -0.4836    1.6466 O   0  0  0  0  0  0  0  0  0  0  0  0
    1.4072    1.7443    1.4572 N   0  0  0  0  0  0  0  0  0  0  0  0
    1.3314    2.5348    0.8373 H   0  0  0  0  0  0  0  0  0  0  0  0
    2.0323    1.9486    2.7618 C   0  0  0  0  0  0  0  0  0  0  0  0
    3.0022    1.4471    2.7835 H   0  0  0  0  0  0  0  0  0  0  0  0
    2.1719    3.0131    2.9525 H   0  0  0  0  0  0  0  0  0  0  0  0
    1.4029    1.5195    3.5445 H   0  0  0  0  0  0  0  0  0  0  0  0
  5  6  2  0  0  0  0
  5  7  1  0  0  0  0
  2  3  1  0  0  0  0
  2  4  1  0  0  0  0
  2  5  1  0  0  0  0
  1  2  1  0  0  0  0
 19 20  2  0  0  0  0
 19 21  1  0  0  0  0
 17 18  1  0  0  0  0
 17 19  1  0  0  0  0
 14 15  1  0  0  0  0
 14 16  1  0  0  0  0
 14 17  1  0  0  0  0
 11 12  1  0  0  0  0
 11 13  1  0  0  0  0
 11 14  1  0  0  0  0
  8  9  1  0  0  0  0
  8 10  1  0  0  0  0
  8 11  1  0  0  0  0
  7  8  1  0  0  0  0
  7 17  1  0  0  0  0
 23 24  1  0  0  0  0
 23 25  1  0  0  0  0
 23 26  1  0  0  0  0
 21 22  1  0  0  0  0
 21 23  1  0  0  0  0
M  END
$$$$
default_name
  -OEChem-01062215323D

 26 26  0     1  0  0  0  0  0999 V2000
   -1.8446   -3.5060   -0.3010 H   0  0  0  0  0  0  0  0  0  0  0  0
   -2.0746   -2.4490   -0.4240 C   0  0  0  0  0  0  0  0  0  0  0  0
   -2.6906   -2.1160    0.4090 H   0  0  0  0  0  0  0  0  0  0  0  0
   -2.5986   -2.2980   -1.3650 H   0  0  0  0  0  0  0  0  0  0  0  0
   -0.7756   -1.6630   -0.4350 C   0  0  0  0  0  0  0  0  0  0  0  0
    0.2844   -2.2800   -0.4550 O   0  0  0  0  0  0  0  0  0  0  0  0
   -0.8246   -0.3180   -0.4350 N   0  0  0  0  0  0  0  0  0  0  0  0
   -2.0106    0.5080   -0.5910 C   0  0  0  0  0  0  0  0  0  0  0  0
   -2.2764    1.1290    0.2660 H   0  0  0  0  0  0  0  0  0  0  0  0
   -2.9044    0.0714   -1.0353 H   0  0  0  0  0  0  0  0  0  0  0  0
   -1.2674    1.3443   -1.6305 C   0  0  0  0  0  0  0  0  0  0  0  0
   -1.9071    2.1297   -2.0361 H   0  0  0  0  0  0  0  0  0  0  0  0
   -0.9061    0.6900   -2.4245 H   0  0  0  0  0  0  0  0  0  0  0  0
   -0.0827    1.9176   -0.8529 C   0  0  0  0  0  0  0  0  0  0  0  0
   -0.3686    2.5236    0.0091 H   0  0  0  0  0  0  0  0  0  0  0  0
    0.6903    2.4250   -1.4299 H   0  0  0  0  0  0  0  0  0  0  0  0
    0.3724    0.5200   -0.4020 C   0  0  1  0  0  0  0  0  0  0  0  0
    1.0855    0.1292   -1.1282 H   0  0  0  0  0  0  0  0  0  0  0  0
    1.0225    0.5498    0.9914 C   0  0  0  0  0  0  0  0  0  0  0  0
    1.3914   -0.4919    1.5299 O   0  0  0  0  0  0  0  0  0  0  0  0
    1.1251    1.7432    1.5889 N   0  0  0  0  0  0  0  0  0  0  0  0
    0.8551    2.5565    1.0591 H   0  0  0  0  0  0  0  0  0  0  0  0
    1.7084    1.9454    2.9130 C   0  0  0  0  0  0  0  0  0  0  0  0
    2.7691    1.6863    2.8872 H   0  0  0  0  0  0  0  0  0  0  0  0
    1.5982    2.9857    3.2207 H   0  0  0  0  0  0  0  0  0  0  0  0
    1.2113    1.2980    3.6387 H   0  0  0  0  0  0  0  0  0  0  0  0
  5  6  2  0  0  0  0
  5  7  1  0  0  0  0
  2  3  1  0  0  0  0
  2  4  1  0  0  0  0
  2  5  1  0  0  0  0
  1  2  1  0  0  0  0
 19 20  2  0  0  0  0
 19 21  1  0  0  0  0
 17 18  1  0  0  0  0
 17 19  1  0  0  0  0
 14 15  1  0  0  0  0
 14 16  1  0  0  0  0
 14 17  1  0  0  0  0
 11 12  1  0  0  0  0
 11 13  1  0  0  0  0
 11 14  1  0  0  0  0
  8  9  1  0  0  0  0
  8 10  1  0  0  0  0
  8 11  1  0  0  0  0
  7  8  1  0  0  0  0
  7 17  1  0  0  0  0
 23 24  1  0  0  0  0
 23 25  1  0  0  0  0
 23 26  1  0  0  0  0
 21 22  1  0  0  0  0
 21 23  1  0  0  0  0
M  END
$$$$
default_name
  -OEChem-01062215323D

 26 26  0     1  0  0  0  0  0999 V2000
   -1.8446   -3.5060   -0.3010 H   0  0  0  0  0  0  0  0  0  0  0  0
   -2.0746   -2.4490   -0.4240 C   0  0  0  0  0  0  0  0  0  0  0  0
   -2.6906   -2.1160    0.4090 H   0  0  0  0  0  0  0  0  0  0  0  0
   -2.5986   -2.2980   -1.3650 H   0  0  0  0  0  0  0  0  0  0  0  0
   -0.7756   -1.6630   -0.4350 C   0  0  0  0  0  0  0  0  0  0  0  0
    0.2844   -2.2800   -0.4550 O   0  0  0  0  0  0  0  0  0  0  0  0
   -0.8246   -0.3180   -0.4350 N   0  0  0  0  0  0  0  0  0  0  0  0
   -2.0106    0.5080   -0.5910 C   0  0  0  0  0  0  0  0  0  0  0  0
   -2.2764    1.1290    0.2660 H   0  0  0  0  0  0  0  0  0  0  0  0
   -2.9044    0.0714   -1.0353 H   0  0  0  0  0  0  0  0  0  0  0  0
   -1.2674    1.3443   -1.6305 C   0  0  0  0  0  0  0  0  0  0  0  0
   -1.9071    2.1297   -2.0361 H   0  0  0  0  0  0  0  0  0  0  0  0
   -0.9061    0.6900   -2.4245 H   0  0  0  0  0  0  0  0  0  0  0  0
   -0.0827    1.9176   -0.8529 C   0  0  0  0  0  0  0  0  0  0  0  0
   -0.3686    2.5236    0.0091 H   0  0  0  0  0  0  0  0  0  0  0  0
    0.6903    2.4250   -1.4299 H   0  0  0  0  0  0  0  0  0  0  0  0
    0.3724    0.5200   -0.4020 C   0  0  1  0  0  0  0  0  0  0  0  0
    1.0855    0.1292   -1.1282 H   0  0  0  0  0  0  0  0  0  0  0  0
    1.0225    0.5498    0.9914 C   0  0  0  0  0  0  0  0  0  0  0  0
    1.6348   -0.4284    1.4150 O   0  0  0  0  0  0  0  0  0  0  0  0
    0.8535    1.6616    1.7173 N   0  0  0  0  0  0  0  0  0  0  0  0
    0.3910    2.4414    1.2781 H   0  0  0  0  0  0  0  0  0  0  0  0
    1.3971    1.8498    3.0603 C   0  0  0  0  0  0  0  0  0  0  0  0
    2.4883    1.8514    3.0146 H   0  0  0  0  0  0  0  0  0  0  0  0
    1.0518    2.7953    3.4797 H   0  0  0  0  0  0  0  0  0  0  0  0
    1.0786    1.0288    3.7063 H   0  0  0  0  0  0  0  0  0  0  0  0
  5  6  2  0  0  0  0
  5  7  1  0  0  0  0
  2  3  1  0  0  0  0
  2  4  1  0  0  0  0
  2  5  1  0  0  0  0
  1  2  1  0  0  0  0
 19 20  2  0  0  0  0
 19 21  1  0  0  0  0
 17 18  1  0  0  0  0
 17 19  1  0  0  0  0
 14 15  1  0  0  0  0
 14 16  1  0  0  0  0
 14 17  1  0  0  0  0
 11 12  1  0  0  0  0
 11 13  1  0  0  0  0
 11 14  1  0  0  0  0
  8  9  1  0  0  0  0
  8 10  1  0  0  0  0
  8 11  1  0  0  0  0
  7  8  1  0  0  0  0
  7 17  1  0  0  0  0
 23 24  1  0  0  0  0
 23 25  1  0  0  0  0
 23 26  1  0  0  0  0
 21 22  1  0  0  0  0
 21 23  1  0  0  0  0
M  END
$$$$
default_name
  -OEChem-01062215323D

 26 26  0     1  0  0  0  0  0999 V2000
   -1.8446   -3.5060   -0.3010 H   0  0  0  0  0  0  0  0  0  0  0  0
   -2.0746   -2.4490   -0.4240 C   0  0  0  0  0  0  0  0  0  0  0  0
   -2.6906   -2.1160    0.4090 H   0  0  0  0  0  0  0  0  0  0  0  0
   -2.5986   -2.2980   -1.3650 H   0  0  0  0  0  0  0  0  0  0  0  0
   -0.7756   -1.6630   -0.4350 C   0  0  0  0  0  0  0  0  0  0  0  0
    0.2844   -2.2800   -0.4550 O   0  0  0  0  0  0  0  0  0  0  0  0
   -0.8246   -0.3180   -0.4350 N   0  0  0  0  0  0  0  0  0  0  0  0
   -2.0106    0.5080   -0.5910 C   0  0  0  0  0  0  0  0  0  0  0  0
   -2.2764    1.1290    0.2660 H   0  0  0  0  0  0  0  0  0  0  0  0
   -2.9044    0.0714   -1.0353 H   0  0  0  0  0  0  0  0  0  0  0  0
   -1.2674    1.3443   -1.6305 C   0  0  0  0  0  0  0  0  0  0  0  0
   -1.9071    2.1297   -2.0361 H   0  0  0  0  0  0  0  0  0  0  0  0
   -0.9061    0.6900   -2.4245 H   0  0  0  0  0  0  0  0  0  0  0  0
   -0.0827    1.9176   -0.8529 C   0  0  0  0  0  0  0  0  0  0  0  0
   -0.3686    2.5236    0.0091 H   0  0  0  0  0  0  0  0  0  0  0  0
    0.6903    2.4250   -1.4299 H   0  0  0  0  0  0  0  0  0  0  0  0
    0.3724    0.5200   -0.4020 C   0  0  1  0  0  0  0  0  0  0  0  0
    1.0855    0.1292   -1.1282 H   0  0  0  0  0  0  0  0  0  0  0  0
    1.0225    0.5498    0.9914 C   0  0  0  0  0  0  0  0  0  0  0  0
    1.8545   -0.2975    1.3097 O   0  0  0  0  0  0  0  0  0  0  0  0
    0.6109    1.5051    1.8338 N   0  0  0  0  0  0  0  0  0  0  0  0
   -0.0292    2.1975    1.4794 H   0  0  0  0  0  0  0  0  0  0  0  0
    1.1196    1.6683    3.1937 C   0  0  0  0  0  0  0  0  0  0  0  0
    2.1790    1.9310    3.1572 H   0  0  0  0  0  0  0  0  0  0  0  0
    0.5701    2.4549    3.7118 H   0  0  0  0  0  0  0  0  0  0  0  0
    1.0140    0.7302    3.7429 H   0  0  0  0  0  0  0  0  0  0  0  0
  5  6  2  0  0  0  0
  5  7  1  0  0  0  0
  2  3  1  0  0  0  0
  2  4  1  0  0  0  0
  2  5  1  0  0  0  0
  1  2  1  0  0  0  0
 19 20  2  0  0  0  0
 19 21  1  0  0  0  0
 17 18  1  0  0  0  0
 17 19  1  0  0  0  0
 14 15  1  0  0  0  0
 14 16  1  0  0  0  0
 14 17  1  0  0  0  0
 11 12  1  0  0  0  0
 11 13  1  0  0  0  0
 11 14  1  0  0  0  0
  8  9  1  0  0  0  0
  8 10  1  0  0  0  0
  8 11  1  0  0  0  0
  7  8  1  0  0  0  0
  7 17  1  0  0  0  0
 23 24  1  0  0  0  0
 23 25  1  0  0  0  0
 23 26  1  0  0  0  0
 21 22  1  0  0  0  0
 21 23  1  0  0  0  0
M  END
$$$$
default_name
  -OEChem-01062215323D

 26 26  0     1  0  0  0  0  0999 V2000
   -1.8446   -3.5060   -0.3010 H   0  0  0  0  0  0  0  0  0  0  0  0
   -2.0746   -2.4490   -0.4240 C   0  0  0  0  0  0  0  0  0  0  0  0
   -2.6906   -2.1160    0.4090 H   0  0  0  0  0  0  0  0  0  0  0  0
   -2.5986   -2.2980   -1.3650 H   0  0  0  0  0  0  0  0  0  0  0  0
   -0.7756   -1.6630   -0.4350 C   0  0  0  0  0  0  0  0  0  0  0  0
    0.2844   -2.2800   -0.4550 O   0  0  0  0  0  0  0  0  0  0  0  0
   -0.8246   -0.3180   -0.4350 N   0  0  0  0  0  0  0  0  0  0  0  0
   -2.0106    0.5080   -0.5910 C   0  0  0  0  0  0  0  0  0  0  0  0
   -2.2764    1.1290    0.2660 H   0  0  0  0  0  0  0  0  0  0  0  0
   -2.9044    0.0714   -1.0353 H   0  0  0  0  0  0  0  0  0  0  0  0
   -1.2674    1.3443   -1.6305 C   0  0  0  0  0  0  0  0  0  0  0  0
   -1.9071    2.1297   -2.0361 H   0  0  0  0  0  0  0  0  0  0  0  0
   -0.9061    0.6900   -2.4245 H   0  0  0  0  0  0  0  0  0  0  0  0
   -0.0827    1.9176   -0.8529 C   0  0  0  0  0  0  0  0  0  0  0  0
   -0.3686    2.5236    0.0091 H   0  0  0  0  0  0  0  0  0  0  0  0
    0.6903    2.4250   -1.4299 H   0  0  0  0  0  0  0  0  0  0  0  0
    0.3724    0.5200   -0.4020 C   0  0  1  0  0  0  0  0  0  0  0  0
    1.0855    0.1292   -1.1282 H   0  0  0  0  0  0  0  0  0  0  0  0
    1.0225    0.5498    0.9914 C   0  0  0  0  0  0  0  0  0  0  0  0
    2.0354   -0.1079    1.2212 O   0  0  0  0  0  0  0  0  0  0  0  0
    0.4140    1.2843    1.9305 N   0  0  0  0  0  0  0  0  0  0  0  0
   -0.3769    1.8414    1.6492 H   0  0  0  0  0  0  0  0  0  0  0  0
    0.8947    1.4134    3.3041 C   0  0  0  0  0  0  0  0  0  0  0  0
    1.8623    1.9198    3.3053 H   0  0  0  0  0  0  0  0  0  0  0  0
    0.1857    1.9878    3.9011 H   0  0  0  0  0  0  0  0  0  0  0  0
    1.0217    0.4226    3.7459 H   0  0  0  0  0  0  0  0  0  0  0  0
  5  6  2  0  0  0  0
  5  7  1  0  0  0  0
  2  3  1  0  0  0  0
  2  4  1  0  0  0  0
  2  5  1  0  0  0  0
  1  2  1  0  0  0  0
 19 20  2  0  0  0  0
 19 21  1  0  0  0  0
 17 18  1  0  0  0  0
 17 19  1  0  0  0  0
 14 15  1  0  0  0  0
 14 16  1  0  0  0  0
 14 17  1  0  0  0  0
 11 12  1  0  0  0  0
 11 13  1  0  0  0  0
 11 14  1  0  0  0  0
  8  9  1  0  0  0  0
  8 10  1  0  0  0  0
  8 11  1  0  0  0  0
  7  8  1  0  0  0  0
  7 17  1  0  0  0  0
 23 24  1  0  0  0  0
 23 25  1  0  0  0  0
 23 26  1  0  0  0  0
 21 22  1  0  0  0  0
 21 23  1  0  0  0  0
M  END
$$$$
default_name
  -OEChem-01062215323D

 26 26  0     1  0  0  0  0  0999 V2000
   -1.8446   -3.5060   -0.3010 H   0  0  0  0  0  0  0  0  0  0  0  0
   -2.0746   -2.4490   -0.4240 C   0  0  0  0  0  0  0  0  0  0  0  0
   -2.6906   -2.1160    0.4090 H   0  0  0  0  0  0  0  0  0  0  0  0
   -2.5986   -2.2980   -1.3650 H   0  0  0  0  0  0  0  0  0  0  0  0
   -0.7756   -1.6630   -0.4350 C   0  0  0  0  0  0  0  0  0  0  0  0
    0.2844   -2.2800   -0.4550 O   0  0  0  0  0  0  0  0  0  0  0  0
   -0.8246   -0.3180   -0.4350 N   0  0  0  0  0  0  0  0  0  0  0  0
   -2.0106    0.5080   -0.5910 C   0  0  0  0  0  0  0  0  0  0  0  0
   -2.2764    1.1290    0.2660 H   0  0  0  0  0  0  0  0  0  0  0  0
   -2.9044    0.0714   -1.0353 H   0  0  0  0  0  0  0  0  0  0  0  0
   -1.2674    1.3443   -1.6305 C   0  0  0  0  0  0  0  0  0  0  0  0
   -1.9071    2.1297   -2.0361 H   0  0  0  0  0  0  0  0  0  0  0  0
   -0.9061    0.6900   -2.4245 H   0  0  0  0  0  0  0  0  0  0  0  0
   -0.0827    1.9176   -0.8529 C   0  0  0  0  0  0  0  0  0  0  0  0
   -0.3686    2.5236    0.0091 H   0  0  0  0  0  0  0  0  0  0  0  0
    0.6903    2.4250   -1.4299 H   0  0  0  0  0  0  0  0  0  0  0  0
    0.3724    0.5200   -0.4020 C   0  0  1  0  0  0  0  0  0  0  0  0
    1.0855    0.1292   -1.1282 H   0  0  0  0  0  0  0  0  0  0  0  0
    1.0225    0.5498    0.9914 C   0  0  0  0  0  0  0  0  0  0  0  0
    2.1653    0.1273    1.1556 O   0  0  0  0  0  0  0  0  0  0  0  0
    0.2759    1.0142    2.0007 N   0  0  0  0  0  0  0  0  0  0  0  0
   -0.6283    1.3973    1.7760 H   0  0  0  0  0  0  0  0  0  0  0  0
    0.7378    1.1023    3.3839 C   0  0  0  0  0  0  0  0  0  0  0  0
    1.5597    1.8185    3.4486 H   0  0  0  0  0  0  0  0  0  0  0  0
   -0.0751    1.4257    4.0348 H   0  0  0  0  0  0  0  0  0  0  0  0
    1.1013    0.1271    3.7151 H   0  0  0  0  0  0  0  0  0  0  0  0
  5  6  2  0  0  0  0
  5  7  1  0  0  0  0
  2  3  1  0  0  0  0
  2  4  1  0  0  0  0
  2  5  1  0  0  0  0
  1  2  1  0  0  0  0
 19 20  2  0  0  0  0
 19 21  1  0  0  0  0
 17 18  1  0  0  0  0
 17 19  1  0  0  0  0
 14 15  1  0  0  0  0
 14 16  1  0  0  0  0
 14 17  1  0  0  0  0
 11 12  1  0  0  0  0
 11 13  1  0  0  0  0
 11 14  1  0  0  0  0
  8  9  1  0  0  0  0
  8 10  1  0  0  0  0
  8 11  1  0  0  0  0
  7  8  1  0  0  0  0
  7 17  1  0  0  0  0
 23 24  1  0  0  0  0
 23 25  1  0  0  0  0
 23 26  1  0  0  0  0
 21 22  1  0  0  0  0
 21 23  1  0  0  0  0
M  END
$$$$
default_name
  -OEChem-01062215323D

 26 26  0     1  0  0  0  0  0999 V2000
   -1.8446   -3.5060   -0.3010 H   0  0  0  0  0  0  0  0  0  0  0  0
   -2.0746   -2.4490   -0.4240 C   0  0  0  0  0  0  0  0  0  0  0  0
   -2.6906   -2.1160    0.4090 H   0  0  0  0  0  0  0  0  0  0  0  0
   -2.5986   -2.2980   -1.3650 H   0  0  0  0  0  0  0  0  0  0  0  0
   -0.7756   -1.6630   -0.4350 C   0  0  0  0  0  0  0  0  0  0  0  0
    0.2844   -2.2800   -0.4550 O   0  0  0  0  0  0  0  0  0  0  0  0
   -0.8246   -0.3180   -0.4350 N   0  0  0  0  0  0  0  0  0  0  0  0
   -2.0106    0.5080   -0.5910 C   0  0  0  0  0  0  0  0  0  0  0  0
   -2.2764    1.1290    0.2660 H   0  0  0  0  0  0  0  0  0  0  0  0
   -2.9044    0.0714   -1.0353 H   0  0  0  0  0  0  0  0  0  0  0  0
   -1.2674    1.3443   -1.6305 C   0  0  0  0  0  0  0  0  0  0  0  0
   -1.9071    2.1297   -2.0361 H   0  0  0  0  0  0  0  0  0  0  0  0
   -0.9061    0.6900   -2.4245 H   0  0  0  0  0  0  0  0  0  0  0  0
   -0.0827    1.9176   -0.8529 C   0  0  0  0  0  0  0  0  0  0  0  0
   -0.3686    2.5236    0.0091 H   0  0  0  0  0  0  0  0  0  0  0  0
    0.6903    2.4250   -1.4299 H   0  0  0  0  0  0  0  0  0  0  0  0
    0.3724    0.5200   -0.4020 C   0  0  1  0  0  0  0  0  0  0  0  0
    1.0855    0.1292   -1.1282 H   0  0  0  0  0  0  0  0  0  0  0  0
    1.0225    0.5498    0.9914 C   0  0  0  0  0  0  0  0  0  0  0  0
    2.2352    0.3921    1.1172 O   0  0  0  0  0  0  0  0  0  0  0  0
    0.2063    0.7133    2.0396 N   0  0  0  0  0  0  0  0  0  0  0  0
   -0.7664    0.8954    1.8512 H   0  0  0  0  0  0  0  0  0  0  0  0
    0.6596    0.7563    3.4278 C   0  0  0  0  0  0  0  0  0  0  0  0
    1.2919    1.6341    3.5775 H   0  0  0  0  0  0  0  0  0  0  0  0
   -0.1945    0.8070    4.1038 H   0  0  0  0  0  0  0  0  0  0  0  0
    1.2474   -0.1364    3.6526 H   0  0  0  0  0  0  0  0  0  0  0  0
  5  6  2  0  0  0  0
  5  7  1  0  0  0  0
  2  3  1  0  0  0  0
  2  4  1  0  0  0  0
  2  5  1  0  0  0  0
  1  2  1  0  0  0  0
 19 20  2  0  0  0  0
 19 21  1  0  0  0  0
 17 18  1  0  0  0  0
 17 19  1  0  0  0  0
 14 15  1  0  0  0  0
 14 16  1  0  0  0  0
 14 17  1  0  0  0  0
 11 12  1  0  0  0  0
 11 13  1  0  0  0  0
 11 14  1  0  0  0  0
  8  9  1  0  0  0  0
  8 10  1  0  0  0  0
  8 11  1  0  0  0  0
  7  8  1  0  0  0  0
  7 17  1  0  0  0  0
 23 24  1  0  0  0  0
 23 25  1  0  0  0  0
 23 26  1  0  0  0  0
 21 22  1  0  0  0  0
 21 23  1  0  0  0  0
M  END
$$$$
default_name
  -OEChem-01062215323D

 26 26  0     1  0  0  0  0  0999 V2000
   -1.8446   -3.5060   -0.3010 H   0  0  0  0  0  0  0  0  0  0  0  0
   -2.0746   -2.4490   -0.4240 C   0  0  0  0  0  0  0  0  0  0  0  0
   -2.6906   -2.1160    0.4090 H   0  0  0  0  0  0  0  0  0  0  0  0
   -2.5986   -2.2980   -1.3650 H   0  0  0  0  0  0  0  0  0  0  0  0
   -0.7756   -1.6630   -0.4350 C   0  0  0  0  0  0  0  0  0  0  0  0
    0.2844   -2.2800   -0.4550 O   0  0  0  0  0  0  0  0  0  0  0  0
   -0.8246   -0.3180   -0.4350 N   0  0  0  0  0  0  0  0  0  0  0  0
   -2.0106    0.5080   -0.5910 C   0  0  0  0  0  0  0  0  0  0  0  0
   -2.2764    1.1290    0.2660 H   0  0  0  0  0  0  0  0  0  0  0  0
   -2.9044    0.0714   -1.0353 H   0  0  0  0  0  0  0  0  0  0  0  0
   -1.2674    1.3443   -1.6305 C   0  0  0  0  0  0  0  0  0  0  0  0
   -1.9071    2.1297   -2.0361 H   0  0  0  0  0  0  0  0  0  0  0  0
   -0.9061    0.6900   -2.4245 H   0  0  0  0  0  0  0  0  0  0  0  0
   -0.0827    1.9176   -0.8529 C   0  0  0  0  0  0  0  0  0  0  0  0
   -0.3686    2.5236    0.0091 H   0  0  0  0  0  0  0  0  0  0  0  0
    0.6903    2.4250   -1.4299 H   0  0  0  0  0  0  0  0  0  0  0  0
    0.3724    0.5200   -0.4020 C   0  0  1  0  0  0  0  0  0  0  0  0
    1.0855    0.1292   -1.1282 H   0  0  0  0  0  0  0  0  0  0  0  0
    1.0225    0.5498    0.9914 C   0  0  0  0  0  0  0  0  0  0  0  0
    2.2405    0.6685    1.1089 O   0  0  0  0  0  0  0  0  0  0  0  0
    0.2098    0.4020    2.0446 N   0  0  0  0  0  0  0  0  0  0  0  0
   -0.7818    0.3701    1.8696 H   0  0  0  0  0  0  0  0  0  0  0  0
    0.6654    0.3989    3.4328 C   0  0  0  0  0  0  0  0  0  0  0  0
    1.0772    1.3790    3.6831 H   0  0  0  0  0  0  0  0  0  0  0  0
   -0.1645    0.1738    4.1033 H   0  0  0  0  0  0  0  0  0  0  0  0
    1.4499   -0.3498    3.5627 H   0  0  0  0  0  0  0  0  0  0  0  0
  5  6  2  0  0  0  0
  5  7  1  0  0  0  0
  2  3  1  0  0  0  0
  2  4  1  0  0  0  0
  2  5  1  0  0  0  0
  1  2  1  0  0  0  0
 19 20  2  0  0  0  0
 19 21  1  0  0  0  0
 17 18  1  0  0  0  0
 17 19  1  0  0  0  0
 14 15  1  0  0  0  0
 14 16  1  0  0  0  0
 14 17  1  0  0  0  0
 11 12  1  0  0  0  0
 11 13  1  0  0  0  0
 11 14  1  0  0  0  0
  8  9  1  0  0  0  0
  8 10  1  0  0  0  0
  8 11  1  0  0  0  0
  7  8  1  0  0  0  0
  7 17  1  0  0  0  0
 23 24  1  0  0  0  0
 23 25  1  0  0  0  0
 23 26  1  0  0  0  0
 21 22  1  0  0  0  0
 21 23  1  0  0  0  0
M  END
$$$$
default_name
  -OEChem-01062215323D

 26 26  0     1  0  0  0  0  0999 V2000
   -1.8446   -3.5060   -0.3010 H   0  0  0  0  0  0  0  0  0  0  0  0
   -2.0746   -2.4490   -0.4240 C   0  0  0  0  0  0  0  0  0  0  0  0
   -2.6906   -2.1160    0.4090 H   0  0  0  0  0  0  0  0  0  0  0  0
   -2.5986   -2.2980   -1.3650 H   0  0  0  0  0  0  0  0  0  0  0  0
   -0.7756   -1.6630   -0.4350 C   0  0  0  0  0  0  0  0  0  0  0  0
    0.2844   -2.2800   -0.4550 O   0  0  0  0  0  0  0  0  0  0  0  0
   -0.8246   -0.3180   -0.4350 N   0  0  0  0  0  0  0  0  0  0  0  0
   -2.0106    0.5080   -0.5910 C   0  0  0  0  0  0  0  0  0  0  0  0
   -2.2764    1.1290    0.2660 H   0  0  0  0  0  0  0  0  0  0  0  0
   -2.9044    0.0714   -1.0353 H   0  0  0  0  0  0  0  0  0  0  0  0
   -1.2674    1.3443   -1.6305 C   0  0  0  0  0  0  0  0  0  0  0  0
   -1.9071    2.1297   -2.0361 H   0  0  0  0  0  0  0  0  0  0  0  0
   -0.9061    0.6900   -2.4245 H   0  0  0  0  0  0  0  0  0  0  0  0
   -0.0827    1.9176   -0.8529 C   0  0  0  0  0  0  0  0  0  0  0  0
   -0.3686    2.5236    0.0091 H   0  0  0  0  0  0  0  0  0  0  0  0
    0.6903    2.4250   -1.4299 H   0  0  0  0  0  0  0  0  0  0  0  0
    0.3724    0.5200   -0.4020 C   0  0  1  0  0  0  0  0  0  0  0  0
    1.0855    0.1292   -1.1282 H   0  0  0  0  0  0  0  0  0  0  0  0
    1.0225    0.5498    0.9914 C   0  0  0  0  0  0  0  0  0  0  0  0
    2.1807    0.9376    1.1310 O   0  0  0  0  0  0  0  0  0  0  0  0
    0.2862    0.1016    2.0154 N   0  0  0  0  0  0  0  0  0  0  0  0
   -0.6733   -0.1430    1.8300 H   0  0  0  0  0  0  0  0  0  0  0  0
    0.7549    0.0546    3.3984 C   0  0  0  0  0  0  0  0  0  0  0  0
    0.9301    1.0707    3.7584 H   0  0  0  0  0  0  0  0  0  0  0  0
    0.0131   -0.4306    4.0335 H   0  0  0  0  0  0  0  0  0  0  0  0
    1.6951   -0.4986    3.4514 H   0  0  0  0  0  0  0  0  0  0  0  0
  5  6  2  0  0  0  0
  5  7  1  0  0  0  0
  2  3  1  0  0  0  0
  2  4  1  0  0  0  0
  2  5  1  0  0  0  0
  1  2  1  0  0  0  0
 19 20  2  0  0  0  0
 19 21  1  0  0  0  0
 17 18  1  0  0  0  0
 17 19  1  0  0  0  0
 14 15  1  0  0  0  0
 14 16  1  0  0  0  0
 14 17  1  0  0  0  0
 11 12  1  0  0  0  0
 11 13  1  0  0  0  0
 11 14  1  0  0  0  0
  8  9  1  0  0  0  0
  8 10  1  0  0  0  0
  8 11  1  0  0  0  0
  7  8  1  0  0  0  0
  7 17  1  0  0  0  0
 23 24  1  0  0  0  0
 23 25  1  0  0  0  0
 23 26  1  0  0  0  0
 21 22  1  0  0  0  0
 21 23  1  0  0  0  0
M  END
$$$$
default_name
  -OEChem-01062215323D

 26 26  0     1  0  0  0  0  0999 V2000
   -1.8446   -3.5060   -0.3010 H   0  0  0  0  0  0  0  0  0  0  0  0
   -2.0746   -2.4490   -0.4240 C   0  0  0  0  0  0  0  0  0  0  0  0
   -2.6906   -2.1160    0.4090 H   0  0  0  0  0  0  0  0  0  0  0  0
   -2.5986   -2.2980   -1.3650 H   0  0  0  0  0  0  0  0  0  0  0  0
   -0.7756   -1.6630   -0.4350 C   0  0  0  0  0  0  0  0  0  0  0  0
    0.2844   -2.2800   -0.4550 O   0  0  0  0  0  0  0  0  0  0  0  0
   -0.8246   -0.3180   -0.4350 N   0  0  0  0  0  0  0  0  0  0  0  0
   -2.0106    0.5080   -0.5910 C   0  0  0  0  0  0  0  0  0  0  0  0
   -2.2764    1.1290    0.2660 H   0  0  0  0  0  0  0  0  0  0  0  0
   -2.9044    0.0714   -1.0353 H   0  0  0  0  0  0  0  0  0  0  0  0
   -1.2674    1.3443   -1.6305 C   0  0  0  0  0  0  0  0  0  0  0  0
   -1.9071    2.1297   -2.0361 H   0  0  0  0  0  0  0  0  0  0  0  0
   -0.9061    0.6900   -2.4245 H   0  0  0  0  0  0  0  0  0  0  0  0
   -0.0827    1.9176   -0.8529 C   0  0  0  0  0  0  0  0  0  0  0  0
   -0.3686    2.5236    0.0091 H   0  0  0  0  0  0  0  0  0  0  0  0
    0.6903    2.4250   -1.4299 H   0  0  0  0  0  0  0  0  0  0  0  0
    0.3724    0.5200   -0.4020 C   0  0  1  0  0  0  0  0  0  0  0  0
    1.0855    0.1292   -1.1282 H   0  0  0  0  0  0  0  0  0  0  0  0
    1.0225    0.5498    0.9914 C   0  0  0  0  0  0  0  0  0  0  0  0
    2.0600    1.1812    1.1821 O   0  0  0  0  0  0  0  0  0  0  0  0
    0.4303   -0.1674    1.9539 N   0  0  0  0  0  0  0  0  0  0  0  0
   -0.4484   -0.6088    1.7351 H   0  0  0  0  0  0  0  0  0  0  0  0
    0.9219   -0.2533    3.3271 C   0  0  0  0  0  0  0  0  0  0  0  0
    0.8607    0.7301    3.7980 H   0  0  0  0  0  0  0  0  0  0  0  0
    0.3260   -0.9653    3.8989 H   0  0  0  0  0  0  0  0  0  0  0  0
    1.9664   -0.5727    3.3265 H   0  0  0  0  0  0  0  0  0  0  0  0
  5  6  2  0  0  0  0
  5  7  1  0  0  0  0
  2  3  1  0  0  0  0
  2  4  1  0  0  0  0
  2  5  1  0  0  0  0
  1  2  1  0  0  0  0
 19 20  2  0  0  0  0
 19 21  1  0  0  0  0
 17 18  1  0  0  0  0
 17 19  1  0  0  0  0
 14 15  1  0  0  0  0
 14 16  1  0  0  0  0
 14 17  1  0  0  0  0
 11 12  1  0  0  0  0
 11 13  1  0  0  0  0
 11 14  1  0  0  0  0
  8  9  1  0  0  0  0
  8 10  1  0  0  0  0
  8 11  1  0  0  0  0
  7  8  1  0  0  0  0
  7 17  1  0  0  0  0
 23 24  1  0  0  0  0
 23 25  1  0  0  0  0
 23 26  1  0  0  0  0
 21 22  1  0  0  0  0
 21 23  1  0  0  0  0
M  END
$$$$
default_name
  -OEChem-01062215323D

 26 26  0     1  0  0  0  0  0999 V2000
   -1.8446   -3.5060   -0.3010 H   0  0  0  0  0  0  0  0  0  0  0  0
   -2.0746   -2.4490   -0.4240 C   0  0  0  0  0  0  0  0  0  0  0  0
   -2.6906   -2.1160    0.4090 H   0  0  0  0  0  0  0  0  0  0  0  0
   -2.5986   -2.2980   -1.3650 H   0  0  0  0  0  0  0  0  0  0  0  0
   -0.7756   -1.6630   -0.4350 C   0  0  0  0  0  0  0  0  0  0  0  0
    0.2844   -2.2800   -0.4550 O   0  0  0  0  0  0  0  0  0  0  0  0
   -0.8246   -0.3180   -0.4350 N   0  0  0  0  0  0  0  0  0  0  0  0
   -2.0106    0.5080   -0.5910 C   0  0  0  0  0  0  0  0  0  0  0  0
   -2.2764    1.1290    0.2660 H   0  0  0  0  0  0  0  0  0  0  0  0
   -2.9044    0.0714   -1.0353 H   0  0  0  0  0  0  0  0  0  0  0  0
   -1.2674    1.3443   -1.6305 C   0  0  0  0  0  0  0  0  0  0  0  0
   -1.9071    2.1297   -2.0361 H   0  0  0  0  0  0  0  0  0  0  0  0
   -0.9061    0.6900   -2.4245 H   0  0  0  0  0  0  0  0  0  0  0  0
   -0.0827    1.9176   -0.8529 C   0  0  0  0  0  0  0  0  0  0  0  0
   -0.3686    2.5236    0.0091 H   0  0  0  0  0  0  0  0  0  0  0  0
    0.6903    2.4250   -1.4299 H   0  0  0  0  0  0  0  0  0  0  0  0
    0.3724    0.5200   -0.4020 C   0  0  1  0  0  0  0  0  0  0  0  0
    1.0855    0.1292   -1.1282 H   0  0  0  0  0  0  0  0  0  0  0  0
    1.0225    0.5498    0.9914 C   0  0  0  0  0  0  0  0  0  0  0  0
    1.8866    1.3825    1.2587 O   0  0  0  0  0  0  0  0  0  0  0  0
    0.6323   -0.3867    1.8644 N   0  0  0  0  0  0  0  0  0  0  0  0
   -0.1224   -0.9956    1.5913 H   0  0  0  0  0  0  0  0  0  0  0  0
    1.1550   -0.5037    3.2237 C   0  0  0  0  0  0  0  0  0  0  0  0
    0.8737    0.3806    3.7995 H   0  0  0  0  0  0  0  0  0  0  0  0
    0.7529   -1.3936    3.7089 H   0  0  0  0  0  0  0  0  0  0  0  0
    2.2451   -0.5669    3.1963 H   0  0  0  0  0  0  0  0  0  0  0  0
  5  6  2  0  0  0  0
  5  7  1  0  0  0  0
  2  3  1  0  0  0  0
  2  4  1  0  0  0  0
  2  5  1  0  0  0  0
  1  2  1  0  0  0  0
 19 20  2  0  0  0  0
 19 21  1  0  0  0  0
 17 18  1  0  0  0  0
 17 19  1  0  0  0  0
 14 15  1  0  0  0  0
 14 16  1  0  0  0  0
 14 17  1  0  0  0  0
 11 12  1  0  0  0  0
 11 13  1  0  0  0  0
 11 14  1  0  0  0  0
  8  9  1  0  0  0  0
  8 10  1  0  0  0  0
  8 11  1  0  0  0  0
  7  8  1  0  0  0  0
  7 17  1  0  0  0  0
 23 24  1  0  0  0  0
 23 25  1  0  0  0  0
 23 26  1  0  0  0  0
 21 22  1  0  0  0  0
 21 23  1  0  0  0  0
M  END
$$$$
default_name
  -OEChem-01062215323D

 26 26  0     1  0  0  0  0  0999 V2000
   -1.8446   -3.5060   -0.3010 H   0  0  0  0  0  0  0  0  0  0  0  0
   -2.0746   -2.4490   -0.4240 C   0  0  0  0  0  0  0  0  0  0  0  0
   -2.6906   -2.1160    0.4090 H   0  0  0  0  0  0  0  0  0  0  0  0
   -2.5986   -2.2980   -1.3650 H   0  0  0  0  0  0  0  0  0  0  0  0
   -0.7756   -1.6630   -0.4350 C   0  0  0  0  0  0  0  0  0  0  0  0
    0.2844   -2.2800   -0.4550 O   0  0  0  0  0  0  0  0  0  0  0  0
   -0.8246   -0.3180   -0.4350 N   0  0  0  0  0  0  0  0  0  0  0  0
   -2.0106    0.5080   -0.5910 C   0  0  0  0  0  0  0  0  0  0  0  0
   -2.2764    1.1290    0.2660 H   0  0  0  0  0  0  0  0  0  0  0  0
   -2.9044    0.0714   -1.0353 H   0  0  0  0  0  0  0  0  0  0  0  0
   -1.2674    1.3443   -1.6305 C   0  0  0  0  0  0  0  0  0  0  0  0
   -1.9071    2.1297   -2.0361 H   0  0  0  0  0  0  0  0  0  0  0  0
   -0.9061    0.6900   -2.4245 H   0  0  0  0  0  0  0  0  0  0  0  0
   -0.0827    1.9176   -0.8529 C   0  0  0  0  0  0  0  0  0  0  0  0
   -0.3686    2.5236    0.0091 H   0  0  0  0  0  0  0  0  0  0  0  0
    0.6903    2.4250   -1.4299 H   0  0  0  0  0  0  0  0  0  0  0  0
    0.3724    0.5200   -0.4020 C   0  0  1  0  0  0  0  0  0  0  0  0
    1.0855    0.1292   -1.1282 H   0  0  0  0  0  0  0  0  0  0  0  0
    1.0225    0.5498    0.9914 C   0  0  0  0  0  0  0  0  0  0  0  0
    1.6722    1.5279    1.3556 O   0  0  0  0  0  0  0  0  0  0  0  0
    0.8784   -0.5415    1.7529 N   0  0  0  0  0  0  0  0  0  0  0  0
    0.2824   -1.2770    1.4084 H   0  0  0  0  0  0  0  0  0  0  0  0
    1.4385   -0.6796    3.0952 C   0  0  0  0  0  0  0  0  0  0  0  0
    0.9683    0.0459    3.7625 H   0  0  0  0  0  0  0  0  0  0  0  0
    1.2647   -1.6864    3.4764 H   0  0  0  0  0  0  0  0  0  0  0  0
    2.5123   -0.4818    3.0698 H   0  0  0  0  0  0  0  0  0  0  0  0
  5  6  2  0  0  0  0
  5  7  1  0  0  0  0
  2  3  1  0  0  0  0
  2  4  1  0  0  0  0
  2  5  1  0  0  0  0
  1  2  1  0  0  0  0
 19 20  2  0  0  0  0
 19 21  1  0  0  0  0
 17 18  1  0  0  0  0
 17 19  1  0  0  0  0
 14 15  1  0  0  0  0
 14 16  1  0  0  0  0
 14 17  1  0  0  0  0
 11 12  1  0  0  0  0
 11 13  1  0  0  0  0
 11 14  1  0  0  0  0
  8  9  1  0  0  0  0
  8 10  1  0  0  0  0
  8 11  1  0  0  0  0
  7  8  1  0  0  0  0
  7 17  1  0  0  0  0
 23 24  1  0  0  0  0
 23 25  1  0  0  0  0
 23 26  1  0  0  0  0
 21 22  1  0  0  0  0
 21 23  1  0  0  0  0
M  END
$$$$
default_name
  -OEChem-01062215323D

 26 26  0     1  0  0  0  0  0999 V2000
   -1.8446   -3.5060   -0.3010 H   0  0  0  0  0  0  0  0  0  0  0  0
   -2.0746   -2.4490   -0.4240 C   0  0  0  0  0  0  0  0  0  0  0  0
   -2.6906   -2.1160    0.4090 H   0  0  0  0  0  0  0  0  0  0  0  0
   -2.5986   -2.2980   -1.3650 H   0  0  0  0  0  0  0  0  0  0  0  0
   -0.7756   -1.6630   -0.4350 C   0  0  0  0  0  0  0  0  0  0  0  0
    0.2844   -2.2800   -0.4550 O   0  0  0  0  0  0  0  0  0  0  0  0
   -0.8246   -0.3180   -0.4350 N   0  0  0  0  0  0  0  0  0  0  0  0
   -2.0106    0.5080   -0.5910 C   0  0  0  0  0  0  0  0  0  0  0  0
   -2.2764    1.1290    0.2660 H   0  0  0  0  0  0  0  0  0  0  0  0
   -2.9044    0.0714   -1.0353 H   0  0  0  0  0  0  0  0  0  0  0  0
   -1.2674    1.3443   -1.6305 C   0  0  0  0  0  0  0  0  0  0  0  0
   -1.9071    2.1297   -2.0361 H   0  0  0  0  0  0  0  0  0  0  0  0
   -0.9061    0.6900   -2.4245 H   0  0  0  0  0  0  0  0  0  0  0  0
   -0.0827    1.9176   -0.8529 C   0  0  0  0  0  0  0  0  0  0  0  0
   -0.3686    2.5236    0.0091 H   0  0  0  0  0  0  0  0  0  0  0  0
    0.6903    2.4250   -1.4299 H   0  0  0  0  0  0  0  0  0  0  0  0
    0.3724    0.5200   -0.4020 C   0  0  1  0  0  0  0  0  0  0  0  0
    1.0855    0.1292   -1.1282 H   0  0  0  0  0  0  0  0  0  0  0  0
    1.0225    0.5498    0.9914 C   0  0  0  0  0  0  0  0  0  0  0  0
    1.4315    1.6075    1.4662 O   0  0  0  0  0  0  0  0  0  0  0  0
    1.1518   -0.6210    1.6270 N   0  0  0  0  0  0  0  0  0  0  0  0
    0.7386   -1.4339    1.1989 H   0  0  0  0  0  0  0  0  0  0  0  0
    1.7528   -0.7690    2.9504 C   0  0  0  0  0  0  0  0  0  0  0  0
    1.1379   -0.2512    3.6897 H   0  0  0  0  0  0  0  0  0  0  0  0
    1.8266   -1.8238    3.2171 H   0  0  0  0  0  0  0  0  0  0  0  0
    2.7498   -0.3231    2.9556 H   0  0  0  0  0  0  0  0  0  0  0  0
  5  6  2  0  0  0  0
  5  7  1  0  0  0  0
  2  3  1  0  0  0  0
  2  4  1  0  0  0  0
  2  5  1  0  0  0  0
  1  2  1  0  0  0  0
 19 20  2  0  0  0  0
 19 21  1  0  0  0  0
 17 18  1  0  0  0  0
 17 19  1  0  0  0  0
 14 15  1  0  0  0  0
 14 16  1  0  0  0  0
 14 17  1  0  0  0  0
 11 12  1  0  0  0  0
 11 13  1  0  0  0  0
 11 14  1  0  0  0  0
  8  9  1  0  0  0  0
  8 10  1  0  0  0  0
  8 11  1  0  0  0  0
  7  8  1  0  0  0  0
  7 17  1  0  0  0  0
 23 24  1  0  0  0  0
 23 25  1  0  0  0  0
 23 26  1  0  0  0  0
 21 22  1  0  0  0  0
 21 23  1  0  0  0  0
M  END
$$$$
default_name
  -OEChem-01062215323D

 26 26  0     1  0  0  0  0  0999 V2000
   -1.8446   -3.5060   -0.3010 H   0  0  0  0  0  0  0  0  0  0  0  0
   -2.0746   -2.4490   -0.4240 C   0  0  0  0  0  0  0  0  0  0  0  0
   -2.6906   -2.1160    0.4090 H   0  0  0  0  0  0  0  0  0  0  0  0
   -2.5986   -2.2980   -1.3650 H   0  0  0  0  0  0  0  0  0  0  0  0
   -0.7756   -1.6630   -0.4350 C   0  0  0  0  0  0  0  0  0  0  0  0
    0.2844   -2.2800   -0.4550 O   0  0  0  0  0  0  0  0  0  0  0  0
   -0.8246   -0.3180   -0.4350 N   0  0  0  0  0  0  0  0  0  0  0  0
   -2.0106    0.5080   -0.5910 C   0  0  0  0  0  0  0  0  0  0  0  0
   -2.2764    1.1290    0.2660 H   0  0  0  0  0  0  0  0  0  0  0  0
   -2.9044    0.0714   -1.0353 H   0  0  0  0  0  0  0  0  0  0  0  0
   -1.2674    1.3443   -1.6305 C   0  0  0  0  0  0  0  0  0  0  0  0
   -1.9071    2.1297   -2.0361 H   0  0  0  0  0  0  0  0  0  0  0  0
   -0.9061    0.6900   -2.4245 H   0  0  0  0  0  0  0  0  0  0  0  0
   -0.0827    1.9176   -0.8529 C   0  0  0  0  0  0  0  0  0  0  0  0
   -0.3686    2.5236    0.0091 H   0  0  0  0  0  0  0  0  0  0  0  0
    0.6903    2.4250   -1.4299 H   0  0  0  0  0  0  0  0  0  0  0  0
    0.3724    0.5200   -0.4020 C   0  0  1  0  0  0  0  0  0  0  0  0
    1.0855    0.1292   -1.1282 H   0  0  0  0  0  0  0  0  0  0  0  0
    1.0225    0.5498    0.9914 C   0  0  0  0  0  0  0  0  0  0  0  0
    1.1809    1.6158    1.5829 O   0  0  0  0  0  0  0  0  0  0  0  0
    1.4339   -0.6199    1.4954 N   0  0  0  0  0  0  0  0  0  0  0  0
    1.2149   -1.4556    0.9771 H   0  0  0  0  0  0  0  0  0  0  0  0
    2.0767   -0.7658    2.7993 C   0  0  0  0  0  0  0  0  0  0  0  0
    1.3711   -0.4904    3.5861 H   0  0  0  0  0  0  0  0  0  0  0  0
    2.4003   -1.7963    2.9489 H   0  0  0  0  0  0  0  0  0  0  0  0
    2.9414   -0.1015    2.8614 H   0  0  0  0  0  0  0  0  0  0  0  0
  5  6  2  0  0  0  0
  5  7  1  0  0  0  0
  2  3  1  0  0  0  0
  2  4  1  0  0  0  0
  2  5  1  0  0  0  0
  1  2  1  0  0  0  0
 19 20  2  0  0  0  0
 19 21  1  0  0  0  0
 17 18  1  0  0  0  0
 17 19  1  0  0  0  0
 14 15  1  0  0  0  0
 14 16  1  0  0  0  0
 14 17  1  0  0  0  0
 11 12  1  0  0  0  0
 11 13  1  0  0  0  0
 11 14  1  0  0  0  0
  8  9  1  0  0  0  0
  8 10  1  0  0  0  0
  8 11  1  0  0  0  0
  7  8  1  0  0  0  0
  7 17  1  0  0  0  0
 23 24  1  0  0  0  0
 23 25  1  0  0  0  0
 23 26  1  0  0  0  0
 21 22  1  0  0  0  0
 21 23  1  0  0  0  0
M  END
$$$$
default_name
  -OEChem-01062215323D

 26 26  0     1  0  0  0  0  0999 V2000
   -1.8446   -3.5060   -0.3010 H   0  0  0  0  0  0  0  0  0  0  0  0
   -2.0746   -2.4490   -0.4240 C   0  0  0  0  0  0  0  0  0  0  0  0
   -2.6906   -2.1160    0.4090 H   0  0  0  0  0  0  0  0  0  0  0  0
   -2.5986   -2.2980   -1.3650 H   0  0  0  0  0  0  0  0  0  0  0  0
   -0.7756   -1.6630   -0.4350 C   0  0  0  0  0  0  0  0  0  0  0  0
    0.2844   -2.2800   -0.4550 O   0  0  0  0  0  0  0  0  0  0  0  0
   -0.8246   -0.3180   -0.4350 N   0  0  0  0  0  0  0  0  0  0  0  0
   -2.0106    0.5080   -0.5910 C   0  0  0  0  0  0  0  0  0  0  0  0
   -2.2764    1.1290    0.2660 H   0  0  0  0  0  0  0  0  0  0  0  0
   -2.9044    0.0714   -1.0353 H   0  0  0  0  0  0  0  0  0  0  0  0
   -1.2674    1.3443   -1.6305 C   0  0  0  0  0  0  0  0  0  0  0  0
   -1.9071    2.1297   -2.0361 H   0  0  0  0  0  0  0  0  0  0  0  0
   -0.9061    0.6900   -2.4245 H   0  0  0  0  0  0  0  0  0  0  0  0
   -0.0827    1.9176   -0.8529 C   0  0  0  0  0  0  0  0  0  0  0  0
   -0.3686    2.5236    0.0091 H   0  0  0  0  0  0  0  0  0  0  0  0
    0.6903    2.4250   -1.4299 H   0  0  0  0  0  0  0  0  0  0  0  0
    0.3724    0.5200   -0.4020 C   0  0  1  0  0  0  0  0  0  0  0  0
    1.0855    0.1292   -1.1282 H   0  0  0  0  0  0  0  0  0  0  0  0
    1.0225    0.5498    0.9914 C   0  0  0  0  0  0  0  0  0  0  0  0
    0.9375    1.5523    1.6979 O   0  0  0  0  0  0  0  0  0  0  0  0
    1.7055   -0.5384    1.3669 N   0  0  0  0  0  0  0  0  0  0  0  0
    1.6790   -1.3406    0.7582 H   0  0  0  0  0  0  0  0  0  0  0  0
    2.3880   -0.6702    2.6520 C   0  0  0  0  0  0  0  0  0  0  0  0
    1.6519   -0.6555    3.4586 H   0  0  0  0  0  0  0  0  0  0  0  0
    2.9467   -1.6059    2.6899 H   0  0  0  0  0  0  0  0  0  0  0  0
    3.0741    0.1677    2.7938 H   0  0  0  0  0  0  0  0  0  0  0  0
  5  6  2  0  0  0  0
  5  7  1  0  0  0  0
  2  3  1  0  0  0  0
  2  4  1  0  0  0  0
  2  5  1  0  0  0  0
  1  2  1  0  0  0  0
 19 20  2  0  0  0  0
 19 21  1  0  0  0  0
 17 18  1  0  0  0  0
 17 19  1  0  0  0  0
 14 15  1  0  0  0  0
 14 16  1  0  0  0  0
 14 17  1  0  0  0  0
 11 12  1  0  0  0  0
 11 13  1  0  0  0  0
 11 14  1  0  0  0  0
  8  9  1  0  0  0  0
  8 10  1  0  0  0  0
  8 11  1  0  0  0  0
  7  8  1  0  0  0  0
  7 17  1  0  0  0  0
 23 24  1  0  0  0  0
 23 25  1  0  0  0  0
 23 26  1  0  0  0  0
 21 22  1  0  0  0  0
 21 23  1  0  0  0  0
M  END
$$$$
default_name
  -OEChem-01062215323D

 26 26  0     1  0  0  0  0  0999 V2000
   -1.8446   -3.5060   -0.3010 H   0  0  0  0  0  0  0  0  0  0  0  0
   -2.0746   -2.4490   -0.4240 C   0  0  0  0  0  0  0  0  0  0  0  0
   -2.6906   -2.1160    0.4090 H   0  0  0  0  0  0  0  0  0  0  0  0
   -2.5986   -2.2980   -1.3650 H   0  0  0  0  0  0  0  0  0  0  0  0
   -0.7756   -1.6630   -0.4350 C   0  0  0  0  0  0  0  0  0  0  0  0
    0.2844   -2.2800   -0.4550 O   0  0  0  0  0  0  0  0  0  0  0  0
   -0.8246   -0.3180   -0.4350 N   0  0  0  0  0  0  0  0  0  0  0  0
   -2.0106    0.5080   -0.5910 C   0  0  0  0  0  0  0  0  0  0  0  0
   -2.2764    1.1290    0.2660 H   0  0  0  0  0  0  0  0  0  0  0  0
   -2.9044    0.0714   -1.0353 H   0  0  0  0  0  0  0  0  0  0  0  0
   -1.2674    1.3443   -1.6305 C   0  0  0  0  0  0  0  0  0  0  0  0
   -1.9071    2.1297   -2.0361 H   0  0  0  0  0  0  0  0  0  0  0  0
   -0.9061    0.6900   -2.4245 H   0  0  0  0  0  0  0  0  0  0  0  0
   -0.0827    1.9176   -0.8529 C   0  0  0  0  0  0  0  0  0  0  0  0
   -0.3686    2.5236    0.0091 H   0  0  0  0  0  0  0  0  0  0  0  0
    0.6903    2.4250   -1.4299 H   0  0  0  0  0  0  0  0  0  0  0  0
    0.3724    0.5200   -0.4020 C   0  0  1  0  0  0  0  0  0  0  0  0
    1.0855    0.1292   -1.1282 H   0  0  0  0  0  0  0  0  0  0  0  0
    1.0225    0.5498    0.9914 C   0  0  0  0  0  0  0  0  0  0  0  0
    0.7178    1.4214    1.8032 O   0  0  0  0  0  0  0  0  0  0  0  0
    1.9480   -0.3818    1.2504 N   0  0  0  0  0  0  0  0  0  0  0  0
    2.0992   -1.0967    0.5569 H   0  0  0  0  0  0  0  0  0  0  0  0
    2.6656   -0.4888    2.5186 C   0  0  0  0  0  0  0  0  0  0  0  0
    1.9612   -0.7351    3.3160 H   0  0  0  0  0  0  0  0  0  0  0  0
    3.4284   -1.2656    2.4578 H   0  0  0  0  0  0  0  0  0  0  0  0
    3.1387    0.4663    2.7572 H   0  0  0  0  0  0  0  0  0  0  0  0
  5  6  2  0  0  0  0
  5  7  1  0  0  0  0
  2  3  1  0  0  0  0
  2  4  1  0  0  0  0
  2  5  1  0  0  0  0
  1  2  1  0  0  0  0
 19 20  2  0  0  0  0
 19 21  1  0  0  0  0
 17 18  1  0  0  0  0
 17 19  1  0  0  0  0
 14 15  1  0  0  0  0
 14 16  1  0  0  0  0
 14 17  1  0  0  0  0
 11 12  1  0  0  0  0
 11 13  1  0  0  0  0
 11 14  1  0  0  0  0
  8  9  1  0  0  0  0
  8 10  1  0  0  0  0
  8 11  1  0  0  0  0
  7  8  1  0  0  0  0
  7 17  1  0  0  0  0
 23 24  1  0  0  0  0
 23 25  1  0  0  0  0
 23 26  1  0  0  0  0
 21 22  1  0  0  0  0
 21 23  1  0  0  0  0
M  END
$$$$
default_name
  -OEChem-01062215323D

 26 26  0     1  0  0  0  0  0999 V2000
   -1.8446   -3.5060   -0.3010 H   0  0  0  0  0  0  0  0  0  0  0  0
   -2.0746   -2.4490   -0.4240 C   0  0  0  0  0  0  0  0  0  0  0  0
   -2.6906   -2.1160    0.4090 H   0  0  0  0  0  0  0  0  0  0  0  0
   -2.5986   -2.2980   -1.3650 H   0  0  0  0  0  0  0  0  0  0  0  0
   -0.7756   -1.6630   -0.4350 C   0  0  0  0  0  0  0  0  0  0  0  0
    0.2844   -2.2800   -0.4550 O   0  0  0  0  0  0  0  0  0  0  0  0
   -0.8246   -0.3180   -0.4350 N   0  0  0  0  0  0  0  0  0  0  0  0
   -2.0106    0.5080   -0.5910 C   0  0  0  0  0  0  0  0  0  0  0  0
   -2.2764    1.1290    0.2660 H   0  0  0  0  0  0  0  0  0  0  0  0
   -2.9044    0.0714   -1.0353 H   0  0  0  0  0  0  0  0  0  0  0  0
   -1.2674    1.3443   -1.6305 C   0  0  0  0  0  0  0  0  0  0  0  0
   -1.9071    2.1297   -2.0361 H   0  0  0  0  0  0  0  0  0  0  0  0
   -0.9061    0.6900   -2.4245 H   0  0  0  0  0  0  0  0  0  0  0  0
   -0.0827    1.9176   -0.8529 C   0  0  0  0  0  0  0  0  0  0  0  0
   -0.3686    2.5236    0.0091 H   0  0  0  0  0  0  0  0  0  0  0  0
    0.6903    2.4250   -1.4299 H   0  0  0  0  0  0  0  0  0  0  0  0
    0.3724    0.5200   -0.4020 C   0  0  1  0  0  0  0  0  0  0  0  0
    1.0855    0.1292   -1.1282 H   0  0  0  0  0  0  0  0  0  0  0  0
    1.0225    0.5498    0.9914 C   0  0  0  0  0  0  0  0  0  0  0  0
    0.5369    1.2318    1.8916 O   0  0  0  0  0  0  0  0  0  0  0  0
    2.1450   -0.1610    1.1538 N   0  0  0  0  0  0  0  0  0  0  0  0
    2.4469   -0.7405    0.3870 H   0  0  0  0  0  0  0  0  0  0  0  0
    2.8905   -0.2338    2.4082 C   0  0  0  0  0  0  0  0  0  0  0  0
    2.2779   -0.7239    3.1680 H   0  0  0  0  0  0  0  0  0  0  0  0
    3.8128   -0.7984    2.2685 H   0  0  0  0  0  0  0  0  0  0  0  0
    3.1310    0.7738    2.7542 H   0  0  0  0  0  0  0  0  0  0  0  0
  5  6  2  0  0  0  0
  5  7  1  0  0  0  0
  2  3  1  0  0  0  0
  2  4  1  0  0  0  0
  2  5  1  0  0  0  0
  1  2  1  0  0  0  0
 19 20  2  0  0  0  0
 19 21  1  0  0  0  0
 17 18  1  0  0  0  0
 17 19  1  0  0  0  0
 14 15  1  0  0  0  0
 14 16  1  0  0  0  0
 14 17  1  0  0  0  0
 11 12  1  0  0  0  0
 11 13  1  0  0  0  0
 11 14  1  0  0  0  0
  8  9  1  0  0  0  0
  8 10  1  0  0  0  0
  8 11  1  0  0  0  0
  7  8  1  0  0  0  0
  7 17  1  0  0  0  0
 23 24  1  0  0  0  0
 23 25  1  0  0  0  0
 23 26  1  0  0  0  0
 21 22  1  0  0  0  0
 21 23  1  0  0  0  0
M  END
$$$$
default_name
  -OEChem-01062215323D

 26 26  0     1  0  0  0  0  0999 V2000
   -1.8446   -3.5060   -0.3010 H   0  0  0  0  0  0  0  0  0  0  0  0
   -2.0746   -2.4490   -0.4240 C   0  0  0  0  0  0  0  0  0  0  0  0
   -2.6906   -2.1160    0.4090 H   0  0  0  0  0  0  0  0  0  0  0  0
   -2.5986   -2.2980   -1.3650 H   0  0  0  0  0  0  0  0  0  0  0  0
   -0.7756   -1.6630   -0.4350 C   0  0  0  0  0  0  0  0  0  0  0  0
    0.2844   -2.2800   -0.4550 O   0  0  0  0  0  0  0  0  0  0  0  0
   -0.8246   -0.3180   -0.4350 N   0  0  0  0  0  0  0  0  0  0  0  0
   -2.0106    0.5080   -0.5910 C   0  0  0  0  0  0  0  0  0  0  0  0
   -2.2764    1.1290    0.2660 H   0  0  0  0  0  0  0  0  0  0  0  0
   -2.9044    0.0714   -1.0353 H   0  0  0  0  0  0  0  0  0  0  0  0
   -1.2674    1.3443   -1.6305 C   0  0  0  0  0  0  0  0  0  0  0  0
   -1.9071    2.1297   -2.0361 H   0  0  0  0  0  0  0  0  0  0  0  0
   -0.9061    0.6900   -2.4245 H   0  0  0  0  0  0  0  0  0  0  0  0
   -0.0827    1.9176   -0.8529 C   0  0  0  0  0  0  0  0  0  0  0  0
   -0.3686    2.5236    0.0091 H   0  0  0  0  0  0  0  0  0  0  0  0
    0.6903    2.4250   -1.4299 H   0  0  0  0  0  0  0  0  0  0  0  0
    0.3724    0.5200   -0.4020 C   0  0  1  0  0  0  0  0  0  0  0  0
    1.0855    0.1292   -1.1282 H   0  0  0  0  0  0  0  0  0  0  0  0
    1.0225    0.5498    0.9914 C   0  0  0  0  0  0  0  0  0  0  0  0
    0.4070    0.9966    1.9573 O   0  0  0  0  0  0  0  0  0  0  0  0
    2.2830    0.1091    1.0836 N   0  0  0  0  0  0  0  0  0  0  0  0
    2.6983   -0.2964    0.2602 H   0  0  0  0  0  0  0  0  0  0  0  0
    3.0473    0.0773    2.3283 C   0  0  0  0  0  0  0  0  0  0  0  0
    2.5805   -0.6227    3.0246 H   0  0  0  0  0  0  0  0  0  0  0  0
    4.0736   -0.2364    2.1348 H   0  0  0  0  0  0  0  0  0  0  0  0
    3.0514    1.0694    2.7850 H   0  0  0  0  0  0  0  0  0  0  0  0
  5  6  2  0  0  0  0
  5  7  1  0  0  0  0
  2  3  1  0  0  0  0
  2  4  1  0  0  0  0
  2  5  1  0  0  0  0
  1  2  1  0  0  0  0
 19 20  2  0  0  0  0
 19 21  1  0  0  0  0
 17 18  1  0  0  0  0
 17 19  1  0  0  0  0
 14 15  1  0  0  0  0
 14 16  1  0  0  0  0
 14 17  1  0  0  0  0
 11 12  1  0  0  0  0
 11 13  1  0  0  0  0
 11 14  1  0  0  0  0
  8  9  1  0  0  0  0
  8 10  1  0  0  0  0
  8 11  1  0  0  0  0
  7  8  1  0  0  0  0
  7 17  1  0  0  0  0
 23 24  1  0  0  0  0
 23 25  1  0  0  0  0
 23 26  1  0  0  0  0
 21 22  1  0  0  0  0
 21 23  1  0  0  0  0
M  END
$$$$
default_name
  -OEChem-01062215323D

 26 26  0     1  0  0  0  0  0999 V2000
   -1.8446   -3.5060   -0.3010 H   0  0  0  0  0  0  0  0  0  0  0  0
   -2.0746   -2.4490   -0.4240 C   0  0  0  0  0  0  0  0  0  0  0  0
   -2.6906   -2.1160    0.4090 H   0  0  0  0  0  0  0  0  0  0  0  0
   -2.5986   -2.2980   -1.3650 H   0  0  0  0  0  0  0  0  0  0  0  0
   -0.7756   -1.6630   -0.4350 C   0  0  0  0  0  0  0  0  0  0  0  0
    0.2844   -2.2800   -0.4550 O   0  0  0  0  0  0  0  0  0  0  0  0
   -0.8246   -0.3180   -0.4350 N   0  0  0  0  0  0  0  0  0  0  0  0
   -2.0106    0.5080   -0.5910 C   0  0  0  0  0  0  0  0  0  0  0  0
   -2.2764    1.1290    0.2660 H   0  0  0  0  0  0  0  0  0  0  0  0
   -2.9044    0.0714   -1.0353 H   0  0  0  0  0  0  0  0  0  0  0  0
   -1.2674    1.3443   -1.6305 C   0  0  0  0  0  0  0  0  0  0  0  0
   -1.9071    2.1297   -2.0361 H   0  0  0  0  0  0  0  0  0  0  0  0
   -0.9061    0.6900   -2.4245 H   0  0  0  0  0  0  0  0  0  0  0  0
   -0.0827    1.9176   -0.8529 C   0  0  0  0  0  0  0  0  0  0  0  0
   -0.3686    2.5236    0.0091 H   0  0  0  0  0  0  0  0  0  0  0  0
    0.6903    2.4250   -1.4299 H   0  0  0  0  0  0  0  0  0  0  0  0
    0.3724    0.5200   -0.4020 C   0  0  1  0  0  0  0  0  0  0  0  0
    1.0855    0.1292   -1.1282 H   0  0  0  0  0  0  0  0  0  0  0  0
    1.0225    0.5498    0.9914 C   0  0  0  0  0  0  0  0  0  0  0  0
    0.3371    0.7318    1.9956 O   0  0  0  0  0  0  0  0  0  0  0  0
    2.3526    0.4100    1.0447 N   0  0  0  0  0  0  0  0  0  0  0  0
    2.8364    0.2054    0.1850 H   0  0  0  0  0  0  0  0  0  0  0  0
    3.1255    0.4233    2.2844 C   0  0  0  0  0  0  0  0  0  0  0  0
    2.8482   -0.4382    2.8957 H   0  0  0  0  0  0  0  0  0  0  0  0
    4.1930    0.3824    2.0658 H   0  0  0  0  0  0  0  0  0  0  0  0
    2.9054    1.3329    2.8475 H   0  0  0  0  0  0  0  0  0  0  0  0
  5  6  2  0  0  0  0
  5  7  1  0  0  0  0
  2  3  1  0  0  0  0
  2  4  1  0  0  0  0
  2  5  1  0  0  0  0
  1  2  1  0  0  0  0
 19 20  2  0  0  0  0
 19 21  1  0  0  0  0
 17 18  1  0  0  0  0
 17 19  1  0  0  0  0
 14 15  1  0  0  0  0
 14 16  1  0  0  0  0
 14 17  1  0  0  0  0
 11 12  1  0  0  0  0
 11 13  1  0  0  0  0
 11 14  1  0  0  0  0
  8  9  1  0  0  0  0
  8 10  1  0  0  0  0
  8 11  1  0  0  0  0
  7  8  1  0  0  0  0
  7 17  1  0  0  0  0
 23 24  1  0  0  0  0
 23 25  1  0  0  0  0
 23 26  1  0  0  0  0
 21 22  1  0  0  0  0
 21 23  1  0  0  0  0
M  END
$$$$
default_name
  -OEChem-01062215323D

 26 26  0     1  0  0  0  0  0999 V2000
   -1.8446   -3.5060   -0.3010 H   0  0  0  0  0  0  0  0  0  0  0  0
   -2.0746   -2.4490   -0.4240 C   0  0  0  0  0  0  0  0  0  0  0  0
   -2.6906   -2.1160    0.4090 H   0  0  0  0  0  0  0  0  0  0  0  0
   -2.5986   -2.2980   -1.3650 H   0  0  0  0  0  0  0  0  0  0  0  0
   -0.7756   -1.6630   -0.4350 C   0  0  0  0  0  0  0  0  0  0  0  0
    0.2844   -2.2800   -0.4550 O   0  0  0  0  0  0  0  0  0  0  0  0
   -0.8246   -0.3180   -0.4350 N   0  0  0  0  0  0  0  0  0  0  0  0
   -2.0106    0.5080   -0.5910 C   0  0  0  0  0  0  0  0  0  0  0  0
   -2.2764    1.1290    0.2660 H   0  0  0  0  0  0  0  0  0  0  0  0
   -2.9044    0.0714   -1.0353 H   0  0  0  0  0  0  0  0  0  0  0  0
   -1.2674    1.3443   -1.6305 C   0  0  0  0  0  0  0  0  0  0  0  0
   -1.9071    2.1297   -2.0361 H   0  0  0  0  0  0  0  0  0  0  0  0
   -0.9061    0.6900   -2.4245 H   0  0  0  0  0  0  0  0  0  0  0  0
   -0.0827    1.9176   -0.8529 C   0  0  0  0  0  0  0  0  0  0  0  0
   -0.3686    2.5236    0.0091 H   0  0  0  0  0  0  0  0  0  0  0  0
    0.6903    2.4250   -1.4299 H   0  0  0  0  0  0  0  0  0  0  0  0
    0.3724    0.5200   -0.4020 C   0  0  1  0  0  0  0  0  0  0  0  0
    1.0855    0.1292   -1.1282 H   0  0  0  0  0  0  0  0  0  0  0  0
    1.0225    0.5498    0.9914 C   0  0  0  0  0  0  0  0  0  0  0  0
    0.3318    0.4554    2.0040 O   0  0  0  0  0  0  0  0  0  0  0  0
    2.3491    0.7213    1.0396 N   0  0  0  0  0  0  0  0  0  0  0  0
    2.8518    0.7308    0.1666 H   0  0  0  0  0  0  0  0  0  0  0  0
    3.1197    0.7806    2.2795 C   0  0  0  0  0  0  0  0  0  0  0  0
    3.0630   -0.1831    2.7901 H   0  0  0  0  0  0  0  0  0  0  0  0
    4.1630    1.0155    2.0663 H   0  0  0  0  0  0  0  0  0  0  0  0
    2.7028    1.5463    2.9375 H   0  0  0  0  0  0  0  0  0  0  0  0
  5  6  2  0  0  0  0
  5  7  1  0  0  0  0
  2  3  1  0  0  0  0
  2  4  1  0  0  0  0
  2  5  1  0  0  0  0
  1  2  1  0  0  0  0
 19 20  2  0  0  0  0
 19 21  1  0  0  0  0
 17 18  1  0  0  0  0
 17 19  1  0  0  0  0
 14 15  1  0  0  0  0
 14 16  1  0  0  0  0
 14 17  1  0  0  0  0
 11 12  1  0  0  0  0
 11 13  1  0  0  0  0
 11 14  1  0  0  0  0
  8  9  1  0  0  0  0
  8 10  1  0  0  0  0
  8 11  1  0  0  0  0
  7  8  1  0  0  0  0
  7 17  1  0  0  0  0
 23 24  1  0  0  0  0
 23 25  1  0  0  0  0
 23 26  1  0  0  0  0
 21 22  1  0  0  0  0
 21 23  1  0  0  0  0
M  END
$$$$
default_name
  -OEChem-01062215323D

 26 26  0     1  0  0  0  0  0999 V2000
   -1.8446   -3.5060   -0.3010 H   0  0  0  0  0  0  0  0  0  0  0  0
   -2.0746   -2.4490   -0.4240 C   0  0  0  0  0  0  0  0  0  0  0  0
   -2.6906   -2.1160    0.4090 H   0  0  0  0  0  0  0  0  0  0  0  0
   -2.5986   -2.2980   -1.3650 H   0  0  0  0  0  0  0  0  0  0  0  0
   -0.7756   -1.6630   -0.4350 C   0  0  0  0  0  0  0  0  0  0  0  0
    0.2844   -2.2800   -0.4550 O   0  0  0  0  0  0  0  0  0  0  0  0
   -0.8246   -0.3180   -0.4350 N   0  0  0  0  0  0  0  0  0  0  0  0
   -2.0106    0.5080   -0.5910 C   0  0  0  0  0  0  0  0  0  0  0  0
   -2.2764    1.1290    0.2660 H   0  0  0  0  0  0  0  0  0  0  0  0
   -2.9044    0.0714   -1.0353 H   0  0  0  0  0  0  0  0  0  0  0  0
   -1.2674    1.3443   -1.6305 C   0  0  0  0  0  0  0  0  0  0  0  0
   -1.9071    2.1297   -2.0361 H   0  0  0  0  0  0  0  0  0  0  0  0
   -0.9061    0.6900   -2.4245 H   0  0  0  0  0  0  0  0  0  0  0  0
   -0.0827    1.9176   -0.8529 C   0  0  0  0  0  0  0  0  0  0  0  0
   -0.3686    2.5236    0.0091 H   0  0  0  0  0  0  0  0  0  0  0  0
    0.6903    2.4250   -1.4299 H   0  0  0  0  0  0  0  0  0  0  0  0
    0.3724    0.5200   -0.4020 C   0  0  1  0  0  0  0  0  0  0  0  0
    1.0855    0.1292   -1.1282 H   0  0  0  0  0  0  0  0  0  0  0  0
    1.0225    0.5498    0.9914 C   0  0  0  0  0  0  0  0  0  0  0  0
    0.3916    0.1863    1.9819 O   0  0  0  0  0  0  0  0  0  0  0  0
    2.2727    1.0217    1.0689 N   0  0  0  0  0  0  0  0  0  0  0  0
    2.7433    1.2438    0.2062 H   0  0  0  0  0  0  0  0  0  0  0  0
    3.0302    1.1250    2.3139 C   0  0  0  0  0  0  0  0  0  0  0  0
    3.2101    0.1252    2.7148 H   0  0  0  0  0  0  0  0  0  0  0  0
    3.9854    1.6200    2.1361 H   0  0  0  0  0  0  0  0  0  0  0  0
    2.4576    1.6951    3.0487 H   0  0  0  0  0  0  0  0  0  0  0  0
  5  6  2  0  0  0  0
  5  7  1  0  0  0  0
  2  3  1  0  0  0  0
  2  4  1  0  0  0  0
  2  5  1  0  0  0  0
  1  2  1  0  0  0  0
 19 20  2  0  0  0  0
 19 21  1  0  0  0  0
 17 18  1  0  0  0  0
 17 19  1  0  0  0  0
 14 15  1  0  0  0  0
 14 16  1  0  0  0  0
 14 17  1  0  0  0  0
 11 12  1  0  0  0  0
 11 13  1  0  0  0  0
 11 14  1  0  0  0  0
  8  9  1  0  0  0  0
  8 10  1  0  0  0  0
  8 11  1  0  0  0  0
  7  8  1  0  0  0  0
  7 17  1  0  0  0  0
 23 24  1  0  0  0  0
 23 25  1  0  0  0  0
 23 26  1  0  0  0  0
 21 22  1  0  0  0  0
 21 23  1  0  0  0  0
M  END
$$$$
default_name
  -OEChem-01062215323D

 26 26  0     1  0  0  0  0  0999 V2000
   -1.8446   -3.5060   -0.3010 H   0  0  0  0  0  0  0  0  0  0  0  0
   -2.0746   -2.4490   -0.4240 C   0  0  0  0  0  0  0  0  0  0  0  0
   -2.6906   -2.1160    0.4090 H   0  0  0  0  0  0  0  0  0  0  0  0
   -2.5986   -2.2980   -1.3650 H   0  0  0  0  0  0  0  0  0  0  0  0
   -0.7756   -1.6630   -0.4350 C   0  0  0  0  0  0  0  0  0  0  0  0
    0.2844   -2.2800   -0.4550 O   0  0  0  0  0  0  0  0  0  0  0  0
   -0.8246   -0.3180   -0.4350 N   0  0  0  0  0  0  0  0  0  0  0  0
   -2.0106    0.5080   -0.5910 C   0  0  0  0  0  0  0  0  0  0  0  0
   -2.2764    1.1290    0.2660 H   0  0  0  0  0  0  0  0  0  0  0  0
   -2.9044    0.0714   -1.0353 H   0  0  0  0  0  0  0  0  0  0  0  0
   -1.2674    1.3443   -1.6305 C   0  0  0  0  0  0  0  0  0  0  0  0
   -1.9071    2.1297   -2.0361 H   0  0  0  0  0  0  0  0  0  0  0  0
   -0.9061    0.6900   -2.4245 H   0  0  0  0  0  0  0  0  0  0  0  0
   -0.0827    1.9176   -0.8529 C   0  0  0  0  0  0  0  0  0  0  0  0
   -0.3686    2.5236    0.0091 H   0  0  0  0  0  0  0  0  0  0  0  0
    0.6903    2.4250   -1.4299 H   0  0  0  0  0  0  0  0  0  0  0  0
    0.3724    0.5200   -0.4020 C   0  0  1  0  0  0  0  0  0  0  0  0
    1.0855    0.1292   -1.1282 H   0  0  0  0  0  0  0  0  0  0  0  0
    1.0225    0.5498    0.9914 C   0  0  0  0  0  0  0  0  0  0  0  0
    0.5123   -0.0573    1.9307 O   0  0  0  0  0  0  0  0  0  0  0  0
    2.1286    1.2907    1.1303 N   0  0  0  0  0  0  0  0  0  0  0  0
    2.5184    1.7096    0.3012 H   0  0  0  0  0  0  0  0  0  0  0  0
    2.8632    1.4329    2.3852 C   0  0  0  0  0  0  0  0  0  0  0  0
    3.2795    0.4657    2.6752 H   0  0  0  0  0  0  0  0  0  0  0  0
    3.6726    2.1546    2.2707 H   0  0  0  0  0  0  0  0  0  0  0  0
    2.1864    1.7691    3.1736 H   0  0  0  0  0  0  0  0  0  0  0  0
  5  6  2  0  0  0  0
  5  7  1  0  0  0  0
  2  3  1  0  0  0  0
  2  4  1  0  0  0  0
  2  5  1  0  0  0  0
  1  2  1  0  0  0  0
 19 20  2  0  0  0  0
 19 21  1  0  0  0  0
 17 18  1  0  0  0  0
 17 19  1  0  0  0  0
 14 15  1  0  0  0  0
 14 16  1  0  0  0  0
 14 17  1  0  0  0  0
 11 12  1  0  0  0  0
 11 13  1  0  0  0  0
 11 14  1  0  0  0  0
  8  9  1  0  0  0  0
  8 10  1  0  0  0  0
  8 11  1  0  0  0  0
  7  8  1  0  0  0  0
  7 17  1  0  0  0  0
 23 24  1  0  0  0  0
 23 25  1  0  0  0  0
 23 26  1  0  0  0  0
 21 22  1  0  0  0  0
 21 23  1  0  0  0  0
M  END
$$$$
default_name
  -OEChem-01062215323D

 26 26  0     1  0  0  0  0  0999 V2000
   -1.8446   -3.5060   -0.3010 H   0  0  0  0  0  0  0  0  0  0  0  0
   -2.0746   -2.4490   -0.4240 C   0  0  0  0  0  0  0  0  0  0  0  0
   -2.6906   -2.1160    0.4090 H   0  0  0  0  0  0  0  0  0  0  0  0
   -2.5986   -2.2980   -1.3650 H   0  0  0  0  0  0  0  0  0  0  0  0
   -0.7756   -1.6630   -0.4350 C   0  0  0  0  0  0  0  0  0  0  0  0
    0.2844   -2.2800   -0.4550 O   0  0  0  0  0  0  0  0  0  0  0  0
   -0.8246   -0.3180   -0.4350 N   0  0  0  0  0  0  0  0  0  0  0  0
   -2.0106    0.5080   -0.5910 C   0  0  0  0  0  0  0  0  0  0  0  0
   -2.2764    1.1290    0.2660 H   0  0  0  0  0  0  0  0  0  0  0  0
   -2.9044    0.0714   -1.0353 H   0  0  0  0  0  0  0  0  0  0  0  0
   -1.2674    1.3443   -1.6305 C   0  0  0  0  0  0  0  0  0  0  0  0
   -1.9071    2.1297   -2.0361 H   0  0  0  0  0  0  0  0  0  0  0  0
   -0.9061    0.6900   -2.4245 H   0  0  0  0  0  0  0  0  0  0  0  0
   -0.0827    1.9176   -0.8529 C   0  0  0  0  0  0  0  0  0  0  0  0
   -0.3686    2.5236    0.0091 H   0  0  0  0  0  0  0  0  0  0  0  0
    0.6903    2.4250   -1.4299 H   0  0  0  0  0  0  0  0  0  0  0  0
    0.3724    0.5200   -0.4020 C   0  0  1  0  0  0  0  0  0  0  0  0
    1.0855    0.1292   -1.1282 H   0  0  0  0  0  0  0  0  0  0  0  0
    1.0225    0.5498    0.9914 C   0  0  0  0  0  0  0  0  0  0  0  0
    0.6857   -0.2586    1.8541 O   0  0  0  0  0  0  0  0  0  0  0  0
    1.9267    1.5100    1.2199 N   0  0  0  0  0  0  0  0  0  0  0  0
    2.1924    2.0964    0.4450 H   0  0  0  0  0  0  0  0  0  0  0  0
    2.6301    1.6833    2.4886 C   0  0  0  0  0  0  0  0  0  0  0  0
    3.2664    0.8153    2.6738 H   0  0  0  0  0  0  0  0  0  0  0  0
    3.2456    2.5830    2.4607 H   0  0  0  0  0  0  0  0  0  0  0  0
    1.9077    1.7634    3.3038 H   0  0  0  0  0  0  0  0  0  0  0  0
  5  6  2  0  0  0  0
  5  7  1  0  0  0  0
  2  3  1  0  0  0  0
  2  4  1  0  0  0  0
  2  5  1  0  0  0  0
  1  2  1  0  0  0  0
 19 20  2  0  0  0  0
 19 21  1  0  0  0  0
 17 18  1  0  0  0  0
 17 19  1  0  0  0  0
 14 15  1  0  0  0  0
 14 16  1  0  0  0  0
 14 17  1  0  0  0  0
 11 12  1  0  0  0  0
 11 13  1  0  0  0  0
 11 14  1  0  0  0  0
  8  9  1  0  0  0  0
  8 10  1  0  0  0  0
  8 11  1  0  0  0  0
  7  8  1  0  0  0  0
  7 17  1  0  0  0  0
 23 24  1  0  0  0  0
 23 25  1  0  0  0  0
 23 26  1  0  0  0  0
 21 22  1  0  0  0  0
 21 23  1  0  0  0  0
M  END
$$$$
default_name
  -OEChem-01062215323D

 26 26  0     1  0  0  0  0  0999 V2000
   -1.8446   -3.5060   -0.3010 H   0  0  0  0  0  0  0  0  0  0  0  0
   -2.0746   -2.4490   -0.4240 C   0  0  0  0  0  0  0  0  0  0  0  0
   -2.6906   -2.1160    0.4090 H   0  0  0  0  0  0  0  0  0  0  0  0
   -2.5986   -2.2980   -1.3650 H   0  0  0  0  0  0  0  0  0  0  0  0
   -0.7756   -1.6630   -0.4350 C   0  0  0  0  0  0  0  0  0  0  0  0
    0.2844   -2.2800   -0.4550 O   0  0  0  0  0  0  0  0  0  0  0  0
   -0.8246   -0.3180   -0.4350 N   0  0  0  0  0  0  0  0  0  0  0  0
   -2.0106    0.5080   -0.5910 C   0  0  0  0  0  0  0  0  0  0  0  0
   -2.2764    1.1290    0.2660 H   0  0  0  0  0  0  0  0  0  0  0  0
   -2.9044    0.0714   -1.0353 H   0  0  0  0  0  0  0  0  0  0  0  0
   -1.2674    1.3443   -1.6305 C   0  0  0  0  0  0  0  0  0  0  0  0
   -1.9071    2.1297   -2.0361 H   0  0  0  0  0  0  0  0  0  0  0  0
   -0.9061    0.6900   -2.4245 H   0  0  0  0  0  0  0  0  0  0  0  0
   -0.0827    1.9176   -0.8529 C   0  0  0  0  0  0  0  0  0  0  0  0
   -0.3686    2.5236    0.0091 H   0  0  0  0  0  0  0  0  0  0  0  0
    0.6903    2.4250   -1.4299 H   0  0  0  0  0  0  0  0  0  0  0  0
    0.3724    0.5200   -0.4020 C   0  0  1  0  0  0  0  0  0  0  0  0
    1.0855    0.1292   -1.1282 H   0  0  0  0  0  0  0  0  0  0  0  0
    1.0225    0.5498    0.9914 C   0  0  0  0  0  0  0  0  0  0  0  0
    0.9001   -0.4040    1.7572 O   0  0  0  0  0  0  0  0  0  0  0  0
    1.6806    1.6647    1.3313 N   0  0  0  0  0  0  0  0  0  0  0  0
    1.7876    2.3779    0.6279 H   0  0  0  0  0  0  0  0  0  0  0  0
    2.3467    1.8592    2.6171 C   0  0  0  0  0  0  0  0  0  0  0  0
    3.1719    1.1500    2.7107 H   0  0  0  0  0  0  0  0  0  0  0  0
    2.7338    2.8758    2.6932 H   0  0  0  0  0  0  0  0  0  0  0  0
    1.6404    1.6783    3.4303 H   0  0  0  0  0  0  0  0  0  0  0  0
  5  6  2  0  0  0  0
  5  7  1  0  0  0  0
  2  3  1  0  0  0  0
  2  4  1  0  0  0  0
  2  5  1  0  0  0  0
  1  2  1  0  0  0  0
 19 20  2  0  0  0  0
 19 21  1  0  0  0  0
 17 18  1  0  0  0  0
 17 19  1  0  0  0  0
 14 15  1  0  0  0  0
 14 16  1  0  0  0  0
 14 17  1  0  0  0  0
 11 12  1  0  0  0  0
 11 13  1  0  0  0  0
 11 14  1  0  0  0  0
  8  9  1  0  0  0  0
  8 10  1  0  0  0  0
  8 11  1  0  0  0  0
  7  8  1  0  0  0  0
  7 17  1  0  0  0  0
 23 24  1  0  0  0  0
 23 25  1  0  0  0  0
 23 26  1  0  0  0  0
 21 22  1  0  0  0  0
 21 23  1  0  0  0  0
M  END
$$$$
default_name
  -OEChem-01062215323D

 26 26  0     1  0  0  0  0  0999 V2000
   -1.8446   -3.5060   -0.3010 H   0  0  0  0  0  0  0  0  0  0  0  0
   -2.0746   -2.4490   -0.4240 C   0  0  0  0  0  0  0  0  0  0  0  0
   -2.6906   -2.1160    0.4090 H   0  0  0  0  0  0  0  0  0  0  0  0
   -2.5986   -2.2980   -1.3650 H   0  0  0  0  0  0  0  0  0  0  0  0
   -0.7756   -1.6630   -0.4350 C   0  0  0  0  0  0  0  0  0  0  0  0
    0.2844   -2.2800   -0.4550 O   0  0  0  0  0  0  0  0  0  0  0  0
   -0.8246   -0.3180   -0.4350 N   0  0  0  0  0  0  0  0  0  0  0  0
   -2.0106    0.5080   -0.5910 C   0  0  0  0  0  0  0  0  0  0  0  0
   -2.2764    1.1290    0.2660 H   0  0  0  0  0  0  0  0  0  0  0  0
   -2.9044    0.0714   -1.0353 H   0  0  0  0  0  0  0  0  0  0  0  0
   -1.2674    1.3443   -1.6305 C   0  0  0  0  0  0  0  0  0  0  0  0
   -1.9071    2.1297   -2.0361 H   0  0  0  0  0  0  0  0  0  0  0  0
   -0.9061    0.6900   -2.4245 H   0  0  0  0  0  0  0  0  0  0  0  0
   -0.0827    1.9176   -0.8529 C   0  0  0  0  0  0  0  0  0  0  0  0
   -0.3686    2.5236    0.0091 H   0  0  0  0  0  0  0  0  0  0  0  0
    0.6903    2.4250   -1.4299 H   0  0  0  0  0  0  0  0  0  0  0  0
    0.3724    0.5200   -0.4020 C   0  0  1  0  0  0  0  0  0  0  0  0
    1.0855    0.1292   -1.1282 H   0  0  0  0  0  0  0  0  0  0  0  0
    1.0225    0.5498    0.9914 C   0  0  0  0  0  0  0  0  0  0  0  0
    1.1408   -0.4836    1.6466 O   0  0  0  0  0  0  0  0  0  0  0  0
    1.4072    1.7443    1.4572 N   0  0  0  0  0  0  0  0  0  0  0  0
    1.3314    2.5348    0.8373 H   0  0  0  0  0  0  0  0  0  0  0  0
    2.0323    1.9486    2.7618 C   0  0  0  0  0  0  0  0  0  0  0  0
    3.0022    1.4471    2.7835 H   0  0  0  0  0  0  0  0  0  0  0  0
    2.1719    3.0131    2.9525 H   0  0  0  0  0  0  0  0  0  0  0  0
    1.4029    1.5195    3.5445 H   0  0  0  0  0  0  0  0  0  0  0  0
  5  6  2  0  0  0  0
  5  7  1  0  0  0  0
  2  3  1  0  0  0  0
  2  4  1  0  0  0  0
  2  5  1  0  0  0  0
  1  2  1  0  0  0  0
 19 20  2  0  0  0  0
 19 21  1  0  0  0  0
 17 18  1  0  0  0  0
 17 19  1  0  0  0  0
 14 15  1  0  0  0  0
 14 16  1  0  0  0  0
 14 17  1  0  0  0  0
 11 12  1  0  0  0  0
 11 13  1  0  0  0  0
 11 14  1  0  0  0  0
  8  9  1  0  0  0  0
  8 10  1  0  0  0  0
  8 11  1  0  0  0  0
  7  8  1  0  0  0  0
  7 17  1  0  0  0  0
 23 24  1  0  0  0  0
 23 25  1  0  0  0  0
 23 26  1  0  0  0  0
 21 22  1  0  0  0  0
 21 23  1  0  0  0  0
M  END
$$$$
default_name
  -OEChem-01062215323D

 26 26  0     1  0  0  0  0  0999 V2000
   -1.8446   -3.5060   -0.3010 H   0  0  0  0  0  0  0  0  0  0  0  0
   -2.0746   -2.4490   -0.4240 C   0  0  0  0  0  0  0  0  0  0  0  0
   -2.6906   -2.1160    0.4090 H   0  0  0  0  0  0  0  0  0  0  0  0
   -2.5986   -2.2980   -1.3650 H   0  0  0  0  0  0  0  0  0  0  0  0
   -0.7756   -1.6630   -0.4350 C   0  0  0  0  0  0  0  0  0  0  0  0
    0.2844   -2.2800   -0.4550 O   0  0  0  0  0  0  0  0  0  0  0  0
   -0.8246   -0.3180   -0.4350 N   0  0  0  0  0  0  0  0  0  0  0  0
   -2.0106    0.5080   -0.5910 C   0  0  0  0  0  0  0  0  0  0  0  0
   -2.2764    1.1290    0.2660 H   0  0  0  0  0  0  0  0  0  0  0  0
   -2.9044    0.0714   -1.0353 H   0  0  0  0  0  0  0  0  0  0  0  0
   -1.2674    1.3443   -1.6305 C   0  0  0  0  0  0  0  0  0  0  0  0
   -1.9071    2.1297   -2.0361 H   0  0  0  0  0  0  0  0  0  0  0  0
   -0.9061    0.6900   -2.4245 H   0  0  0  0  0  0  0  0  0  0  0  0
   -0.0827    1.9176   -0.8529 C   0  0  0  0  0  0  0  0  0  0  0  0
   -0.3686    2.5236    0.0091 H   0  0  0  0  0  0  0  0  0  0  0  0
    0.6903    2.4250   -1.4299 H   0  0  0  0  0  0  0  0  0  0  0  0
    0.3724    0.5200   -0.4020 C   0  0  1  0  0  0  0  0  0  0  0  0
    1.0855    0.1292   -1.1282 H   0  0  0  0  0  0  0  0  0  0  0  0
    1.0225    0.5498    0.9914 C   0  0  0  0  0  0  0  0  0  0  0  0
    1.3914   -0.4919    1.5299 O   0  0  0  0  0  0  0  0  0  0  0  0
    1.1251    1.7432    1.5889 N   0  0  0  0  0  0  0  0  0  0  0  0
    0.8551    2.5565    1.0591 H   0  0  0  0  0  0  0  0  0  0  0  0
    1.7084    1.9454    2.9130 C   0  0  0  0  0  0  0  0  0  0  0  0
    2.7691    1.6863    2.8872 H   0  0  0  0  0  0  0  0  0  0  0  0
    1.5982    2.9857    3.2207 H   0  0  0  0  0  0  0  0  0  0  0  0
    1.2113    1.2980    3.6387 H   0  0  0  0  0  0  0  0  0  0  0  0
  5  6  2  0  0  0  0
  5  7  1  0  0  0  0
  2  3  1  0  0  0  0
  2  4  1  0  0  0  0
  2  5  1  0  0  0  0
  1  2  1  0  0  0  0
 19 20  2  0  0  0  0
 19 21  1  0  0  0  0
 17 18  1  0  0  0  0
 17 19  1  0  0  0  0
 14 15  1  0  0  0  0
 14 16  1  0  0  0  0
 14 17  1  0  0  0  0
 11 12  1  0  0  0  0
 11 13  1  0  0  0  0
 11 14  1  0  0  0  0
  8  9  1  0  0  0  0
  8 10  1  0  0  0  0
  8 11  1  0  0  0  0
  7  8  1  0  0  0  0
  7 17  1  0  0  0  0
 23 24  1  0  0  0  0
 23 25  1  0  0  0  0
 23 26  1  0  0  0  0
 21 22  1  0  0  0  0
 21 23  1  0  0  0  0
M  END
$$$$
default_name
  -OEChem-01062215323D

 26 26  0     1  0  0  0  0  0999 V2000
   -1.8446   -3.5060   -0.3010 H   0  0  0  0  0  0  0  0  0  0  0  0
   -2.0746   -2.4490   -0.4240 C   0  0  0  0  0  0  0  0  0  0  0  0
   -2.6906   -2.1160    0.4090 H   0  0  0  0  0  0  0  0  0  0  0  0
   -2.5986   -2.2980   -1.3650 H   0  0  0  0  0  0  0  0  0  0  0  0
   -0.7756   -1.6630   -0.4350 C   0  0  0  0  0  0  0  0  0  0  0  0
    0.2844   -2.2800   -0.4550 O   0  0  0  0  0  0  0  0  0  0  0  0
   -0.8246   -0.3180   -0.4350 N   0  0  0  0  0  0  0  0  0  0  0  0
   -2.0106    0.5080   -0.5910 C   0  0  0  0  0  0  0  0  0  0  0  0
   -2.2764    1.1290    0.2660 H   0  0  0  0  0  0  0  0  0  0  0  0
   -2.9044    0.0714   -1.0353 H   0  0  0  0  0  0  0  0  0  0  0  0
   -1.2674    1.3443   -1.6305 C   0  0  0  0  0  0  0  0  0  0  0  0
   -1.9071    2.1297   -2.0361 H   0  0  0  0  0  0  0  0  0  0  0  0
   -0.9061    0.6900   -2.4245 H   0  0  0  0  0  0  0  0  0  0  0  0
   -0.0827    1.9176   -0.8529 C   0  0  0  0  0  0  0  0  0  0  0  0
   -0.3686    2.5236    0.0091 H   0  0  0  0  0  0  0  0  0  0  0  0
    0.6903    2.4250   -1.4299 H   0  0  0  0  0  0  0  0  0  0  0  0
    0.3724    0.5200   -0.4020 C   0  0  1  0  0  0  0  0  0  0  0  0
    1.0855    0.1292   -1.1282 H   0  0  0  0  0  0  0  0  0  0  0  0
    1.0225    0.5498    0.9914 C   0  0  0  0  0  0  0  0  0  0  0  0
    1.6348   -0.4284    1.4150 O   0  0  0  0  0  0  0  0  0  0  0  0
    0.8535    1.6616    1.7173 N   0  0  0  0  0  0  0  0  0  0  0  0
    0.3910    2.4414    1.2781 H   0  0  0  0  0  0  0  0  0  0  0  0
    1.3971    1.8498    3.0603 C   0  0  0  0  0  0  0  0  0  0  0  0
    2.4883    1.8514    3.0146 H   0  0  0  0  0  0  0  0  0  0  0  0
    1.0518    2.7953    3.4797 H   0  0  0  0  0  0  0  0  0  0  0  0
    1.0786    1.0288    3.7063 H   0  0  0  0  0  0  0  0  0  0  0  0
  5  6  2  0  0  0  0
  5  7  1  0  0  0  0
  2  3  1  0  0  0  0
  2  4  1  0  0  0  0
  2  5  1  0  0  0  0
  1  2  1  0  0  0  0
 19 20  2  0  0  0  0
 19 21  1  0  0  0  0
 17 18  1  0  0  0  0
 17 19  1  0  0  0  0
 14 15  1  0  0  0  0
 14 16  1  0  0  0  0
 14 17  1  0  0  0  0
 11 12  1  0  0  0  0
 11 13  1  0  0  0  0
 11 14  1  0  0  0  0
  8  9  1  0  0  0  0
  8 10  1  0  0  0  0
  8 11  1  0  0  0  0
  7  8  1  0  0  0  0
  7 17  1  0  0  0  0
 23 24  1  0  0  0  0
 23 25  1  0  0  0  0
 23 26  1  0  0  0  0
 21 22  1  0  0  0  0
 21 23  1  0  0  0  0
M  END
$$$$
default_name
  -OEChem-01062215323D

 26 26  0     1  0  0  0  0  0999 V2000
   -1.8446   -3.5060   -0.3010 H   0  0  0  0  0  0  0  0  0  0  0  0
   -2.0746   -2.4490   -0.4240 C   0  0  0  0  0  0  0  0  0  0  0  0
   -2.6906   -2.1160    0.4090 H   0  0  0  0  0  0  0  0  0  0  0  0
   -2.5986   -2.2980   -1.3650 H   0  0  0  0  0  0  0  0  0  0  0  0
   -0.7756   -1.6630   -0.4350 C   0  0  0  0  0  0  0  0  0  0  0  0
    0.2844   -2.2800   -0.4550 O   0  0  0  0  0  0  0  0  0  0  0  0
   -0.8246   -0.3180   -0.4350 N   0  0  0  0  0  0  0  0  0  0  0  0
   -2.0106    0.5080   -0.5910 C   0  0  0  0  0  0  0  0  0  0  0  0
   -2.2764    1.1290    0.2660 H   0  0  0  0  0  0  0  0  0  0  0  0
   -2.9044    0.0714   -1.0353 H   0  0  0  0  0  0  0  0  0  0  0  0
   -1.2674    1.3443   -1.6305 C   0  0  0  0  0  0  0  0  0  0  0  0
   -1.9071    2.1297   -2.0361 H   0  0  0  0  0  0  0  0  0  0  0  0
   -0.9061    0.6900   -2.4245 H   0  0  0  0  0  0  0  0  0  0  0  0
   -0.0827    1.9176   -0.8529 C   0  0  0  0  0  0  0  0  0  0  0  0
   -0.3686    2.5236    0.0091 H   0  0  0  0  0  0  0  0  0  0  0  0
    0.6903    2.4250   -1.4299 H   0  0  0  0  0  0  0  0  0  0  0  0
    0.3724    0.5200   -0.4020 C   0  0  1  0  0  0  0  0  0  0  0  0
    1.0855    0.1292   -1.1282 H   0  0  0  0  0  0  0  0  0  0  0  0
    1.0225    0.5498    0.9914 C   0  0  0  0  0  0  0  0  0  0  0  0
    1.8545   -0.2975    1.3097 O   0  0  0  0  0  0  0  0  0  0  0  0
    0.6109    1.5051    1.8338 N   0  0  0  0  0  0  0  0  0  0  0  0
   -0.0292    2.1975    1.4794 H   0  0  0  0  0  0  0  0  0  0  0  0
    1.1196    1.6683    3.1937 C   0  0  0  0  0  0  0  0  0  0  0  0
    2.1790    1.9310    3.1572 H   0  0  0  0  0  0  0  0  0  0  0  0
    0.5701    2.4549    3.7118 H   0  0  0  0  0  0  0  0  0  0  0  0
    1.0140    0.7302    3.7429 H   0  0  0  0  0  0  0  0  0  0  0  0
  5  6  2  0  0  0  0
  5  7  1  0  0  0  0
  2  3  1  0  0  0  0
  2  4  1  0  0  0  0
  2  5  1  0  0  0  0
  1  2  1  0  0  0  0
 19 20  2  0  0  0  0
 19 21  1  0  0  0  0
 17 18  1  0  0  0  0
 17 19  1  0  0  0  0
 14 15  1  0  0  0  0
 14 16  1  0  0  0  0
 14 17  1  0  0  0  0
 11 12  1  0  0  0  0
 11 13  1  0  0  0  0
 11 14  1  0  0  0  0
  8  9  1  0  0  0  0
  8 10  1  0  0  0  0
  8 11  1  0  0  0  0
  7  8  1  0  0  0  0
  7 17  1  0  0  0  0
 23 24  1  0  0  0  0
 23 25  1  0  0  0  0
 23 26  1  0  0  0  0
 21 22  1  0  0  0  0
 21 23  1  0  0  0  0
M  END
$$$$
default_name
  -OEChem-01062215323D

 26 26  0     1  0  0  0  0  0999 V2000
   -1.8446   -3.5060   -0.3010 H   0  0  0  0  0  0  0  0  0  0  0  0
   -2.0746   -2.4490   -0.4240 C   0  0  0  0  0  0  0  0  0  0  0  0
   -2.6906   -2.1160    0.4090 H   0  0  0  0  0  0  0  0  0  0  0  0
   -2.5986   -2.2980   -1.3650 H   0  0  0  0  0  0  0  0  0  0  0  0
   -0.7756   -1.6630   -0.4350 C   0  0  0  0  0  0  0  0  0  0  0  0
    0.2844   -2.2800   -0.4550 O   0  0  0  0  0  0  0  0  0  0  0  0
   -0.8246   -0.3180   -0.4350 N   0  0  0  0  0  0  0  0  0  0  0  0
   -2.0106    0.5080   -0.5910 C   0  0  0  0  0  0  0  0  0  0  0  0
   -2.2764    1.1290    0.2660 H   0  0  0  0  0  0  0  0  0  0  0  0
   -2.9044    0.0714   -1.0353 H   0  0  0  0  0  0  0  0  0  0  0  0
   -1.2674    1.3443   -1.6305 C   0  0  0  0  0  0  0  0  0  0  0  0
   -1.9071    2.1297   -2.0361 H   0  0  0  0  0  0  0  0  0  0  0  0
   -0.9061    0.6900   -2.4245 H   0  0  0  0  0  0  0  0  0  0  0  0
   -0.0827    1.9176   -0.8529 C   0  0  0  0  0  0  0  0  0  0  0  0
   -0.3686    2.5236    0.0091 H   0  0  0  0  0  0  0  0  0  0  0  0
    0.6903    2.4250   -1.4299 H   0  0  0  0  0  0  0  0  0  0  0  0
    0.3724    0.5200   -0.4020 C   0  0  1  0  0  0  0  0  0  0  0  0
    1.0855    0.1292   -1.1282 H   0  0  0  0  0  0  0  0  0  0  0  0
    1.0225    0.5498    0.9914 C   0  0  0  0  0  0  0  0  0  0  0  0
    2.0354   -0.1079    1.2212 O   0  0  0  0  0  0  0  0  0  0  0  0
    0.4140    1.2843    1.9305 N   0  0  0  0  0  0  0  0  0  0  0  0
   -0.3769    1.8414    1.6492 H   0  0  0  0  0  0  0  0  0  0  0  0
    0.8947    1.4134    3.3041 C   0  0  0  0  0  0  0  0  0  0  0  0
    1.8623    1.9198    3.3053 H   0  0  0  0  0  0  0  0  0  0  0  0
    0.1857    1.9878    3.9011 H   0  0  0  0  0  0  0  0  0  0  0  0
    1.0217    0.4226    3.7459 H   0  0  0  0  0  0  0  0  0  0  0  0
  5  6  2  0  0  0  0
  5  7  1  0  0  0  0
  2  3  1  0  0  0  0
  2  4  1  0  0  0  0
  2  5  1  0  0  0  0
  1  2  1  0  0  0  0
 19 20  2  0  0  0  0
 19 21  1  0  0  0  0
 17 18  1  0  0  0  0
 17 19  1  0  0  0  0
 14 15  1  0  0  0  0
 14 16  1  0  0  0  0
 14 17  1  0  0  0  0
 11 12  1  0  0  0  0
 11 13  1  0  0  0  0
 11 14  1  0  0  0  0
  8  9  1  0  0  0  0
  8 10  1  0  0  0  0
  8 11  1  0  0  0  0
  7  8  1  0  0  0  0
  7 17  1  0  0  0  0
 23 24  1  0  0  0  0
 23 25  1  0  0  0  0
 23 26  1  0  0  0  0
 21 22  1  0  0  0  0
 21 23  1  0  0  0  0
M  END
$$$$
default_name
  -OEChem-01062215323D

 26 26  0     1  0  0  0  0  0999 V2000
   -1.8446   -3.5060   -0.3010 H   0  0  0  0  0  0  0  0  0  0  0  0
   -2.0746   -2.4490   -0.4240 C   0  0  0  0  0  0  0  0  0  0  0  0
   -2.6906   -2.1160    0.4090 H   0  0  0  0  0  0  0  0  0  0  0  0
   -2.5986   -2.2980   -1.3650 H   0  0  0  0  0  0  0  0  0  0  0  0
   -0.7756   -1.6630   -0.4350 C   0  0  0  0  0  0  0  0  0  0  0  0
    0.2844   -2.2800   -0.4550 O   0  0  0  0  0  0  0  0  0  0  0  0
   -0.8246   -0.3180   -0.4350 N   0  0  0  0  0  0  0  0  0  0  0  0
   -2.0106    0.5080   -0.5910 C   0  0  0  0  0  0  0  0  0  0  0  0
   -2.2764    1.1290    0.2660 H   0  0  0  0  0  0  0  0  0  0  0  0
   -2.9044    0.0714   -1.0353 H   0  0  0  0  0  0  0  0  0  0  0  0
   -1.2674    1.3443   -1.6305 C   0  0  0  0  0  0  0  0  0  0  0  0
   -1.9071    2.1297   -2.0361 H   0  0  0  0  0  0  0  0  0  0  0  0
   -0.9061    0.6900   -2.4245 H   0  0  0  0  0  0  0  0  0  0  0  0
   -0.0827    1.9176   -0.8529 C   0  0  0  0  0  0  0  0  0  0  0  0
   -0.3686    2.5236    0.0091 H   0  0  0  0  0  0  0  0  0  0  0  0
    0.6903    2.4250   -1.4299 H   0  0  0  0  0  0  0  0  0  0  0  0
    0.3724    0.5200   -0.4020 C   0  0  1  0  0  0  0  0  0  0  0  0
    1.0855    0.1292   -1.1282 H   0  0  0  0  0  0  0  0  0  0  0  0
    1.0225    0.5498    0.9914 C   0  0  0  0  0  0  0  0  0  0  0  0
    2.1653    0.1273    1.1556 O   0  0  0  0  0  0  0  0  0  0  0  0
    0.2759    1.0142    2.0007 N   0  0  0  0  0  0  0  0  0  0  0  0
   -0.6283    1.3973    1.7760 H   0  0  0  0  0  0  0  0  0  0  0  0
    0.7378    1.1023    3.3839 C   0  0  0  0  0  0  0  0  0  0  0  0
    1.5597    1.8185    3.4486 H   0  0  0  0  0  0  0  0  0  0  0  0
   -0.0751    1.4257    4.0348 H   0  0  0  0  0  0  0  0  0  0  0  0
    1.1013    0.1271    3.7151 H   0  0  0  0  0  0  0  0  0  0  0  0
  5  6  2  0  0  0  0
  5  7  1  0  0  0  0
  2  3  1  0  0  0  0
  2  4  1  0  0  0  0
  2  5  1  0  0  0  0
  1  2  1  0  0  0  0
 19 20  2  0  0  0  0
 19 21  1  0  0  0  0
 17 18  1  0  0  0  0
 17 19  1  0  0  0  0
 14 15  1  0  0  0  0
 14 16  1  0  0  0  0
 14 17  1  0  0  0  0
 11 12  1  0  0  0  0
 11 13  1  0  0  0  0
 11 14  1  0  0  0  0
  8  9  1  0  0  0  0
  8 10  1  0  0  0  0
  8 11  1  0  0  0  0
  7  8  1  0  0  0  0
  7 17  1  0  0  0  0
 23 24  1  0  0  0  0
 23 25  1  0  0  0  0
 23 26  1  0  0  0  0
 21 22  1  0  0  0  0
 21 23  1  0  0  0  0
M  END
$$$$
default_name
  -OEChem-01062215323D

 26 26  0     1  0  0  0  0  0999 V2000
   -1.8446   -3.5060   -0.3010 H   0  0  0  0  0  0  0  0  0  0  0  0
   -2.0746   -2.4490   -0.4240 C   0  0  0  0  0  0  0  0  0  0  0  0
   -2.6906   -2.1160    0.4090 H   0  0  0  0  0  0  0  0  0  0  0  0
   -2.5986   -2.2980   -1.3650 H   0  0  0  0  0  0  0  0  0  0  0  0
   -0.7756   -1.6630   -0.4350 C   0  0  0  0  0  0  0  0  0  0  0  0
    0.2844   -2.2800   -0.4550 O   0  0  0  0  0  0  0  0  0  0  0  0
   -0.8246   -0.3180   -0.4350 N   0  0  0  0  0  0  0  0  0  0  0  0
   -2.0106    0.5080   -0.5910 C   0  0  0  0  0  0  0  0  0  0  0  0
   -2.2764    1.1290    0.2660 H   0  0  0  0  0  0  0  0  0  0  0  0
   -2.9044    0.0714   -1.0353 H   0  0  0  0  0  0  0  0  0  0  0  0
   -1.2674    1.3443   -1.6305 C   0  0  0  0  0  0  0  0  0  0  0  0
   -1.9071    2.1297   -2.0361 H   0  0  0  0  0  0  0  0  0  0  0  0
   -0.9061    0.6900   -2.4245 H   0  0  0  0  0  0  0  0  0  0  0  0
   -0.0827    1.9176   -0.8529 C   0  0  0  0  0  0  0  0  0  0  0  0
   -0.3686    2.5236    0.0091 H   0  0  0  0  0  0  0  0  0  0  0  0
    0.6903    2.4250   -1.4299 H   0  0  0  0  0  0  0  0  0  0  0  0
    0.3724    0.5200   -0.4020 C   0  0  1  0  0  0  0  0  0  0  0  0
    1.0855    0.1292   -1.1282 H   0  0  0  0  0  0  0  0  0  0  0  0
    1.0225    0.5498    0.9914 C   0  0  0  0  0  0  0  0  0  0  0  0
    2.2352    0.3921    1.1172 O   0  0  0  0  0  0  0  0  0  0  0  0
    0.2063    0.7133    2.0396 N   0  0  0  0  0  0  0  0  0  0  0  0
   -0.7664    0.8954    1.8512 H   0  0  0  0  0  0  0  0  0  0  0  0
    0.6596    0.7563    3.4278 C   0  0  0  0  0  0  0  0  0  0  0  0
    1.2919    1.6341    3.5775 H   0  0  0  0  0  0  0  0  0  0  0  0
   -0.1945    0.8070    4.1038 H   0  0  0  0  0  0  0  0  0  0  0  0
    1.2474   -0.1364    3.6526 H   0  0  0  0  0  0  0  0  0  0  0  0
  5  6  2  0  0  0  0
  5  7  1  0  0  0  0
  2  3  1  0  0  0  0
  2  4  1  0  0  0  0
  2  5  1  0  0  0  0
  1  2  1  0  0  0  0
 19 20  2  0  0  0  0
 19 21  1  0  0  0  0
 17 18  1  0  0  0  0
 17 19  1  0  0  0  0
 14 15  1  0  0  0  0
 14 16  1  0  0  0  0
 14 17  1  0  0  0  0
 11 12  1  0  0  0  0
 11 13  1  0  0  0  0
 11 14  1  0  0  0  0
  8  9  1  0  0  0  0
  8 10  1  0  0  0  0
  8 11  1  0  0  0  0
  7  8  1  0  0  0  0
  7 17  1  0  0  0  0
 23 24  1  0  0  0  0
 23 25  1  0  0  0  0
 23 26  1  0  0  0  0
 21 22  1  0  0  0  0
 21 23  1  0  0  0  0
M  END
$$$$
default_name
  -OEChem-01062215323D

 26 26  0     1  0  0  0  0  0999 V2000
   -1.8446   -3.5060   -0.3010 H   0  0  0  0  0  0  0  0  0  0  0  0
   -2.0746   -2.4490   -0.4240 C   0  0  0  0  0  0  0  0  0  0  0  0
   -2.6906   -2.1160    0.4090 H   0  0  0  0  0  0  0  0  0  0  0  0
   -2.5986   -2.2980   -1.3650 H   0  0  0  0  0  0  0  0  0  0  0  0
   -0.7756   -1.6630   -0.4350 C   0  0  0  0  0  0  0  0  0  0  0  0
    0.2844   -2.2800   -0.4550 O   0  0  0  0  0  0  0  0  0  0  0  0
   -0.8246   -0.3180   -0.4350 N   0  0  0  0  0  0  0  0  0  0  0  0
   -2.0106    0.5080   -0.5910 C   0  0  0  0  0  0  0  0  0  0  0  0
   -2.2764    1.1290    0.2660 H   0  0  0  0  0  0  0  0  0  0  0  0
   -2.9044    0.0714   -1.0353 H   0  0  0  0  0  0  0  0  0  0  0  0
   -1.2674    1.3443   -1.6305 C   0  0  0  0  0  0  0  0  0  0  0  0
   -1.9071    2.1297   -2.0361 H   0  0  0  0  0  0  0  0  0  0  0  0
   -0.9061    0.6900   -2.4245 H   0  0  0  0  0  0  0  0  0  0  0  0
   -0.0827    1.9176   -0.8529 C   0  0  0  0  0  0  0  0  0  0  0  0
   -0.3686    2.5236    0.0091 H   0  0  0  0  0  0  0  0  0  0  0  0
    0.6903    2.4250   -1.4299 H   0  0  0  0  0  0  0  0  0  0  0  0
    0.3724    0.5200   -0.4020 C   0  0  1  0  0  0  0  0  0  0  0  0
    1.0855    0.1292   -1.1282 H   0  0  0  0  0  0  0  0  0  0  0  0
    1.0225    0.5498    0.9914 C   0  0  0  0  0  0  0  0  0  0  0  0
    2.2405    0.6685    1.1089 O   0  0  0  0  0  0  0  0  0  0  0  0
    0.2098    0.4020    2.0446 N   0  0  0  0  0  0  0  0  0  0  0  0
   -0.7818    0.3701    1.8696 H   0  0  0  0  0  0  0  0  0  0  0  0
    0.6654    0.3989    3.4328 C   0  0  0  0  0  0  0  0  0  0  0  0
    1.0772    1.3790    3.6831 H   0  0  0  0  0  0  0  0  0  0  0  0
   -0.1645    0.1738    4.1033 H   0  0  0  0  0  0  0  0  0  0  0  0
    1.4499   -0.3498    3.5627 H   0  0  0  0  0  0  0  0  0  0  0  0
  5  6  2  0  0  0  0
  5  7  1  0  0  0  0
  2  3  1  0  0  0  0
  2  4  1  0  0  0  0
  2  5  1  0  0  0  0
  1  2  1  0  0  0  0
 19 20  2  0  0  0  0
 19 21  1  0  0  0  0
 17 18  1  0  0  0  0
 17 19  1  0  0  0  0
 14 15  1  0  0  0  0
 14 16  1  0  0  0  0
 14 17  1  0  0  0  0
 11 12  1  0  0  0  0
 11 13  1  0  0  0  0
 11 14  1  0  0  0  0
  8  9  1  0  0  0  0
  8 10  1  0  0  0  0
  8 11  1  0  0  0  0
  7  8  1  0  0  0  0
  7 17  1  0  0  0  0
 23 24  1  0  0  0  0
 23 25  1  0  0  0  0
 23 26  1  0  0  0  0
 21 22  1  0  0  0  0
 21 23  1  0  0  0  0
M  END
$$$$
default_name
  -OEChem-01062215323D

 26 26  0     1  0  0  0  0  0999 V2000
   -1.8446   -3.5060   -0.3010 H   0  0  0  0  0  0  0  0  0  0  0  0
   -2.0746   -2.4490   -0.4240 C   0  0  0  0  0  0  0  0  0  0  0  0
   -2.6906   -2.1160    0.4090 H   0  0  0  0  0  0  0  0  0  0  0  0
   -2.5986   -2.2980   -1.3650 H   0  0  0  0  0  0  0  0  0  0  0  0
   -0.7756   -1.6630   -0.4350 C   0  0  0  0  0  0  0  0  0  0  0  0
    0.2844   -2.2800   -0.4550 O   0  0  0  0  0  0  0  0  0  0  0  0
   -0.8246   -0.3180   -0.4350 N   0  0  0  0  0  0  0  0  0  0  0  0
   -2.0106    0.5080   -0.5910 C   0  0  0  0  0  0  0  0  0  0  0  0
   -2.2764    1.1290    0.2660 H   0  0  0  0  0  0  0  0  0  0  0  0
   -2.9044    0.0714   -1.0353 H   0  0  0  0  0  0  0  0  0  0  0  0
   -1.2674    1.3443   -1.6305 C   0  0  0  0  0  0  0  0  0  0  0  0
   -1.9071    2.1297   -2.0361 H   0  0  0  0  0  0  0  0  0  0  0  0
   -0.9061    0.6900   -2.4245 H   0  0  0  0  0  0  0  0  0  0  0  0
   -0.0827    1.9176   -0.8529 C   0  0  0  0  0  0  0  0  0  0  0  0
   -0.3686    2.5236    0.0091 H   0  0  0  0  0  0  0  0  0  0  0  0
    0.6903    2.4250   -1.4299 H   0  0  0  0  0  0  0  0  0  0  0  0
    0.3724    0.5200   -0.4020 C   0  0  1  0  0  0  0  0  0  0  0  0
    1.0855    0.1292   -1.1282 H   0  0  0  0  0  0  0  0  0  0  0  0
    1.0225    0.5498    0.9914 C   0  0  0  0  0  0  0  0  0  0  0  0
    2.1807    0.9376    1.1310 O   0  0  0  0  0  0  0  0  0  0  0  0
    0.2862    0.1016    2.0154 N   0  0  0  0  0  0  0  0  0  0  0  0
   -0.6733   -0.1430    1.8300 H   0  0  0  0  0  0  0  0  0  0  0  0
    0.7549    0.0546    3.3984 C   0  0  0  0  0  0  0  0  0  0  0  0
    0.9301    1.0707    3.7584 H   0  0  0  0  0  0  0  0  0  0  0  0
    0.0131   -0.4306    4.0335 H   0  0  0  0  0  0  0  0  0  0  0  0
    1.6951   -0.4986    3.4514 H   0  0  0  0  0  0  0  0  0  0  0  0
  5  6  2  0  0  0  0
  5  7  1  0  0  0  0
  2  3  1  0  0  0  0
  2  4  1  0  0  0  0
  2  5  1  0  0  0  0
  1  2  1  0  0  0  0
 19 20  2  0  0  0  0
 19 21  1  0  0  0  0
 17 18  1  0  0  0  0
 17 19  1  0  0  0  0
 14 15  1  0  0  0  0
 14 16  1  0  0  0  0
 14 17  1  0  0  0  0
 11 12  1  0  0  0  0
 11 13  1  0  0  0  0
 11 14  1  0  0  0  0
  8  9  1  0  0  0  0
  8 10  1  0  0  0  0
  8 11  1  0  0  0  0
  7  8  1  0  0  0  0
  7 17  1  0  0  0  0
 23 24  1  0  0  0  0
 23 25  1  0  0  0  0
 23 26  1  0  0  0  0
 21 22  1  0  0  0  0
 21 23  1  0  0  0  0
M  END
$$$$
default_name
  -OEChem-01062215323D

 26 26  0     1  0  0  0  0  0999 V2000
   -1.8446   -3.5060   -0.3010 H   0  0  0  0  0  0  0  0  0  0  0  0
   -2.0746   -2.4490   -0.4240 C   0  0  0  0  0  0  0  0  0  0  0  0
   -2.6906   -2.1160    0.4090 H   0  0  0  0  0  0  0  0  0  0  0  0
   -2.5986   -2.2980   -1.3650 H   0  0  0  0  0  0  0  0  0  0  0  0
   -0.7756   -1.6630   -0.4350 C   0  0  0  0  0  0  0  0  0  0  0  0
    0.2844   -2.2800   -0.4550 O   0  0  0  0  0  0  0  0  0  0  0  0
   -0.8246   -0.3180   -0.4350 N   0  0  0  0  0  0  0  0  0  0  0  0
   -2.0106    0.5080   -0.5910 C   0  0  0  0  0  0  0  0  0  0  0  0
   -2.2764    1.1290    0.2660 H   0  0  0  0  0  0  0  0  0  0  0  0
   -2.9044    0.0714   -1.0353 H   0  0  0  0  0  0  0  0  0  0  0  0
   -1.2674    1.3443   -1.6305 C   0  0  0  0  0  0  0  0  0  0  0  0
   -1.9071    2.1297   -2.0361 H   0  0  0  0  0  0  0  0  0  0  0  0
   -0.9061    0.6900   -2.4245 H   0  0  0  0  0  0  0  0  0  0  0  0
   -0.0827    1.9176   -0.8529 C   0  0  0  0  0  0  0  0  0  0  0  0
   -0.3686    2.5236    0.0091 H   0  0  0  0  0  0  0  0  0  0  0  0
    0.6903    2.4250   -1.4299 H   0  0  0  0  0  0  0  0  0  0  0  0
    0.3724    0.5200   -0.4020 C   0  0  1  0  0  0  0  0  0  0  0  0
    1.0855    0.1292   -1.1282 H   0  0  0  0  0  0  0  0  0  0  0  0
    1.0225    0.5498    0.9914 C   0  0  0  0  0  0  0  0  0  0  0  0
    2.0600    1.1812    1.1821 O   0  0  0  0  0  0  0  0  0  0  0  0
    0.4303   -0.1674    1.9539 N   0  0  0  0  0  0  0  0  0  0  0  0
   -0.4484   -0.6088    1.7351 H   0  0  0  0  0  0  0  0  0  0  0  0
    0.9219   -0.2533    3.3271 C   0  0  0  0  0  0  0  0  0  0  0  0
    0.8607    0.7301    3.7980 H   0  0  0  0  0  0  0  0  0  0  0  0
    0.3260   -0.9653    3.8989 H   0  0  0  0  0  0  0  0  0  0  0  0
    1.9664   -0.5727    3.3265 H   0  0  0  0  0  0  0  0  0  0  0  0
  5  6  2  0  0  0  0
  5  7  1  0  0  0  0
  2  3  1  0  0  0  0
  2  4  1  0  0  0  0
  2  5  1  0  0  0  0
  1  2  1  0  0  0  0
 19 20  2  0  0  0  0
 19 21  1  0  0  0  0
 17 18  1  0  0  0  0
 17 19  1  0  0  0  0
 14 15  1  0  0  0  0
 14 16  1  0  0  0  0
 14 17  1  0  0  0  0
 11 12  1  0  0  0  0
 11 13  1  0  0  0  0
 11 14  1  0  0  0  0
  8  9  1  0  0  0  0
  8 10  1  0  0  0  0
  8 11  1  0  0  0  0
  7  8  1  0  0  0  0
  7 17  1  0  0  0  0
 23 24  1  0  0  0  0
 23 25  1  0  0  0  0
 23 26  1  0  0  0  0
 21 22  1  0  0  0  0
 21 23  1  0  0  0  0
M  END
$$$$
default_name
  -OEChem-01062215323D

 26 26  0     1  0  0  0  0  0999 V2000
   -1.8446   -3.5060   -0.3010 H   0  0  0  0  0  0  0  0  0  0  0  0
   -2.0746   -2.4490   -0.4240 C   0  0  0  0  0  0  0  0  0  0  0  0
   -2.6906   -2.1160    0.4090 H   0  0  0  0  0  0  0  0  0  0  0  0
   -2.5986   -2.2980   -1.3650 H   0  0  0  0  0  0  0  0  0  0  0  0
   -0.7756   -1.6630   -0.4350 C   0  0  0  0  0  0  0  0  0  0  0  0
    0.2844   -2.2800   -0.4550 O   0  0  0  0  0  0  0  0  0  0  0  0
   -0.8246   -0.3180   -0.4350 N   0  0  0  0  0  0  0  0  0  0  0  0
   -2.0106    0.5080   -0.5910 C   0  0  0  0  0  0  0  0  0  0  0  0
   -2.2764    1.1290    0.2660 H   0  0  0  0  0  0  0  0  0  0  0  0
   -2.9044    0.0714   -1.0353 H   0  0  0  0  0  0  0  0  0  0  0  0
   -1.2674    1.3443   -1.6305 C   0  0  0  0  0  0  0  0  0  0  0  0
   -1.9071    2.1297   -2.0361 H   0  0  0  0  0  0  0  0  0  0  0  0
   -0.9061    0.6900   -2.4245 H   0  0  0  0  0  0  0  0  0  0  0  0
   -0.0827    1.9176   -0.8529 C   0  0  0  0  0  0  0  0  0  0  0  0
   -0.3686    2.5236    0.0091 H   0  0  0  0  0  0  0  0  0  0  0  0
    0.6903    2.4250   -1.4299 H   0  0  0  0  0  0  0  0  0  0  0  0
    0.3724    0.5200   -0.4020 C   0  0  1  0  0  0  0  0  0  0  0  0
    1.0855    0.1292   -1.1282 H   0  0  0  0  0  0  0  0  0  0  0  0
    1.0225    0.5498    0.9914 C   0  0  0  0  0  0  0  0  0  0  0  0
    1.8866    1.3825    1.2587 O   0  0  0  0  0  0  0  0  0  0  0  0
    0.6323   -0.3867    1.8644 N   0  0  0  0  0  0  0  0  0  0  0  0
   -0.1224   -0.9956    1.5913 H   0  0  0  0  0  0  0  0  0  0  0  0
    1.1550   -0.5037    3.2237 C   0  0  0  0  0  0  0  0  0  0  0  0
    0.8737    0.3806    3.7995 H   0  0  0  0  0  0  0  0  0  0  0  0
    0.7529   -1.3936    3.7089 H   0  0  0  0  0  0  0  0  0  0  0  0
    2.2451   -0.5669    3.1963 H   0  0  0  0  0  0  0  0  0  0  0  0
  5  6  2  0  0  0  0
  5  7  1  0  0  0  0
  2  3  1  0  0  0  0
  2  4  1  0  0  0  0
  2  5  1  0  0  0  0
  1  2  1  0  0  0  0
 19 20  2  0  0  0  0
 19 21  1  0  0  0  0
 17 18  1  0  0  0  0
 17 19  1  0  0  0  0
 14 15  1  0  0  0  0
 14 16  1  0  0  0  0
 14 17  1  0  0  0  0
 11 12  1  0  0  0  0
 11 13  1  0  0  0  0
 11 14  1  0  0  0  0
  8  9  1  0  0  0  0
  8 10  1  0  0  0  0
  8 11  1  0  0  0  0
  7  8  1  0  0  0  0
  7 17  1  0  0  0  0
 23 24  1  0  0  0  0
 23 25  1  0  0  0  0
 23 26  1  0  0  0  0
 21 22  1  0  0  0  0
 21 23  1  0  0  0  0
M  END
$$$$
default_name
  -OEChem-01062215323D

 26 26  0     1  0  0  0  0  0999 V2000
   -1.8446   -3.5060   -0.3010 H   0  0  0  0  0  0  0  0  0  0  0  0
   -2.0746   -2.4490   -0.4240 C   0  0  0  0  0  0  0  0  0  0  0  0
   -2.6906   -2.1160    0.4090 H   0  0  0  0  0  0  0  0  0  0  0  0
   -2.5986   -2.2980   -1.3650 H   0  0  0  0  0  0  0  0  0  0  0  0
   -0.7756   -1.6630   -0.4350 C   0  0  0  0  0  0  0  0  0  0  0  0
    0.2844   -2.2800   -0.4550 O   0  0  0  0  0  0  0  0  0  0  0  0
   -0.8246   -0.3180   -0.4350 N   0  0  0  0  0  0  0  0  0  0  0  0
   -2.0106    0.5080   -0.5910 C   0  0  0  0  0  0  0  0  0  0  0  0
   -2.2764    1.1290    0.2660 H   0  0  0  0  0  0  0  0  0  0  0  0
   -2.9044    0.0714   -1.0353 H   0  0  0  0  0  0  0  0  0  0  0  0
   -1.2674    1.3443   -1.6305 C   0  0  0  0  0  0  0  0  0  0  0  0
   -1.9071    2.1297   -2.0361 H   0  0  0  0  0  0  0  0  0  0  0  0
   -0.9061    0.6900   -2.4245 H   0  0  0  0  0  0  0  0  0  0  0  0
   -0.0827    1.9176   -0.8529 C   0  0  0  0  0  0  0  0  0  0  0  0
   -0.3686    2.5236    0.0091 H   0  0  0  0  0  0  0  0  0  0  0  0
    0.6903    2.4250   -1.4299 H   0  0  0  0  0  0  0  0  0  0  0  0
    0.3724    0.5200   -0.4020 C   0  0  1  0  0  0  0  0  0  0  0  0
    1.0855    0.1292   -1.1282 H   0  0  0  0  0  0  0  0  0  0  0  0
    1.0225    0.5498    0.9914 C   0  0  0  0  0  0  0  0  0  0  0  0
    1.6722    1.5279    1.3556 O   0  0  0  0  0  0  0  0  0  0  0  0
    0.8784   -0.5415    1.7529 N   0  0  0  0  0  0  0  0  0  0  0  0
    0.2824   -1.2770    1.4084 H   0  0  0  0  0  0  0  0  0  0  0  0
    1.4385   -0.6796    3.0952 C   0  0  0  0  0  0  0  0  0  0  0  0
    0.9683    0.0459    3.7625 H   0  0  0  0  0  0  0  0  0  0  0  0
    1.2647   -1.6864    3.4764 H   0  0  0  0  0  0  0  0  0  0  0  0
    2.5123   -0.4818    3.0698 H   0  0  0  0  0  0  0  0  0  0  0  0
  5  6  2  0  0  0  0
  5  7  1  0  0  0  0
  2  3  1  0  0  0  0
  2  4  1  0  0  0  0
  2  5  1  0  0  0  0
  1  2  1  0  0  0  0
 19 20  2  0  0  0  0
 19 21  1  0  0  0  0
 17 18  1  0  0  0  0
 17 19  1  0  0  0  0
 14 15  1  0  0  0  0
 14 16  1  0  0  0  0
 14 17  1  0  0  0  0
 11 12  1  0  0  0  0
 11 13  1  0  0  0  0
 11 14  1  0  0  0  0
  8  9  1  0  0  0  0
  8 10  1  0  0  0  0
  8 11  1  0  0  0  0
  7  8  1  0  0  0  0
  7 17  1  0  0  0  0
 23 24  1  0  0  0  0
 23 25  1  0  0  0  0
 23 26  1  0  0  0  0
 21 22  1  0  0  0  0
 21 23  1  0  0  0  0
M  END
$$$$
default_name
  -OEChem-01062215323D

 26 26  0     1  0  0  0  0  0999 V2000
   -1.8446   -3.5060   -0.3010 H   0  0  0  0  0  0  0  0  0  0  0  0
   -2.0746   -2.4490   -0.4240 C   0  0  0  0  0  0  0  0  0  0  0  0
   -2.6906   -2.1160    0.4090 H   0  0  0  0  0  0  0  0  0  0  0  0
   -2.5986   -2.2980   -1.3650 H   0  0  0  0  0  0  0  0  0  0  0  0
   -0.7756   -1.6630   -0.4350 C   0  0  0  0  0  0  0  0  0  0  0  0
    0.2844   -2.2800   -0.4550 O   0  0  0  0  0  0  0  0  0  0  0  0
   -0.8246   -0.3180   -0.4350 N   0  0  0  0  0  0  0  0  0  0  0  0
   -2.0106    0.5080   -0.5910 C   0  0  0  0  0  0  0  0  0  0  0  0
   -2.2764    1.1290    0.2660 H   0  0  0  0  0  0  0  0  0  0  0  0
   -2.9044    0.0714   -1.0353 H   0  0  0  0  0  0  0  0  0  0  0  0
   -1.2674    1.3443   -1.6305 C   0  0  0  0  0  0  0  0  0  0  0  0
   -1.9071    2.1297   -2.0361 H   0  0  0  0  0  0  0  0  0  0  0  0
   -0.9061    0.6900   -2.4245 H   0  0  0  0  0  0  0  0  0  0  0  0
   -0.0827    1.9176   -0.8529 C   0  0  0  0  0  0  0  0  0  0  0  0
   -0.3686    2.5236    0.0091 H   0  0  0  0  0  0  0  0  0  0  0  0
    0.6903    2.4250   -1.4299 H   0  0  0  0  0  0  0  0  0  0  0  0
    0.3724    0.5200   -0.4020 C   0  0  1  0  0  0  0  0  0  0  0  0
    1.0855    0.1292   -1.1282 H   0  0  0  0  0  0  0  0  0  0  0  0
    1.0225    0.5498    0.9914 C   0  0  0  0  0  0  0  0  0  0  0  0
    1.4315    1.6075    1.4662 O   0  0  0  0  0  0  0  0  0  0  0  0
    1.1518   -0.6210    1.6270 N   0  0  0  0  0  0  0  0  0  0  0  0
    0.7386   -1.4339    1.1989 H   0  0  0  0  0  0  0  0  0  0  0  0
    1.7528   -0.7690    2.9504 C   0  0  0  0  0  0  0  0  0  0  0  0
    1.1379   -0.2512    3.6897 H   0  0  0  0  0  0  0  0  0  0  0  0
    1.8266   -1.8238    3.2171 H   0  0  0  0  0  0  0  0  0  0  0  0
    2.7498   -0.3231    2.9556 H   0  0  0  0  0  0  0  0  0  0  0  0
  5  6  2  0  0  0  0
  5  7  1  0  0  0  0
  2  3  1  0  0  0  0
  2  4  1  0  0  0  0
  2  5  1  0  0  0  0
  1  2  1  0  0  0  0
 19 20  2  0  0  0  0
 19 21  1  0  0  0  0
 17 18  1  0  0  0  0
 17 19  1  0  0  0  0
 14 15  1  0  0  0  0
 14 16  1  0  0  0  0
 14 17  1  0  0  0  0
 11 12  1  0  0  0  0
 11 13  1  0  0  0  0
 11 14  1  0  0  0  0
  8  9  1  0  0  0  0
  8 10  1  0  0  0  0
  8 11  1  0  0  0  0
  7  8  1  0  0  0  0
  7 17  1  0  0  0  0
 23 24  1  0  0  0  0
 23 25  1  0  0  0  0
 23 26  1  0  0  0  0
 21 22  1  0  0  0  0
 21 23  1  0  0  0  0
M  END
$$$$
default_name
  -OEChem-01062215323D

 26 26  0     1  0  0  0  0  0999 V2000
   -1.8446   -3.5060   -0.3010 H   0  0  0  0  0  0  0  0  0  0  0  0
   -2.0746   -2.4490   -0.4240 C   0  0  0  0  0  0  0  0  0  0  0  0
   -2.6906   -2.1160    0.4090 H   0  0  0  0  0  0  0  0  0  0  0  0
   -2.5986   -2.2980   -1.3650 H   0  0  0  0  0  0  0  0  0  0  0  0
   -0.7756   -1.6630   -0.4350 C   0  0  0  0  0  0  0  0  0  0  0  0
    0.2844   -2.2800   -0.4550 O   0  0  0  0  0  0  0  0  0  0  0  0
   -0.8246   -0.3180   -0.4350 N   0  0  0  0  0  0  0  0  0  0  0  0
   -2.0106    0.5080   -0.5910 C   0  0  0  0  0  0  0  0  0  0  0  0
   -2.2764    1.1290    0.2660 H   0  0  0  0  0  0  0  0  0  0  0  0
   -2.9044    0.0714   -1.0353 H   0  0  0  0  0  0  0  0  0  0  0  0
   -1.2674    1.3443   -1.6305 C   0  0  0  0  0  0  0  0  0  0  0  0
   -1.9071    2.1297   -2.0361 H   0  0  0  0  0  0  0  0  0  0  0  0
   -0.9061    0.6900   -2.4245 H   0  0  0  0  0  0  0  0  0  0  0  0
   -0.0827    1.9176   -0.8529 C   0  0  0  0  0  0  0  0  0  0  0  0
   -0.3686    2.5236    0.0091 H   0  0  0  0  0  0  0  0  0  0  0  0
    0.6903    2.4250   -1.4299 H   0  0  0  0  0  0  0  0  0  0  0  0
    0.3724    0.5200   -0.4020 C   0  0  1  0  0  0  0  0  0  0  0  0
    1.0855    0.1292   -1.1282 H   0  0  0  0  0  0  0  0  0  0  0  0
    1.0225    0.5498    0.9914 C   0  0  0  0  0  0  0  0  0  0  0  0
    1.1809    1.6158    1.5829 O   0  0  0  0  0  0  0  0  0  0  0  0
    1.4339   -0.6199    1.4954 N   0  0  0  0  0  0  0  0  0  0  0  0
    1.2149   -1.4556    0.9771 H   0  0  0  0  0  0  0  0  0  0  0  0
    2.0767   -0.7658    2.7993 C   0  0  0  0  0  0  0  0  0  0  0  0
    1.3711   -0.4904    3.5861 H   0  0  0  0  0  0  0  0  0  0  0  0
    2.4003   -1.7963    2.9489 H   0  0  0  0  0  0  0  0  0  0  0  0
    2.9414   -0.1015    2.8614 H   0  0  0  0  0  0  0  0  0  0  0  0
  5  6  2  0  0  0  0
  5  7  1  0  0  0  0
  2  3  1  0  0  0  0
  2  4  1  0  0  0  0
  2  5  1  0  0  0  0
  1  2  1  0  0  0  0
 19 20  2  0  0  0  0
 19 21  1  0  0  0  0
 17 18  1  0  0  0  0
 17 19  1  0  0  0  0
 14 15  1  0  0  0  0
 14 16  1  0  0  0  0
 14 17  1  0  0  0  0
 11 12  1  0  0  0  0
 11 13  1  0  0  0  0
 11 14  1  0  0  0  0
  8  9  1  0  0  0  0
  8 10  1  0  0  0  0
  8 11  1  0  0  0  0
  7  8  1  0  0  0  0
  7 17  1  0  0  0  0
 23 24  1  0  0  0  0
 23 25  1  0  0  0  0
 23 26  1  0  0  0  0
 21 22  1  0  0  0  0
 21 23  1  0  0  0  0
M  END
$$$$
default_name
  -OEChem-01062215323D

 26 26  0     1  0  0  0  0  0999 V2000
   -1.8446   -3.5060   -0.3010 H   0  0  0  0  0  0  0  0  0  0  0  0
   -2.0746   -2.4490   -0.4240 C   0  0  0  0  0  0  0  0  0  0  0  0
   -2.6906   -2.1160    0.4090 H   0  0  0  0  0  0  0  0  0  0  0  0
   -2.5986   -2.2980   -1.3650 H   0  0  0  0  0  0  0  0  0  0  0  0
   -0.7756   -1.6630   -0.4350 C   0  0  0  0  0  0  0  0  0  0  0  0
    0.2844   -2.2800   -0.4550 O   0  0  0  0  0  0  0  0  0  0  0  0
   -0.8246   -0.3180   -0.4350 N   0  0  0  0  0  0  0  0  0  0  0  0
   -2.0106    0.5080   -0.5910 C   0  0  0  0  0  0  0  0  0  0  0  0
   -2.2764    1.1290    0.2660 H   0  0  0  0  0  0  0  0  0  0  0  0
   -2.9044    0.0714   -1.0353 H   0  0  0  0  0  0  0  0  0  0  0  0
   -1.2674    1.3443   -1.6305 C   0  0  0  0  0  0  0  0  0  0  0  0
   -1.9071    2.1297   -2.0361 H   0  0  0  0  0  0  0  0  0  0  0  0
   -0.9061    0.6900   -2.4245 H   0  0  0  0  0  0  0  0  0  0  0  0
   -0.0827    1.9176   -0.8529 C   0  0  0  0  0  0  0  0  0  0  0  0
   -0.3686    2.5236    0.0091 H   0  0  0  0  0  0  0  0  0  0  0  0
    0.6903    2.4250   -1.4299 H   0  0  0  0  0  0  0  0  0  0  0  0
    0.3724    0.5200   -0.4020 C   0  0  1  0  0  0  0  0  0  0  0  0
    1.0855    0.1292   -1.1282 H   0  0  0  0  0  0  0  0  0  0  0  0
    1.0225    0.5498    0.9914 C   0  0  0  0  0  0  0  0  0  0  0  0
    0.9375    1.5523    1.6979 O   0  0  0  0  0  0  0  0  0  0  0  0
    1.7055   -0.5384    1.3669 N   0  0  0  0  0  0  0  0  0  0  0  0
    1.6790   -1.3406    0.7582 H   0  0  0  0  0  0  0  0  0  0  0  0
    2.3880   -0.6702    2.6520 C   0  0  0  0  0  0  0  0  0  0  0  0
    1.6519   -0.6555    3.4586 H   0  0  0  0  0  0  0  0  0  0  0  0
    2.9467   -1.6059    2.6899 H   0  0  0  0  0  0  0  0  0  0  0  0
    3.0741    0.1677    2.7938 H   0  0  0  0  0  0  0  0  0  0  0  0
  5  6  2  0  0  0  0
  5  7  1  0  0  0  0
  2  3  1  0  0  0  0
  2  4  1  0  0  0  0
  2  5  1  0  0  0  0
  1  2  1  0  0  0  0
 19 20  2  0  0  0  0
 19 21  1  0  0  0  0
 17 18  1  0  0  0  0
 17 19  1  0  0  0  0
 14 15  1  0  0  0  0
 14 16  1  0  0  0  0
 14 17  1  0  0  0  0
 11 12  1  0  0  0  0
 11 13  1  0  0  0  0
 11 14  1  0  0  0  0
  8  9  1  0  0  0  0
  8 10  1  0  0  0  0
  8 11  1  0  0  0  0
  7  8  1  0  0  0  0
  7 17  1  0  0  0  0
 23 24  1  0  0  0  0
 23 25  1  0  0  0  0
 23 26  1  0  0  0  0
 21 22  1  0  0  0  0
 21 23  1  0  0  0  0
M  END
$$$$
default_name
  -OEChem-01062215323D

 26 26  0     1  0  0  0  0  0999 V2000
   -1.8446   -3.5060   -0.3010 H   0  0  0  0  0  0  0  0  0  0  0  0
   -2.0746   -2.4490   -0.4240 C   0  0  0  0  0  0  0  0  0  0  0  0
   -2.6906   -2.1160    0.4090 H   0  0  0  0  0  0  0  0  0  0  0  0
   -2.5986   -2.2980   -1.3650 H   0  0  0  0  0  0  0  0  0  0  0  0
   -0.7756   -1.6630   -0.4350 C   0  0  0  0  0  0  0  0  0  0  0  0
    0.2844   -2.2800   -0.4550 O   0  0  0  0  0  0  0  0  0  0  0  0
   -0.8246   -0.3180   -0.4350 N   0  0  0  0  0  0  0  0  0  0  0  0
   -2.0106    0.5080   -0.5910 C   0  0  0  0  0  0  0  0  0  0  0  0
   -2.2764    1.1290    0.2660 H   0  0  0  0  0  0  0  0  0  0  0  0
   -2.9044    0.0714   -1.0353 H   0  0  0  0  0  0  0  0  0  0  0  0
   -1.2674    1.3443   -1.6305 C   0  0  0  0  0  0  0  0  0  0  0  0
   -1.9071    2.1297   -2.0361 H   0  0  0  0  0  0  0  0  0  0  0  0
   -0.9061    0.6900   -2.4245 H   0  0  0  0  0  0  0  0  0  0  0  0
   -0.0827    1.9176   -0.8529 C   0  0  0  0  0  0  0  0  0  0  0  0
   -0.3686    2.5236    0.0091 H   0  0  0  0  0  0  0  0  0  0  0  0
    0.6903    2.4250   -1.4299 H   0  0  0  0  0  0  0  0  0  0  0  0
    0.3724    0.5200   -0.4020 C   0  0  1  0  0  0  0  0  0  0  0  0
    1.0855    0.1292   -1.1282 H   0  0  0  0  0  0  0  0  0  0  0  0
    1.0225    0.5498    0.9914 C   0  0  0  0  0  0  0  0  0  0  0  0
    0.7178    1.4214    1.8032 O   0  0  0  0  0  0  0  0  0  0  0  0
    1.9480   -0.3818    1.2504 N   0  0  0  0  0  0  0  0  0  0  0  0
    2.0992   -1.0967    0.5569 H   0  0  0  0  0  0  0  0  0  0  0  0
    2.6656   -0.4888    2.5186 C   0  0  0  0  0  0  0  0  0  0  0  0
    1.9612   -0.7351    3.3160 H   0  0  0  0  0  0  0  0  0  0  0  0
    3.4284   -1.2656    2.4578 H   0  0  0  0  0  0  0  0  0  0  0  0
    3.1387    0.4663    2.7572 H   0  0  0  0  0  0  0  0  0  0  0  0
  5  6  2  0  0  0  0
  5  7  1  0  0  0  0
  2  3  1  0  0  0  0
  2  4  1  0  0  0  0
  2  5  1  0  0  0  0
  1  2  1  0  0  0  0
 19 20  2  0  0  0  0
 19 21  1  0  0  0  0
 17 18  1  0  0  0  0
 17 19  1  0  0  0  0
 14 15  1  0  0  0  0
 14 16  1  0  0  0  0
 14 17  1  0  0  0  0
 11 12  1  0  0  0  0
 11 13  1  0  0  0  0
 11 14  1  0  0  0  0
  8  9  1  0  0  0  0
  8 10  1  0  0  0  0
  8 11  1  0  0  0  0
  7  8  1  0  0  0  0
  7 17  1  0  0  0  0
 23 24  1  0  0  0  0
 23 25  1  0  0  0  0
 23 26  1  0  0  0  0
 21 22  1  0  0  0  0
 21 23  1  0  0  0  0
M  END
$$$$
default_name
  -OEChem-01062215323D

 26 26  0     1  0  0  0  0  0999 V2000
   -1.8446   -3.5060   -0.3010 H   0  0  0  0  0  0  0  0  0  0  0  0
   -2.0746   -2.4490   -0.4240 C   0  0  0  0  0  0  0  0  0  0  0  0
   -2.6906   -2.1160    0.4090 H   0  0  0  0  0  0  0  0  0  0  0  0
   -2.5986   -2.2980   -1.3650 H   0  0  0  0  0  0  0  0  0  0  0  0
   -0.7756   -1.6630   -0.4350 C   0  0  0  0  0  0  0  0  0  0  0  0
    0.2844   -2.2800   -0.4550 O   0  0  0  0  0  0  0  0  0  0  0  0
   -0.8246   -0.3180   -0.4350 N   0  0  0  0  0  0  0  0  0  0  0  0
   -2.0106    0.5080   -0.5910 C   0  0  0  0  0  0  0  0  0  0  0  0
   -2.2764    1.1290    0.2660 H   0  0  0  0  0  0  0  0  0  0  0  0
   -2.9044    0.0714   -1.0353 H   0  0  0  0  0  0  0  0  0  0  0  0
   -1.2674    1.3443   -1.6305 C   0  0  0  0  0  0  0  0  0  0  0  0
   -1.9071    2.1297   -2.0361 H   0  0  0  0  0  0  0  0  0  0  0  0
   -0.9061    0.6900   -2.4245 H   0  0  0  0  0  0  0  0  0  0  0  0
   -0.0827    1.9176   -0.8529 C   0  0  0  0  0  0  0  0  0  0  0  0
   -0.3686    2.5236    0.0091 H   0  0  0  0  0  0  0  0  0  0  0  0
    0.6903    2.4250   -1.4299 H   0  0  0  0  0  0  0  0  0  0  0  0
    0.3724    0.5200   -0.4020 C   0  0  1  0  0  0  0  0  0  0  0  0
    1.0855    0.1292   -1.1282 H   0  0  0  0  0  0  0  0  0  0  0  0
    1.0225    0.5498    0.9914 C   0  0  0  0  0  0  0  0  0  0  0  0
    0.5369    1.2318    1.8916 O   0  0  0  0  0  0  0  0  0  0  0  0
    2.1450   -0.1610    1.1538 N   0  0  0  0  0  0  0  0  0  0  0  0
    2.4469   -0.7405    0.3870 H   0  0  0  0  0  0  0  0  0  0  0  0
    2.8905   -0.2338    2.4082 C   0  0  0  0  0  0  0  0  0  0  0  0
    2.2779   -0.7239    3.1680 H   0  0  0  0  0  0  0  0  0  0  0  0
    3.8128   -0.7984    2.2685 H   0  0  0  0  0  0  0  0  0  0  0  0
    3.1310    0.7738    2.7542 H   0  0  0  0  0  0  0  0  0  0  0  0
  5  6  2  0  0  0  0
  5  7  1  0  0  0  0
  2  3  1  0  0  0  0
  2  4  1  0  0  0  0
  2  5  1  0  0  0  0
  1  2  1  0  0  0  0
 19 20  2  0  0  0  0
 19 21  1  0  0  0  0
 17 18  1  0  0  0  0
 17 19  1  0  0  0  0
 14 15  1  0  0  0  0
 14 16  1  0  0  0  0
 14 17  1  0  0  0  0
 11 12  1  0  0  0  0
 11 13  1  0  0  0  0
 11 14  1  0  0  0  0
  8  9  1  0  0  0  0
  8 10  1  0  0  0  0
  8 11  1  0  0  0  0
  7  8  1  0  0  0  0
  7 17  1  0  0  0  0
 23 24  1  0  0  0  0
 23 25  1  0  0  0  0
 23 26  1  0  0  0  0
 21 22  1  0  0  0  0
 21 23  1  0  0  0  0
M  END
$$$$
default_name
  -OEChem-01062215323D

 26 26  0     1  0  0  0  0  0999 V2000
   -1.8446   -3.5060   -0.3010 H   0  0  0  0  0  0  0  0  0  0  0  0
   -2.0746   -2.4490   -0.4240 C   0  0  0  0  0  0  0  0  0  0  0  0
   -2.6906   -2.1160    0.4090 H   0  0  0  0  0  0  0  0  0  0  0  0
   -2.5986   -2.2980   -1.3650 H   0  0  0  0  0  0  0  0  0  0  0  0
   -0.7756   -1.6630   -0.4350 C   0  0  0  0  0  0  0  0  0  0  0  0
    0.2844   -2.2800   -0.4550 O   0  0  0  0  0  0  0  0  0  0  0  0
   -0.8246   -0.3180   -0.4350 N   0  0  0  0  0  0  0  0  0  0  0  0
   -2.0106    0.5080   -0.5910 C   0  0  0  0  0  0  0  0  0  0  0  0
   -2.2764    1.1290    0.2660 H   0  0  0  0  0  0  0  0  0  0  0  0
   -2.9044    0.0714   -1.0353 H   0  0  0  0  0  0  0  0  0  0  0  0
   -1.2674    1.3443   -1.6305 C   0  0  0  0  0  0  0  0  0  0  0  0
   -1.9071    2.1297   -2.0361 H   0  0  0  0  0  0  0  0  0  0  0  0
   -0.9061    0.6900   -2.4245 H   0  0  0  0  0  0  0  0  0  0  0  0
   -0.0827    1.9176   -0.8529 C   0  0  0  0  0  0  0  0  0  0  0  0
   -0.3686    2.5236    0.0091 H   0  0  0  0  0  0  0  0  0  0  0  0
    0.6903    2.4250   -1.4299 H   0  0  0  0  0  0  0  0  0  0  0  0
    0.3724    0.5200   -0.4020 C   0  0  1  0  0  0  0  0  0  0  0  0
    1.0855    0.1292   -1.1282 H   0  0  0  0  0  0  0  0  0  0  0  0
    1.0225    0.5498    0.9914 C   0  0  0  0  0  0  0  0  0  0  0  0
    0.4070    0.9966    1.9573 O   0  0  0  0  0  0  0  0  0  0  0  0
    2.2830    0.1091    1.0836 N   0  0  0  0  0  0  0  0  0  0  0  0
    2.6983   -0.2964    0.2602 H   0  0  0  0  0  0  0  0  0  0  0  0
    3.0473    0.0773    2.3283 C   0  0  0  0  0  0  0  0  0  0  0  0
    2.5805   -0.6227    3.0246 H   0  0  0  0  0  0  0  0  0  0  0  0
    4.0736   -0.2364    2.1348 H   0  0  0  0  0  0  0  0  0  0  0  0
    3.0514    1.0694    2.7850 H   0  0  0  0  0  0  0  0  0  0  0  0
  5  6  2  0  0  0  0
  5  7  1  0  0  0  0
  2  3  1  0  0  0  0
  2  4  1  0  0  0  0
  2  5  1  0  0  0  0
  1  2  1  0  0  0  0
 19 20  2  0  0  0  0
 19 21  1  0  0  0  0
 17 18  1  0  0  0  0
 17 19  1  0  0  0  0
 14 15  1  0  0  0  0
 14 16  1  0  0  0  0
 14 17  1  0  0  0  0
 11 12  1  0  0  0  0
 11 13  1  0  0  0  0
 11 14  1  0  0  0  0
  8  9  1  0  0  0  0
  8 10  1  0  0  0  0
  8 11  1  0  0  0  0
  7  8  1  0  0  0  0
  7 17  1  0  0  0  0
 23 24  1  0  0  0  0
 23 25  1  0  0  0  0
 23 26  1  0  0  0  0
 21 22  1  0  0  0  0
 21 23  1  0  0  0  0
M  END
$$$$
default_name
  -OEChem-01062215323D

 26 26  0     1  0  0  0  0  0999 V2000
   -1.8446   -3.5060   -0.3010 H   0  0  0  0  0  0  0  0  0  0  0  0
   -2.0746   -2.4490   -0.4240 C   0  0  0  0  0  0  0  0  0  0  0  0
   -2.6906   -2.1160    0.4090 H   0  0  0  0  0  0  0  0  0  0  0  0
   -2.5986   -2.2980   -1.3650 H   0  0  0  0  0  0  0  0  0  0  0  0
   -0.7756   -1.6630   -0.4350 C   0  0  0  0  0  0  0  0  0  0  0  0
    0.2844   -2.2800   -0.4550 O   0  0  0  0  0  0  0  0  0  0  0  0
   -0.8246   -0.3180   -0.4350 N   0  0  0  0  0  0  0  0  0  0  0  0
   -2.0106    0.5080   -0.5910 C   0  0  0  0  0  0  0  0  0  0  0  0
   -2.2764    1.1290    0.2660 H   0  0  0  0  0  0  0  0  0  0  0  0
   -2.9044    0.0714   -1.0353 H   0  0  0  0  0  0  0  0  0  0  0  0
   -1.2674    1.3443   -1.6305 C   0  0  0  0  0  0  0  0  0  0  0  0
   -1.9071    2.1297   -2.0361 H   0  0  0  0  0  0  0  0  0  0  0  0
   -0.9061    0.6900   -2.4245 H   0  0  0  0  0  0  0  0  0  0  0  0
   -0.0827    1.9176   -0.8529 C   0  0  0  0  0  0  0  0  0  0  0  0
   -0.3686    2.5236    0.0091 H   0  0  0  0  0  0  0  0  0  0  0  0
    0.6903    2.4250   -1.4299 H   0  0  0  0  0  0  0  0  0  0  0  0
    0.3724    0.5200   -0.4020 C   0  0  1  0  0  0  0  0  0  0  0  0
    1.0855    0.1292   -1.1282 H   0  0  0  0  0  0  0  0  0  0  0  0
    1.0225    0.5498    0.9914 C   0  0  0  0  0  0  0  0  0  0  0  0
    0.3371    0.7318    1.9956 O   0  0  0  0  0  0  0  0  0  0  0  0
    2.3526    0.4100    1.0447 N   0  0  0  0  0  0  0  0  0  0  0  0
    2.8364    0.2054    0.1850 H   0  0  0  0  0  0  0  0  0  0  0  0
    3.1255    0.4233    2.2844 C   0  0  0  0  0  0  0  0  0  0  0  0
    2.8482   -0.4382    2.8957 H   0  0  0  0  0  0  0  0  0  0  0  0
    4.1930    0.3824    2.0658 H   0  0  0  0  0  0  0  0  0  0  0  0
    2.9054    1.3329    2.8475 H   0  0  0  0  0  0  0  0  0  0  0  0
  5  6  2  0  0  0  0
  5  7  1  0  0  0  0
  2  3  1  0  0  0  0
  2  4  1  0  0  0  0
  2  5  1  0  0  0  0
  1  2  1  0  0  0  0
 19 20  2  0  0  0  0
 19 21  1  0  0  0  0
 17 18  1  0  0  0  0
 17 19  1  0  0  0  0
 14 15  1  0  0  0  0
 14 16  1  0  0  0  0
 14 17  1  0  0  0  0
 11 12  1  0  0  0  0
 11 13  1  0  0  0  0
 11 14  1  0  0  0  0
  8  9  1  0  0  0  0
  8 10  1  0  0  0  0
  8 11  1  0  0  0  0
  7  8  1  0  0  0  0
  7 17  1  0  0  0  0
 23 24  1  0  0  0  0
 23 25  1  0  0  0  0
 23 26  1  0  0  0  0
 21 22  1  0  0  0  0
 21 23  1  0  0  0  0
M  END
$$$$
default_name
  -OEChem-01062215323D

 26 26  0     1  0  0  0  0  0999 V2000
   -1.8446   -3.5060   -0.3010 H   0  0  0  0  0  0  0  0  0  0  0  0
   -2.0746   -2.4490   -0.4240 C   0  0  0  0  0  0  0  0  0  0  0  0
   -2.6906   -2.1160    0.4090 H   0  0  0  0  0  0  0  0  0  0  0  0
   -2.5986   -2.2980   -1.3650 H   0  0  0  0  0  0  0  0  0  0  0  0
   -0.7756   -1.6630   -0.4350 C   0  0  0  0  0  0  0  0  0  0  0  0
    0.2844   -2.2800   -0.4550 O   0  0  0  0  0  0  0  0  0  0  0  0
   -0.8246   -0.3180   -0.4350 N   0  0  0  0  0  0  0  0  0  0  0  0
   -2.0106    0.5080   -0.5910 C   0  0  0  0  0  0  0  0  0  0  0  0
   -2.2764    1.1290    0.2660 H   0  0  0  0  0  0  0  0  0  0  0  0
   -2.9044    0.0714   -1.0353 H   0  0  0  0  0  0  0  0  0  0  0  0
   -1.2674    1.3443   -1.6305 C   0  0  0  0  0  0  0  0  0  0  0  0
   -1.9071    2.1297   -2.0361 H   0  0  0  0  0  0  0  0  0  0  0  0
   -0.9061    0.6900   -2.4245 H   0  0  0  0  0  0  0  0  0  0  0  0
   -0.0827    1.9176   -0.8529 C   0  0  0  0  0  0  0  0  0  0  0  0
   -0.3686    2.5236    0.0091 H   0  0  0  0  0  0  0  0  0  0  0  0
    0.6903    2.4250   -1.4299 H   0  0  0  0  0  0  0  0  0  0  0  0
    0.3724    0.5200   -0.4020 C   0  0  1  0  0  0  0  0  0  0  0  0
    1.0855    0.1292   -1.1282 H   0  0  0  0  0  0  0  0  0  0  0  0
    1.0225    0.5498    0.9914 C   0  0  0  0  0  0  0  0  0  0  0  0
    0.3318    0.4554    2.0040 O   0  0  0  0  0  0  0  0  0  0  0  0
    2.3491    0.7213    1.0396 N   0  0  0  0  0  0  0  0  0  0  0  0
    2.8518    0.7308    0.1666 H   0  0  0  0  0  0  0  0  0  0  0  0
    3.1197    0.7806    2.2795 C   0  0  0  0  0  0  0  0  0  0  0  0
    3.0630   -0.1831    2.7901 H   0  0  0  0  0  0  0  0  0  0  0  0
    4.1630    1.0155    2.0663 H   0  0  0  0  0  0  0  0  0  0  0  0
    2.7028    1.5463    2.9375 H   0  0  0  0  0  0  0  0  0  0  0  0
  5  6  2  0  0  0  0
  5  7  1  0  0  0  0
  2  3  1  0  0  0  0
  2  4  1  0  0  0  0
  2  5  1  0  0  0  0
  1  2  1  0  0  0  0
 19 20  2  0  0  0  0
 19 21  1  0  0  0  0
 17 18  1  0  0  0  0
 17 19  1  0  0  0  0
 14 15  1  0  0  0  0
 14 16  1  0  0  0  0
 14 17  1  0  0  0  0
 11 12  1  0  0  0  0
 11 13  1  0  0  0  0
 11 14  1  0  0  0  0
  8  9  1  0  0  0  0
  8 10  1  0  0  0  0
  8 11  1  0  0  0  0
  7  8  1  0  0  0  0
  7 17  1  0  0  0  0
 23 24  1  0  0  0  0
 23 25  1  0  0  0  0
 23 26  1  0  0  0  0
 21 22  1  0  0  0  0
 21 23  1  0  0  0  0
M  END
$$$$
default_name
  -OEChem-01062215323D

 26 26  0     1  0  0  0  0  0999 V2000
   -1.8446   -3.5060   -0.3010 H   0  0  0  0  0  0  0  0  0  0  0  0
   -2.0746   -2.4490   -0.4240 C   0  0  0  0  0  0  0  0  0  0  0  0
   -2.6906   -2.1160    0.4090 H   0  0  0  0  0  0  0  0  0  0  0  0
   -2.5986   -2.2980   -1.3650 H   0  0  0  0  0  0  0  0  0  0  0  0
   -0.7756   -1.6630   -0.4350 C   0  0  0  0  0  0  0  0  0  0  0  0
    0.2844   -2.2800   -0.4550 O   0  0  0  0  0  0  0  0  0  0  0  0
   -0.8246   -0.3180   -0.4350 N   0  0  0  0  0  0  0  0  0  0  0  0
   -2.0106    0.5080   -0.5910 C   0  0  0  0  0  0  0  0  0  0  0  0
   -2.2764    1.1290    0.2660 H   0  0  0  0  0  0  0  0  0  0  0  0
   -2.9044    0.0714   -1.0353 H   0  0  0  0  0  0  0  0  0  0  0  0
   -1.2674    1.3443   -1.6305 C   0  0  0  0  0  0  0  0  0  0  0  0
   -1.9071    2.1297   -2.0361 H   0  0  0  0  0  0  0  0  0  0  0  0
   -0.9061    0.6900   -2.4245 H   0  0  0  0  0  0  0  0  0  0  0  0
   -0.0827    1.9176   -0.8529 C   0  0  0  0  0  0  0  0  0  0  0  0
   -0.3686    2.5236    0.0091 H   0  0  0  0  0  0  0  0  0  0  0  0
    0.6903    2.4250   -1.4299 H   0  0  0  0  0  0  0  0  0  0  0  0
    0.3724    0.5200   -0.4020 C   0  0  1  0  0  0  0  0  0  0  0  0
    1.0855    0.1292   -1.1282 H   0  0  0  0  0  0  0  0  0  0  0  0
    1.0225    0.5498    0.9914 C   0  0  0  0  0  0  0  0  0  0  0  0
    0.3916    0.1863    1.9819 O   0  0  0  0  0  0  0  0  0  0  0  0
    2.2727    1.0217    1.0689 N   0  0  0  0  0  0  0  0  0  0  0  0
    2.7433    1.2438    0.2062 H   0  0  0  0  0  0  0  0  0  0  0  0
    3.0302    1.1250    2.3139 C   0  0  0  0  0  0  0  0  0  0  0  0
    3.2101    0.1252    2.7148 H   0  0  0  0  0  0  0  0  0  0  0  0
    3.9854    1.6200    2.1361 H   0  0  0  0  0  0  0  0  0  0  0  0
    2.4576    1.6951    3.0487 H   0  0  0  0  0  0  0  0  0  0  0  0
  5  6  2  0  0  0  0
  5  7  1  0  0  0  0
  2  3  1  0  0  0  0
  2  4  1  0  0  0  0
  2  5  1  0  0  0  0
  1  2  1  0  0  0  0
 19 20  2  0  0  0  0
 19 21  1  0  0  0  0
 17 18  1  0  0  0  0
 17 19  1  0  0  0  0
 14 15  1  0  0  0  0
 14 16  1  0  0  0  0
 14 17  1  0  0  0  0
 11 12  1  0  0  0  0
 11 13  1  0  0  0  0
 11 14  1  0  0  0  0
  8  9  1  0  0  0  0
  8 10  1  0  0  0  0
  8 11  1  0  0  0  0
  7  8  1  0  0  0  0
  7 17  1  0  0  0  0
 23 24  1  0  0  0  0
 23 25  1  0  0  0  0
 23 26  1  0  0  0  0
 21 22  1  0  0  0  0
 21 23  1  0  0  0  0
M  END
$$$$
default_name
  -OEChem-01062215323D

 26 26  0     1  0  0  0  0  0999 V2000
   -1.8446   -3.5060   -0.3010 H   0  0  0  0  0  0  0  0  0  0  0  0
   -2.0746   -2.4490   -0.4240 C   0  0  0  0  0  0  0  0  0  0  0  0
   -2.6906   -2.1160    0.4090 H   0  0  0  0  0  0  0  0  0  0  0  0
   -2.5986   -2.2980   -1.3650 H   0  0  0  0  0  0  0  0  0  0  0  0
   -0.7756   -1.6630   -0.4350 C   0  0  0  0  0  0  0  0  0  0  0  0
    0.2844   -2.2800   -0.4550 O   0  0  0  0  0  0  0  0  0  0  0  0
   -0.8246   -0.3180   -0.4350 N   0  0  0  0  0  0  0  0  0  0  0  0
   -2.0106    0.5080   -0.5910 C   0  0  0  0  0  0  0  0  0  0  0  0
   -2.2764    1.1290    0.2660 H   0  0  0  0  0  0  0  0  0  0  0  0
   -2.9044    0.0714   -1.0353 H   0  0  0  0  0  0  0  0  0  0  0  0
   -1.2674    1.3443   -1.6305 C   0  0  0  0  0  0  0  0  0  0  0  0
   -1.9071    2.1297   -2.0361 H   0  0  0  0  0  0  0  0  0  0  0  0
   -0.9061    0.6900   -2.4245 H   0  0  0  0  0  0  0  0  0  0  0  0
   -0.0827    1.9176   -0.8529 C   0  0  0  0  0  0  0  0  0  0  0  0
   -0.3686    2.5236    0.0091 H   0  0  0  0  0  0  0  0  0  0  0  0
    0.6903    2.4250   -1.4299 H   0  0  0  0  0  0  0  0  0  0  0  0
    0.3724    0.5200   -0.4020 C   0  0  1  0  0  0  0  0  0  0  0  0
    1.0855    0.1292   -1.1282 H   0  0  0  0  0  0  0  0  0  0  0  0
    1.0225    0.5498    0.9914 C   0  0  0  0  0  0  0  0  0  0  0  0
    0.5123   -0.0573    1.9307 O   0  0  0  0  0  0  0  0  0  0  0  0
    2.1286    1.2907    1.1303 N   0  0  0  0  0  0  0  0  0  0  0  0
    2.5184    1.7096    0.3012 H   0  0  0  0  0  0  0  0  0  0  0  0
    2.8632    1.4329    2.3852 C   0  0  0  0  0  0  0  0  0  0  0  0
    3.2795    0.4657    2.6752 H   0  0  0  0  0  0  0  0  0  0  0  0
    3.6726    2.1546    2.2707 H   0  0  0  0  0  0  0  0  0  0  0  0
    2.1864    1.7691    3.1736 H   0  0  0  0  0  0  0  0  0  0  0  0
  5  6  2  0  0  0  0
  5  7  1  0  0  0  0
  2  3  1  0  0  0  0
  2  4  1  0  0  0  0
  2  5  1  0  0  0  0
  1  2  1  0  0  0  0
 19 20  2  0  0  0  0
 19 21  1  0  0  0  0
 17 18  1  0  0  0  0
 17 19  1  0  0  0  0
 14 15  1  0  0  0  0
 14 16  1  0  0  0  0
 14 17  1  0  0  0  0
 11 12  1  0  0  0  0
 11 13  1  0  0  0  0
 11 14  1  0  0  0  0
  8  9  1  0  0  0  0
  8 10  1  0  0  0  0
  8 11  1  0  0  0  0
  7  8  1  0  0  0  0
  7 17  1  0  0  0  0
 23 24  1  0  0  0  0
 23 25  1  0  0  0  0
 23 26  1  0  0  0  0
 21 22  1  0  0  0  0
 21 23  1  0  0  0  0
M  END
$$$$
default_name
  -OEChem-01062215323D

 26 26  0     1  0  0  0  0  0999 V2000
   -1.8446   -3.5060   -0.3010 H   0  0  0  0  0  0  0  0  0  0  0  0
   -2.0746   -2.4490   -0.4240 C   0  0  0  0  0  0  0  0  0  0  0  0
   -2.6906   -2.1160    0.4090 H   0  0  0  0  0  0  0  0  0  0  0  0
   -2.5986   -2.2980   -1.3650 H   0  0  0  0  0  0  0  0  0  0  0  0
   -0.7756   -1.6630   -0.4350 C   0  0  0  0  0  0  0  0  0  0  0  0
    0.2844   -2.2800   -0.4550 O   0  0  0  0  0  0  0  0  0  0  0  0
   -0.8246   -0.3180   -0.4350 N   0  0  0  0  0  0  0  0  0  0  0  0
   -2.0106    0.5080   -0.5910 C   0  0  0  0  0  0  0  0  0  0  0  0
   -2.2764    1.1290    0.2660 H   0  0  0  0  0  0  0  0  0  0  0  0
   -2.9044    0.0714   -1.0353 H   0  0  0  0  0  0  0  0  0  0  0  0
   -1.2674    1.3443   -1.6305 C   0  0  0  0  0  0  0  0  0  0  0  0
   -1.9071    2.1297   -2.0361 H   0  0  0  0  0  0  0  0  0  0  0  0
   -0.9061    0.6900   -2.4245 H   0  0  0  0  0  0  0  0  0  0  0  0
   -0.0827    1.9176   -0.8529 C   0  0  0  0  0  0  0  0  0  0  0  0
   -0.3686    2.5236    0.0091 H   0  0  0  0  0  0  0  0  0  0  0  0
    0.6903    2.4250   -1.4299 H   0  0  0  0  0  0  0  0  0  0  0  0
    0.3724    0.5200   -0.4020 C   0  0  1  0  0  0  0  0  0  0  0  0
    1.0855    0.1292   -1.1282 H   0  0  0  0  0  0  0  0  0  0  0  0
    1.0225    0.5498    0.9914 C   0  0  0  0  0  0  0  0  0  0  0  0
    0.6857   -0.2586    1.8541 O   0  0  0  0  0  0  0  0  0  0  0  0
    1.9267    1.5100    1.2199 N   0  0  0  0  0  0  0  0  0  0  0  0
    2.1924    2.0964    0.4450 H   0  0  0  0  0  0  0  0  0  0  0  0
    2.6301    1.6833    2.4886 C   0  0  0  0  0  0  0  0  0  0  0  0
    3.2664    0.8153    2.6738 H   0  0  0  0  0  0  0  0  0  0  0  0
    3.2456    2.5830    2.4607 H   0  0  0  0  0  0  0  0  0  0  0  0
    1.9077    1.7634    3.3038 H   0  0  0  0  0  0  0  0  0  0  0  0
  5  6  2  0  0  0  0
  5  7  1  0  0  0  0
  2  3  1  0  0  0  0
  2  4  1  0  0  0  0
  2  5  1  0  0  0  0
  1  2  1  0  0  0  0
 19 20  2  0  0  0  0
 19 21  1  0  0  0  0
 17 18  1  0  0  0  0
 17 19  1  0  0  0  0
 14 15  1  0  0  0  0
 14 16  1  0  0  0  0
 14 17  1  0  0  0  0
 11 12  1  0  0  0  0
 11 13  1  0  0  0  0
 11 14  1  0  0  0  0
  8  9  1  0  0  0  0
  8 10  1  0  0  0  0
  8 11  1  0  0  0  0
  7  8  1  0  0  0  0
  7 17  1  0  0  0  0
 23 24  1  0  0  0  0
 23 25  1  0  0  0  0
 23 26  1  0  0  0  0
 21 22  1  0  0  0  0
 21 23  1  0  0  0  0
M  END
$$$$
default_name
  -OEChem-01062215323D

 26 26  0     1  0  0  0  0  0999 V2000
   -1.8446   -3.5060   -0.3010 H   0  0  0  0  0  0  0  0  0  0  0  0
   -2.0746   -2.4490   -0.4240 C   0  0  0  0  0  0  0  0  0  0  0  0
   -2.6906   -2.1160    0.4090 H   0  0  0  0  0  0  0  0  0  0  0  0
   -2.5986   -2.2980   -1.3650 H   0  0  0  0  0  0  0  0  0  0  0  0
   -0.7756   -1.6630   -0.4350 C   0  0  0  0  0  0  0  0  0  0  0  0
    0.2844   -2.2800   -0.4550 O   0  0  0  0  0  0  0  0  0  0  0  0
   -0.8246   -0.3180   -0.4350 N   0  0  0  0  0  0  0  0  0  0  0  0
   -2.0106    0.5080   -0.5910 C   0  0  0  0  0  0  0  0  0  0  0  0
   -2.2764    1.1290    0.2660 H   0  0  0  0  0  0  0  0  0  0  0  0
   -2.9044    0.0714   -1.0353 H   0  0  0  0  0  0  0  0  0  0  0  0
   -1.2674    1.3443   -1.6305 C   0  0  0  0  0  0  0  0  0  0  0  0
   -1.9071    2.1297   -2.0361 H   0  0  0  0  0  0  0  0  0  0  0  0
   -0.9061    0.6900   -2.4245 H   0  0  0  0  0  0  0  0  0  0  0  0
   -0.0827    1.9176   -0.8529 C   0  0  0  0  0  0  0  0  0  0  0  0
   -0.3686    2.5236    0.0091 H   0  0  0  0  0  0  0  0  0  0  0  0
    0.6903    2.4250   -1.4299 H   0  0  0  0  0  0  0  0  0  0  0  0
    0.3724    0.5200   -0.4020 C   0  0  1  0  0  0  0  0  0  0  0  0
    1.0855    0.1292   -1.1282 H   0  0  0  0  0  0  0  0  0  0  0  0
    1.0225    0.5498    0.9914 C   0  0  0  0  0  0  0  0  0  0  0  0
    0.9001   -0.4040    1.7572 O   0  0  0  0  0  0  0  0  0  0  0  0
    1.6806    1.6647    1.3313 N   0  0  0  0  0  0  0  0  0  0  0  0
    1.7876    2.3779    0.6279 H   0  0  0  0  0  0  0  0  0  0  0  0
    2.3467    1.8592    2.6171 C   0  0  0  0  0  0  0  0  0  0  0  0
    3.1719    1.1500    2.7107 H   0  0  0  0  0  0  0  0  0  0  0  0
    2.7338    2.8758    2.6932 H   0  0  0  0  0  0  0  0  0  0  0  0
    1.6404    1.6783    3.4303 H   0  0  0  0  0  0  0  0  0  0  0  0
  5  6  2  0  0  0  0
  5  7  1  0  0  0  0
  2  3  1  0  0  0  0
  2  4  1  0  0  0  0
  2  5  1  0  0  0  0
  1  2  1  0  0  0  0
 19 20  2  0  0  0  0
 19 21  1  0  0  0  0
 17 18  1  0  0  0  0
 17 19  1  0  0  0  0
 14 15  1  0  0  0  0
 14 16  1  0  0  0  0
 14 17  1  0  0  0  0
 11 12  1  0  0  0  0
 11 13  1  0  0  0  0
 11 14  1  0  0  0  0
  8  9  1  0  0  0  0
  8 10  1  0  0  0  0
  8 11  1  0  0  0  0
  7  8  1  0  0  0  0
  7 17  1  0  0  0  0
 23 24  1  0  0  0  0
 23 25  1  0  0  0  0
 23 26  1  0  0  0  0
 21 22  1  0  0  0  0
 21 23  1  0  0  0  0
M  END
$$$$
default_name
  -OEChem-01062215323D

 26 26  0     1  0  0  0  0  0999 V2000
   -1.8446   -3.5060   -0.3010 H   0  0  0  0  0  0  0  0  0  0  0  0
   -2.0746   -2.4490   -0.4240 C   0  0  0  0  0  0  0  0  0  0  0  0
   -2.6906   -2.1160    0.4090 H   0  0  0  0  0  0  0  0  0  0  0  0
   -2.5986   -2.2980   -1.3650 H   0  0  0  0  0  0  0  0  0  0  0  0
   -0.7756   -1.6630   -0.4350 C   0  0  0  0  0  0  0  0  0  0  0  0
    0.2844   -2.2800   -0.4550 O   0  0  0  0  0  0  0  0  0  0  0  0
   -0.8246   -0.3180   -0.4350 N   0  0  0  0  0  0  0  0  0  0  0  0
   -2.0106    0.5080   -0.5910 C   0  0  0  0  0  0  0  0  0  0  0  0
   -2.2764    1.1290    0.2660 H   0  0  0  0  0  0  0  0  0  0  0  0
   -2.9044    0.0714   -1.0353 H   0  0  0  0  0  0  0  0  0  0  0  0
   -1.2674    1.3443   -1.6305 C   0  0  0  0  0  0  0  0  0  0  0  0
   -1.9071    2.1297   -2.0361 H   0  0  0  0  0  0  0  0  0  0  0  0
   -0.9061    0.6900   -2.4245 H   0  0  0  0  0  0  0  0  0  0  0  0
   -0.0827    1.9176   -0.8529 C   0  0  0  0  0  0  0  0  0  0  0  0
   -0.3686    2.5236    0.0091 H   0  0  0  0  0  0  0  0  0  0  0  0
    0.6903    2.4250   -1.4299 H   0  0  0  0  0  0  0  0  0  0  0  0
    0.3724    0.5200   -0.4020 C   0  0  1  0  0  0  0  0  0  0  0  0
    1.0855    0.1292   -1.1282 H   0  0  0  0  0  0  0  0  0  0  0  0
    1.0225    0.5498    0.9914 C   0  0  0  0  0  0  0  0  0  0  0  0
    1.1408   -0.4836    1.6466 O   0  0  0  0  0  0  0  0  0  0  0  0
    1.4072    1.7443    1.4572 N   0  0  0  0  0  0  0  0  0  0  0  0
    1.3314    2.5348    0.8373 H   0  0  0  0  0  0  0  0  0  0  0  0
    2.0323    1.9486    2.7618 C   0  0  0  0  0  0  0  0  0  0  0  0
    3.0022    1.4471    2.7835 H   0  0  0  0  0  0  0  0  0  0  0  0
    2.1719    3.0131    2.9525 H   0  0  0  0  0  0  0  0  0  0  0  0
    1.4029    1.5195    3.5445 H   0  0  0  0  0  0  0  0  0  0  0  0
  5  6  2  0  0  0  0
  5  7  1  0  0  0  0
  2  3  1  0  0  0  0
  2  4  1  0  0  0  0
  2  5  1  0  0  0  0
  1  2  1  0  0  0  0
 19 20  2  0  0  0  0
 19 21  1  0  0  0  0
 17 18  1  0  0  0  0
 17 19  1  0  0  0  0
 14 15  1  0  0  0  0
 14 16  1  0  0  0  0
 14 17  1  0  0  0  0
 11 12  1  0  0  0  0
 11 13  1  0  0  0  0
 11 14  1  0  0  0  0
  8  9  1  0  0  0  0
  8 10  1  0  0  0  0
  8 11  1  0  0  0  0
  7  8  1  0  0  0  0
  7 17  1  0  0  0  0
 23 24  1  0  0  0  0
 23 25  1  0  0  0  0
 23 26  1  0  0  0  0
 21 22  1  0  0  0  0
 21 23  1  0  0  0  0
M  END
$$$$
default_name
  -OEChem-01062215323D

 26 26  0     1  0  0  0  0  0999 V2000
   -1.8446   -3.5060   -0.3010 H   0  0  0  0  0  0  0  0  0  0  0  0
   -2.0746   -2.4490   -0.4240 C   0  0  0  0  0  0  0  0  0  0  0  0
   -2.6906   -2.1160    0.4090 H   0  0  0  0  0  0  0  0  0  0  0  0
   -2.5986   -2.2980   -1.3650 H   0  0  0  0  0  0  0  0  0  0  0  0
   -0.7756   -1.6630   -0.4350 C   0  0  0  0  0  0  0  0  0  0  0  0
    0.2844   -2.2800   -0.4550 O   0  0  0  0  0  0  0  0  0  0  0  0
   -0.8246   -0.3180   -0.4350 N   0  0  0  0  0  0  0  0  0  0  0  0
   -2.0106    0.5080   -0.5910 C   0  0  0  0  0  0  0  0  0  0  0  0
   -2.2764    1.1290    0.2660 H   0  0  0  0  0  0  0  0  0  0  0  0
   -2.9044    0.0714   -1.0353 H   0  0  0  0  0  0  0  0  0  0  0  0
   -1.2674    1.3443   -1.6305 C   0  0  0  0  0  0  0  0  0  0  0  0
   -1.9071    2.1297   -2.0361 H   0  0  0  0  0  0  0  0  0  0  0  0
   -0.9061    0.6900   -2.4245 H   0  0  0  0  0  0  0  0  0  0  0  0
   -0.0827    1.9176   -0.8529 C   0  0  0  0  0  0  0  0  0  0  0  0
   -0.3686    2.5236    0.0091 H   0  0  0  0  0  0  0  0  0  0  0  0
    0.6903    2.4250   -1.4299 H   0  0  0  0  0  0  0  0  0  0  0  0
    0.3724    0.5200   -0.4020 C   0  0  1  0  0  0  0  0  0  0  0  0
    1.0855    0.1292   -1.1282 H   0  0  0  0  0  0  0  0  0  0  0  0
    1.0225    0.5498    0.9914 C   0  0  0  0  0  0  0  0  0  0  0  0
    1.3914   -0.4919    1.5299 O   0  0  0  0  0  0  0  0  0  0  0  0
    1.1251    1.7432    1.5889 N   0  0  0  0  0  0  0  0  0  0  0  0
    0.8551    2.5565    1.0591 H   0  0  0  0  0  0  0  0  0  0  0  0
    1.7084    1.9454    2.9130 C   0  0  0  0  0  0  0  0  0  0  0  0
    2.7691    1.6863    2.8872 H   0  0  0  0  0  0  0  0  0  0  0  0
    1.5982    2.9857    3.2207 H   0  0  0  0  0  0  0  0  0  0  0  0
    1.2113    1.2980    3.6387 H   0  0  0  0  0  0  0  0  0  0  0  0
  5  6  2  0  0  0  0
  5  7  1  0  0  0  0
  2  3  1  0  0  0  0
  2  4  1  0  0  0  0
  2  5  1  0  0  0  0
  1  2  1  0  0  0  0
 19 20  2  0  0  0  0
 19 21  1  0  0  0  0
 17 18  1  0  0  0  0
 17 19  1  0  0  0  0
 14 15  1  0  0  0  0
 14 16  1  0  0  0  0
 14 17  1  0  0  0  0
 11 12  1  0  0  0  0
 11 13  1  0  0  0  0
 11 14  1  0  0  0  0
  8  9  1  0  0  0  0
  8 10  1  0  0  0  0
  8 11  1  0  0  0  0
  7  8  1  0  0  0  0
  7 17  1  0  0  0  0
 23 24  1  0  0  0  0
 23 25  1  0  0  0  0
 23 26  1  0  0  0  0
 21 22  1  0  0  0  0
 21 23  1  0  0  0  0
M  END
$$$$
default_name
  -OEChem-01062215323D

 26 26  0     1  0  0  0  0  0999 V2000
   -1.8446   -3.5060   -0.3010 H   0  0  0  0  0  0  0  0  0  0  0  0
   -2.0746   -2.4490   -0.4240 C   0  0  0  0  0  0  0  0  0  0  0  0
   -2.6906   -2.1160    0.4090 H   0  0  0  0  0  0  0  0  0  0  0  0
   -2.5986   -2.2980   -1.3650 H   0  0  0  0  0  0  0  0  0  0  0  0
   -0.7756   -1.6630   -0.4350 C   0  0  0  0  0  0  0  0  0  0  0  0
    0.2844   -2.2800   -0.4550 O   0  0  0  0  0  0  0  0  0  0  0  0
   -0.8246   -0.3180   -0.4350 N   0  0  0  0  0  0  0  0  0  0  0  0
   -2.0106    0.5080   -0.5910 C   0  0  0  0  0  0  0  0  0  0  0  0
   -2.2764    1.1290    0.2660 H   0  0  0  0  0  0  0  0  0  0  0  0
   -2.9044    0.0714   -1.0353 H   0  0  0  0  0  0  0  0  0  0  0  0
   -1.2674    1.3443   -1.6305 C   0  0  0  0  0  0  0  0  0  0  0  0
   -1.9071    2.1297   -2.0361 H   0  0  0  0  0  0  0  0  0  0  0  0
   -0.9061    0.6900   -2.4245 H   0  0  0  0  0  0  0  0  0  0  0  0
   -0.0827    1.9176   -0.8529 C   0  0  0  0  0  0  0  0  0  0  0  0
   -0.3686    2.5236    0.0091 H   0  0  0  0  0  0  0  0  0  0  0  0
    0.6903    2.4250   -1.4299 H   0  0  0  0  0  0  0  0  0  0  0  0
    0.3724    0.5200   -0.4020 C   0  0  1  0  0  0  0  0  0  0  0  0
    1.0855    0.1292   -1.1282 H   0  0  0  0  0  0  0  0  0  0  0  0
    1.0225    0.5498    0.9914 C   0  0  0  0  0  0  0  0  0  0  0  0
    1.6348   -0.4284    1.4150 O   0  0  0  0  0  0  0  0  0  0  0  0
    0.8535    1.6616    1.7173 N   0  0  0  0  0  0  0  0  0  0  0  0
    0.3910    2.4414    1.2781 H   0  0  0  0  0  0  0  0  0  0  0  0
    1.3971    1.8498    3.0603 C   0  0  0  0  0  0  0  0  0  0  0  0
    2.4883    1.8514    3.0146 H   0  0  0  0  0  0  0  0  0  0  0  0
    1.0518    2.7953    3.4797 H   0  0  0  0  0  0  0  0  0  0  0  0
    1.0786    1.0288    3.7063 H   0  0  0  0  0  0  0  0  0  0  0  0
  5  6  2  0  0  0  0
  5  7  1  0  0  0  0
  2  3  1  0  0  0  0
  2  4  1  0  0  0  0
  2  5  1  0  0  0  0
  1  2  1  0  0  0  0
 19 20  2  0  0  0  0
 19 21  1  0  0  0  0
 17 18  1  0  0  0  0
 17 19  1  0  0  0  0
 14 15  1  0  0  0  0
 14 16  1  0  0  0  0
 14 17  1  0  0  0  0
 11 12  1  0  0  0  0
 11 13  1  0  0  0  0
 11 14  1  0  0  0  0
  8  9  1  0  0  0  0
  8 10  1  0  0  0  0
  8 11  1  0  0  0  0
  7  8  1  0  0  0  0
  7 17  1  0  0  0  0
 23 24  1  0  0  0  0
 23 25  1  0  0  0  0
 23 26  1  0  0  0  0
 21 22  1  0  0  0  0
 21 23  1  0  0  0  0
M  END
$$$$
default_name
  -OEChem-01062215323D

 26 26  0     1  0  0  0  0  0999 V2000
   -1.8446   -3.5060   -0.3010 H   0  0  0  0  0  0  0  0  0  0  0  0
   -2.0746   -2.4490   -0.4240 C   0  0  0  0  0  0  0  0  0  0  0  0
   -2.6906   -2.1160    0.4090 H   0  0  0  0  0  0  0  0  0  0  0  0
   -2.5986   -2.2980   -1.3650 H   0  0  0  0  0  0  0  0  0  0  0  0
   -0.7756   -1.6630   -0.4350 C   0  0  0  0  0  0  0  0  0  0  0  0
    0.2844   -2.2800   -0.4550 O   0  0  0  0  0  0  0  0  0  0  0  0
   -0.8246   -0.3180   -0.4350 N   0  0  0  0  0  0  0  0  0  0  0  0
   -2.0106    0.5080   -0.5910 C   0  0  0  0  0  0  0  0  0  0  0  0
   -2.2764    1.1290    0.2660 H   0  0  0  0  0  0  0  0  0  0  0  0
   -2.9044    0.0714   -1.0353 H   0  0  0  0  0  0  0  0  0  0  0  0
   -1.2674    1.3443   -1.6305 C   0  0  0  0  0  0  0  0  0  0  0  0
   -1.9071    2.1297   -2.0361 H   0  0  0  0  0  0  0  0  0  0  0  0
   -0.9061    0.6900   -2.4245 H   0  0  0  0  0  0  0  0  0  0  0  0
   -0.0827    1.9176   -0.8529 C   0  0  0  0  0  0  0  0  0  0  0  0
   -0.3686    2.5236    0.0091 H   0  0  0  0  0  0  0  0  0  0  0  0
    0.6903    2.4250   -1.4299 H   0  0  0  0  0  0  0  0  0  0  0  0
    0.3724    0.5200   -0.4020 C   0  0  1  0  0  0  0  0  0  0  0  0
    1.0855    0.1292   -1.1282 H   0  0  0  0  0  0  0  0  0  0  0  0
    1.0225    0.5498    0.9914 C   0  0  0  0  0  0  0  0  0  0  0  0
    1.8545   -0.2975    1.3097 O   0  0  0  0  0  0  0  0  0  0  0  0
    0.6109    1.5051    1.8338 N   0  0  0  0  0  0  0  0  0  0  0  0
   -0.0292    2.1975    1.4794 H   0  0  0  0  0  0  0  0  0  0  0  0
    1.1196    1.6683    3.1937 C   0  0  0  0  0  0  0  0  0  0  0  0
    2.1790    1.9310    3.1572 H   0  0  0  0  0  0  0  0  0  0  0  0
    0.5701    2.4549    3.7118 H   0  0  0  0  0  0  0  0  0  0  0  0
    1.0140    0.7302    3.7429 H   0  0  0  0  0  0  0  0  0  0  0  0
  5  6  2  0  0  0  0
  5  7  1  0  0  0  0
  2  3  1  0  0  0  0
  2  4  1  0  0  0  0
  2  5  1  0  0  0  0
  1  2  1  0  0  0  0
 19 20  2  0  0  0  0
 19 21  1  0  0  0  0
 17 18  1  0  0  0  0
 17 19  1  0  0  0  0
 14 15  1  0  0  0  0
 14 16  1  0  0  0  0
 14 17  1  0  0  0  0
 11 12  1  0  0  0  0
 11 13  1  0  0  0  0
 11 14  1  0  0  0  0
  8  9  1  0  0  0  0
  8 10  1  0  0  0  0
  8 11  1  0  0  0  0
  7  8  1  0  0  0  0
  7 17  1  0  0  0  0
 23 24  1  0  0  0  0
 23 25  1  0  0  0  0
 23 26  1  0  0  0  0
 21 22  1  0  0  0  0
 21 23  1  0  0  0  0
M  END
$$$$
default_name
  -OEChem-01062215323D

 26 26  0     1  0  0  0  0  0999 V2000
   -1.8446   -3.5060   -0.3010 H   0  0  0  0  0  0  0  0  0  0  0  0
   -2.0746   -2.4490   -0.4240 C   0  0  0  0  0  0  0  0  0  0  0  0
   -2.6906   -2.1160    0.4090 H   0  0  0  0  0  0  0  0  0  0  0  0
   -2.5986   -2.2980   -1.3650 H   0  0  0  0  0  0  0  0  0  0  0  0
   -0.7756   -1.6630   -0.4350 C   0  0  0  0  0  0  0  0  0  0  0  0
    0.2844   -2.2800   -0.4550 O   0  0  0  0  0  0  0  0  0  0  0  0
   -0.8246   -0.3180   -0.4350 N   0  0  0  0  0  0  0  0  0  0  0  0
   -2.0106    0.5080   -0.5910 C   0  0  0  0  0  0  0  0  0  0  0  0
   -2.2764    1.1290    0.2660 H   0  0  0  0  0  0  0  0  0  0  0  0
   -2.9044    0.0714   -1.0353 H   0  0  0  0  0  0  0  0  0  0  0  0
   -1.2674    1.3443   -1.6305 C   0  0  0  0  0  0  0  0  0  0  0  0
   -1.9071    2.1297   -2.0361 H   0  0  0  0  0  0  0  0  0  0  0  0
   -0.9061    0.6900   -2.4245 H   0  0  0  0  0  0  0  0  0  0  0  0
   -0.0827    1.9176   -0.8529 C   0  0  0  0  0  0  0  0  0  0  0  0
   -0.3686    2.5236    0.0091 H   0  0  0  0  0  0  0  0  0  0  0  0
    0.6903    2.4250   -1.4299 H   0  0  0  0  0  0  0  0  0  0  0  0
    0.3724    0.5200   -0.4020 C   0  0  1  0  0  0  0  0  0  0  0  0
    1.0855    0.1292   -1.1282 H   0  0  0  0  0  0  0  0  0  0  0  0
    1.0225    0.5498    0.9914 C   0  0  0  0  0  0  0  0  0  0  0  0
    2.0354   -0.1079    1.2212 O   0  0  0  0  0  0  0  0  0  0  0  0
    0.4140    1.2843    1.9305 N   0  0  0  0  0  0  0  0  0  0  0  0
   -0.3769    1.8414    1.6492 H   0  0  0  0  0  0  0  0  0  0  0  0
    0.8947    1.4134    3.3041 C   0  0  0  0  0  0  0  0  0  0  0  0
    1.8623    1.9198    3.3053 H   0  0  0  0  0  0  0  0  0  0  0  0
    0.1857    1.9878    3.9011 H   0  0  0  0  0  0  0  0  0  0  0  0
    1.0217    0.4226    3.7459 H   0  0  0  0  0  0  0  0  0  0  0  0
  5  6  2  0  0  0  0
  5  7  1  0  0  0  0
  2  3  1  0  0  0  0
  2  4  1  0  0  0  0
  2  5  1  0  0  0  0
  1  2  1  0  0  0  0
 19 20  2  0  0  0  0
 19 21  1  0  0  0  0
 17 18  1  0  0  0  0
 17 19  1  0  0  0  0
 14 15  1  0  0  0  0
 14 16  1  0  0  0  0
 14 17  1  0  0  0  0
 11 12  1  0  0  0  0
 11 13  1  0  0  0  0
 11 14  1  0  0  0  0
  8  9  1  0  0  0  0
  8 10  1  0  0  0  0
  8 11  1  0  0  0  0
  7  8  1  0  0  0  0
  7 17  1  0  0  0  0
 23 24  1  0  0  0  0
 23 25  1  0  0  0  0
 23 26  1  0  0  0  0
 21 22  1  0  0  0  0
 21 23  1  0  0  0  0
M  END
$$$$
default_name
  -OEChem-01062215323D

 26 26  0     1  0  0  0  0  0999 V2000
   -1.8446   -3.5060   -0.3010 H   0  0  0  0  0  0  0  0  0  0  0  0
   -2.0746   -2.4490   -0.4240 C   0  0  0  0  0  0  0  0  0  0  0  0
   -2.6906   -2.1160    0.4090 H   0  0  0  0  0  0  0  0  0  0  0  0
   -2.5986   -2.2980   -1.3650 H   0  0  0  0  0  0  0  0  0  0  0  0
   -0.7756   -1.6630   -0.4350 C   0  0  0  0  0  0  0  0  0  0  0  0
    0.2844   -2.2800   -0.4550 O   0  0  0  0  0  0  0  0  0  0  0  0
   -0.8246   -0.3180   -0.4350 N   0  0  0  0  0  0  0  0  0  0  0  0
   -2.0106    0.5080   -0.5910 C   0  0  0  0  0  0  0  0  0  0  0  0
   -2.2764    1.1290    0.2660 H   0  0  0  0  0  0  0  0  0  0  0  0
   -2.9044    0.0714   -1.0353 H   0  0  0  0  0  0  0  0  0  0  0  0
   -1.2674    1.3443   -1.6305 C   0  0  0  0  0  0  0  0  0  0  0  0
   -1.9071    2.1297   -2.0361 H   0  0  0  0  0  0  0  0  0  0  0  0
   -0.9061    0.6900   -2.4245 H   0  0  0  0  0  0  0  0  0  0  0  0
   -0.0827    1.9176   -0.8529 C   0  0  0  0  0  0  0  0  0  0  0  0
   -0.3686    2.5236    0.0091 H   0  0  0  0  0  0  0  0  0  0  0  0
    0.6903    2.4250   -1.4299 H   0  0  0  0  0  0  0  0  0  0  0  0
    0.3724    0.5200   -0.4020 C   0  0  1  0  0  0  0  0  0  0  0  0
    1.0855    0.1292   -1.1282 H   0  0  0  0  0  0  0  0  0  0  0  0
    1.0225    0.5498    0.9914 C   0  0  0  0  0  0  0  0  0  0  0  0
    2.1653    0.1273    1.1556 O   0  0  0  0  0  0  0  0  0  0  0  0
    0.2759    1.0142    2.0007 N   0  0  0  0  0  0  0  0  0  0  0  0
   -0.6283    1.3973    1.7760 H   0  0  0  0  0  0  0  0  0  0  0  0
    0.7378    1.1023    3.3839 C   0  0  0  0  0  0  0  0  0  0  0  0
    1.5597    1.8185    3.4486 H   0  0  0  0  0  0  0  0  0  0  0  0
   -0.0751    1.4257    4.0348 H   0  0  0  0  0  0  0  0  0  0  0  0
    1.1013    0.1271    3.7151 H   0  0  0  0  0  0  0  0  0  0  0  0
  5  6  2  0  0  0  0
  5  7  1  0  0  0  0
  2  3  1  0  0  0  0
  2  4  1  0  0  0  0
  2  5  1  0  0  0  0
  1  2  1  0  0  0  0
 19 20  2  0  0  0  0
 19 21  1  0  0  0  0
 17 18  1  0  0  0  0
 17 19  1  0  0  0  0
 14 15  1  0  0  0  0
 14 16  1  0  0  0  0
 14 17  1  0  0  0  0
 11 12  1  0  0  0  0
 11 13  1  0  0  0  0
 11 14  1  0  0  0  0
  8  9  1  0  0  0  0
  8 10  1  0  0  0  0
  8 11  1  0  0  0  0
  7  8  1  0  0  0  0
  7 17  1  0  0  0  0
 23 24  1  0  0  0  0
 23 25  1  0  0  0  0
 23 26  1  0  0  0  0
 21 22  1  0  0  0  0
 21 23  1  0  0  0  0
M  END
$$$$
default_name
  -OEChem-01062215323D

 26 26  0     1  0  0  0  0  0999 V2000
   -1.8446   -3.5060   -0.3010 H   0  0  0  0  0  0  0  0  0  0  0  0
   -2.0746   -2.4490   -0.4240 C   0  0  0  0  0  0  0  0  0  0  0  0
   -2.6906   -2.1160    0.4090 H   0  0  0  0  0  0  0  0  0  0  0  0
   -2.5986   -2.2980   -1.3650 H   0  0  0  0  0  0  0  0  0  0  0  0
   -0.7756   -1.6630   -0.4350 C   0  0  0  0  0  0  0  0  0  0  0  0
    0.2844   -2.2800   -0.4550 O   0  0  0  0  0  0  0  0  0  0  0  0
   -0.8246   -0.3180   -0.4350 N   0  0  0  0  0  0  0  0  0  0  0  0
   -2.0106    0.5080   -0.5910 C   0  0  0  0  0  0  0  0  0  0  0  0
   -2.2764    1.1290    0.2660 H   0  0  0  0  0  0  0  0  0  0  0  0
   -2.9044    0.0714   -1.0353 H   0  0  0  0  0  0  0  0  0  0  0  0
   -1.2674    1.3443   -1.6305 C   0  0  0  0  0  0  0  0  0  0  0  0
   -1.9071    2.1297   -2.0361 H   0  0  0  0  0  0  0  0  0  0  0  0
   -0.9061    0.6900   -2.4245 H   0  0  0  0  0  0  0  0  0  0  0  0
   -0.0827    1.9176   -0.8529 C   0  0  0  0  0  0  0  0  0  0  0  0
   -0.3686    2.5236    0.0091 H   0  0  0  0  0  0  0  0  0  0  0  0
    0.6903    2.4250   -1.4299 H   0  0  0  0  0  0  0  0  0  0  0  0
    0.3724    0.5200   -0.4020 C   0  0  1  0  0  0  0  0  0  0  0  0
    1.0855    0.1292   -1.1282 H   0  0  0  0  0  0  0  0  0  0  0  0
    1.0225    0.5498    0.9914 C   0  0  0  0  0  0  0  0  0  0  0  0
    2.2352    0.3921    1.1172 O   0  0  0  0  0  0  0  0  0  0  0  0
    0.2063    0.7133    2.0396 N   0  0  0  0  0  0  0  0  0  0  0  0
   -0.7664    0.8954    1.8512 H   0  0  0  0  0  0  0  0  0  0  0  0
    0.6596    0.7563    3.4278 C   0  0  0  0  0  0  0  0  0  0  0  0
    1.2919    1.6341    3.5775 H   0  0  0  0  0  0  0  0  0  0  0  0
   -0.1945    0.8070    4.1038 H   0  0  0  0  0  0  0  0  0  0  0  0
    1.2474   -0.1364    3.6526 H   0  0  0  0  0  0  0  0  0  0  0  0
  5  6  2  0  0  0  0
  5  7  1  0  0  0  0
  2  3  1  0  0  0  0
  2  4  1  0  0  0  0
  2  5  1  0  0  0  0
  1  2  1  0  0  0  0
 19 20  2  0  0  0  0
 19 21  1  0  0  0  0
 17 18  1  0  0  0  0
 17 19  1  0  0  0  0
 14 15  1  0  0  0  0
 14 16  1  0  0  0  0
 14 17  1  0  0  0  0
 11 12  1  0  0  0  0
 11 13  1  0  0  0  0
 11 14  1  0  0  0  0
  8  9  1  0  0  0  0
  8 10  1  0  0  0  0
  8 11  1  0  0  0  0
  7  8  1  0  0  0  0
  7 17  1  0  0  0  0
 23 24  1  0  0  0  0
 23 25  1  0  0  0  0
 23 26  1  0  0  0  0
 21 22  1  0  0  0  0
 21 23  1  0  0  0  0
M  END
$$$$
default_name
  -OEChem-01062215323D

 26 26  0     1  0  0  0  0  0999 V2000
   -1.8446   -3.5060   -0.3010 H   0  0  0  0  0  0  0  0  0  0  0  0
   -2.0746   -2.4490   -0.4240 C   0  0  0  0  0  0  0  0  0  0  0  0
   -2.6906   -2.1160    0.4090 H   0  0  0  0  0  0  0  0  0  0  0  0
   -2.5986   -2.2980   -1.3650 H   0  0  0  0  0  0  0  0  0  0  0  0
   -0.7756   -1.6630   -0.4350 C   0  0  0  0  0  0  0  0  0  0  0  0
    0.2844   -2.2800   -0.4550 O   0  0  0  0  0  0  0  0  0  0  0  0
   -0.8246   -0.3180   -0.4350 N   0  0  0  0  0  0  0  0  0  0  0  0
   -2.0106    0.5080   -0.5910 C   0  0  0  0  0  0  0  0  0  0  0  0
   -2.2764    1.1290    0.2660 H   0  0  0  0  0  0  0  0  0  0  0  0
   -2.9044    0.0714   -1.0353 H   0  0  0  0  0  0  0  0  0  0  0  0
   -1.2674    1.3443   -1.6305 C   0  0  0  0  0  0  0  0  0  0  0  0
   -1.9071    2.1297   -2.0361 H   0  0  0  0  0  0  0  0  0  0  0  0
   -0.9061    0.6900   -2.4245 H   0  0  0  0  0  0  0  0  0  0  0  0
   -0.0827    1.9176   -0.8529 C   0  0  0  0  0  0  0  0  0  0  0  0
   -0.3686    2.5236    0.0091 H   0  0  0  0  0  0  0  0  0  0  0  0
    0.6903    2.4250   -1.4299 H   0  0  0  0  0  0  0  0  0  0  0  0
    0.3724    0.5200   -0.4020 C   0  0  1  0  0  0  0  0  0  0  0  0
    1.0855    0.1292   -1.1282 H   0  0  0  0  0  0  0  0  0  0  0  0
    1.0225    0.5498    0.9914 C   0  0  0  0  0  0  0  0  0  0  0  0
    2.2405    0.6685    1.1089 O   0  0  0  0  0  0  0  0  0  0  0  0
    0.2098    0.4020    2.0446 N   0  0  0  0  0  0  0  0  0  0  0  0
   -0.7818    0.3701    1.8696 H   0  0  0  0  0  0  0  0  0  0  0  0
    0.6654    0.3989    3.4328 C   0  0  0  0  0  0  0  0  0  0  0  0
    1.0772    1.3790    3.6831 H   0  0  0  0  0  0  0  0  0  0  0  0
   -0.1645    0.1738    4.1033 H   0  0  0  0  0  0  0  0  0  0  0  0
    1.4499   -0.3498    3.5627 H   0  0  0  0  0  0  0  0  0  0  0  0
  5  6  2  0  0  0  0
  5  7  1  0  0  0  0
  2  3  1  0  0  0  0
  2  4  1  0  0  0  0
  2  5  1  0  0  0  0
  1  2  1  0  0  0  0
 19 20  2  0  0  0  0
 19 21  1  0  0  0  0
 17 18  1  0  0  0  0
 17 19  1  0  0  0  0
 14 15  1  0  0  0  0
 14 16  1  0  0  0  0
 14 17  1  0  0  0  0
 11 12  1  0  0  0  0
 11 13  1  0  0  0  0
 11 14  1  0  0  0  0
  8  9  1  0  0  0  0
  8 10  1  0  0  0  0
  8 11  1  0  0  0  0
  7  8  1  0  0  0  0
  7 17  1  0  0  0  0
 23 24  1  0  0  0  0
 23 25  1  0  0  0  0
 23 26  1  0  0  0  0
 21 22  1  0  0  0  0
 21 23  1  0  0  0  0
M  END
$$$$
default_name
  -OEChem-01062215323D

 26 26  0     1  0  0  0  0  0999 V2000
   -1.8446   -3.5060   -0.3010 H   0  0  0  0  0  0  0  0  0  0  0  0
   -2.0746   -2.4490   -0.4240 C   0  0  0  0  0  0  0  0  0  0  0  0
   -2.6906   -2.1160    0.4090 H   0  0  0  0  0  0  0  0  0  0  0  0
   -2.5986   -2.2980   -1.3650 H   0  0  0  0  0  0  0  0  0  0  0  0
   -0.7756   -1.6630   -0.4350 C   0  0  0  0  0  0  0  0  0  0  0  0
    0.2844   -2.2800   -0.4550 O   0  0  0  0  0  0  0  0  0  0  0  0
   -0.8246   -0.3180   -0.4350 N   0  0  0  0  0  0  0  0  0  0  0  0
   -2.0106    0.5080   -0.5910 C   0  0  0  0  0  0  0  0  0  0  0  0
   -2.2764    1.1290    0.2660 H   0  0  0  0  0  0  0  0  0  0  0  0
   -2.9044    0.0714   -1.0353 H   0  0  0  0  0  0  0  0  0  0  0  0
   -1.2674    1.3443   -1.6305 C   0  0  0  0  0  0  0  0  0  0  0  0
   -1.9071    2.1297   -2.0361 H   0  0  0  0  0  0  0  0  0  0  0  0
   -0.9061    0.6900   -2.4245 H   0  0  0  0  0  0  0  0  0  0  0  0
   -0.0827    1.9176   -0.8529 C   0  0  0  0  0  0  0  0  0  0  0  0
   -0.3686    2.5236    0.0091 H   0  0  0  0  0  0  0  0  0  0  0  0
    0.6903    2.4250   -1.4299 H   0  0  0  0  0  0  0  0  0  0  0  0
    0.3724    0.5200   -0.4020 C   0  0  1  0  0  0  0  0  0  0  0  0
    1.0855    0.1292   -1.1282 H   0  0  0  0  0  0  0  0  0  0  0  0
    1.0225    0.5498    0.9914 C   0  0  0  0  0  0  0  0  0  0  0  0
    2.1807    0.9376    1.1310 O   0  0  0  0  0  0  0  0  0  0  0  0
    0.2862    0.1016    2.0154 N   0  0  0  0  0  0  0  0  0  0  0  0
   -0.6733   -0.1430    1.8300 H   0  0  0  0  0  0  0  0  0  0  0  0
    0.7549    0.0546    3.3984 C   0  0  0  0  0  0  0  0  0  0  0  0
    0.9301    1.0707    3.7584 H   0  0  0  0  0  0  0  0  0  0  0  0
    0.0131   -0.4306    4.0335 H   0  0  0  0  0  0  0  0  0  0  0  0
    1.6951   -0.4986    3.4514 H   0  0  0  0  0  0  0  0  0  0  0  0
  5  6  2  0  0  0  0
  5  7  1  0  0  0  0
  2  3  1  0  0  0  0
  2  4  1  0  0  0  0
  2  5  1  0  0  0  0
  1  2  1  0  0  0  0
 19 20  2  0  0  0  0
 19 21  1  0  0  0  0
 17 18  1  0  0  0  0
 17 19  1  0  0  0  0
 14 15  1  0  0  0  0
 14 16  1  0  0  0  0
 14 17  1  0  0  0  0
 11 12  1  0  0  0  0
 11 13  1  0  0  0  0
 11 14  1  0  0  0  0
  8  9  1  0  0  0  0
  8 10  1  0  0  0  0
  8 11  1  0  0  0  0
  7  8  1  0  0  0  0
  7 17  1  0  0  0  0
 23 24  1  0  0  0  0
 23 25  1  0  0  0  0
 23 26  1  0  0  0  0
 21 22  1  0  0  0  0
 21 23  1  0  0  0  0
M  END
$$$$
default_name
  -OEChem-01062215323D

 26 26  0     1  0  0  0  0  0999 V2000
   -1.8446   -3.5060   -0.3010 H   0  0  0  0  0  0  0  0  0  0  0  0
   -2.0746   -2.4490   -0.4240 C   0  0  0  0  0  0  0  0  0  0  0  0
   -2.6906   -2.1160    0.4090 H   0  0  0  0  0  0  0  0  0  0  0  0
   -2.5986   -2.2980   -1.3650 H   0  0  0  0  0  0  0  0  0  0  0  0
   -0.7756   -1.6630   -0.4350 C   0  0  0  0  0  0  0  0  0  0  0  0
    0.2844   -2.2800   -0.4550 O   0  0  0  0  0  0  0  0  0  0  0  0
   -0.8246   -0.3180   -0.4350 N   0  0  0  0  0  0  0  0  0  0  0  0
   -2.0106    0.5080   -0.5910 C   0  0  0  0  0  0  0  0  0  0  0  0
   -2.2764    1.1290    0.2660 H   0  0  0  0  0  0  0  0  0  0  0  0
   -2.9044    0.0714   -1.0353 H   0  0  0  0  0  0  0  0  0  0  0  0
   -1.2674    1.3443   -1.6305 C   0  0  0  0  0  0  0  0  0  0  0  0
   -1.9071    2.1297   -2.0361 H   0  0  0  0  0  0  0  0  0  0  0  0
   -0.9061    0.6900   -2.4245 H   0  0  0  0  0  0  0  0  0  0  0  0
   -0.0827    1.9176   -0.8529 C   0  0  0  0  0  0  0  0  0  0  0  0
   -0.3686    2.5236    0.0091 H   0  0  0  0  0  0  0  0  0  0  0  0
    0.6903    2.4250   -1.4299 H   0  0  0  0  0  0  0  0  0  0  0  0
    0.3724    0.5200   -0.4020 C   0  0  1  0  0  0  0  0  0  0  0  0
    1.0855    0.1292   -1.1282 H   0  0  0  0  0  0  0  0  0  0  0  0
    1.0225    0.5498    0.9914 C   0  0  0  0  0  0  0  0  0  0  0  0
    2.0600    1.1812    1.1821 O   0  0  0  0  0  0  0  0  0  0  0  0
    0.4303   -0.1674    1.9539 N   0  0  0  0  0  0  0  0  0  0  0  0
   -0.4484   -0.6088    1.7351 H   0  0  0  0  0  0  0  0  0  0  0  0
    0.9219   -0.2533    3.3271 C   0  0  0  0  0  0  0  0  0  0  0  0
    0.8607    0.7301    3.7980 H   0  0  0  0  0  0  0  0  0  0  0  0
    0.3260   -0.9653    3.8989 H   0  0  0  0  0  0  0  0  0  0  0  0
    1.9664   -0.5727    3.3265 H   0  0  0  0  0  0  0  0  0  0  0  0
  5  6  2  0  0  0  0
  5  7  1  0  0  0  0
  2  3  1  0  0  0  0
  2  4  1  0  0  0  0
  2  5  1  0  0  0  0
  1  2  1  0  0  0  0
 19 20  2  0  0  0  0
 19 21  1  0  0  0  0
 17 18  1  0  0  0  0
 17 19  1  0  0  0  0
 14 15  1  0  0  0  0
 14 16  1  0  0  0  0
 14 17  1  0  0  0  0
 11 12  1  0  0  0  0
 11 13  1  0  0  0  0
 11 14  1  0  0  0  0
  8  9  1  0  0  0  0
  8 10  1  0  0  0  0
  8 11  1  0  0  0  0
  7  8  1  0  0  0  0
  7 17  1  0  0  0  0
 23 24  1  0  0  0  0
 23 25  1  0  0  0  0
 23 26  1  0  0  0  0
 21 22  1  0  0  0  0
 21 23  1  0  0  0  0
M  END
$$$$
default_name
  -OEChem-01062215323D

 26 26  0     1  0  0  0  0  0999 V2000
   -1.8446   -3.5060   -0.3010 H   0  0  0  0  0  0  0  0  0  0  0  0
   -2.0746   -2.4490   -0.4240 C   0  0  0  0  0  0  0  0  0  0  0  0
   -2.6906   -2.1160    0.4090 H   0  0  0  0  0  0  0  0  0  0  0  0
   -2.5986   -2.2980   -1.3650 H   0  0  0  0  0  0  0  0  0  0  0  0
   -0.7756   -1.6630   -0.4350 C   0  0  0  0  0  0  0  0  0  0  0  0
    0.2844   -2.2800   -0.4550 O   0  0  0  0  0  0  0  0  0  0  0  0
   -0.8246   -0.3180   -0.4350 N   0  0  0  0  0  0  0  0  0  0  0  0
   -2.0106    0.5080   -0.5910 C   0  0  0  0  0  0  0  0  0  0  0  0
   -2.2764    1.1290    0.2660 H   0  0  0  0  0  0  0  0  0  0  0  0
   -2.9044    0.0714   -1.0353 H   0  0  0  0  0  0  0  0  0  0  0  0
   -1.2674    1.3443   -1.6305 C   0  0  0  0  0  0  0  0  0  0  0  0
   -1.9071    2.1297   -2.0361 H   0  0  0  0  0  0  0  0  0  0  0  0
   -0.9061    0.6900   -2.4245 H   0  0  0  0  0  0  0  0  0  0  0  0
   -0.0827    1.9176   -0.8529 C   0  0  0  0  0  0  0  0  0  0  0  0
   -0.3686    2.5236    0.0091 H   0  0  0  0  0  0  0  0  0  0  0  0
    0.6903    2.4250   -1.4299 H   0  0  0  0  0  0  0  0  0  0  0  0
    0.3724    0.5200   -0.4020 C   0  0  1  0  0  0  0  0  0  0  0  0
    1.0855    0.1292   -1.1282 H   0  0  0  0  0  0  0  0  0  0  0  0
    1.0225    0.5498    0.9914 C   0  0  0  0  0  0  0  0  0  0  0  0
    1.8866    1.3825    1.2587 O   0  0  0  0  0  0  0  0  0  0  0  0
    0.6323   -0.3867    1.8644 N   0  0  0  0  0  0  0  0  0  0  0  0
   -0.1224   -0.9956    1.5913 H   0  0  0  0  0  0  0  0  0  0  0  0
    1.1550   -0.5037    3.2237 C   0  0  0  0  0  0  0  0  0  0  0  0
    0.8737    0.3806    3.7995 H   0  0  0  0  0  0  0  0  0  0  0  0
    0.7529   -1.3936    3.7089 H   0  0  0  0  0  0  0  0  0  0  0  0
    2.2451   -0.5669    3.1963 H   0  0  0  0  0  0  0  0  0  0  0  0
  5  6  2  0  0  0  0
  5  7  1  0  0  0  0
  2  3  1  0  0  0  0
  2  4  1  0  0  0  0
  2  5  1  0  0  0  0
  1  2  1  0  0  0  0
 19 20  2  0  0  0  0
 19 21  1  0  0  0  0
 17 18  1  0  0  0  0
 17 19  1  0  0  0  0
 14 15  1  0  0  0  0
 14 16  1  0  0  0  0
 14 17  1  0  0  0  0
 11 12  1  0  0  0  0
 11 13  1  0  0  0  0
 11 14  1  0  0  0  0
  8  9  1  0  0  0  0
  8 10  1  0  0  0  0
  8 11  1  0  0  0  0
  7  8  1  0  0  0  0
  7 17  1  0  0  0  0
 23 24  1  0  0  0  0
 23 25  1  0  0  0  0
 23 26  1  0  0  0  0
 21 22  1  0  0  0  0
 21 23  1  0  0  0  0
M  END
$$$$
default_name
  -OEChem-01062215323D

 26 26  0     1  0  0  0  0  0999 V2000
   -1.8446   -3.5060   -0.3010 H   0  0  0  0  0  0  0  0  0  0  0  0
   -2.0746   -2.4490   -0.4240 C   0  0  0  0  0  0  0  0  0  0  0  0
   -2.6906   -2.1160    0.4090 H   0  0  0  0  0  0  0  0  0  0  0  0
   -2.5986   -2.2980   -1.3650 H   0  0  0  0  0  0  0  0  0  0  0  0
   -0.7756   -1.6630   -0.4350 C   0  0  0  0  0  0  0  0  0  0  0  0
    0.2844   -2.2800   -0.4550 O   0  0  0  0  0  0  0  0  0  0  0  0
   -0.8246   -0.3180   -0.4350 N   0  0  0  0  0  0  0  0  0  0  0  0
   -2.0106    0.5080   -0.5910 C   0  0  0  0  0  0  0  0  0  0  0  0
   -2.2764    1.1290    0.2660 H   0  0  0  0  0  0  0  0  0  0  0  0
   -2.9044    0.0714   -1.0353 H   0  0  0  0  0  0  0  0  0  0  0  0
   -1.2674    1.3443   -1.6305 C   0  0  0  0  0  0  0  0  0  0  0  0
   -1.9071    2.1297   -2.0361 H   0  0  0  0  0  0  0  0  0  0  0  0
   -0.9061    0.6900   -2.4245 H   0  0  0  0  0  0  0  0  0  0  0  0
   -0.0827    1.9176   -0.8529 C   0  0  0  0  0  0  0  0  0  0  0  0
   -0.3686    2.5236    0.0091 H   0  0  0  0  0  0  0  0  0  0  0  0
    0.6903    2.4250   -1.4299 H   0  0  0  0  0  0  0  0  0  0  0  0
    0.3724    0.5200   -0.4020 C   0  0  1  0  0  0  0  0  0  0  0  0
    1.0855    0.1292   -1.1282 H   0  0  0  0  0  0  0  0  0  0  0  0
    1.0225    0.5498    0.9914 C   0  0  0  0  0  0  0  0  0  0  0  0
    1.6722    1.5279    1.3556 O   0  0  0  0  0  0  0  0  0  0  0  0
    0.8784   -0.5415    1.7529 N   0  0  0  0  0  0  0  0  0  0  0  0
    0.2824   -1.2770    1.4084 H   0  0  0  0  0  0  0  0  0  0  0  0
    1.4385   -0.6796    3.0952 C   0  0  0  0  0  0  0  0  0  0  0  0
    0.9683    0.0459    3.7625 H   0  0  0  0  0  0  0  0  0  0  0  0
    1.2647   -1.6864    3.4764 H   0  0  0  0  0  0  0  0  0  0  0  0
    2.5123   -0.4818    3.0698 H   0  0  0  0  0  0  0  0  0  0  0  0
  5  6  2  0  0  0  0
  5  7  1  0  0  0  0
  2  3  1  0  0  0  0
  2  4  1  0  0  0  0
  2  5  1  0  0  0  0
  1  2  1  0  0  0  0
 19 20  2  0  0  0  0
 19 21  1  0  0  0  0
 17 18  1  0  0  0  0
 17 19  1  0  0  0  0
 14 15  1  0  0  0  0
 14 16  1  0  0  0  0
 14 17  1  0  0  0  0
 11 12  1  0  0  0  0
 11 13  1  0  0  0  0
 11 14  1  0  0  0  0
  8  9  1  0  0  0  0
  8 10  1  0  0  0  0
  8 11  1  0  0  0  0
  7  8  1  0  0  0  0
  7 17  1  0  0  0  0
 23 24  1  0  0  0  0
 23 25  1  0  0  0  0
 23 26  1  0  0  0  0
 21 22  1  0  0  0  0
 21 23  1  0  0  0  0
M  END
$$$$
default_name
  -OEChem-01062215323D

 26 26  0     1  0  0  0  0  0999 V2000
   -1.8446   -3.5060   -0.3010 H   0  0  0  0  0  0  0  0  0  0  0  0
   -2.0746   -2.4490   -0.4240 C   0  0  0  0  0  0  0  0  0  0  0  0
   -2.6906   -2.1160    0.4090 H   0  0  0  0  0  0  0  0  0  0  0  0
   -2.5986   -2.2980   -1.3650 H   0  0  0  0  0  0  0  0  0  0  0  0
   -0.7756   -1.6630   -0.4350 C   0  0  0  0  0  0  0  0  0  0  0  0
    0.2844   -2.2800   -0.4550 O   0  0  0  0  0  0  0  0  0  0  0  0
   -0.8246   -0.3180   -0.4350 N   0  0  0  0  0  0  0  0  0  0  0  0
   -2.0106    0.5080   -0.5910 C   0  0  0  0  0  0  0  0  0  0  0  0
   -2.2764    1.1290    0.2660 H   0  0  0  0  0  0  0  0  0  0  0  0
   -2.9044    0.0714   -1.0353 H   0  0  0  0  0  0  0  0  0  0  0  0
   -1.2674    1.3443   -1.6305 C   0  0  0  0  0  0  0  0  0  0  0  0
   -1.9071    2.1297   -2.0361 H   0  0  0  0  0  0  0  0  0  0  0  0
   -0.9061    0.6900   -2.4245 H   0  0  0  0  0  0  0  0  0  0  0  0
   -0.0827    1.9176   -0.8529 C   0  0  0  0  0  0  0  0  0  0  0  0
   -0.3686    2.5236    0.0091 H   0  0  0  0  0  0  0  0  0  0  0  0
    0.6903    2.4250   -1.4299 H   0  0  0  0  0  0  0  0  0  0  0  0
    0.3724    0.5200   -0.4020 C   0  0  1  0  0  0  0  0  0  0  0  0
    1.0855    0.1292   -1.1282 H   0  0  0  0  0  0  0  0  0  0  0  0
    1.0225    0.5498    0.9914 C   0  0  0  0  0  0  0  0  0  0  0  0
    1.4315    1.6075    1.4662 O   0  0  0  0  0  0  0  0  0  0  0  0
    1.1518   -0.6210    1.6270 N   0  0  0  0  0  0  0  0  0  0  0  0
    0.7386   -1.4339    1.1989 H   0  0  0  0  0  0  0  0  0  0  0  0
    1.7528   -0.7690    2.9504 C   0  0  0  0  0  0  0  0  0  0  0  0
    1.1379   -0.2512    3.6897 H   0  0  0  0  0  0  0  0  0  0  0  0
    1.8266   -1.8238    3.2171 H   0  0  0  0  0  0  0  0  0  0  0  0
    2.7498   -0.3231    2.9556 H   0  0  0  0  0  0  0  0  0  0  0  0
  5  6  2  0  0  0  0
  5  7  1  0  0  0  0
  2  3  1  0  0  0  0
  2  4  1  0  0  0  0
  2  5  1  0  0  0  0
  1  2  1  0  0  0  0
 19 20  2  0  0  0  0
 19 21  1  0  0  0  0
 17 18  1  0  0  0  0
 17 19  1  0  0  0  0
 14 15  1  0  0  0  0
 14 16  1  0  0  0  0
 14 17  1  0  0  0  0
 11 12  1  0  0  0  0
 11 13  1  0  0  0  0
 11 14  1  0  0  0  0
  8  9  1  0  0  0  0
  8 10  1  0  0  0  0
  8 11  1  0  0  0  0
  7  8  1  0  0  0  0
  7 17  1  0  0  0  0
 23 24  1  0  0  0  0
 23 25  1  0  0  0  0
 23 26  1  0  0  0  0
 21 22  1  0  0  0  0
 21 23  1  0  0  0  0
M  END
$$$$
default_name
  -OEChem-01062215323D

 26 26  0     1  0  0  0  0  0999 V2000
   -1.8446   -3.5060   -0.3010 H   0  0  0  0  0  0  0  0  0  0  0  0
   -2.0746   -2.4490   -0.4240 C   0  0  0  0  0  0  0  0  0  0  0  0
   -2.6906   -2.1160    0.4090 H   0  0  0  0  0  0  0  0  0  0  0  0
   -2.5986   -2.2980   -1.3650 H   0  0  0  0  0  0  0  0  0  0  0  0
   -0.7756   -1.6630   -0.4350 C   0  0  0  0  0  0  0  0  0  0  0  0
    0.2844   -2.2800   -0.4550 O   0  0  0  0  0  0  0  0  0  0  0  0
   -0.8246   -0.3180   -0.4350 N   0  0  0  0  0  0  0  0  0  0  0  0
   -2.0106    0.5080   -0.5910 C   0  0  0  0  0  0  0  0  0  0  0  0
   -2.2764    1.1290    0.2660 H   0  0  0  0  0  0  0  0  0  0  0  0
   -2.9044    0.0714   -1.0353 H   0  0  0  0  0  0  0  0  0  0  0  0
   -1.2674    1.3443   -1.6305 C   0  0  0  0  0  0  0  0  0  0  0  0
   -1.9071    2.1297   -2.0361 H   0  0  0  0  0  0  0  0  0  0  0  0
   -0.9061    0.6900   -2.4245 H   0  0  0  0  0  0  0  0  0  0  0  0
   -0.0827    1.9176   -0.8529 C   0  0  0  0  0  0  0  0  0  0  0  0
   -0.3686    2.5236    0.0091 H   0  0  0  0  0  0  0  0  0  0  0  0
    0.6903    2.4250   -1.4299 H   0  0  0  0  0  0  0  0  0  0  0  0
    0.3724    0.5200   -0.4020 C   0  0  1  0  0  0  0  0  0  0  0  0
    1.0855    0.1292   -1.1282 H   0  0  0  0  0  0  0  0  0  0  0  0
    1.0225    0.5498    0.9914 C   0  0  0  0  0  0  0  0  0  0  0  0
    1.1809    1.6158    1.5829 O   0  0  0  0  0  0  0  0  0  0  0  0
    1.4339   -0.6199    1.4954 N   0  0  0  0  0  0  0  0  0  0  0  0
    1.2149   -1.4556    0.9771 H   0  0  0  0  0  0  0  0  0  0  0  0
    2.0767   -0.7658    2.7993 C   0  0  0  0  0  0  0  0  0  0  0  0
    1.3711   -0.4904    3.5861 H   0  0  0  0  0  0  0  0  0  0  0  0
    2.4003   -1.7963    2.9489 H   0  0  0  0  0  0  0  0  0  0  0  0
    2.9414   -0.1015    2.8614 H   0  0  0  0  0  0  0  0  0  0  0  0
  5  6  2  0  0  0  0
  5  7  1  0  0  0  0
  2  3  1  0  0  0  0
  2  4  1  0  0  0  0
  2  5  1  0  0  0  0
  1  2  1  0  0  0  0
 19 20  2  0  0  0  0
 19 21  1  0  0  0  0
 17 18  1  0  0  0  0
 17 19  1  0  0  0  0
 14 15  1  0  0  0  0
 14 16  1  0  0  0  0
 14 17  1  0  0  0  0
 11 12  1  0  0  0  0
 11 13  1  0  0  0  0
 11 14  1  0  0  0  0
  8  9  1  0  0  0  0
  8 10  1  0  0  0  0
  8 11  1  0  0  0  0
  7  8  1  0  0  0  0
  7 17  1  0  0  0  0
 23 24  1  0  0  0  0
 23 25  1  0  0  0  0
 23 26  1  0  0  0  0
 21 22  1  0  0  0  0
 21 23  1  0  0  0  0
M  END
$$$$
default_name
  -OEChem-01062215323D

 26 26  0     1  0  0  0  0  0999 V2000
   -1.8446   -3.5060   -0.3010 H   0  0  0  0  0  0  0  0  0  0  0  0
   -2.0746   -2.4490   -0.4240 C   0  0  0  0  0  0  0  0  0  0  0  0
   -2.6906   -2.1160    0.4090 H   0  0  0  0  0  0  0  0  0  0  0  0
   -2.5986   -2.2980   -1.3650 H   0  0  0  0  0  0  0  0  0  0  0  0
   -0.7756   -1.6630   -0.4350 C   0  0  0  0  0  0  0  0  0  0  0  0
    0.2844   -2.2800   -0.4550 O   0  0  0  0  0  0  0  0  0  0  0  0
   -0.8246   -0.3180   -0.4350 N   0  0  0  0  0  0  0  0  0  0  0  0
   -2.0106    0.5080   -0.5910 C   0  0  0  0  0  0  0  0  0  0  0  0
   -2.2764    1.1290    0.2660 H   0  0  0  0  0  0  0  0  0  0  0  0
   -2.9044    0.0714   -1.0353 H   0  0  0  0  0  0  0  0  0  0  0  0
   -1.2674    1.3443   -1.6305 C   0  0  0  0  0  0  0  0  0  0  0  0
   -1.9071    2.1297   -2.0361 H   0  0  0  0  0  0  0  0  0  0  0  0
   -0.9061    0.6900   -2.4245 H   0  0  0  0  0  0  0  0  0  0  0  0
   -0.0827    1.9176   -0.8529 C   0  0  0  0  0  0  0  0  0  0  0  0
   -0.3686    2.5236    0.0091 H   0  0  0  0  0  0  0  0  0  0  0  0
    0.6903    2.4250   -1.4299 H   0  0  0  0  0  0  0  0  0  0  0  0
    0.3724    0.5200   -0.4020 C   0  0  1  0  0  0  0  0  0  0  0  0
    1.0855    0.1292   -1.1282 H   0  0  0  0  0  0  0  0  0  0  0  0
    1.0225    0.5498    0.9914 C   0  0  0  0  0  0  0  0  0  0  0  0
    0.9375    1.5523    1.6979 O   0  0  0  0  0  0  0  0  0  0  0  0
    1.7055   -0.5384    1.3669 N   0  0  0  0  0  0  0  0  0  0  0  0
    1.6790   -1.3406    0.7582 H   0  0  0  0  0  0  0  0  0  0  0  0
    2.3880   -0.6702    2.6520 C   0  0  0  0  0  0  0  0  0  0  0  0
    1.6519   -0.6555    3.4586 H   0  0  0  0  0  0  0  0  0  0  0  0
    2.9467   -1.6059    2.6899 H   0  0  0  0  0  0  0  0  0  0  0  0
    3.0741    0.1677    2.7938 H   0  0  0  0  0  0  0  0  0  0  0  0
  5  6  2  0  0  0  0
  5  7  1  0  0  0  0
  2  3  1  0  0  0  0
  2  4  1  0  0  0  0
  2  5  1  0  0  0  0
  1  2  1  0  0  0  0
 19 20  2  0  0  0  0
 19 21  1  0  0  0  0
 17 18  1  0  0  0  0
 17 19  1  0  0  0  0
 14 15  1  0  0  0  0
 14 16  1  0  0  0  0
 14 17  1  0  0  0  0
 11 12  1  0  0  0  0
 11 13  1  0  0  0  0
 11 14  1  0  0  0  0
  8  9  1  0  0  0  0
  8 10  1  0  0  0  0
  8 11  1  0  0  0  0
  7  8  1  0  0  0  0
  7 17  1  0  0  0  0
 23 24  1  0  0  0  0
 23 25  1  0  0  0  0
 23 26  1  0  0  0  0
 21 22  1  0  0  0  0
 21 23  1  0  0  0  0
M  END
$$$$
default_name
  -OEChem-01062215323D

 26 26  0     1  0  0  0  0  0999 V2000
   -1.8446   -3.5060   -0.3010 H   0  0  0  0  0  0  0  0  0  0  0  0
   -2.0746   -2.4490   -0.4240 C   0  0  0  0  0  0  0  0  0  0  0  0
   -2.6906   -2.1160    0.4090 H   0  0  0  0  0  0  0  0  0  0  0  0
   -2.5986   -2.2980   -1.3650 H   0  0  0  0  0  0  0  0  0  0  0  0
   -0.7756   -1.6630   -0.4350 C   0  0  0  0  0  0  0  0  0  0  0  0
    0.2844   -2.2800   -0.4550 O   0  0  0  0  0  0  0  0  0  0  0  0
   -0.8246   -0.3180   -0.4350 N   0  0  0  0  0  0  0  0  0  0  0  0
   -2.0106    0.5080   -0.5910 C   0  0  0  0  0  0  0  0  0  0  0  0
   -2.2764    1.1290    0.2660 H   0  0  0  0  0  0  0  0  0  0  0  0
   -2.9044    0.0714   -1.0353 H   0  0  0  0  0  0  0  0  0  0  0  0
   -1.2674    1.3443   -1.6305 C   0  0  0  0  0  0  0  0  0  0  0  0
   -1.9071    2.1297   -2.0361 H   0  0  0  0  0  0  0  0  0  0  0  0
   -0.9061    0.6900   -2.4245 H   0  0  0  0  0  0  0  0  0  0  0  0
   -0.0827    1.9176   -0.8529 C   0  0  0  0  0  0  0  0  0  0  0  0
   -0.3686    2.5236    0.0091 H   0  0  0  0  0  0  0  0  0  0  0  0
    0.6903    2.4250   -1.4299 H   0  0  0  0  0  0  0  0  0  0  0  0
    0.3724    0.5200   -0.4020 C   0  0  1  0  0  0  0  0  0  0  0  0
    1.0855    0.1292   -1.1282 H   0  0  0  0  0  0  0  0  0  0  0  0
    1.0225    0.5498    0.9914 C   0  0  0  0  0  0  0  0  0  0  0  0
    0.7178    1.4214    1.8032 O   0  0  0  0  0  0  0  0  0  0  0  0
    1.9480   -0.3818    1.2504 N   0  0  0  0  0  0  0  0  0  0  0  0
    2.0992   -1.0967    0.5569 H   0  0  0  0  0  0  0  0  0  0  0  0
    2.6656   -0.4888    2.5186 C   0  0  0  0  0  0  0  0  0  0  0  0
    1.9612   -0.7351    3.3160 H   0  0  0  0  0  0  0  0  0  0  0  0
    3.4284   -1.2656    2.4578 H   0  0  0  0  0  0  0  0  0  0  0  0
    3.1387    0.4663    2.7572 H   0  0  0  0  0  0  0  0  0  0  0  0
  5  6  2  0  0  0  0
  5  7  1  0  0  0  0
  2  3  1  0  0  0  0
  2  4  1  0  0  0  0
  2  5  1  0  0  0  0
  1  2  1  0  0  0  0
 19 20  2  0  0  0  0
 19 21  1  0  0  0  0
 17 18  1  0  0  0  0
 17 19  1  0  0  0  0
 14 15  1  0  0  0  0
 14 16  1  0  0  0  0
 14 17  1  0  0  0  0
 11 12  1  0  0  0  0
 11 13  1  0  0  0  0
 11 14  1  0  0  0  0
  8  9  1  0  0  0  0
  8 10  1  0  0  0  0
  8 11  1  0  0  0  0
  7  8  1  0  0  0  0
  7 17  1  0  0  0  0
 23 24  1  0  0  0  0
 23 25  1  0  0  0  0
 23 26  1  0  0  0  0
 21 22  1  0  0  0  0
 21 23  1  0  0  0  0
M  END
$$$$
default_name
  -OEChem-01062215323D

 26 26  0     1  0  0  0  0  0999 V2000
   -1.8446   -3.5060   -0.3010 H   0  0  0  0  0  0  0  0  0  0  0  0
   -2.0746   -2.4490   -0.4240 C   0  0  0  0  0  0  0  0  0  0  0  0
   -2.6906   -2.1160    0.4090 H   0  0  0  0  0  0  0  0  0  0  0  0
   -2.5986   -2.2980   -1.3650 H   0  0  0  0  0  0  0  0  0  0  0  0
   -0.7756   -1.6630   -0.4350 C   0  0  0  0  0  0  0  0  0  0  0  0
    0.2844   -2.2800   -0.4550 O   0  0  0  0  0  0  0  0  0  0  0  0
   -0.8246   -0.3180   -0.4350 N   0  0  0  0  0  0  0  0  0  0  0  0
   -2.0106    0.5080   -0.5910 C   0  0  0  0  0  0  0  0  0  0  0  0
   -2.2764    1.1290    0.2660 H   0  0  0  0  0  0  0  0  0  0  0  0
   -2.9044    0.0714   -1.0353 H   0  0  0  0  0  0  0  0  0  0  0  0
   -1.2674    1.3443   -1.6305 C   0  0  0  0  0  0  0  0  0  0  0  0
   -1.9071    2.1297   -2.0361 H   0  0  0  0  0  0  0  0  0  0  0  0
   -0.9061    0.6900   -2.4245 H   0  0  0  0  0  0  0  0  0  0  0  0
   -0.0827    1.9176   -0.8529 C   0  0  0  0  0  0  0  0  0  0  0  0
   -0.3686    2.5236    0.0091 H   0  0  0  0  0  0  0  0  0  0  0  0
    0.6903    2.4250   -1.4299 H   0  0  0  0  0  0  0  0  0  0  0  0
    0.3724    0.5200   -0.4020 C   0  0  1  0  0  0  0  0  0  0  0  0
    1.0855    0.1292   -1.1282 H   0  0  0  0  0  0  0  0  0  0  0  0
    1.0225    0.5498    0.9914 C   0  0  0  0  0  0  0  0  0  0  0  0
    0.5369    1.2318    1.8916 O   0  0  0  0  0  0  0  0  0  0  0  0
    2.1450   -0.1610    1.1538 N   0  0  0  0  0  0  0  0  0  0  0  0
    2.4469   -0.7405    0.3870 H   0  0  0  0  0  0  0  0  0  0  0  0
    2.8905   -0.2338    2.4082 C   0  0  0  0  0  0  0  0  0  0  0  0
    2.2779   -0.7239    3.1680 H   0  0  0  0  0  0  0  0  0  0  0  0
    3.8128   -0.7984    2.2685 H   0  0  0  0  0  0  0  0  0  0  0  0
    3.1310    0.7738    2.7542 H   0  0  0  0  0  0  0  0  0  0  0  0
  5  6  2  0  0  0  0
  5  7  1  0  0  0  0
  2  3  1  0  0  0  0
  2  4  1  0  0  0  0
  2  5  1  0  0  0  0
  1  2  1  0  0  0  0
 19 20  2  0  0  0  0
 19 21  1  0  0  0  0
 17 18  1  0  0  0  0
 17 19  1  0  0  0  0
 14 15  1  0  0  0  0
 14 16  1  0  0  0  0
 14 17  1  0  0  0  0
 11 12  1  0  0  0  0
 11 13  1  0  0  0  0
 11 14  1  0  0  0  0
  8  9  1  0  0  0  0
  8 10  1  0  0  0  0
  8 11  1  0  0  0  0
  7  8  1  0  0  0  0
  7 17  1  0  0  0  0
 23 24  1  0  0  0  0
 23 25  1  0  0  0  0
 23 26  1  0  0  0  0
 21 22  1  0  0  0  0
 21 23  1  0  0  0  0
M  END
$$$$
default_name
  -OEChem-01062215323D

 26 26  0     1  0  0  0  0  0999 V2000
   -1.8446   -3.5060   -0.3010 H   0  0  0  0  0  0  0  0  0  0  0  0
   -2.0746   -2.4490   -0.4240 C   0  0  0  0  0  0  0  0  0  0  0  0
   -2.6906   -2.1160    0.4090 H   0  0  0  0  0  0  0  0  0  0  0  0
   -2.5986   -2.2980   -1.3650 H   0  0  0  0  0  0  0  0  0  0  0  0
   -0.7756   -1.6630   -0.4350 C   0  0  0  0  0  0  0  0  0  0  0  0
    0.2844   -2.2800   -0.4550 O   0  0  0  0  0  0  0  0  0  0  0  0
   -0.8246   -0.3180   -0.4350 N   0  0  0  0  0  0  0  0  0  0  0  0
   -2.0106    0.5080   -0.5910 C   0  0  0  0  0  0  0  0  0  0  0  0
   -2.2764    1.1290    0.2660 H   0  0  0  0  0  0  0  0  0  0  0  0
   -2.9044    0.0714   -1.0353 H   0  0  0  0  0  0  0  0  0  0  0  0
   -1.2674    1.3443   -1.6305 C   0  0  0  0  0  0  0  0  0  0  0  0
   -1.9071    2.1297   -2.0361 H   0  0  0  0  0  0  0  0  0  0  0  0
   -0.9061    0.6900   -2.4245 H   0  0  0  0  0  0  0  0  0  0  0  0
   -0.0827    1.9176   -0.8529 C   0  0  0  0  0  0  0  0  0  0  0  0
   -0.3686    2.5236    0.0091 H   0  0  0  0  0  0  0  0  0  0  0  0
    0.6903    2.4250   -1.4299 H   0  0  0  0  0  0  0  0  0  0  0  0
    0.3724    0.5200   -0.4020 C   0  0  1  0  0  0  0  0  0  0  0  0
    1.0855    0.1292   -1.1282 H   0  0  0  0  0  0  0  0  0  0  0  0
    1.0225    0.5498    0.9914 C   0  0  0  0  0  0  0  0  0  0  0  0
    0.4070    0.9966    1.9573 O   0  0  0  0  0  0  0  0  0  0  0  0
    2.2830    0.1091    1.0836 N   0  0  0  0  0  0  0  0  0  0  0  0
    2.6983   -0.2964    0.2602 H   0  0  0  0  0  0  0  0  0  0  0  0
    3.0473    0.0773    2.3283 C   0  0  0  0  0  0  0  0  0  0  0  0
    2.5805   -0.6227    3.0246 H   0  0  0  0  0  0  0  0  0  0  0  0
    4.0736   -0.2364    2.1348 H   0  0  0  0  0  0  0  0  0  0  0  0
    3.0514    1.0694    2.7850 H   0  0  0  0  0  0  0  0  0  0  0  0
  5  6  2  0  0  0  0
  5  7  1  0  0  0  0
  2  3  1  0  0  0  0
  2  4  1  0  0  0  0
  2  5  1  0  0  0  0
  1  2  1  0  0  0  0
 19 20  2  0  0  0  0
 19 21  1  0  0  0  0
 17 18  1  0  0  0  0
 17 19  1  0  0  0  0
 14 15  1  0  0  0  0
 14 16  1  0  0  0  0
 14 17  1  0  0  0  0
 11 12  1  0  0  0  0
 11 13  1  0  0  0  0
 11 14  1  0  0  0  0
  8  9  1  0  0  0  0
  8 10  1  0  0  0  0
  8 11  1  0  0  0  0
  7  8  1  0  0  0  0
  7 17  1  0  0  0  0
 23 24  1  0  0  0  0
 23 25  1  0  0  0  0
 23 26  1  0  0  0  0
 21 22  1  0  0  0  0
 21 23  1  0  0  0  0
M  END
$$$$
default_name
  -OEChem-01062215323D

 26 26  0     1  0  0  0  0  0999 V2000
   -1.8446   -3.5060   -0.3010 H   0  0  0  0  0  0  0  0  0  0  0  0
   -2.0746   -2.4490   -0.4240 C   0  0  0  0  0  0  0  0  0  0  0  0
   -2.6906   -2.1160    0.4090 H   0  0  0  0  0  0  0  0  0  0  0  0
   -2.5986   -2.2980   -1.3650 H   0  0  0  0  0  0  0  0  0  0  0  0
   -0.7756   -1.6630   -0.4350 C   0  0  0  0  0  0  0  0  0  0  0  0
    0.2844   -2.2800   -0.4550 O   0  0  0  0  0  0  0  0  0  0  0  0
   -0.8246   -0.3180   -0.4350 N   0  0  0  0  0  0  0  0  0  0  0  0
   -2.0106    0.5080   -0.5910 C   0  0  0  0  0  0  0  0  0  0  0  0
   -2.2764    1.1290    0.2660 H   0  0  0  0  0  0  0  0  0  0  0  0
   -2.9044    0.0714   -1.0353 H   0  0  0  0  0  0  0  0  0  0  0  0
   -1.2674    1.3443   -1.6305 C   0  0  0  0  0  0  0  0  0  0  0  0
   -1.9071    2.1297   -2.0361 H   0  0  0  0  0  0  0  0  0  0  0  0
   -0.9061    0.6900   -2.4245 H   0  0  0  0  0  0  0  0  0  0  0  0
   -0.0827    1.9176   -0.8529 C   0  0  0  0  0  0  0  0  0  0  0  0
   -0.3686    2.5236    0.0091 H   0  0  0  0  0  0  0  0  0  0  0  0
    0.6903    2.4250   -1.4299 H   0  0  0  0  0  0  0  0  0  0  0  0
    0.3724    0.5200   -0.4020 C   0  0  1  0  0  0  0  0  0  0  0  0
    1.0855    0.1292   -1.1282 H   0  0  0  0  0  0  0  0  0  0  0  0
    1.0225    0.5498    0.9914 C   0  0  0  0  0  0  0  0  0  0  0  0
    0.3371    0.7318    1.9956 O   0  0  0  0  0  0  0  0  0  0  0  0
    2.3526    0.4100    1.0447 N   0  0  0  0  0  0  0  0  0  0  0  0
    2.8364    0.2054    0.1850 H   0  0  0  0  0  0  0  0  0  0  0  0
    3.1255    0.4233    2.2844 C   0  0  0  0  0  0  0  0  0  0  0  0
    2.8482   -0.4382    2.8957 H   0  0  0  0  0  0  0  0  0  0  0  0
    4.1930    0.3824    2.0658 H   0  0  0  0  0  0  0  0  0  0  0  0
    2.9054    1.3329    2.8475 H   0  0  0  0  0  0  0  0  0  0  0  0
  5  6  2  0  0  0  0
  5  7  1  0  0  0  0
  2  3  1  0  0  0  0
  2  4  1  0  0  0  0
  2  5  1  0  0  0  0
  1  2  1  0  0  0  0
 19 20  2  0  0  0  0
 19 21  1  0  0  0  0
 17 18  1  0  0  0  0
 17 19  1  0  0  0  0
 14 15  1  0  0  0  0
 14 16  1  0  0  0  0
 14 17  1  0  0  0  0
 11 12  1  0  0  0  0
 11 13  1  0  0  0  0
 11 14  1  0  0  0  0
  8  9  1  0  0  0  0
  8 10  1  0  0  0  0
  8 11  1  0  0  0  0
  7  8  1  0  0  0  0
  7 17  1  0  0  0  0
 23 24  1  0  0  0  0
 23 25  1  0  0  0  0
 23 26  1  0  0  0  0
 21 22  1  0  0  0  0
 21 23  1  0  0  0  0
M  END
$$$$
default_name
  -OEChem-01062215323D

 26 26  0     1  0  0  0  0  0999 V2000
   -1.8446   -3.5060   -0.3010 H   0  0  0  0  0  0  0  0  0  0  0  0
   -2.0746   -2.4490   -0.4240 C   0  0  0  0  0  0  0  0  0  0  0  0
   -2.6906   -2.1160    0.4090 H   0  0  0  0  0  0  0  0  0  0  0  0
   -2.5986   -2.2980   -1.3650 H   0  0  0  0  0  0  0  0  0  0  0  0
   -0.7756   -1.6630   -0.4350 C   0  0  0  0  0  0  0  0  0  0  0  0
    0.2844   -2.2800   -0.4550 O   0  0  0  0  0  0  0  0  0  0  0  0
   -0.8246   -0.3180   -0.4350 N   0  0  0  0  0  0  0  0  0  0  0  0
   -2.0106    0.5080   -0.5910 C   0  0  0  0  0  0  0  0  0  0  0  0
   -2.2764    1.1290    0.2660 H   0  0  0  0  0  0  0  0  0  0  0  0
   -2.9044    0.0714   -1.0353 H   0  0  0  0  0  0  0  0  0  0  0  0
   -1.2674    1.3443   -1.6305 C   0  0  0  0  0  0  0  0  0  0  0  0
   -1.9071    2.1297   -2.0361 H   0  0  0  0  0  0  0  0  0  0  0  0
   -0.9061    0.6900   -2.4245 H   0  0  0  0  0  0  0  0  0  0  0  0
   -0.0827    1.9176   -0.8529 C   0  0  0  0  0  0  0  0  0  0  0  0
   -0.3686    2.5236    0.0091 H   0  0  0  0  0  0  0  0  0  0  0  0
    0.6903    2.4250   -1.4299 H   0  0  0  0  0  0  0  0  0  0  0  0
    0.3724    0.5200   -0.4020 C   0  0  1  0  0  0  0  0  0  0  0  0
    1.0855    0.1292   -1.1282 H   0  0  0  0  0  0  0  0  0  0  0  0
    1.0225    0.5498    0.9914 C   0  0  0  0  0  0  0  0  0  0  0  0
    0.3318    0.4554    2.0040 O   0  0  0  0  0  0  0  0  0  0  0  0
    2.3491    0.7213    1.0396 N   0  0  0  0  0  0  0  0  0  0  0  0
    2.8518    0.7308    0.1666 H   0  0  0  0  0  0  0  0  0  0  0  0
    3.1197    0.7806    2.2795 C   0  0  0  0  0  0  0  0  0  0  0  0
    3.0630   -0.1831    2.7901 H   0  0  0  0  0  0  0  0  0  0  0  0
    4.1630    1.0155    2.0663 H   0  0  0  0  0  0  0  0  0  0  0  0
    2.7028    1.5463    2.9375 H   0  0  0  0  0  0  0  0  0  0  0  0
  5  6  2  0  0  0  0
  5  7  1  0  0  0  0
  2  3  1  0  0  0  0
  2  4  1  0  0  0  0
  2  5  1  0  0  0  0
  1  2  1  0  0  0  0
 19 20  2  0  0  0  0
 19 21  1  0  0  0  0
 17 18  1  0  0  0  0
 17 19  1  0  0  0  0
 14 15  1  0  0  0  0
 14 16  1  0  0  0  0
 14 17  1  0  0  0  0
 11 12  1  0  0  0  0
 11 13  1  0  0  0  0
 11 14  1  0  0  0  0
  8  9  1  0  0  0  0
  8 10  1  0  0  0  0
  8 11  1  0  0  0  0
  7  8  1  0  0  0  0
  7 17  1  0  0  0  0
 23 24  1  0  0  0  0
 23 25  1  0  0  0  0
 23 26  1  0  0  0  0
 21 22  1  0  0  0  0
 21 23  1  0  0  0  0
M  END
$$$$
default_name
  -OEChem-01062215323D

 26 26  0     1  0  0  0  0  0999 V2000
   -1.8446   -3.5060   -0.3010 H   0  0  0  0  0  0  0  0  0  0  0  0
   -2.0746   -2.4490   -0.4240 C   0  0  0  0  0  0  0  0  0  0  0  0
   -2.6906   -2.1160    0.4090 H   0  0  0  0  0  0  0  0  0  0  0  0
   -2.5986   -2.2980   -1.3650 H   0  0  0  0  0  0  0  0  0  0  0  0
   -0.7756   -1.6630   -0.4350 C   0  0  0  0  0  0  0  0  0  0  0  0
    0.2844   -2.2800   -0.4550 O   0  0  0  0  0  0  0  0  0  0  0  0
   -0.8246   -0.3180   -0.4350 N   0  0  0  0  0  0  0  0  0  0  0  0
   -2.0106    0.5080   -0.5910 C   0  0  0  0  0  0  0  0  0  0  0  0
   -2.2764    1.1290    0.2660 H   0  0  0  0  0  0  0  0  0  0  0  0
   -2.9044    0.0714   -1.0353 H   0  0  0  0  0  0  0  0  0  0  0  0
   -1.2674    1.3443   -1.6305 C   0  0  0  0  0  0  0  0  0  0  0  0
   -1.9071    2.1297   -2.0361 H   0  0  0  0  0  0  0  0  0  0  0  0
   -0.9061    0.6900   -2.4245 H   0  0  0  0  0  0  0  0  0  0  0  0
   -0.0827    1.9176   -0.8529 C   0  0  0  0  0  0  0  0  0  0  0  0
   -0.3686    2.5236    0.0091 H   0  0  0  0  0  0  0  0  0  0  0  0
    0.6903    2.4250   -1.4299 H   0  0  0  0  0  0  0  0  0  0  0  0
    0.3724    0.5200   -0.4020 C   0  0  1  0  0  0  0  0  0  0  0  0
    1.0855    0.1292   -1.1282 H   0  0  0  0  0  0  0  0  0  0  0  0
    1.0225    0.5498    0.9914 C   0  0  0  0  0  0  0  0  0  0  0  0
    0.3916    0.1863    1.9819 O   0  0  0  0  0  0  0  0  0  0  0  0
    2.2727    1.0217    1.0689 N   0  0  0  0  0  0  0  0  0  0  0  0
    2.7433    1.2438    0.2062 H   0  0  0  0  0  0  0  0  0  0  0  0
    3.0302    1.1250    2.3139 C   0  0  0  0  0  0  0  0  0  0  0  0
    3.2101    0.1252    2.7148 H   0  0  0  0  0  0  0  0  0  0  0  0
    3.9854    1.6200    2.1361 H   0  0  0  0  0  0  0  0  0  0  0  0
    2.4576    1.6951    3.0487 H   0  0  0  0  0  0  0  0  0  0  0  0
  5  6  2  0  0  0  0
  5  7  1  0  0  0  0
  2  3  1  0  0  0  0
  2  4  1  0  0  0  0
  2  5  1  0  0  0  0
  1  2  1  0  0  0  0
 19 20  2  0  0  0  0
 19 21  1  0  0  0  0
 17 18  1  0  0  0  0
 17 19  1  0  0  0  0
 14 15  1  0  0  0  0
 14 16  1  0  0  0  0
 14 17  1  0  0  0  0
 11 12  1  0  0  0  0
 11 13  1  0  0  0  0
 11 14  1  0  0  0  0
  8  9  1  0  0  0  0
  8 10  1  0  0  0  0
  8 11  1  0  0  0  0
  7  8  1  0  0  0  0
  7 17  1  0  0  0  0
 23 24  1  0  0  0  0
 23 25  1  0  0  0  0
 23 26  1  0  0  0  0
 21 22  1  0  0  0  0
 21 23  1  0  0  0  0
M  END
$$$$
default_name
  -OEChem-01062215323D

 26 26  0     1  0  0  0  0  0999 V2000
   -1.8446   -3.5060   -0.3010 H   0  0  0  0  0  0  0  0  0  0  0  0
   -2.0746   -2.4490   -0.4240 C   0  0  0  0  0  0  0  0  0  0  0  0
   -2.6906   -2.1160    0.4090 H   0  0  0  0  0  0  0  0  0  0  0  0
   -2.5986   -2.2980   -1.3650 H   0  0  0  0  0  0  0  0  0  0  0  0
   -0.7756   -1.6630   -0.4350 C   0  0  0  0  0  0  0  0  0  0  0  0
    0.2844   -2.2800   -0.4550 O   0  0  0  0  0  0  0  0  0  0  0  0
   -0.8246   -0.3180   -0.4350 N   0  0  0  0  0  0  0  0  0  0  0  0
   -2.0106    0.5080   -0.5910 C   0  0  0  0  0  0  0  0  0  0  0  0
   -2.4640    0.6856    0.3856 H   0  0  0  0  0  0  0  0  0  0  0  0
   -2.7374    0.0675   -1.2727 H   0  0  0  0  0  0  0  0  0  0  0  0
   -1.4841    1.8204   -1.1679 C   0  0  0  0  0  0  0  0  0  0  0  0
   -2.1507    2.6554   -0.9469 H   0  0  0  0  0  0  0  0  0  0  0  0
   -1.3377    1.7154   -2.2433 H   0  0  0  0  0  0  0  0  0  0  0  0
   -0.1306    1.9711   -0.4735 C   0  0  0  0  0  0  0  0  0  0  0  0
   -0.2787    2.3747    0.5302 H   0  0  0  0  0  0  0  0  0  0  0  0
    0.5529    2.6058   -1.0372 H   0  0  0  0  0  0  0  0  0  0  0  0
    0.3724    0.5200   -0.4020 C   0  0  1  0  0  0  0  0  0  0  0  0
    0.9653    0.3073   -1.2918 H   0  0  0  0  0  0  0  0  0  0  0  0
    1.2232    0.2686    0.8542 C   0  0  0  0  0  0  0  0  0  0  0  0
    0.8525   -0.5345    1.7080 O   0  0  0  0  0  0  0  0  0  0  0  0
    2.3451    0.9873    0.9823 N   0  0  0  0  0  0  0  0  0  0  0  0
    2.6112    1.5805    0.2128 H   0  0  0  0  0  0  0  0  0  0  0  0
    3.2599    0.8768    2.1161 C   0  0  0  0  0  0  0  0  0  0  0  0
    3.7049   -0.1204    2.1293 H   0  0  0  0  0  0  0  0  0  0  0  0
    4.0504    1.6240    2.0392 H   0  0  0  0  0  0  0  0  0  0  0  0
    2.7116    1.0239    3.0492 H   0  0  0  0  0  0  0  0  0  0  0  0
  5  6  2  0  0  0  0
  5  7  1  0  0  0  0
  2  3  1  0  0  0  0
  2  4  1  0  0  0  0
  2  5  1  0  0  0  0
  1  2  1  0  0  0  0
 19 20  2  0  0  0  0
 19 21  1  0  0  0  0
 17 18  1  0  0  0  0
 17 19  1  0  0  0  0
 14 15  1  0  0  0  0
 14 16  1  0  0  0  0
 14 17  1  0  0  0  0
 11 12  1  0  0  0  0
 11 13  1  0  0  0  0
 11 14  1  0  0  0  0
  8  9  1  0  0  0  0
  8 10  1  0  0  0  0
  8 11  1  0  0  0  0
  7  8  1  0  0  0  0
  7 17  1  0  0  0  0
 23 24  1  0  0  0  0
 23 25  1  0  0  0  0
 23 26  1  0  0  0  0
 21 22  1  0  0  0  0
 21 23  1  0  0  0  0
M  END
$$$$
default_name
  -OEChem-01062215323D

 26 26  0     1  0  0  0  0  0999 V2000
   -1.8446   -3.5060   -0.3010 H   0  0  0  0  0  0  0  0  0  0  0  0
   -2.0746   -2.4490   -0.4240 C   0  0  0  0  0  0  0  0  0  0  0  0
   -2.6906   -2.1160    0.4090 H   0  0  0  0  0  0  0  0  0  0  0  0
   -2.5986   -2.2980   -1.3650 H   0  0  0  0  0  0  0  0  0  0  0  0
   -0.7756   -1.6630   -0.4350 C   0  0  0  0  0  0  0  0  0  0  0  0
    0.2844   -2.2800   -0.4550 O   0  0  0  0  0  0  0  0  0  0  0  0
   -0.8246   -0.3180   -0.4350 N   0  0  0  0  0  0  0  0  0  0  0  0
   -2.0106    0.5080   -0.5910 C   0  0  0  0  0  0  0  0  0  0  0  0
   -2.4640    0.6856    0.3856 H   0  0  0  0  0  0  0  0  0  0  0  0
   -2.7374    0.0675   -1.2727 H   0  0  0  0  0  0  0  0  0  0  0  0
   -1.4841    1.8204   -1.1679 C   0  0  0  0  0  0  0  0  0  0  0  0
   -2.1507    2.6554   -0.9469 H   0  0  0  0  0  0  0  0  0  0  0  0
   -1.3377    1.7154   -2.2433 H   0  0  0  0  0  0  0  0  0  0  0  0
   -0.1306    1.9711   -0.4735 C   0  0  0  0  0  0  0  0  0  0  0  0
   -0.2787    2.3747    0.5302 H   0  0  0  0  0  0  0  0  0  0  0  0
    0.5529    2.6058   -1.0372 H   0  0  0  0  0  0  0  0  0  0  0  0
    0.3724    0.5200   -0.4020 C   0  0  1  0  0  0  0  0  0  0  0  0
    0.9653    0.3073   -1.2918 H   0  0  0  0  0  0  0  0  0  0  0  0
    1.2232    0.2686    0.8542 C   0  0  0  0  0  0  0  0  0  0  0  0
    1.0105   -0.7112    1.5656 O   0  0  0  0  0  0  0  0  0  0  0  0
    2.1610    1.1783    1.1452 N   0  0  0  0  0  0  0  0  0  0  0  0
    2.3142    1.9210    0.4821 H   0  0  0  0  0  0  0  0  0  0  0  0
    3.0473    1.0946    2.3036 C   0  0  0  0  0  0  0  0  0  0  0  0
    3.6953    0.2211    2.2041 H   0  0  0  0  0  0  0  0  0  0  0  0
    3.6610    1.9930    2.3768 H   0  0  0  0  0  0  0  0  0  0  0  0
    2.4553    0.9846    3.2149 H   0  0  0  0  0  0  0  0  0  0  0  0
  5  6  2  0  0  0  0
  5  7  1  0  0  0  0
  2  3  1  0  0  0  0
  2  4  1  0  0  0  0
  2  5  1  0  0  0  0
  1  2  1  0  0  0  0
 19 20  2  0  0  0  0
 19 21  1  0  0  0  0
 17 18  1  0  0  0  0
 17 19  1  0  0  0  0
 14 15  1  0  0  0  0
 14 16  1  0  0  0  0
 14 17  1  0  0  0  0
 11 12  1  0  0  0  0
 11 13  1  0  0  0  0
 11 14  1  0  0  0  0
  8  9  1  0  0  0  0
  8 10  1  0  0  0  0
  8 11  1  0  0  0  0
  7  8  1  0  0  0  0
  7 17  1  0  0  0  0
 23 24  1  0  0  0  0
 23 25  1  0  0  0  0
 23 26  1  0  0  0  0
 21 22  1  0  0  0  0
 21 23  1  0  0  0  0
M  END
$$$$
default_name
  -OEChem-01062215323D

 26 26  0     1  0  0  0  0  0999 V2000
   -1.8446   -3.5060   -0.3010 H   0  0  0  0  0  0  0  0  0  0  0  0
   -2.0746   -2.4490   -0.4240 C   0  0  0  0  0  0  0  0  0  0  0  0
   -2.6906   -2.1160    0.4090 H   0  0  0  0  0  0  0  0  0  0  0  0
   -2.5986   -2.2980   -1.3650 H   0  0  0  0  0  0  0  0  0  0  0  0
   -0.7756   -1.6630   -0.4350 C   0  0  0  0  0  0  0  0  0  0  0  0
    0.2844   -2.2800   -0.4550 O   0  0  0  0  0  0  0  0  0  0  0  0
   -0.8246   -0.3180   -0.4350 N   0  0  0  0  0  0  0  0  0  0  0  0
   -2.0106    0.5080   -0.5910 C   0  0  0  0  0  0  0  0  0  0  0  0
   -2.4640    0.6856    0.3856 H   0  0  0  0  0  0  0  0  0  0  0  0
   -2.7374    0.0675   -1.2727 H   0  0  0  0  0  0  0  0  0  0  0  0
   -1.4841    1.8204   -1.1679 C   0  0  0  0  0  0  0  0  0  0  0  0
   -2.1507    2.6554   -0.9469 H   0  0  0  0  0  0  0  0  0  0  0  0
   -1.3377    1.7154   -2.2433 H   0  0  0  0  0  0  0  0  0  0  0  0
   -0.1306    1.9711   -0.4735 C   0  0  0  0  0  0  0  0  0  0  0  0
   -0.2787    2.3747    0.5302 H   0  0  0  0  0  0  0  0  0  0  0  0
    0.5529    2.6058   -1.0372 H   0  0  0  0  0  0  0  0  0  0  0  0
    0.3724    0.5200   -0.4020 C   0  0  1  0  0  0  0  0  0  0  0  0
    0.9653    0.3073   -1.2918 H   0  0  0  0  0  0  0  0  0  0  0  0
    1.2232    0.2686    0.8542 C   0  0  0  0  0  0  0  0  0  0  0  0
    1.2066   -0.8281    1.4094 O   0  0  0  0  0  0  0  0  0  0  0  0
    1.9359    1.3005    1.3222 N   0  0  0  0  0  0  0  0  0  0  0  0
    1.9440    2.1484    0.7783 H   0  0  0  0  0  0  0  0  0  0  0  0
    2.7880    1.2331    2.5070 C   0  0  0  0  0  0  0  0  0  0  0  0
    3.6107    0.5383    2.3249 H   0  0  0  0  0  0  0  0  0  0  0  0
    3.1925    2.2187    2.7393 H   0  0  0  0  0  0  0  0  0  0  0  0
    2.2091    0.8688    3.3585 H   0  0  0  0  0  0  0  0  0  0  0  0
  5  6  2  0  0  0  0
  5  7  1  0  0  0  0
  2  3  1  0  0  0  0
  2  4  1  0  0  0  0
  2  5  1  0  0  0  0
  1  2  1  0  0  0  0
 19 20  2  0  0  0  0
 19 21  1  0  0  0  0
 17 18  1  0  0  0  0
 17 19  1  0  0  0  0
 14 15  1  0  0  0  0
 14 16  1  0  0  0  0
 14 17  1  0  0  0  0
 11 12  1  0  0  0  0
 11 13  1  0  0  0  0
 11 14  1  0  0  0  0
  8  9  1  0  0  0  0
  8 10  1  0  0  0  0
  8 11  1  0  0  0  0
  7  8  1  0  0  0  0
  7 17  1  0  0  0  0
 23 24  1  0  0  0  0
 23 25  1  0  0  0  0
 23 26  1  0  0  0  0
 21 22  1  0  0  0  0
 21 23  1  0  0  0  0
M  END
$$$$
default_name
  -OEChem-01062215323D

 26 26  0     1  0  0  0  0  0999 V2000
   -1.8446   -3.5060   -0.3010 H   0  0  0  0  0  0  0  0  0  0  0  0
   -2.0746   -2.4490   -0.4240 C   0  0  0  0  0  0  0  0  0  0  0  0
   -2.6906   -2.1160    0.4090 H   0  0  0  0  0  0  0  0  0  0  0  0
   -2.5986   -2.2980   -1.3650 H   0  0  0  0  0  0  0  0  0  0  0  0
   -0.7756   -1.6630   -0.4350 C   0  0  0  0  0  0  0  0  0  0  0  0
    0.2844   -2.2800   -0.4550 O   0  0  0  0  0  0  0  0  0  0  0  0
   -0.8246   -0.3180   -0.4350 N   0  0  0  0  0  0  0  0  0  0  0  0
   -2.0106    0.5080   -0.5910 C   0  0  0  0  0  0  0  0  0  0  0  0
   -2.4640    0.6856    0.3856 H   0  0  0  0  0  0  0  0  0  0  0  0
   -2.7374    0.0675   -1.2727 H   0  0  0  0  0  0  0  0  0  0  0  0
   -1.4841    1.8204   -1.1679 C   0  0  0  0  0  0  0  0  0  0  0  0
   -2.1507    2.6554   -0.9469 H   0  0  0  0  0  0  0  0  0  0  0  0
   -1.3377    1.7154   -2.2433 H   0  0  0  0  0  0  0  0  0  0  0  0
   -0.1306    1.9711   -0.4735 C   0  0  0  0  0  0  0  0  0  0  0  0
   -0.2787    2.3747    0.5302 H   0  0  0  0  0  0  0  0  0  0  0  0
    0.5529    2.6058   -1.0372 H   0  0  0  0  0  0  0  0  0  0  0  0
    0.3724    0.5200   -0.4020 C   0  0  1  0  0  0  0  0  0  0  0  0
    0.9653    0.3073   -1.2918 H   0  0  0  0  0  0  0  0  0  0  0  0
    1.2232    0.2686    0.8542 C   0  0  0  0  0  0  0  0  0  0  0  0
    1.4273   -0.8772    1.2501 O   0  0  0  0  0  0  0  0  0  0  0  0
    1.6851    1.3456    1.5010 N   0  0  0  0  0  0  0  0  0  0  0  0
    1.5258    2.2475    1.0814 H   0  0  0  0  0  0  0  0  0  0  0  0
    2.4997    1.2829    2.7122 C   0  0  0  0  0  0  0  0  0  0  0  0
    3.4569    0.8095    2.4833 H   0  0  0  0  0  0  0  0  0  0  0  0
    2.6769    2.2859    3.1019 H   0  0  0  0  0  0  0  0  0  0  0  0
    1.9897    0.6844    3.4702 H   0  0  0  0  0  0  0  0  0  0  0  0
  5  6  2  0  0  0  0
  5  7  1  0  0  0  0
  2  3  1  0  0  0  0
  2  4  1  0  0  0  0
  2  5  1  0  0  0  0
  1  2  1  0  0  0  0
 19 20  2  0  0  0  0
 19 21  1  0  0  0  0
 17 18  1  0  0  0  0
 17 19  1  0  0  0  0
 14 15  1  0  0  0  0
 14 16  1  0  0  0  0
 14 17  1  0  0  0  0
 11 12  1  0  0  0  0
 11 13  1  0  0  0  0
 11 14  1  0  0  0  0
  8  9  1  0  0  0  0
  8 10  1  0  0  0  0
  8 11  1  0  0  0  0
  7  8  1  0  0  0  0
  7 17  1  0  0  0  0
 23 24  1  0  0  0  0
 23 25  1  0  0  0  0
 23 26  1  0  0  0  0
 21 22  1  0  0  0  0
 21 23  1  0  0  0  0
M  END
$$$$
default_name
  -OEChem-01062215323D

 26 26  0     1  0  0  0  0  0999 V2000
   -1.8446   -3.5060   -0.3010 H   0  0  0  0  0  0  0  0  0  0  0  0
   -2.0746   -2.4490   -0.4240 C   0  0  0  0  0  0  0  0  0  0  0  0
   -2.6906   -2.1160    0.4090 H   0  0  0  0  0  0  0  0  0  0  0  0
   -2.5986   -2.2980   -1.3650 H   0  0  0  0  0  0  0  0  0  0  0  0
   -0.7756   -1.6630   -0.4350 C   0  0  0  0  0  0  0  0  0  0  0  0
    0.2844   -2.2800   -0.4550 O   0  0  0  0  0  0  0  0  0  0  0  0
   -0.8246   -0.3180   -0.4350 N   0  0  0  0  0  0  0  0  0  0  0  0
   -2.0106    0.5080   -0.5910 C   0  0  0  0  0  0  0  0  0  0  0  0
   -2.4640    0.6856    0.3856 H   0  0  0  0  0  0  0  0  0  0  0  0
   -2.7374    0.0675   -1.2727 H   0  0  0  0  0  0  0  0  0  0  0  0
   -1.4841    1.8204   -1.1679 C   0  0  0  0  0  0  0  0  0  0  0  0
   -2.1507    2.6554   -0.9469 H   0  0  0  0  0  0  0  0  0  0  0  0
   -1.3377    1.7154   -2.2433 H   0  0  0  0  0  0  0  0  0  0  0  0
   -0.1306    1.9711   -0.4735 C   0  0  0  0  0  0  0  0  0  0  0  0
   -0.2787    2.3747    0.5302 H   0  0  0  0  0  0  0  0  0  0  0  0
    0.5529    2.6058   -1.0372 H   0  0  0  0  0  0  0  0  0  0  0  0
    0.3724    0.5200   -0.4020 C   0  0  1  0  0  0  0  0  0  0  0  0
    0.9653    0.3073   -1.2918 H   0  0  0  0  0  0  0  0  0  0  0  0
    1.2232    0.2686    0.8542 C   0  0  0  0  0  0  0  0  0  0  0  0
    1.6576   -0.8552    1.0986 O   0  0  0  0  0  0  0  0  0  0  0  0
    1.4258    1.3106    1.6697 N   0  0  0  0  0  0  0  0  0  0  0  0
    1.0881    2.2114    1.3706 H   0  0  0  0  0  0  0  0  0  0  0  0
    2.2020    1.2407    2.9054 C   0  0  0  0  0  0  0  0  0  0  0  0
    3.2442    1.0163    2.6687 H   0  0  0  0  0  0  0  0  0  0  0  0
    2.1494    2.1898    3.4399 H   0  0  0  0  0  0  0  0  0  0  0  0
    1.8120    0.4438    3.5424 H   0  0  0  0  0  0  0  0  0  0  0  0
  5  6  2  0  0  0  0
  5  7  1  0  0  0  0
  2  3  1  0  0  0  0
  2  4  1  0  0  0  0
  2  5  1  0  0  0  0
  1  2  1  0  0  0  0
 19 20  2  0  0  0  0
 19 21  1  0  0  0  0
 17 18  1  0  0  0  0
 17 19  1  0  0  0  0
 14 15  1  0  0  0  0
 14 16  1  0  0  0  0
 14 17  1  0  0  0  0
 11 12  1  0  0  0  0
 11 13  1  0  0  0  0
 11 14  1  0  0  0  0
  8  9  1  0  0  0  0
  8 10  1  0  0  0  0
  8 11  1  0  0  0  0
  7  8  1  0  0  0  0
  7 17  1  0  0  0  0
 23 24  1  0  0  0  0
 23 25  1  0  0  0  0
 23 26  1  0  0  0  0
 21 22  1  0  0  0  0
 21 23  1  0  0  0  0
M  END
$$$$
default_name
  -OEChem-01062215323D

 26 26  0     1  0  0  0  0  0999 V2000
   -1.8446   -3.5060   -0.3010 H   0  0  0  0  0  0  0  0  0  0  0  0
   -2.0746   -2.4490   -0.4240 C   0  0  0  0  0  0  0  0  0  0  0  0
   -2.6906   -2.1160    0.4090 H   0  0  0  0  0  0  0  0  0  0  0  0
   -2.5986   -2.2980   -1.3650 H   0  0  0  0  0  0  0  0  0  0  0  0
   -0.7756   -1.6630   -0.4350 C   0  0  0  0  0  0  0  0  0  0  0  0
    0.2844   -2.2800   -0.4550 O   0  0  0  0  0  0  0  0  0  0  0  0
   -0.8246   -0.3180   -0.4350 N   0  0  0  0  0  0  0  0  0  0  0  0
   -2.0106    0.5080   -0.5910 C   0  0  0  0  0  0  0  0  0  0  0  0
   -2.4640    0.6856    0.3856 H   0  0  0  0  0  0  0  0  0  0  0  0
   -2.7374    0.0675   -1.2727 H   0  0  0  0  0  0  0  0  0  0  0  0
   -1.4841    1.8204   -1.1679 C   0  0  0  0  0  0  0  0  0  0  0  0
   -2.1507    2.6554   -0.9469 H   0  0  0  0  0  0  0  0  0  0  0  0
   -1.3377    1.7154   -2.2433 H   0  0  0  0  0  0  0  0  0  0  0  0
   -0.1306    1.9711   -0.4735 C   0  0  0  0  0  0  0  0  0  0  0  0
   -0.2787    2.3747    0.5302 H   0  0  0  0  0  0  0  0  0  0  0  0
    0.5529    2.6058   -1.0372 H   0  0  0  0  0  0  0  0  0  0  0  0
    0.3724    0.5200   -0.4020 C   0  0  1  0  0  0  0  0  0  0  0  0
    0.9653    0.3073   -1.2918 H   0  0  0  0  0  0  0  0  0  0  0  0
    1.2232    0.2686    0.8542 C   0  0  0  0  0  0  0  0  0  0  0  0
    1.8818   -0.7635    0.9651 O   0  0  0  0  0  0  0  0  0  0  0  0
    1.1755    1.1977    1.8165 N   0  0  0  0  0  0  0  0  0  0  0  0
    0.6607    2.0425    1.6263 H   0  0  0  0  0  0  0  0  0  0  0  0
    1.9151    1.1094    3.0734 C   0  0  0  0  0  0  0  0  0  0  0  0
    2.9872    1.1444    2.8684 H   0  0  0  0  0  0  0  0  0  0  0  0
    1.6458    1.9370    3.7304 H   0  0  0  0  0  0  0  0  0  0  0  0
    1.6881    0.1635    3.5701 H   0  0  0  0  0  0  0  0  0  0  0  0
  5  6  2  0  0  0  0
  5  7  1  0  0  0  0
  2  3  1  0  0  0  0
  2  4  1  0  0  0  0
  2  5  1  0  0  0  0
  1  2  1  0  0  0  0
 19 20  2  0  0  0  0
 19 21  1  0  0  0  0
 17 18  1  0  0  0  0
 17 19  1  0  0  0  0
 14 15  1  0  0  0  0
 14 16  1  0  0  0  0
 14 17  1  0  0  0  0
 11 12  1  0  0  0  0
 11 13  1  0  0  0  0
 11 14  1  0  0  0  0
  8  9  1  0  0  0  0
  8 10  1  0  0  0  0
  8 11  1  0  0  0  0
  7  8  1  0  0  0  0
  7 17  1  0  0  0  0
 23 24  1  0  0  0  0
 23 25  1  0  0  0  0
 23 26  1  0  0  0  0
 21 22  1  0  0  0  0
 21 23  1  0  0  0  0
M  END
$$$$
default_name
  -OEChem-01062215323D

 26 26  0     1  0  0  0  0  0999 V2000
   -1.8446   -3.5060   -0.3010 H   0  0  0  0  0  0  0  0  0  0  0  0
   -2.0746   -2.4490   -0.4240 C   0  0  0  0  0  0  0  0  0  0  0  0
   -2.6906   -2.1160    0.4090 H   0  0  0  0  0  0  0  0  0  0  0  0
   -2.5986   -2.2980   -1.3650 H   0  0  0  0  0  0  0  0  0  0  0  0
   -0.7756   -1.6630   -0.4350 C   0  0  0  0  0  0  0  0  0  0  0  0
    0.2844   -2.2800   -0.4550 O   0  0  0  0  0  0  0  0  0  0  0  0
   -0.8246   -0.3180   -0.4350 N   0  0  0  0  0  0  0  0  0  0  0  0
   -2.0106    0.5080   -0.5910 C   0  0  0  0  0  0  0  0  0  0  0  0
   -2.4640    0.6856    0.3856 H   0  0  0  0  0  0  0  0  0  0  0  0
   -2.7374    0.0675   -1.2727 H   0  0  0  0  0  0  0  0  0  0  0  0
   -1.4841    1.8204   -1.1679 C   0  0  0  0  0  0  0  0  0  0  0  0
   -2.1507    2.6554   -0.9469 H   0  0  0  0  0  0  0  0  0  0  0  0
   -1.3377    1.7154   -2.2433 H   0  0  0  0  0  0  0  0  0  0  0  0
   -0.1306    1.9711   -0.4735 C   0  0  0  0  0  0  0  0  0  0  0  0
   -0.2787    2.3747    0.5302 H   0  0  0  0  0  0  0  0  0  0  0  0
    0.5529    2.6058   -1.0372 H   0  0  0  0  0  0  0  0  0  0  0  0
    0.3724    0.5200   -0.4020 C   0  0  1  0  0  0  0  0  0  0  0  0
    0.9653    0.3073   -1.2918 H   0  0  0  0  0  0  0  0  0  0  0  0
    1.2232    0.2686    0.8542 C   0  0  0  0  0  0  0  0  0  0  0  0
    2.0846   -0.6084    0.8587 O   0  0  0  0  0  0  0  0  0  0  0  0
    0.9515    1.0148    1.9317 N   0  0  0  0  0  0  0  0  0  0  0  0
    0.2727    1.7524    1.8310 H   0  0  0  0  0  0  0  0  0  0  0  0
    1.6587    0.8978    3.2048 C   0  0  0  0  0  0  0  0  0  0  0  0
    2.7035    1.1853    3.0688 H   0  0  0  0  0  0  0  0  0  0  0  0
    1.2006    1.5448    3.9535 H   0  0  0  0  0  0  0  0  0  0  0  0
    1.6266   -0.1374    3.5516 H   0  0  0  0  0  0  0  0  0  0  0  0
  5  6  2  0  0  0  0
  5  7  1  0  0  0  0
  2  3  1  0  0  0  0
  2  4  1  0  0  0  0
  2  5  1  0  0  0  0
  1  2  1  0  0  0  0
 19 20  2  0  0  0  0
 19 21  1  0  0  0  0
 17 18  1  0  0  0  0
 17 19  1  0  0  0  0
 14 15  1  0  0  0  0
 14 16  1  0  0  0  0
 14 17  1  0  0  0  0
 11 12  1  0  0  0  0
 11 13  1  0  0  0  0
 11 14  1  0  0  0  0
  8  9  1  0  0  0  0
  8 10  1  0  0  0  0
  8 11  1  0  0  0  0
  7  8  1  0  0  0  0
  7 17  1  0  0  0  0
 23 24  1  0  0  0  0
 23 25  1  0  0  0  0
 23 26  1  0  0  0  0
 21 22  1  0  0  0  0
 21 23  1  0  0  0  0
M  END
$$$$
default_name
  -OEChem-01062215323D

 26 26  0     1  0  0  0  0  0999 V2000
   -1.8446   -3.5060   -0.3010 H   0  0  0  0  0  0  0  0  0  0  0  0
   -2.0746   -2.4490   -0.4240 C   0  0  0  0  0  0  0  0  0  0  0  0
   -2.6906   -2.1160    0.4090 H   0  0  0  0  0  0  0  0  0  0  0  0
   -2.5986   -2.2980   -1.3650 H   0  0  0  0  0  0  0  0  0  0  0  0
   -0.7756   -1.6630   -0.4350 C   0  0  0  0  0  0  0  0  0  0  0  0
    0.2844   -2.2800   -0.4550 O   0  0  0  0  0  0  0  0  0  0  0  0
   -0.8246   -0.3180   -0.4350 N   0  0  0  0  0  0  0  0  0  0  0  0
   -2.0106    0.5080   -0.5910 C   0  0  0  0  0  0  0  0  0  0  0  0
   -2.4640    0.6856    0.3856 H   0  0  0  0  0  0  0  0  0  0  0  0
   -2.7374    0.0675   -1.2727 H   0  0  0  0  0  0  0  0  0  0  0  0
   -1.4841    1.8204   -1.1679 C   0  0  0  0  0  0  0  0  0  0  0  0
   -2.1507    2.6554   -0.9469 H   0  0  0  0  0  0  0  0  0  0  0  0
   -1.3377    1.7154   -2.2433 H   0  0  0  0  0  0  0  0  0  0  0  0
   -0.1306    1.9711   -0.4735 C   0  0  0  0  0  0  0  0  0  0  0  0
   -0.2787    2.3747    0.5302 H   0  0  0  0  0  0  0  0  0  0  0  0
    0.5529    2.6058   -1.0372 H   0  0  0  0  0  0  0  0  0  0  0  0
    0.3724    0.5200   -0.4020 C   0  0  1  0  0  0  0  0  0  0  0  0
    0.9653    0.3073   -1.2918 H   0  0  0  0  0  0  0  0  0  0  0  0
    1.2232    0.2686    0.8542 C   0  0  0  0  0  0  0  0  0  0  0  0
    2.2522   -0.4006    0.7868 O   0  0  0  0  0  0  0  0  0  0  0  0
    0.7688    0.7743    2.0072 N   0  0  0  0  0  0  0  0  0  0  0  0
   -0.0494    1.3609    1.9708 H   0  0  0  0  0  0  0  0  0  0  0  0
    1.4502    0.6204    3.2905 C   0  0  0  0  0  0  0  0  0  0  0  0
    2.4122    1.1362    3.2562 H   0  0  0  0  0  0  0  0  0  0  0  0
    0.8440    1.0399    4.0939 H   0  0  0  0  0  0  0  0  0  0  0  0
    1.6316   -0.4383    3.4880 H   0  0  0  0  0  0  0  0  0  0  0  0
  5  6  2  0  0  0  0
  5  7  1  0  0  0  0
  2  3  1  0  0  0  0
  2  4  1  0  0  0  0
  2  5  1  0  0  0  0
  1  2  1  0  0  0  0
 19 20  2  0  0  0  0
 19 21  1  0  0  0  0
 17 18  1  0  0  0  0
 17 19  1  0  0  0  0
 14 15  1  0  0  0  0
 14 16  1  0  0  0  0
 14 17  1  0  0  0  0
 11 12  1  0  0  0  0
 11 13  1  0  0  0  0
 11 14  1  0  0  0  0
  8  9  1  0  0  0  0
  8 10  1  0  0  0  0
  8 11  1  0  0  0  0
  7  8  1  0  0  0  0
  7 17  1  0  0  0  0
 23 24  1  0  0  0  0
 23 25  1  0  0  0  0
 23 26  1  0  0  0  0
 21 22  1  0  0  0  0
 21 23  1  0  0  0  0
M  END
$$$$
default_name
  -OEChem-01062215323D

 26 26  0     1  0  0  0  0  0999 V2000
   -1.8446   -3.5060   -0.3010 H   0  0  0  0  0  0  0  0  0  0  0  0
   -2.0746   -2.4490   -0.4240 C   0  0  0  0  0  0  0  0  0  0  0  0
   -2.6906   -2.1160    0.4090 H   0  0  0  0  0  0  0  0  0  0  0  0
   -2.5986   -2.2980   -1.3650 H   0  0  0  0  0  0  0  0  0  0  0  0
   -0.7756   -1.6630   -0.4350 C   0  0  0  0  0  0  0  0  0  0  0  0
    0.2844   -2.2800   -0.4550 O   0  0  0  0  0  0  0  0  0  0  0  0
   -0.8246   -0.3180   -0.4350 N   0  0  0  0  0  0  0  0  0  0  0  0
   -2.0106    0.5080   -0.5910 C   0  0  0  0  0  0  0  0  0  0  0  0
   -2.4640    0.6856    0.3856 H   0  0  0  0  0  0  0  0  0  0  0  0
   -2.7374    0.0675   -1.2727 H   0  0  0  0  0  0  0  0  0  0  0  0
   -1.4841    1.8204   -1.1679 C   0  0  0  0  0  0  0  0  0  0  0  0
   -2.1507    2.6554   -0.9469 H   0  0  0  0  0  0  0  0  0  0  0  0
   -1.3377    1.7154   -2.2433 H   0  0  0  0  0  0  0  0  0  0  0  0
   -0.1306    1.9711   -0.4735 C   0  0  0  0  0  0  0  0  0  0  0  0
   -0.2787    2.3747    0.5302 H   0  0  0  0  0  0  0  0  0  0  0  0
    0.5529    2.6058   -1.0372 H   0  0  0  0  0  0  0  0  0  0  0  0
    0.3724    0.5200   -0.4020 C   0  0  1  0  0  0  0  0  0  0  0  0
    0.9653    0.3073   -1.2918 H   0  0  0  0  0  0  0  0  0  0  0  0
    1.2232    0.2686    0.8542 C   0  0  0  0  0  0  0  0  0  0  0  0
    2.3733   -0.1540    0.7542 O   0  0  0  0  0  0  0  0  0  0  0  0
    0.6401    0.4925    2.0381 N   0  0  0  0  0  0  0  0  0  0  0  0
   -0.2836    0.8946    2.0361 H   0  0  0  0  0  0  0  0  0  0  0  0
    1.3038    0.2961    3.3247 C   0  0  0  0  0  0  0  0  0  0  0  0
    2.1334    1.0003    3.4178 H   0  0  0  0  0  0  0  0  0  0  0  0
    0.6003    0.4567    4.1423 H   0  0  0  0  0  0  0  0  0  0  0  0
    1.7027   -0.7189    3.3837 H   0  0  0  0  0  0  0  0  0  0  0  0
  5  6  2  0  0  0  0
  5  7  1  0  0  0  0
  2  3  1  0  0  0  0
  2  4  1  0  0  0  0
  2  5  1  0  0  0  0
  1  2  1  0  0  0  0
 19 20  2  0  0  0  0
 19 21  1  0  0  0  0
 17 18  1  0  0  0  0
 17 19  1  0  0  0  0
 14 15  1  0  0  0  0
 14 16  1  0  0  0  0
 14 17  1  0  0  0  0
 11 12  1  0  0  0  0
 11 13  1  0  0  0  0
 11 14  1  0  0  0  0
  8  9  1  0  0  0  0
  8 10  1  0  0  0  0
  8 11  1  0  0  0  0
  7  8  1  0  0  0  0
  7 17  1  0  0  0  0
 23 24  1  0  0  0  0
 23 25  1  0  0  0  0
 23 26  1  0  0  0  0
 21 22  1  0  0  0  0
 21 23  1  0  0  0  0
M  END
$$$$
default_name
  -OEChem-01062215323D

 26 26  0     1  0  0  0  0  0999 V2000
   -1.8446   -3.5060   -0.3010 H   0  0  0  0  0  0  0  0  0  0  0  0
   -2.0746   -2.4490   -0.4240 C   0  0  0  0  0  0  0  0  0  0  0  0
   -2.6906   -2.1160    0.4090 H   0  0  0  0  0  0  0  0  0  0  0  0
   -2.5986   -2.2980   -1.3650 H   0  0  0  0  0  0  0  0  0  0  0  0
   -0.7756   -1.6630   -0.4350 C   0  0  0  0  0  0  0  0  0  0  0  0
    0.2844   -2.2800   -0.4550 O   0  0  0  0  0  0  0  0  0  0  0  0
   -0.8246   -0.3180   -0.4350 N   0  0  0  0  0  0  0  0  0  0  0  0
   -2.0106    0.5080   -0.5910 C   0  0  0  0  0  0  0  0  0  0  0  0
   -2.4640    0.6856    0.3856 H   0  0  0  0  0  0  0  0  0  0  0  0
   -2.7374    0.0675   -1.2727 H   0  0  0  0  0  0  0  0  0  0  0  0
   -1.4841    1.8204   -1.1679 C   0  0  0  0  0  0  0  0  0  0  0  0
   -2.1507    2.6554   -0.9469 H   0  0  0  0  0  0  0  0  0  0  0  0
   -1.3377    1.7154   -2.2433 H   0  0  0  0  0  0  0  0  0  0  0  0
   -0.1306    1.9711   -0.4735 C   0  0  0  0  0  0  0  0  0  0  0  0
   -0.2787    2.3747    0.5302 H   0  0  0  0  0  0  0  0  0  0  0  0
    0.5529    2.6058   -1.0372 H   0  0  0  0  0  0  0  0  0  0  0  0
    0.3724    0.5200   -0.4020 C   0  0  1  0  0  0  0  0  0  0  0  0
    0.9653    0.3073   -1.2918 H   0  0  0  0  0  0  0  0  0  0  0  0
    1.2232    0.2686    0.8542 C   0  0  0  0  0  0  0  0  0  0  0  0
    2.4394    0.1144    0.7631 O   0  0  0  0  0  0  0  0  0  0  0  0
    0.5740    0.1887    2.0220 N   0  0  0  0  0  0  0  0  0  0  0  0
   -0.4140    0.3853    2.0225 H   0  0  0  0  0  0  0  0  0  0  0  0
    1.2295   -0.0530    3.3052 C   0  0  0  0  0  0  0  0  0  0  0  0
    1.8860    0.7869    3.5427 H   0  0  0  0  0  0  0  0  0  0  0  0
    0.4862   -0.1650    4.0951 H   0  0  0  0  0  0  0  0  0  0  0  0
    1.8351   -0.9599    3.2458 H   0  0  0  0  0  0  0  0  0  0  0  0
  5  6  2  0  0  0  0
  5  7  1  0  0  0  0
  2  3  1  0  0  0  0
  2  4  1  0  0  0  0
  2  5  1  0  0  0  0
  1  2  1  0  0  0  0
 19 20  2  0  0  0  0
 19 21  1  0  0  0  0
 17 18  1  0  0  0  0
 17 19  1  0  0  0  0
 14 15  1  0  0  0  0
 14 16  1  0  0  0  0
 14 17  1  0  0  0  0
 11 12  1  0  0  0  0
 11 13  1  0  0  0  0
 11 14  1  0  0  0  0
  8  9  1  0  0  0  0
  8 10  1  0  0  0  0
  8 11  1  0  0  0  0
  7  8  1  0  0  0  0
  7 17  1  0  0  0  0
 23 24  1  0  0  0  0
 23 25  1  0  0  0  0
 23 26  1  0  0  0  0
 21 22  1  0  0  0  0
 21 23  1  0  0  0  0
M  END
$$$$
default_name
  -OEChem-01062215323D

 26 26  0     1  0  0  0  0  0999 V2000
   -1.8446   -3.5060   -0.3010 H   0  0  0  0  0  0  0  0  0  0  0  0
   -2.0746   -2.4490   -0.4240 C   0  0  0  0  0  0  0  0  0  0  0  0
   -2.6906   -2.1160    0.4090 H   0  0  0  0  0  0  0  0  0  0  0  0
   -2.5986   -2.2980   -1.3650 H   0  0  0  0  0  0  0  0  0  0  0  0
   -0.7756   -1.6630   -0.4350 C   0  0  0  0  0  0  0  0  0  0  0  0
    0.2844   -2.2800   -0.4550 O   0  0  0  0  0  0  0  0  0  0  0  0
   -0.8246   -0.3180   -0.4350 N   0  0  0  0  0  0  0  0  0  0  0  0
   -2.0106    0.5080   -0.5910 C   0  0  0  0  0  0  0  0  0  0  0  0
   -2.4640    0.6856    0.3856 H   0  0  0  0  0  0  0  0  0  0  0  0
   -2.7374    0.0675   -1.2727 H   0  0  0  0  0  0  0  0  0  0  0  0
   -1.4841    1.8204   -1.1679 C   0  0  0  0  0  0  0  0  0  0  0  0
   -2.1507    2.6554   -0.9469 H   0  0  0  0  0  0  0  0  0  0  0  0
   -1.3377    1.7154   -2.2433 H   0  0  0  0  0  0  0  0  0  0  0  0
   -0.1306    1.9711   -0.4735 C   0  0  0  0  0  0  0  0  0  0  0  0
   -0.2787    2.3747    0.5302 H   0  0  0  0  0  0  0  0  0  0  0  0
    0.5529    2.6058   -1.0372 H   0  0  0  0  0  0  0  0  0  0  0  0
    0.3724    0.5200   -0.4020 C   0  0  1  0  0  0  0  0  0  0  0  0
    0.9653    0.3073   -1.2918 H   0  0  0  0  0  0  0  0  0  0  0  0
    1.2232    0.2686    0.8542 C   0  0  0  0  0  0  0  0  0  0  0  0
    2.4462    0.3863    0.8129 O   0  0  0  0  0  0  0  0  0  0  0  0
    0.5751   -0.1164    1.9603 N   0  0  0  0  0  0  0  0  0  0  0  0
   -0.4318   -0.1322    1.9310 H   0  0  0  0  0  0  0  0  0  0  0  0
    1.2324   -0.4031    3.2331 C   0  0  0  0  0  0  0  0  0  0  0  0
    1.6868    0.5106    3.6223 H   0  0  0  0  0  0  0  0  0  0  0  0
    0.5095   -0.7830    3.9557 H   0  0  0  0  0  0  0  0  0  0  0  0
    2.0198   -1.1450    3.0837 H   0  0  0  0  0  0  0  0  0  0  0  0
  5  6  2  0  0  0  0
  5  7  1  0  0  0  0
  2  3  1  0  0  0  0
  2  4  1  0  0  0  0
  2  5  1  0  0  0  0
  1  2  1  0  0  0  0
 19 20  2  0  0  0  0
 19 21  1  0  0  0  0
 17 18  1  0  0  0  0
 17 19  1  0  0  0  0
 14 15  1  0  0  0  0
 14 16  1  0  0  0  0
 14 17  1  0  0  0  0
 11 12  1  0  0  0  0
 11 13  1  0  0  0  0
 11 14  1  0  0  0  0
  8  9  1  0  0  0  0
  8 10  1  0  0  0  0
  8 11  1  0  0  0  0
  7  8  1  0  0  0  0
  7 17  1  0  0  0  0
 23 24  1  0  0  0  0
 23 25  1  0  0  0  0
 23 26  1  0  0  0  0
 21 22  1  0  0  0  0
 21 23  1  0  0  0  0
M  END
$$$$
default_name
  -OEChem-01062215323D

 26 26  0     1  0  0  0  0  0999 V2000
   -1.8446   -3.5060   -0.3010 H   0  0  0  0  0  0  0  0  0  0  0  0
   -2.0746   -2.4490   -0.4240 C   0  0  0  0  0  0  0  0  0  0  0  0
   -2.6906   -2.1160    0.4090 H   0  0  0  0  0  0  0  0  0  0  0  0
   -2.5986   -2.2980   -1.3650 H   0  0  0  0  0  0  0  0  0  0  0  0
   -0.7756   -1.6630   -0.4350 C   0  0  0  0  0  0  0  0  0  0  0  0
    0.2844   -2.2800   -0.4550 O   0  0  0  0  0  0  0  0  0  0  0  0
   -0.8246   -0.3180   -0.4350 N   0  0  0  0  0  0  0  0  0  0  0  0
   -2.0106    0.5080   -0.5910 C   0  0  0  0  0  0  0  0  0  0  0  0
   -2.4640    0.6856    0.3856 H   0  0  0  0  0  0  0  0  0  0  0  0
   -2.7374    0.0675   -1.2727 H   0  0  0  0  0  0  0  0  0  0  0  0
   -1.4841    1.8204   -1.1679 C   0  0  0  0  0  0  0  0  0  0  0  0
   -2.1507    2.6554   -0.9469 H   0  0  0  0  0  0  0  0  0  0  0  0
   -1.3377    1.7154   -2.2433 H   0  0  0  0  0  0  0  0  0  0  0  0
   -0.1306    1.9711   -0.4735 C   0  0  0  0  0  0  0  0  0  0  0  0
   -0.2787    2.3747    0.5302 H   0  0  0  0  0  0  0  0  0  0  0  0
    0.5529    2.6058   -1.0372 H   0  0  0  0  0  0  0  0  0  0  0  0
    0.3724    0.5200   -0.4020 C   0  0  1  0  0  0  0  0  0  0  0  0
    0.9653    0.3073   -1.2918 H   0  0  0  0  0  0  0  0  0  0  0  0
    1.2232    0.2686    0.8542 C   0  0  0  0  0  0  0  0  0  0  0  0
    2.3931    0.6433    0.9003 O   0  0  0  0  0  0  0  0  0  0  0  0
    0.6432   -0.4020    1.8569 N   0  0  0  0  0  0  0  0  0  0  0  0
   -0.3357   -0.6228    1.7677 H   0  0  0  0  0  0  0  0  0  0  0  0
    1.3122   -0.7303    3.1136 C   0  0  0  0  0  0  0  0  0  0  0  0
    1.5494    0.1902    3.6512 H   0  0  0  0  0  0  0  0  0  0  0  0
    0.6684   -1.3550    3.7336 H   0  0  0  0  0  0  0  0  0  0  0  0
    2.2442   -1.2615    2.9084 H   0  0  0  0  0  0  0  0  0  0  0  0
  5  6  2  0  0  0  0
  5  7  1  0  0  0  0
  2  3  1  0  0  0  0
  2  4  1  0  0  0  0
  2  5  1  0  0  0  0
  1  2  1  0  0  0  0
 19 20  2  0  0  0  0
 19 21  1  0  0  0  0
 17 18  1  0  0  0  0
 17 19  1  0  0  0  0
 14 15  1  0  0  0  0
 14 16  1  0  0  0  0
 14 17  1  0  0  0  0
 11 12  1  0  0  0  0
 11 13  1  0  0  0  0
 11 14  1  0  0  0  0
  8  9  1  0  0  0  0
  8 10  1  0  0  0  0
  8 11  1  0  0  0  0
  7  8  1  0  0  0  0
  7 17  1  0  0  0  0
 23 24  1  0  0  0  0
 23 25  1  0  0  0  0
 23 26  1  0  0  0  0
 21 22  1  0  0  0  0
 21 23  1  0  0  0  0
M  END
$$$$
default_name
  -OEChem-01062215323D

 26 26  0     1  0  0  0  0  0999 V2000
   -1.8446   -3.5060   -0.3010 H   0  0  0  0  0  0  0  0  0  0  0  0
   -2.0746   -2.4490   -0.4240 C   0  0  0  0  0  0  0  0  0  0  0  0
   -2.6906   -2.1160    0.4090 H   0  0  0  0  0  0  0  0  0  0  0  0
   -2.5986   -2.2980   -1.3650 H   0  0  0  0  0  0  0  0  0  0  0  0
   -0.7756   -1.6630   -0.4350 C   0  0  0  0  0  0  0  0  0  0  0  0
    0.2844   -2.2800   -0.4550 O   0  0  0  0  0  0  0  0  0  0  0  0
   -0.8246   -0.3180   -0.4350 N   0  0  0  0  0  0  0  0  0  0  0  0
   -2.0106    0.5080   -0.5910 C   0  0  0  0  0  0  0  0  0  0  0  0
   -2.4640    0.6856    0.3856 H   0  0  0  0  0  0  0  0  0  0  0  0
   -2.7374    0.0675   -1.2727 H   0  0  0  0  0  0  0  0  0  0  0  0
   -1.4841    1.8204   -1.1679 C   0  0  0  0  0  0  0  0  0  0  0  0
   -2.1507    2.6554   -0.9469 H   0  0  0  0  0  0  0  0  0  0  0  0
   -1.3377    1.7154   -2.2433 H   0  0  0  0  0  0  0  0  0  0  0  0
   -0.1306    1.9711   -0.4735 C   0  0  0  0  0  0  0  0  0  0  0  0
   -0.2787    2.3747    0.5302 H   0  0  0  0  0  0  0  0  0  0  0  0
    0.5529    2.6058   -1.0372 H   0  0  0  0  0  0  0  0  0  0  0  0
    0.3724    0.5200   -0.4020 C   0  0  1  0  0  0  0  0  0  0  0  0
    0.9653    0.3073   -1.2918 H   0  0  0  0  0  0  0  0  0  0  0  0
    1.2232    0.2686    0.8542 C   0  0  0  0  0  0  0  0  0  0  0  0
    2.2839    0.8678    1.0192 O   0  0  0  0  0  0  0  0  0  0  0  0
    0.7738   -0.6488    1.7191 N   0  0  0  0  0  0  0  0  0  0  0  0
   -0.1322   -1.0529    1.5438 H   0  0  0  0  0  0  0  0  0  0  0  0
    1.4636   -1.0124    2.9546 C   0  0  0  0  0  0  0  0  0  0  0  0
    1.4833   -0.1524    3.6275 H   0  0  0  0  0  0  0  0  0  0  0  0
    0.9523   -1.8421    3.4438 H   0  0  0  0  0  0  0  0  0  0  0  0
    2.4930   -1.3015    2.7319 H   0  0  0  0  0  0  0  0  0  0  0  0
  5  6  2  0  0  0  0
  5  7  1  0  0  0  0
  2  3  1  0  0  0  0
  2  4  1  0  0  0  0
  2  5  1  0  0  0  0
  1  2  1  0  0  0  0
 19 20  2  0  0  0  0
 19 21  1  0  0  0  0
 17 18  1  0  0  0  0
 17 19  1  0  0  0  0
 14 15  1  0  0  0  0
 14 16  1  0  0  0  0
 14 17  1  0  0  0  0
 11 12  1  0  0  0  0
 11 13  1  0  0  0  0
 11 14  1  0  0  0  0
  8  9  1  0  0  0  0
  8 10  1  0  0  0  0
  8 11  1  0  0  0  0
  7  8  1  0  0  0  0
  7 17  1  0  0  0  0
 23 24  1  0  0  0  0
 23 25  1  0  0  0  0
 23 26  1  0  0  0  0
 21 22  1  0  0  0  0
 21 23  1  0  0  0  0
M  END
$$$$
default_name
  -OEChem-01062215323D

 26 26  0     1  0  0  0  0  0999 V2000
   -1.8446   -3.5060   -0.3010 H   0  0  0  0  0  0  0  0  0  0  0  0
   -2.0746   -2.4490   -0.4240 C   0  0  0  0  0  0  0  0  0  0  0  0
   -2.6906   -2.1160    0.4090 H   0  0  0  0  0  0  0  0  0  0  0  0
   -2.5986   -2.2980   -1.3650 H   0  0  0  0  0  0  0  0  0  0  0  0
   -0.7756   -1.6630   -0.4350 C   0  0  0  0  0  0  0  0  0  0  0  0
    0.2844   -2.2800   -0.4550 O   0  0  0  0  0  0  0  0  0  0  0  0
   -0.8246   -0.3180   -0.4350 N   0  0  0  0  0  0  0  0  0  0  0  0
   -2.0106    0.5080   -0.5910 C   0  0  0  0  0  0  0  0  0  0  0  0
   -2.4640    0.6856    0.3856 H   0  0  0  0  0  0  0  0  0  0  0  0
   -2.7374    0.0675   -1.2727 H   0  0  0  0  0  0  0  0  0  0  0  0
   -1.4841    1.8204   -1.1679 C   0  0  0  0  0  0  0  0  0  0  0  0
   -2.1507    2.6554   -0.9469 H   0  0  0  0  0  0  0  0  0  0  0  0
   -1.3377    1.7154   -2.2433 H   0  0  0  0  0  0  0  0  0  0  0  0
   -0.1306    1.9711   -0.4735 C   0  0  0  0  0  0  0  0  0  0  0  0
   -0.2787    2.3747    0.5302 H   0  0  0  0  0  0  0  0  0  0  0  0
    0.5529    2.6058   -1.0372 H   0  0  0  0  0  0  0  0  0  0  0  0
    0.3724    0.5200   -0.4020 C   0  0  1  0  0  0  0  0  0  0  0  0
    0.9653    0.3073   -1.2918 H   0  0  0  0  0  0  0  0  0  0  0  0
    1.2232    0.2686    0.8542 C   0  0  0  0  0  0  0  0  0  0  0  0
    2.1258    1.0446    1.1616 O   0  0  0  0  0  0  0  0  0  0  0  0
    0.9579   -0.8397    1.5562 N   0  0  0  0  0  0  0  0  0  0  0  0
    0.1648   -1.3933    1.2746 H   0  0  0  0  0  0  0  0  0  0  0  0
    1.6762   -1.2301    2.7671 C   0  0  0  0  0  0  0  0  0  0  0  0
    1.4928   -0.4940    3.5527 H   0  0  0  0  0  0  0  0  0  0  0  0
    1.3418   -2.2111    3.1062 H   0  0  0  0  0  0  0  0  0  0  0  0
    2.7493   -1.2623    2.5662 H   0  0  0  0  0  0  0  0  0  0  0  0
  5  6  2  0  0  0  0
  5  7  1  0  0  0  0
  2  3  1  0  0  0  0
  2  4  1  0  0  0  0
  2  5  1  0  0  0  0
  1  2  1  0  0  0  0
 19 20  2  0  0  0  0
 19 21  1  0  0  0  0
 17 18  1  0  0  0  0
 17 19  1  0  0  0  0
 14 15  1  0  0  0  0
 14 16  1  0  0  0  0
 14 17  1  0  0  0  0
 11 12  1  0  0  0  0
 11 13  1  0  0  0  0
 11 14  1  0  0  0  0
  8  9  1  0  0  0  0
  8 10  1  0  0  0  0
  8 11  1  0  0  0  0
  7  8  1  0  0  0  0
  7 17  1  0  0  0  0
 23 24  1  0  0  0  0
 23 25  1  0  0  0  0
 23 26  1  0  0  0  0
 21 22  1  0  0  0  0
 21 23  1  0  0  0  0
M  END
$$$$
default_name
  -OEChem-01062215323D

 26 26  0     1  0  0  0  0  0999 V2000
   -1.8446   -3.5060   -0.3010 H   0  0  0  0  0  0  0  0  0  0  0  0
   -2.0746   -2.4490   -0.4240 C   0  0  0  0  0  0  0  0  0  0  0  0
   -2.6906   -2.1160    0.4090 H   0  0  0  0  0  0  0  0  0  0  0  0
   -2.5986   -2.2980   -1.3650 H   0  0  0  0  0  0  0  0  0  0  0  0
   -0.7756   -1.6630   -0.4350 C   0  0  0  0  0  0  0  0  0  0  0  0
    0.2844   -2.2800   -0.4550 O   0  0  0  0  0  0  0  0  0  0  0  0
   -0.8246   -0.3180   -0.4350 N   0  0  0  0  0  0  0  0  0  0  0  0
   -2.0106    0.5080   -0.5910 C   0  0  0  0  0  0  0  0  0  0  0  0
   -2.4640    0.6856    0.3856 H   0  0  0  0  0  0  0  0  0  0  0  0
   -2.7374    0.0675   -1.2727 H   0  0  0  0  0  0  0  0  0  0  0  0
   -1.4841    1.8204   -1.1679 C   0  0  0  0  0  0  0  0  0  0  0  0
   -2.1507    2.6554   -0.9469 H   0  0  0  0  0  0  0  0  0  0  0  0
   -1.3377    1.7154   -2.2433 H   0  0  0  0  0  0  0  0  0  0  0  0
   -0.1306    1.9711   -0.4735 C   0  0  0  0  0  0  0  0  0  0  0  0
   -0.2787    2.3747    0.5302 H   0  0  0  0  0  0  0  0  0  0  0  0
    0.5529    2.6058   -1.0372 H   0  0  0  0  0  0  0  0  0  0  0  0
    0.3724    0.5200   -0.4020 C   0  0  1  0  0  0  0  0  0  0  0  0
    0.9653    0.3073   -1.2918 H   0  0  0  0  0  0  0  0  0  0  0  0
    1.2232    0.2686    0.8542 C   0  0  0  0  0  0  0  0  0  0  0  0
    1.9298    1.1615    1.3178 O   0  0  0  0  0  0  0  0  0  0  0  0
    1.1830   -0.9619    1.3793 N   0  0  0  0  0  0  0  0  0  0  0  0
    0.5350   -1.6208    0.9783 H   0  0  0  0  0  0  0  0  0  0  0  0
    1.9355   -1.3686    2.5638 C   0  0  0  0  0  0  0  0  0  0  0  0
    1.5774   -0.8112    3.4319 H   0  0  0  0  0  0  0  0  0  0  0  0
    1.8103   -2.4368    2.7438 H   0  0  0  0  0  0  0  0  0  0  0  0
    2.9955   -1.1465    2.4226 H   0  0  0  0  0  0  0  0  0  0  0  0
  5  6  2  0  0  0  0
  5  7  1  0  0  0  0
  2  3  1  0  0  0  0
  2  4  1  0  0  0  0
  2  5  1  0  0  0  0
  1  2  1  0  0  0  0
 19 20  2  0  0  0  0
 19 21  1  0  0  0  0
 17 18  1  0  0  0  0
 17 19  1  0  0  0  0
 14 15  1  0  0  0  0
 14 16  1  0  0  0  0
 14 17  1  0  0  0  0
 11 12  1  0  0  0  0
 11 13  1  0  0  0  0
 11 14  1  0  0  0  0
  8  9  1  0  0  0  0
  8 10  1  0  0  0  0
  8 11  1  0  0  0  0
  7  8  1  0  0  0  0
  7 17  1  0  0  0  0
 23 24  1  0  0  0  0
 23 25  1  0  0  0  0
 23 26  1  0  0  0  0
 21 22  1  0  0  0  0
 21 23  1  0  0  0  0
M  END
$$$$
default_name
  -OEChem-01062215323D

 26 26  0     1  0  0  0  0  0999 V2000
   -1.8446   -3.5060   -0.3010 H   0  0  0  0  0  0  0  0  0  0  0  0
   -2.0746   -2.4490   -0.4240 C   0  0  0  0  0  0  0  0  0  0  0  0
   -2.6906   -2.1160    0.4090 H   0  0  0  0  0  0  0  0  0  0  0  0
   -2.5986   -2.2980   -1.3650 H   0  0  0  0  0  0  0  0  0  0  0  0
   -0.7756   -1.6630   -0.4350 C   0  0  0  0  0  0  0  0  0  0  0  0
    0.2844   -2.2800   -0.4550 O   0  0  0  0  0  0  0  0  0  0  0  0
   -0.8246   -0.3180   -0.4350 N   0  0  0  0  0  0  0  0  0  0  0  0
   -2.0106    0.5080   -0.5910 C   0  0  0  0  0  0  0  0  0  0  0  0
   -2.4640    0.6856    0.3856 H   0  0  0  0  0  0  0  0  0  0  0  0
   -2.7374    0.0675   -1.2727 H   0  0  0  0  0  0  0  0  0  0  0  0
   -1.4841    1.8204   -1.1679 C   0  0  0  0  0  0  0  0  0  0  0  0
   -2.1507    2.6554   -0.9469 H   0  0  0  0  0  0  0  0  0  0  0  0
   -1.3377    1.7154   -2.2433 H   0  0  0  0  0  0  0  0  0  0  0  0
   -0.1306    1.9711   -0.4735 C   0  0  0  0  0  0  0  0  0  0  0  0
   -0.2787    2.3747    0.5302 H   0  0  0  0  0  0  0  0  0  0  0  0
    0.5529    2.6058   -1.0372 H   0  0  0  0  0  0  0  0  0  0  0  0
    0.3724    0.5200   -0.4020 C   0  0  1  0  0  0  0  0  0  0  0  0
    0.9653    0.3073   -1.2918 H   0  0  0  0  0  0  0  0  0  0  0  0
    1.2232    0.2686    0.8542 C   0  0  0  0  0  0  0  0  0  0  0  0
    1.7091    1.2106    1.4771 O   0  0  0  0  0  0  0  0  0  0  0  0
    1.4338   -1.0071    1.2004 N   0  0  0  0  0  0  0  0  0  0  0  0
    0.9532   -1.7199    0.6753 H   0  0  0  0  0  0  0  0  0  0  0  0
    2.2238   -1.4185    2.3585 C   0  0  0  0  0  0  0  0  0  0  0  0
    1.7313   -1.0824    3.2734 H   0  0  0  0  0  0  0  0  0  0  0  0
    2.3259   -2.5039    2.3812 H   0  0  0  0  0  0  0  0  0  0  0  0
    3.2149   -0.9621    2.3109 H   0  0  0  0  0  0  0  0  0  0  0  0
  5  6  2  0  0  0  0
  5  7  1  0  0  0  0
  2  3  1  0  0  0  0
  2  4  1  0  0  0  0
  2  5  1  0  0  0  0
  1  2  1  0  0  0  0
 19 20  2  0  0  0  0
 19 21  1  0  0  0  0
 17 18  1  0  0  0  0
 17 19  1  0  0  0  0
 14 15  1  0  0  0  0
 14 16  1  0  0  0  0
 14 17  1  0  0  0  0
 11 12  1  0  0  0  0
 11 13  1  0  0  0  0
 11 14  1  0  0  0  0
  8  9  1  0  0  0  0
  8 10  1  0  0  0  0
  8 11  1  0  0  0  0
  7  8  1  0  0  0  0
  7 17  1  0  0  0  0
 23 24  1  0  0  0  0
 23 25  1  0  0  0  0
 23 26  1  0  0  0  0
 21 22  1  0  0  0  0
 21 23  1  0  0  0  0
M  END
$$$$
default_name
  -OEChem-01062215323D

 26 26  0     1  0  0  0  0  0999 V2000
   -1.8446   -3.5060   -0.3010 H   0  0  0  0  0  0  0  0  0  0  0  0
   -2.0746   -2.4490   -0.4240 C   0  0  0  0  0  0  0  0  0  0  0  0
   -2.6906   -2.1160    0.4090 H   0  0  0  0  0  0  0  0  0  0  0  0
   -2.5986   -2.2980   -1.3650 H   0  0  0  0  0  0  0  0  0  0  0  0
   -0.7756   -1.6630   -0.4350 C   0  0  0  0  0  0  0  0  0  0  0  0
    0.2844   -2.2800   -0.4550 O   0  0  0  0  0  0  0  0  0  0  0  0
   -0.8246   -0.3180   -0.4350 N   0  0  0  0  0  0  0  0  0  0  0  0
   -2.0106    0.5080   -0.5910 C   0  0  0  0  0  0  0  0  0  0  0  0
   -2.4640    0.6856    0.3856 H   0  0  0  0  0  0  0  0  0  0  0  0
   -2.7374    0.0675   -1.2727 H   0  0  0  0  0  0  0  0  0  0  0  0
   -1.4841    1.8204   -1.1679 C   0  0  0  0  0  0  0  0  0  0  0  0
   -2.1507    2.6554   -0.9469 H   0  0  0  0  0  0  0  0  0  0  0  0
   -1.3377    1.7154   -2.2433 H   0  0  0  0  0  0  0  0  0  0  0  0
   -0.1306    1.9711   -0.4735 C   0  0  0  0  0  0  0  0  0  0  0  0
   -0.2787    2.3747    0.5302 H   0  0  0  0  0  0  0  0  0  0  0  0
    0.5529    2.6058   -1.0372 H   0  0  0  0  0  0  0  0  0  0  0  0
    0.3724    0.5200   -0.4020 C   0  0  1  0  0  0  0  0  0  0  0  0
    0.9653    0.3073   -1.2918 H   0  0  0  0  0  0  0  0  0  0  0  0
    1.2232    0.2686    0.8542 C   0  0  0  0  0  0  0  0  0  0  0  0
    1.4788    1.1886    1.6286 O   0  0  0  0  0  0  0  0  0  0  0  0
    1.6932   -0.9720    1.0318 N   0  0  0  0  0  0  0  0  0  0  0  0
    1.3909   -1.6837    0.3860 H   0  0  0  0  0  0  0  0  0  0  0  0
    2.5216   -1.3763    2.1653 C   0  0  0  0  0  0  0  0  0  0  0  0
    1.9440   -1.2891    3.0880 H   0  0  0  0  0  0  0  0  0  0  0  0
    2.8534   -2.4078    2.0431 H   0  0  0  0  0  0  0  0  0  0  0  0
    3.3926   -0.7215    2.2387 H   0  0  0  0  0  0  0  0  0  0  0  0
  5  6  2  0  0  0  0
  5  7  1  0  0  0  0
  2  3  1  0  0  0  0
  2  4  1  0  0  0  0
  2  5  1  0  0  0  0
  1  2  1  0  0  0  0
 19 20  2  0  0  0  0
 19 21  1  0  0  0  0
 17 18  1  0  0  0  0
 17 19  1  0  0  0  0
 14 15  1  0  0  0  0
 14 16  1  0  0  0  0
 14 17  1  0  0  0  0
 11 12  1  0  0  0  0
 11 13  1  0  0  0  0
 11 14  1  0  0  0  0
  8  9  1  0  0  0  0
  8 10  1  0  0  0  0
  8 11  1  0  0  0  0
  7  8  1  0  0  0  0
  7 17  1  0  0  0  0
 23 24  1  0  0  0  0
 23 25  1  0  0  0  0
 23 26  1  0  0  0  0
 21 22  1  0  0  0  0
 21 23  1  0  0  0  0
M  END
$$$$
default_name
  -OEChem-01062215323D

 26 26  0     1  0  0  0  0  0999 V2000
   -1.8446   -3.5060   -0.3010 H   0  0  0  0  0  0  0  0  0  0  0  0
   -2.0746   -2.4490   -0.4240 C   0  0  0  0  0  0  0  0  0  0  0  0
   -2.6906   -2.1160    0.4090 H   0  0  0  0  0  0  0  0  0  0  0  0
   -2.5986   -2.2980   -1.3650 H   0  0  0  0  0  0  0  0  0  0  0  0
   -0.7756   -1.6630   -0.4350 C   0  0  0  0  0  0  0  0  0  0  0  0
    0.2844   -2.2800   -0.4550 O   0  0  0  0  0  0  0  0  0  0  0  0
   -0.8246   -0.3180   -0.4350 N   0  0  0  0  0  0  0  0  0  0  0  0
   -2.0106    0.5080   -0.5910 C   0  0  0  0  0  0  0  0  0  0  0  0
   -2.4640    0.6856    0.3856 H   0  0  0  0  0  0  0  0  0  0  0  0
   -2.7374    0.0675   -1.2727 H   0  0  0  0  0  0  0  0  0  0  0  0
   -1.4841    1.8204   -1.1679 C   0  0  0  0  0  0  0  0  0  0  0  0
   -2.1507    2.6554   -0.9469 H   0  0  0  0  0  0  0  0  0  0  0  0
   -1.3377    1.7154   -2.2433 H   0  0  0  0  0  0  0  0  0  0  0  0
   -0.1306    1.9711   -0.4735 C   0  0  0  0  0  0  0  0  0  0  0  0
   -0.2787    2.3747    0.5302 H   0  0  0  0  0  0  0  0  0  0  0  0
    0.5529    2.6058   -1.0372 H   0  0  0  0  0  0  0  0  0  0  0  0
    0.3724    0.5200   -0.4020 C   0  0  1  0  0  0  0  0  0  0  0  0
    0.9653    0.3073   -1.2918 H   0  0  0  0  0  0  0  0  0  0  0  0
    1.2232    0.2686    0.8542 C   0  0  0  0  0  0  0  0  0  0  0  0
    1.2546    1.0969    1.7621 O   0  0  0  0  0  0  0  0  0  0  0  0
    1.9434   -0.8592    0.8849 N   0  0  0  0  0  0  0  0  0  0  0  0
    1.8183   -1.5149    0.1304 H   0  0  0  0  0  0  0  0  0  0  0  0
    2.8084   -1.2450    1.9973 C   0  0  0  0  0  0  0  0  0  0  0  0
    2.2009   -1.4173    2.8883 H   0  0  0  0  0  0  0  0  0  0  0  0
    3.3570   -2.1551    1.7526 H   0  0  0  0  0  0  0  0  0  0  0  0
    3.5164   -0.4412    2.2109 H   0  0  0  0  0  0  0  0  0  0  0  0
  5  6  2  0  0  0  0
  5  7  1  0  0  0  0
  2  3  1  0  0  0  0
  2  4  1  0  0  0  0
  2  5  1  0  0  0  0
  1  2  1  0  0  0  0
 19 20  2  0  0  0  0
 19 21  1  0  0  0  0
 17 18  1  0  0  0  0
 17 19  1  0  0  0  0
 14 15  1  0  0  0  0
 14 16  1  0  0  0  0
 14 17  1  0  0  0  0
 11 12  1  0  0  0  0
 11 13  1  0  0  0  0
 11 14  1  0  0  0  0
  8  9  1  0  0  0  0
  8 10  1  0  0  0  0
  8 11  1  0  0  0  0
  7  8  1  0  0  0  0
  7 17  1  0  0  0  0
 23 24  1  0  0  0  0
 23 25  1  0  0  0  0
 23 26  1  0  0  0  0
 21 22  1  0  0  0  0
 21 23  1  0  0  0  0
M  END
$$$$
default_name
  -OEChem-01062215323D

 26 26  0     1  0  0  0  0  0999 V2000
   -1.8446   -3.5060   -0.3010 H   0  0  0  0  0  0  0  0  0  0  0  0
   -2.0746   -2.4490   -0.4240 C   0  0  0  0  0  0  0  0  0  0  0  0
   -2.6906   -2.1160    0.4090 H   0  0  0  0  0  0  0  0  0  0  0  0
   -2.5986   -2.2980   -1.3650 H   0  0  0  0  0  0  0  0  0  0  0  0
   -0.7756   -1.6630   -0.4350 C   0  0  0  0  0  0  0  0  0  0  0  0
    0.2844   -2.2800   -0.4550 O   0  0  0  0  0  0  0  0  0  0  0  0
   -0.8246   -0.3180   -0.4350 N   0  0  0  0  0  0  0  0  0  0  0  0
   -2.0106    0.5080   -0.5910 C   0  0  0  0  0  0  0  0  0  0  0  0
   -2.4640    0.6856    0.3856 H   0  0  0  0  0  0  0  0  0  0  0  0
   -2.7374    0.0675   -1.2727 H   0  0  0  0  0  0  0  0  0  0  0  0
   -1.4841    1.8204   -1.1679 C   0  0  0  0  0  0  0  0  0  0  0  0
   -2.1507    2.6554   -0.9469 H   0  0  0  0  0  0  0  0  0  0  0  0
   -1.3377    1.7154   -2.2433 H   0  0  0  0  0  0  0  0  0  0  0  0
   -0.1306    1.9711   -0.4735 C   0  0  0  0  0  0  0  0  0  0  0  0
   -0.2787    2.3747    0.5302 H   0  0  0  0  0  0  0  0  0  0  0  0
    0.5529    2.6058   -1.0372 H   0  0  0  0  0  0  0  0  0  0  0  0
    0.3724    0.5200   -0.4020 C   0  0  1  0  0  0  0  0  0  0  0  0
    0.9653    0.3073   -1.2918 H   0  0  0  0  0  0  0  0  0  0  0  0
    1.2232    0.2686    0.8542 C   0  0  0  0  0  0  0  0  0  0  0  0
    1.0517    0.9418    1.8685 O   0  0  0  0  0  0  0  0  0  0  0  0
    2.1674   -0.6763    0.7698 N   0  0  0  0  0  0  0  0  0  0  0  0
    2.2063   -1.2248   -0.0743 H   0  0  0  0  0  0  0  0  0  0  0  0
    3.0648   -1.0334    1.8660 C   0  0  0  0  0  0  0  0  0  0  0  0
    2.4847   -1.4582    2.6880 H   0  0  0  0  0  0  0  0  0  0  0  0
    3.8022   -1.7629    1.5296 H   0  0  0  0  0  0  0  0  0  0  0  0
    3.5780   -0.1403    2.2294 H   0  0  0  0  0  0  0  0  0  0  0  0
  5  6  2  0  0  0  0
  5  7  1  0  0  0  0
  2  3  1  0  0  0  0
  2  4  1  0  0  0  0
  2  5  1  0  0  0  0
  1  2  1  0  0  0  0
 19 20  2  0  0  0  0
 19 21  1  0  0  0  0
 17 18  1  0  0  0  0
 17 19  1  0  0  0  0
 14 15  1  0  0  0  0
 14 16  1  0  0  0  0
 14 17  1  0  0  0  0
 11 12  1  0  0  0  0
 11 13  1  0  0  0  0
 11 14  1  0  0  0  0
  8  9  1  0  0  0  0
  8 10  1  0  0  0  0
  8 11  1  0  0  0  0
  7  8  1  0  0  0  0
  7 17  1  0  0  0  0
 23 24  1  0  0  0  0
 23 25  1  0  0  0  0
 23 26  1  0  0  0  0
 21 22  1  0  0  0  0
 21 23  1  0  0  0  0
M  END
$$$$
default_name
  -OEChem-01062215323D

 26 26  0     1  0  0  0  0  0999 V2000
   -1.8446   -3.5060   -0.3010 H   0  0  0  0  0  0  0  0  0  0  0  0
   -2.0746   -2.4490   -0.4240 C   0  0  0  0  0  0  0  0  0  0  0  0
   -2.6906   -2.1160    0.4090 H   0  0  0  0  0  0  0  0  0  0  0  0
   -2.5986   -2.2980   -1.3650 H   0  0  0  0  0  0  0  0  0  0  0  0
   -0.7756   -1.6630   -0.4350 C   0  0  0  0  0  0  0  0  0  0  0  0
    0.2844   -2.2800   -0.4550 O   0  0  0  0  0  0  0  0  0  0  0  0
   -0.8246   -0.3180   -0.4350 N   0  0  0  0  0  0  0  0  0  0  0  0
   -2.0106    0.5080   -0.5910 C   0  0  0  0  0  0  0  0  0  0  0  0
   -2.4640    0.6856    0.3856 H   0  0  0  0  0  0  0  0  0  0  0  0
   -2.7374    0.0675   -1.2727 H   0  0  0  0  0  0  0  0  0  0  0  0
   -1.4841    1.8204   -1.1679 C   0  0  0  0  0  0  0  0  0  0  0  0
   -2.1507    2.6554   -0.9469 H   0  0  0  0  0  0  0  0  0  0  0  0
   -1.3377    1.7154   -2.2433 H   0  0  0  0  0  0  0  0  0  0  0  0
   -0.1306    1.9711   -0.4735 C   0  0  0  0  0  0  0  0  0  0  0  0
   -0.2787    2.3747    0.5302 H   0  0  0  0  0  0  0  0  0  0  0  0
    0.5529    2.6058   -1.0372 H   0  0  0  0  0  0  0  0  0  0  0  0
    0.3724    0.5200   -0.4020 C   0  0  1  0  0  0  0  0  0  0  0  0
    0.9653    0.3073   -1.2918 H   0  0  0  0  0  0  0  0  0  0  0  0
    1.2232    0.2686    0.8542 C   0  0  0  0  0  0  0  0  0  0  0  0
    0.8841    0.7340    1.9404 O   0  0  0  0  0  0  0  0  0  0  0  0
    2.3501   -0.4358    0.6942 N   0  0  0  0  0  0  0  0  0  0  0  0
    2.5284   -0.8333   -0.2141 H   0  0  0  0  0  0  0  0  0  0  0  0
    3.2733   -0.7560    1.7803 C   0  0  0  0  0  0  0  0  0  0  0  0
    2.7759   -1.4090    2.5006 H   0  0  0  0  0  0  0  0  0  0  0  0
    4.1588   -1.2580    1.3891 H   0  0  0  0  0  0  0  0  0  0  0  0
    3.5730    0.1606    2.2930 H   0  0  0  0  0  0  0  0  0  0  0  0
  5  6  2  0  0  0  0
  5  7  1  0  0  0  0
  2  3  1  0  0  0  0
  2  4  1  0  0  0  0
  2  5  1  0  0  0  0
  1  2  1  0  0  0  0
 19 20  2  0  0  0  0
 19 21  1  0  0  0  0
 17 18  1  0  0  0  0
 17 19  1  0  0  0  0
 14 15  1  0  0  0  0
 14 16  1  0  0  0  0
 14 17  1  0  0  0  0
 11 12  1  0  0  0  0
 11 13  1  0  0  0  0
 11 14  1  0  0  0  0
  8  9  1  0  0  0  0
  8 10  1  0  0  0  0
  8 11  1  0  0  0  0
  7  8  1  0  0  0  0
  7 17  1  0  0  0  0
 23 24  1  0  0  0  0
 23 25  1  0  0  0  0
 23 26  1  0  0  0  0
 21 22  1  0  0  0  0
 21 23  1  0  0  0  0
M  END
$$$$
default_name
  -OEChem-01062215323D

 26 26  0     1  0  0  0  0  0999 V2000
   -1.8446   -3.5060   -0.3010 H   0  0  0  0  0  0  0  0  0  0  0  0
   -2.0746   -2.4490   -0.4240 C   0  0  0  0  0  0  0  0  0  0  0  0
   -2.6906   -2.1160    0.4090 H   0  0  0  0  0  0  0  0  0  0  0  0
   -2.5986   -2.2980   -1.3650 H   0  0  0  0  0  0  0  0  0  0  0  0
   -0.7756   -1.6630   -0.4350 C   0  0  0  0  0  0  0  0  0  0  0  0
    0.2844   -2.2800   -0.4550 O   0  0  0  0  0  0  0  0  0  0  0  0
   -0.8246   -0.3180   -0.4350 N   0  0  0  0  0  0  0  0  0  0  0  0
   -2.0106    0.5080   -0.5910 C   0  0  0  0  0  0  0  0  0  0  0  0
   -2.4640    0.6856    0.3856 H   0  0  0  0  0  0  0  0  0  0  0  0
   -2.7374    0.0675   -1.2727 H   0  0  0  0  0  0  0  0  0  0  0  0
   -1.4841    1.8204   -1.1679 C   0  0  0  0  0  0  0  0  0  0  0  0
   -2.1507    2.6554   -0.9469 H   0  0  0  0  0  0  0  0  0  0  0  0
   -1.3377    1.7154   -2.2433 H   0  0  0  0  0  0  0  0  0  0  0  0
   -0.1306    1.9711   -0.4735 C   0  0  0  0  0  0  0  0  0  0  0  0
   -0.2787    2.3747    0.5302 H   0  0  0  0  0  0  0  0  0  0  0  0
    0.5529    2.6058   -1.0372 H   0  0  0  0  0  0  0  0  0  0  0  0
    0.3724    0.5200   -0.4020 C   0  0  1  0  0  0  0  0  0  0  0  0
    0.9653    0.3073   -1.2918 H   0  0  0  0  0  0  0  0  0  0  0  0
    1.2232    0.2686    0.8542 C   0  0  0  0  0  0  0  0  0  0  0  0
    0.7631    0.4874    1.9730 O   0  0  0  0  0  0  0  0  0  0  0  0
    2.4788   -0.1540    0.6634 N   0  0  0  0  0  0  0  0  0  0  0  0
    2.7626   -0.3670   -0.2795 H   0  0  0  0  0  0  0  0  0  0  0  0
    3.4197   -0.4317    1.7460 C   0  0  0  0  0  0  0  0  0  0  0  0
    3.0547   -1.2731    2.3389 H   0  0  0  0  0  0  0  0  0  0  0  0
    4.4025   -0.6748    1.3408 H   0  0  0  0  0  0  0  0  0  0  0  0
    3.5019    0.4412    2.3973 H   0  0  0  0  0  0  0  0  0  0  0  0
  5  6  2  0  0  0  0
  5  7  1  0  0  0  0
  2  3  1  0  0  0  0
  2  4  1  0  0  0  0
  2  5  1  0  0  0  0
  1  2  1  0  0  0  0
 19 20  2  0  0  0  0
 19 21  1  0  0  0  0
 17 18  1  0  0  0  0
 17 19  1  0  0  0  0
 14 15  1  0  0  0  0
 14 16  1  0  0  0  0
 14 17  1  0  0  0  0
 11 12  1  0  0  0  0
 11 13  1  0  0  0  0
 11 14  1  0  0  0  0
  8  9  1  0  0  0  0
  8 10  1  0  0  0  0
  8 11  1  0  0  0  0
  7  8  1  0  0  0  0
  7 17  1  0  0  0  0
 23 24  1  0  0  0  0
 23 25  1  0  0  0  0
 23 26  1  0  0  0  0
 21 22  1  0  0  0  0
 21 23  1  0  0  0  0
M  END
$$$$
default_name
  -OEChem-01062215323D

 26 26  0     1  0  0  0  0  0999 V2000
   -1.8446   -3.5060   -0.3010 H   0  0  0  0  0  0  0  0  0  0  0  0
   -2.0746   -2.4490   -0.4240 C   0  0  0  0  0  0  0  0  0  0  0  0
   -2.6906   -2.1160    0.4090 H   0  0  0  0  0  0  0  0  0  0  0  0
   -2.5986   -2.2980   -1.3650 H   0  0  0  0  0  0  0  0  0  0  0  0
   -0.7756   -1.6630   -0.4350 C   0  0  0  0  0  0  0  0  0  0  0  0
    0.2844   -2.2800   -0.4550 O   0  0  0  0  0  0  0  0  0  0  0  0
   -0.8246   -0.3180   -0.4350 N   0  0  0  0  0  0  0  0  0  0  0  0
   -2.0106    0.5080   -0.5910 C   0  0  0  0  0  0  0  0  0  0  0  0
   -2.4640    0.6856    0.3856 H   0  0  0  0  0  0  0  0  0  0  0  0
   -2.7374    0.0675   -1.2727 H   0  0  0  0  0  0  0  0  0  0  0  0
   -1.4841    1.8204   -1.1679 C   0  0  0  0  0  0  0  0  0  0  0  0
   -2.1507    2.6554   -0.9469 H   0  0  0  0  0  0  0  0  0  0  0  0
   -1.3377    1.7154   -2.2433 H   0  0  0  0  0  0  0  0  0  0  0  0
   -0.1306    1.9711   -0.4735 C   0  0  0  0  0  0  0  0  0  0  0  0
   -0.2787    2.3747    0.5302 H   0  0  0  0  0  0  0  0  0  0  0  0
    0.5529    2.6058   -1.0372 H   0  0  0  0  0  0  0  0  0  0  0  0
    0.3724    0.5200   -0.4020 C   0  0  1  0  0  0  0  0  0  0  0  0
    0.9653    0.3073   -1.2918 H   0  0  0  0  0  0  0  0  0  0  0  0
    1.2232    0.2686    0.8542 C   0  0  0  0  0  0  0  0  0  0  0  0
    0.6969    0.2190    1.9641 O   0  0  0  0  0  0  0  0  0  0  0  0
    2.5449    0.1498    0.6794 N   0  0  0  0  0  0  0  0  0  0  0  0
    2.8931    0.1423   -0.2659 H   0  0  0  0  0  0  0  0  0  0  0  0
    3.4940   -0.0826    1.7656 C   0  0  0  0  0  0  0  0  0  0  0  0
    3.3022   -1.0597    2.2141 H   0  0  0  0  0  0  0  0  0  0  0  0
    4.5165   -0.0530    1.3879 H   0  0  0  0  0  0  0  0  0  0  0  0
    3.3695    0.6822    2.5352 H   0  0  0  0  0  0  0  0  0  0  0  0
  5  6  2  0  0  0  0
  5  7  1  0  0  0  0
  2  3  1  0  0  0  0
  2  4  1  0  0  0  0
  2  5  1  0  0  0  0
  1  2  1  0  0  0  0
 19 20  2  0  0  0  0
 19 21  1  0  0  0  0
 17 18  1  0  0  0  0
 17 19  1  0  0  0  0
 14 15  1  0  0  0  0
 14 16  1  0  0  0  0
 14 17  1  0  0  0  0
 11 12  1  0  0  0  0
 11 13  1  0  0  0  0
 11 14  1  0  0  0  0
  8  9  1  0  0  0  0
  8 10  1  0  0  0  0
  8 11  1  0  0  0  0
  7  8  1  0  0  0  0
  7 17  1  0  0  0  0
 23 24  1  0  0  0  0
 23 25  1  0  0  0  0
 23 26  1  0  0  0  0
 21 22  1  0  0  0  0
 21 23  1  0  0  0  0
M  END
$$$$
default_name
  -OEChem-01062215323D

 26 26  0     1  0  0  0  0  0999 V2000
   -1.8446   -3.5060   -0.3010 H   0  0  0  0  0  0  0  0  0  0  0  0
   -2.0746   -2.4490   -0.4240 C   0  0  0  0  0  0  0  0  0  0  0  0
   -2.6906   -2.1160    0.4090 H   0  0  0  0  0  0  0  0  0  0  0  0
   -2.5986   -2.2980   -1.3650 H   0  0  0  0  0  0  0  0  0  0  0  0
   -0.7756   -1.6630   -0.4350 C   0  0  0  0  0  0  0  0  0  0  0  0
    0.2844   -2.2800   -0.4550 O   0  0  0  0  0  0  0  0  0  0  0  0
   -0.8246   -0.3180   -0.4350 N   0  0  0  0  0  0  0  0  0  0  0  0
   -2.0106    0.5080   -0.5910 C   0  0  0  0  0  0  0  0  0  0  0  0
   -2.4640    0.6856    0.3856 H   0  0  0  0  0  0  0  0  0  0  0  0
   -2.7374    0.0675   -1.2727 H   0  0  0  0  0  0  0  0  0  0  0  0
   -1.4841    1.8204   -1.1679 C   0  0  0  0  0  0  0  0  0  0  0  0
   -2.1507    2.6554   -0.9469 H   0  0  0  0  0  0  0  0  0  0  0  0
   -1.3377    1.7154   -2.2433 H   0  0  0  0  0  0  0  0  0  0  0  0
   -0.1306    1.9711   -0.4735 C   0  0  0  0  0  0  0  0  0  0  0  0
   -0.2787    2.3747    0.5302 H   0  0  0  0  0  0  0  0  0  0  0  0
    0.5529    2.6058   -1.0372 H   0  0  0  0  0  0  0  0  0  0  0  0
    0.3724    0.5200   -0.4020 C   0  0  1  0  0  0  0  0  0  0  0  0
    0.9653    0.3073   -1.2918 H   0  0  0  0  0  0  0  0  0  0  0  0
    1.2232    0.2686    0.8542 C   0  0  0  0  0  0  0  0  0  0  0  0
    0.6901   -0.0529    1.9143 O   0  0  0  0  0  0  0  0  0  0  0  0
    2.5438    0.4549    0.7412 N   0  0  0  0  0  0  0  0  0  0  0  0
    2.9108    0.6598   -0.1744 H   0  0  0  0  0  0  0  0  0  0  0  0
    3.4911    0.2675    1.8376 C   0  0  0  0  0  0  0  0  0  0  0  0
    3.5014   -0.7835    2.1344 H   0  0  0  0  0  0  0  0  0  0  0  0
    4.4933    0.5649    1.5273 H   0  0  0  0  0  0  0  0  0  0  0  0
    3.1848    0.8673    2.6974 H   0  0  0  0  0  0  0  0  0  0  0  0
  5  6  2  0  0  0  0
  5  7  1  0  0  0  0
  2  3  1  0  0  0  0
  2  4  1  0  0  0  0
  2  5  1  0  0  0  0
  1  2  1  0  0  0  0
 19 20  2  0  0  0  0
 19 21  1  0  0  0  0
 17 18  1  0  0  0  0
 17 19  1  0  0  0  0
 14 15  1  0  0  0  0
 14 16  1  0  0  0  0
 14 17  1  0  0  0  0
 11 12  1  0  0  0  0
 11 13  1  0  0  0  0
 11 14  1  0  0  0  0
  8  9  1  0  0  0  0
  8 10  1  0  0  0  0
  8 11  1  0  0  0  0
  7  8  1  0  0  0  0
  7 17  1  0  0  0  0
 23 24  1  0  0  0  0
 23 25  1  0  0  0  0
 23 26  1  0  0  0  0
 21 22  1  0  0  0  0
 21 23  1  0  0  0  0
M  END
$$$$
default_name
  -OEChem-01062215323D

 26 26  0     1  0  0  0  0  0999 V2000
   -1.8446   -3.5060   -0.3010 H   0  0  0  0  0  0  0  0  0  0  0  0
   -2.0746   -2.4490   -0.4240 C   0  0  0  0  0  0  0  0  0  0  0  0
   -2.6906   -2.1160    0.4090 H   0  0  0  0  0  0  0  0  0  0  0  0
   -2.5986   -2.2980   -1.3650 H   0  0  0  0  0  0  0  0  0  0  0  0
   -0.7756   -1.6630   -0.4350 C   0  0  0  0  0  0  0  0  0  0  0  0
    0.2844   -2.2800   -0.4550 O   0  0  0  0  0  0  0  0  0  0  0  0
   -0.8246   -0.3180   -0.4350 N   0  0  0  0  0  0  0  0  0  0  0  0
   -2.0106    0.5080   -0.5910 C   0  0  0  0  0  0  0  0  0  0  0  0
   -2.4640    0.6856    0.3856 H   0  0  0  0  0  0  0  0  0  0  0  0
   -2.7374    0.0675   -1.2727 H   0  0  0  0  0  0  0  0  0  0  0  0
   -1.4841    1.8204   -1.1679 C   0  0  0  0  0  0  0  0  0  0  0  0
   -2.1507    2.6554   -0.9469 H   0  0  0  0  0  0  0  0  0  0  0  0
   -1.3377    1.7154   -2.2433 H   0  0  0  0  0  0  0  0  0  0  0  0
   -0.1306    1.9711   -0.4735 C   0  0  0  0  0  0  0  0  0  0  0  0
   -0.2787    2.3747    0.5302 H   0  0  0  0  0  0  0  0  0  0  0  0
    0.5529    2.6058   -1.0372 H   0  0  0  0  0  0  0  0  0  0  0  0
    0.3724    0.5200   -0.4020 C   0  0  1  0  0  0  0  0  0  0  0  0
    0.9653    0.3073   -1.2918 H   0  0  0  0  0  0  0  0  0  0  0  0
    1.2232    0.2686    0.8542 C   0  0  0  0  0  0  0  0  0  0  0  0
    0.7432   -0.3099    1.8270 O   0  0  0  0  0  0  0  0  0  0  0  0
    2.4757    0.7406    0.8445 N   0  0  0  0  0  0  0  0  0  0  0  0
    2.8147    1.1504   -0.0111 H   0  0  0  0  0  0  0  0  0  0  0  0
    3.4113    0.5947    1.9571 C   0  0  0  0  0  0  0  0  0  0  0  0
    3.6387   -0.4631    2.1055 H   0  0  0  0  0  0  0  0  0  0  0  0
    4.3343    1.1369    1.7495 H   0  0  0  0  0  0  0  0  0  0  0  0
    2.9604    0.9838    2.8727 H   0  0  0  0  0  0  0  0  0  0  0  0
  5  6  2  0  0  0  0
  5  7  1  0  0  0  0
  2  3  1  0  0  0  0
  2  4  1  0  0  0  0
  2  5  1  0  0  0  0
  1  2  1  0  0  0  0
 19 20  2  0  0  0  0
 19 21  1  0  0  0  0
 17 18  1  0  0  0  0
 17 19  1  0  0  0  0
 14 15  1  0  0  0  0
 14 16  1  0  0  0  0
 14 17  1  0  0  0  0
 11 12  1  0  0  0  0
 11 13  1  0  0  0  0
 11 14  1  0  0  0  0
  8  9  1  0  0  0  0
  8 10  1  0  0  0  0
  8 11  1  0  0  0  0
  7  8  1  0  0  0  0
  7 17  1  0  0  0  0
 23 24  1  0  0  0  0
 23 25  1  0  0  0  0
 23 26  1  0  0  0  0
 21 22  1  0  0  0  0
 21 23  1  0  0  0  0
M  END
$$$$
default_name
  -OEChem-01062215323D

 26 26  0     1  0  0  0  0  0999 V2000
   -1.8446   -3.5060   -0.3010 H   0  0  0  0  0  0  0  0  0  0  0  0
   -2.0746   -2.4490   -0.4240 C   0  0  0  0  0  0  0  0  0  0  0  0
   -2.6906   -2.1160    0.4090 H   0  0  0  0  0  0  0  0  0  0  0  0
   -2.5986   -2.2980   -1.3650 H   0  0  0  0  0  0  0  0  0  0  0  0
   -0.7756   -1.6630   -0.4350 C   0  0  0  0  0  0  0  0  0  0  0  0
    0.2844   -2.2800   -0.4550 O   0  0  0  0  0  0  0  0  0  0  0  0
   -0.8246   -0.3180   -0.4350 N   0  0  0  0  0  0  0  0  0  0  0  0
   -2.0106    0.5080   -0.5910 C   0  0  0  0  0  0  0  0  0  0  0  0
   -2.6721    0.3080    0.2535 H   0  0  0  0  0  0  0  0  0  0  0  0
   -2.5150    0.2830   -1.5301 H   0  0  0  0  0  0  0  0  0  0  0  0
   -1.5702    1.9703   -0.5736 C   0  0  0  0  0  0  0  0  0  0  0  0
   -2.2105    2.5547    0.0890 H   0  0  0  0  0  0  0  0  0  0  0  0
   -1.6112    2.3569   -1.5924 H   0  0  0  0  0  0  0  0  0  0  0  0
   -0.1209    1.9420   -0.0885 C   0  0  0  0  0  0  0  0  0  0  0  0
   -0.1136    2.1208    0.9886 H   0  0  0  0  0  0  0  0  0  0  0  0
    0.4774    2.6964   -0.5992 H   0  0  0  0  0  0  0  0  0  0  0  0
    0.3724    0.5200   -0.4020 C   0  0  1  0  0  0  0  0  0  0  0  0
    0.8239    0.5134   -1.3943 H   0  0  0  0  0  0  0  0  0  0  0  0
    1.3983    0.0272    0.6323 C   0  0  0  0  0  0  0  0  0  0  0  0
    1.1508   -0.9462    1.3412 O   0  0  0  0  0  0  0  0  0  0  0  0
    2.5340    0.7269    0.7429 N   0  0  0  0  0  0  0  0  0  0  0  0
    2.6885    1.4752    0.0863 H   0  0  0  0  0  0  0  0  0  0  0  0
    3.6064    0.3991    1.6795 C   0  0  0  0  0  0  0  0  0  0  0  0
    4.0382   -0.5684    1.4146 H   0  0  0  0  0  0  0  0  0  0  0  0
    4.3842    1.1627    1.6471 H   0  0  0  0  0  0  0  0  0  0  0  0
    3.2048    0.3334    2.6930 H   0  0  0  0  0  0  0  0  0  0  0  0
  5  6  2  0  0  0  0
  5  7  1  0  0  0  0
  2  3  1  0  0  0  0
  2  4  1  0  0  0  0
  2  5  1  0  0  0  0
  1  2  1  0  0  0  0
 19 20  2  0  0  0  0
 19 21  1  0  0  0  0
 17 18  1  0  0  0  0
 17 19  1  0  0  0  0
 14 15  1  0  0  0  0
 14 16  1  0  0  0  0
 14 17  1  0  0  0  0
 11 12  1  0  0  0  0
 11 13  1  0  0  0  0
 11 14  1  0  0  0  0
  8  9  1  0  0  0  0
  8 10  1  0  0  0  0
  8 11  1  0  0  0  0
  7  8  1  0  0  0  0
  7 17  1  0  0  0  0
 23 24  1  0  0  0  0
 23 25  1  0  0  0  0
 23 26  1  0  0  0  0
 21 22  1  0  0  0  0
 21 23  1  0  0  0  0
M  END
$$$$
default_name
  -OEChem-01062215323D

 26 26  0     1  0  0  0  0  0999 V2000
   -1.8446   -3.5060   -0.3010 H   0  0  0  0  0  0  0  0  0  0  0  0
   -2.0746   -2.4490   -0.4240 C   0  0  0  0  0  0  0  0  0  0  0  0
   -2.6906   -2.1160    0.4090 H   0  0  0  0  0  0  0  0  0  0  0  0
   -2.5986   -2.2980   -1.3650 H   0  0  0  0  0  0  0  0  0  0  0  0
   -0.7756   -1.6630   -0.4350 C   0  0  0  0  0  0  0  0  0  0  0  0
    0.2844   -2.2800   -0.4550 O   0  0  0  0  0  0  0  0  0  0  0  0
   -0.8246   -0.3180   -0.4350 N   0  0  0  0  0  0  0  0  0  0  0  0
   -2.0106    0.5080   -0.5910 C   0  0  0  0  0  0  0  0  0  0  0  0
   -2.6721    0.3080    0.2535 H   0  0  0  0  0  0  0  0  0  0  0  0
   -2.5150    0.2830   -1.5301 H   0  0  0  0  0  0  0  0  0  0  0  0
   -1.5702    1.9703   -0.5736 C   0  0  0  0  0  0  0  0  0  0  0  0
   -2.2105    2.5547    0.0890 H   0  0  0  0  0  0  0  0  0  0  0  0
   -1.6112    2.3569   -1.5924 H   0  0  0  0  0  0  0  0  0  0  0  0
   -0.1209    1.9420   -0.0885 C   0  0  0  0  0  0  0  0  0  0  0  0
   -0.1136    2.1208    0.9886 H   0  0  0  0  0  0  0  0  0  0  0  0
    0.4774    2.6964   -0.5992 H   0  0  0  0  0  0  0  0  0  0  0  0
    0.3724    0.5200   -0.4020 C   0  0  1  0  0  0  0  0  0  0  0  0
    0.8239    0.5134   -1.3943 H   0  0  0  0  0  0  0  0  0  0  0  0
    1.3983    0.0272    0.6323 C   0  0  0  0  0  0  0  0  0  0  0  0
    1.2841   -1.0853    1.1428 O   0  0  0  0  0  0  0  0  0  0  0  0
    2.3782    0.8750    0.9681 N   0  0  0  0  0  0  0  0  0  0  0  0
    2.4384    1.7443    0.4626 H   0  0  0  0  0  0  0  0  0  0  0  0
    3.4264    0.5675    1.9383 C   0  0  0  0  0  0  0  0  0  0  0  0
    4.0434   -0.2507    1.5608 H   0  0  0  0  0  0  0  0  0  0  0  0
    4.0531    1.4434    2.1091 H   0  0  0  0  0  0  0  0  0  0  0  0
    2.9757    0.2544    2.8826 H   0  0  0  0  0  0  0  0  0  0  0  0
  5  6  2  0  0  0  0
  5  7  1  0  0  0  0
  2  3  1  0  0  0  0
  2  4  1  0  0  0  0
  2  5  1  0  0  0  0
  1  2  1  0  0  0  0
 19 20  2  0  0  0  0
 19 21  1  0  0  0  0
 17 18  1  0  0  0  0
 17 19  1  0  0  0  0
 14 15  1  0  0  0  0
 14 16  1  0  0  0  0
 14 17  1  0  0  0  0
 11 12  1  0  0  0  0
 11 13  1  0  0  0  0
 11 14  1  0  0  0  0
  8  9  1  0  0  0  0
  8 10  1  0  0  0  0
  8 11  1  0  0  0  0
  7  8  1  0  0  0  0
  7 17  1  0  0  0  0
 23 24  1  0  0  0  0
 23 25  1  0  0  0  0
 23 26  1  0  0  0  0
 21 22  1  0  0  0  0
 21 23  1  0  0  0  0
M  END
$$$$
default_name
  -OEChem-01062215323D

 26 26  0     1  0  0  0  0  0999 V2000
   -1.8446   -3.5060   -0.3010 H   0  0  0  0  0  0  0  0  0  0  0  0
   -2.0746   -2.4490   -0.4240 C   0  0  0  0  0  0  0  0  0  0  0  0
   -2.6906   -2.1160    0.4090 H   0  0  0  0  0  0  0  0  0  0  0  0
   -2.5986   -2.2980   -1.3650 H   0  0  0  0  0  0  0  0  0  0  0  0
   -0.7756   -1.6630   -0.4350 C   0  0  0  0  0  0  0  0  0  0  0  0
    0.2844   -2.2800   -0.4550 O   0  0  0  0  0  0  0  0  0  0  0  0
   -0.8246   -0.3180   -0.4350 N   0  0  0  0  0  0  0  0  0  0  0  0
   -2.0106    0.5080   -0.5910 C   0  0  0  0  0  0  0  0  0  0  0  0
   -2.6721    0.3080    0.2535 H   0  0  0  0  0  0  0  0  0  0  0  0
   -2.5150    0.2830   -1.5301 H   0  0  0  0  0  0  0  0  0  0  0  0
   -1.5702    1.9703   -0.5736 C   0  0  0  0  0  0  0  0  0  0  0  0
   -2.2105    2.5547    0.0890 H   0  0  0  0  0  0  0  0  0  0  0  0
   -1.6112    2.3569   -1.5924 H   0  0  0  0  0  0  0  0  0  0  0  0
   -0.1209    1.9420   -0.0885 C   0  0  0  0  0  0  0  0  0  0  0  0
   -0.1136    2.1208    0.9886 H   0  0  0  0  0  0  0  0  0  0  0  0
    0.4774    2.6964   -0.5992 H   0  0  0  0  0  0  0  0  0  0  0  0
    0.3724    0.5200   -0.4020 C   0  0  1  0  0  0  0  0  0  0  0  0
    0.8239    0.5134   -1.3943 H   0  0  0  0  0  0  0  0  0  0  0  0
    1.3983    0.0272    0.6323 C   0  0  0  0  0  0  0  0  0  0  0  0
    1.4535   -1.1622    0.9381 O   0  0  0  0  0  0  0  0  0  0  0  0
    2.1832    0.9521    1.1982 N   0  0  0  0  0  0  0  0  0  0  0  0
    2.1188    1.8959    0.8518 H   0  0  0  0  0  0  0  0  0  0  0  0
    3.2017    0.6542    2.2024 C   0  0  0  0  0  0  0  0  0  0  0  0
    3.9810    0.0318    1.7574 H   0  0  0  0  0  0  0  0  0  0  0  0
    3.6462    1.5770    2.5764 H   0  0  0  0  0  0  0  0  0  0  0  0
    2.7524    0.1055    3.0331 H   0  0  0  0  0  0  0  0  0  0  0  0
  5  6  2  0  0  0  0
  5  7  1  0  0  0  0
  2  3  1  0  0  0  0
  2  4  1  0  0  0  0
  2  5  1  0  0  0  0
  1  2  1  0  0  0  0
 19 20  2  0  0  0  0
 19 21  1  0  0  0  0
 17 18  1  0  0  0  0
 17 19  1  0  0  0  0
 14 15  1  0  0  0  0
 14 16  1  0  0  0  0
 14 17  1  0  0  0  0
 11 12  1  0  0  0  0
 11 13  1  0  0  0  0
 11 14  1  0  0  0  0
  8  9  1  0  0  0  0
  8 10  1  0  0  0  0
  8 11  1  0  0  0  0
  7  8  1  0  0  0  0
  7 17  1  0  0  0  0
 23 24  1  0  0  0  0
 23 25  1  0  0  0  0
 23 26  1  0  0  0  0
 21 22  1  0  0  0  0
 21 23  1  0  0  0  0
M  END
$$$$
default_name
  -OEChem-01062215323D

 26 26  0     1  0  0  0  0  0999 V2000
   -1.8446   -3.5060   -0.3010 H   0  0  0  0  0  0  0  0  0  0  0  0
   -2.0746   -2.4490   -0.4240 C   0  0  0  0  0  0  0  0  0  0  0  0
   -2.6906   -2.1160    0.4090 H   0  0  0  0  0  0  0  0  0  0  0  0
   -2.5986   -2.2980   -1.3650 H   0  0  0  0  0  0  0  0  0  0  0  0
   -0.7756   -1.6630   -0.4350 C   0  0  0  0  0  0  0  0  0  0  0  0
    0.2844   -2.2800   -0.4550 O   0  0  0  0  0  0  0  0  0  0  0  0
   -0.8246   -0.3180   -0.4350 N   0  0  0  0  0  0  0  0  0  0  0  0
   -2.0106    0.5080   -0.5910 C   0  0  0  0  0  0  0  0  0  0  0  0
   -2.6721    0.3080    0.2535 H   0  0  0  0  0  0  0  0  0  0  0  0
   -2.5150    0.2830   -1.5301 H   0  0  0  0  0  0  0  0  0  0  0  0
   -1.5702    1.9703   -0.5736 C   0  0  0  0  0  0  0  0  0  0  0  0
   -2.2105    2.5547    0.0890 H   0  0  0  0  0  0  0  0  0  0  0  0
   -1.6112    2.3569   -1.5924 H   0  0  0  0  0  0  0  0  0  0  0  0
   -0.1209    1.9420   -0.0885 C   0  0  0  0  0  0  0  0  0  0  0  0
   -0.1136    2.1208    0.9886 H   0  0  0  0  0  0  0  0  0  0  0  0
    0.4774    2.6964   -0.5992 H   0  0  0  0  0  0  0  0  0  0  0  0
    0.3724    0.5200   -0.4020 C   0  0  1  0  0  0  0  0  0  0  0  0
    0.8239    0.5134   -1.3943 H   0  0  0  0  0  0  0  0  0  0  0  0
    1.3983    0.0272    0.6323 C   0  0  0  0  0  0  0  0  0  0  0  0
    1.6475   -1.1717    0.7412 O   0  0  0  0  0  0  0  0  0  0  0  0
    1.9623    0.9529    1.4176 N   0  0  0  0  0  0  0  0  0  0  0  0
    1.7515    1.9194    1.2274 H   0  0  0  0  0  0  0  0  0  0  0  0
    2.9477    0.6532    2.4539 C   0  0  0  0  0  0  0  0  0  0  0  0
    3.8552    0.2599    1.9908 H   0  0  0  0  0  0  0  0  0  0  0  0
    3.1912    1.5546    3.0171 H   0  0  0  0  0  0  0  0  0  0  0  0
    2.5502   -0.1031    3.1342 H   0  0  0  0  0  0  0  0  0  0  0  0
  5  6  2  0  0  0  0
  5  7  1  0  0  0  0
  2  3  1  0  0  0  0
  2  4  1  0  0  0  0
  2  5  1  0  0  0  0
  1  2  1  0  0  0  0
 19 20  2  0  0  0  0
 19 21  1  0  0  0  0
 17 18  1  0  0  0  0
 17 19  1  0  0  0  0
 14 15  1  0  0  0  0
 14 16  1  0  0  0  0
 14 17  1  0  0  0  0
 11 12  1  0  0  0  0
 11 13  1  0  0  0  0
 11 14  1  0  0  0  0
  8  9  1  0  0  0  0
  8 10  1  0  0  0  0
  8 11  1  0  0  0  0
  7  8  1  0  0  0  0
  7 17  1  0  0  0  0
 23 24  1  0  0  0  0
 23 25  1  0  0  0  0
 23 26  1  0  0  0  0
 21 22  1  0  0  0  0
 21 23  1  0  0  0  0
M  END
$$$$
default_name
  -OEChem-01062215323D

 26 26  0     1  0  0  0  0  0999 V2000
   -1.8446   -3.5060   -0.3010 H   0  0  0  0  0  0  0  0  0  0  0  0
   -2.0746   -2.4490   -0.4240 C   0  0  0  0  0  0  0  0  0  0  0  0
   -2.6906   -2.1160    0.4090 H   0  0  0  0  0  0  0  0  0  0  0  0
   -2.5986   -2.2980   -1.3650 H   0  0  0  0  0  0  0  0  0  0  0  0
   -0.7756   -1.6630   -0.4350 C   0  0  0  0  0  0  0  0  0  0  0  0
    0.2844   -2.2800   -0.4550 O   0  0  0  0  0  0  0  0  0  0  0  0
   -0.8246   -0.3180   -0.4350 N   0  0  0  0  0  0  0  0  0  0  0  0
   -2.0106    0.5080   -0.5910 C   0  0  0  0  0  0  0  0  0  0  0  0
   -2.6721    0.3080    0.2535 H   0  0  0  0  0  0  0  0  0  0  0  0
   -2.5150    0.2830   -1.5301 H   0  0  0  0  0  0  0  0  0  0  0  0
   -1.5702    1.9703   -0.5736 C   0  0  0  0  0  0  0  0  0  0  0  0
   -2.2105    2.5547    0.0890 H   0  0  0  0  0  0  0  0  0  0  0  0
   -1.6112    2.3569   -1.5924 H   0  0  0  0  0  0  0  0  0  0  0  0
   -0.1209    1.9420   -0.0885 C   0  0  0  0  0  0  0  0  0  0  0  0
   -0.1136    2.1208    0.9886 H   0  0  0  0  0  0  0  0  0  0  0  0
    0.4774    2.6964   -0.5992 H   0  0  0  0  0  0  0  0  0  0  0  0
    0.3724    0.5200   -0.4020 C   0  0  1  0  0  0  0  0  0  0  0  0
    0.8239    0.5134   -1.3943 H   0  0  0  0  0  0  0  0  0  0  0  0
    1.3983    0.0272    0.6323 C   0  0  0  0  0  0  0  0  0  0  0  0
    1.8528   -1.1131    0.5655 O   0  0  0  0  0  0  0  0  0  0  0  0
    1.7307    0.8773    1.6114 N   0  0  0  0  0  0  0  0  0  0  0  0
    1.3614    1.8134    1.5637 H   0  0  0  0  0  0  0  0  0  0  0  0
    2.6816    0.5646    2.6756 C   0  0  0  0  0  0  0  0  0  0  0  0
    3.6746    0.4181    2.2452 H   0  0  0  0  0  0  0  0  0  0  0  0
    2.7189    1.3777    3.4012 H   0  0  0  0  0  0  0  0  0  0  0  0
    2.3829   -0.3574    3.1791 H   0  0  0  0  0  0  0  0  0  0  0  0
  5  6  2  0  0  0  0
  5  7  1  0  0  0  0
  2  3  1  0  0  0  0
  2  4  1  0  0  0  0
  2  5  1  0  0  0  0
  1  2  1  0  0  0  0
 19 20  2  0  0  0  0
 19 21  1  0  0  0  0
 17 18  1  0  0  0  0
 17 19  1  0  0  0  0
 14 15  1  0  0  0  0
 14 16  1  0  0  0  0
 14 17  1  0  0  0  0
 11 12  1  0  0  0  0
 11 13  1  0  0  0  0
 11 14  1  0  0  0  0
  8  9  1  0  0  0  0
  8 10  1  0  0  0  0
  8 11  1  0  0  0  0
  7  8  1  0  0  0  0
  7 17  1  0  0  0  0
 23 24  1  0  0  0  0
 23 25  1  0  0  0  0
 23 26  1  0  0  0  0
 21 22  1  0  0  0  0
 21 23  1  0  0  0  0
M  END
$$$$
default_name
  -OEChem-01062215323D

 26 26  0     1  0  0  0  0  0999 V2000
   -1.8446   -3.5060   -0.3010 H   0  0  0  0  0  0  0  0  0  0  0  0
   -2.0746   -2.4490   -0.4240 C   0  0  0  0  0  0  0  0  0  0  0  0
   -2.6906   -2.1160    0.4090 H   0  0  0  0  0  0  0  0  0  0  0  0
   -2.5986   -2.2980   -1.3650 H   0  0  0  0  0  0  0  0  0  0  0  0
   -0.7756   -1.6630   -0.4350 C   0  0  0  0  0  0  0  0  0  0  0  0
    0.2844   -2.2800   -0.4550 O   0  0  0  0  0  0  0  0  0  0  0  0
   -0.8246   -0.3180   -0.4350 N   0  0  0  0  0  0  0  0  0  0  0  0
   -2.0106    0.5080   -0.5910 C   0  0  0  0  0  0  0  0  0  0  0  0
   -2.6721    0.3080    0.2535 H   0  0  0  0  0  0  0  0  0  0  0  0
   -2.5150    0.2830   -1.5301 H   0  0  0  0  0  0  0  0  0  0  0  0
   -1.5702    1.9703   -0.5736 C   0  0  0  0  0  0  0  0  0  0  0  0
   -2.2105    2.5547    0.0890 H   0  0  0  0  0  0  0  0  0  0  0  0
   -1.6112    2.3569   -1.5924 H   0  0  0  0  0  0  0  0  0  0  0  0
   -0.1209    1.9420   -0.0885 C   0  0  0  0  0  0  0  0  0  0  0  0
   -0.1136    2.1208    0.9886 H   0  0  0  0  0  0  0  0  0  0  0  0
    0.4774    2.6964   -0.5992 H   0  0  0  0  0  0  0  0  0  0  0  0
    0.3724    0.5200   -0.4020 C   0  0  1  0  0  0  0  0  0  0  0  0
    0.8239    0.5134   -1.3943 H   0  0  0  0  0  0  0  0  0  0  0  0
    1.3983    0.0272    0.6323 C   0  0  0  0  0  0  0  0  0  0  0  0
    2.0555   -0.9903    0.4229 O   0  0  0  0  0  0  0  0  0  0  0  0
    1.5040    0.7305    1.7663 N   0  0  0  0  0  0  0  0  0  0  0  0
    0.9752    1.5849    1.8380 H   0  0  0  0  0  0  0  0  0  0  0  0
    2.4217    0.3945    2.8523 C   0  0  0  0  0  0  0  0  0  0  0  0
    3.4516    0.4955    2.5033 H   0  0  0  0  0  0  0  0  0  0  0  0
    2.2617    1.0583    3.7025 H   0  0  0  0  0  0  0  0  0  0  0  0
    2.2617   -0.6398    3.1647 H   0  0  0  0  0  0  0  0  0  0  0  0
  5  6  2  0  0  0  0
  5  7  1  0  0  0  0
  2  3  1  0  0  0  0
  2  4  1  0  0  0  0
  2  5  1  0  0  0  0
  1  2  1  0  0  0  0
 19 20  2  0  0  0  0
 19 21  1  0  0  0  0
 17 18  1  0  0  0  0
 17 19  1  0  0  0  0
 14 15  1  0  0  0  0
 14 16  1  0  0  0  0
 14 17  1  0  0  0  0
 11 12  1  0  0  0  0
 11 13  1  0  0  0  0
 11 14  1  0  0  0  0
  8  9  1  0  0  0  0
  8 10  1  0  0  0  0
  8 11  1  0  0  0  0
  7  8  1  0  0  0  0
  7 17  1  0  0  0  0
 23 24  1  0  0  0  0
 23 25  1  0  0  0  0
 23 26  1  0  0  0  0
 21 22  1  0  0  0  0
 21 23  1  0  0  0  0
M  END
$$$$
default_name
  -OEChem-01062215323D

 26 26  0     1  0  0  0  0  0999 V2000
   -1.8446   -3.5060   -0.3010 H   0  0  0  0  0  0  0  0  0  0  0  0
   -2.0746   -2.4490   -0.4240 C   0  0  0  0  0  0  0  0  0  0  0  0
   -2.6906   -2.1160    0.4090 H   0  0  0  0  0  0  0  0  0  0  0  0
   -2.5986   -2.2980   -1.3650 H   0  0  0  0  0  0  0  0  0  0  0  0
   -0.7756   -1.6630   -0.4350 C   0  0  0  0  0  0  0  0  0  0  0  0
    0.2844   -2.2800   -0.4550 O   0  0  0  0  0  0  0  0  0  0  0  0
   -0.8246   -0.3180   -0.4350 N   0  0  0  0  0  0  0  0  0  0  0  0
   -2.0106    0.5080   -0.5910 C   0  0  0  0  0  0  0  0  0  0  0  0
   -2.6721    0.3080    0.2535 H   0  0  0  0  0  0  0  0  0  0  0  0
   -2.5150    0.2830   -1.5301 H   0  0  0  0  0  0  0  0  0  0  0  0
   -1.5702    1.9703   -0.5736 C   0  0  0  0  0  0  0  0  0  0  0  0
   -2.2105    2.5547    0.0890 H   0  0  0  0  0  0  0  0  0  0  0  0
   -1.6112    2.3569   -1.5924 H   0  0  0  0  0  0  0  0  0  0  0  0
   -0.1209    1.9420   -0.0885 C   0  0  0  0  0  0  0  0  0  0  0  0
   -0.1136    2.1208    0.9886 H   0  0  0  0  0  0  0  0  0  0  0  0
    0.4774    2.6964   -0.5992 H   0  0  0  0  0  0  0  0  0  0  0  0
    0.3724    0.5200   -0.4020 C   0  0  1  0  0  0  0  0  0  0  0  0
    0.8239    0.5134   -1.3943 H   0  0  0  0  0  0  0  0  0  0  0  0
    1.3983    0.0272    0.6323 C   0  0  0  0  0  0  0  0  0  0  0  0
    2.2418   -0.8119    0.3231 O   0  0  0  0  0  0  0  0  0  0  0  0
    1.2978    0.5225    1.8718 N   0  0  0  0  0  0  0  0  0  0  0  0
    0.6191    1.2497    2.0314 H   0  0  0  0  0  0  0  0  0  0  0  0
    2.1856    0.1543    2.9721 C   0  0  0  0  0  0  0  0  0  0  0  0
    3.2013    0.4869    2.7475 H   0  0  0  0  0  0  0  0  0  0  0  0
    1.8508    0.6182    3.9005 H   0  0  0  0  0  0  0  0  0  0  0  0
    2.1951   -0.9312    3.0920 H   0  0  0  0  0  0  0  0  0  0  0  0
  5  6  2  0  0  0  0
  5  7  1  0  0  0  0
  2  3  1  0  0  0  0
  2  4  1  0  0  0  0
  2  5  1  0  0  0  0
  1  2  1  0  0  0  0
 19 20  2  0  0  0  0
 19 21  1  0  0  0  0
 17 18  1  0  0  0  0
 17 19  1  0  0  0  0
 14 15  1  0  0  0  0
 14 16  1  0  0  0  0
 14 17  1  0  0  0  0
 11 12  1  0  0  0  0
 11 13  1  0  0  0  0
 11 14  1  0  0  0  0
  8  9  1  0  0  0  0
  8 10  1  0  0  0  0
  8 11  1  0  0  0  0
  7  8  1  0  0  0  0
  7 17  1  0  0  0  0
 23 24  1  0  0  0  0
 23 25  1  0  0  0  0
 23 26  1  0  0  0  0
 21 22  1  0  0  0  0
 21 23  1  0  0  0  0
M  END
$$$$
default_name
  -OEChem-01062215323D

 26 26  0     1  0  0  0  0  0999 V2000
   -1.8446   -3.5060   -0.3010 H   0  0  0  0  0  0  0  0  0  0  0  0
   -2.0746   -2.4490   -0.4240 C   0  0  0  0  0  0  0  0  0  0  0  0
   -2.6906   -2.1160    0.4090 H   0  0  0  0  0  0  0  0  0  0  0  0
   -2.5986   -2.2980   -1.3650 H   0  0  0  0  0  0  0  0  0  0  0  0
   -0.7756   -1.6630   -0.4350 C   0  0  0  0  0  0  0  0  0  0  0  0
    0.2844   -2.2800   -0.4550 O   0  0  0  0  0  0  0  0  0  0  0  0
   -0.8246   -0.3180   -0.4350 N   0  0  0  0  0  0  0  0  0  0  0  0
   -2.0106    0.5080   -0.5910 C   0  0  0  0  0  0  0  0  0  0  0  0
   -2.6721    0.3080    0.2535 H   0  0  0  0  0  0  0  0  0  0  0  0
   -2.5150    0.2830   -1.5301 H   0  0  0  0  0  0  0  0  0  0  0  0
   -1.5702    1.9703   -0.5736 C   0  0  0  0  0  0  0  0  0  0  0  0
   -2.2105    2.5547    0.0890 H   0  0  0  0  0  0  0  0  0  0  0  0
   -1.6112    2.3569   -1.5924 H   0  0  0  0  0  0  0  0  0  0  0  0
   -0.1209    1.9420   -0.0885 C   0  0  0  0  0  0  0  0  0  0  0  0
   -0.1136    2.1208    0.9886 H   0  0  0  0  0  0  0  0  0  0  0  0
    0.4774    2.6964   -0.5992 H   0  0  0  0  0  0  0  0  0  0  0  0
    0.3724    0.5200   -0.4020 C   0  0  1  0  0  0  0  0  0  0  0  0
    0.8239    0.5134   -1.3943 H   0  0  0  0  0  0  0  0  0  0  0  0
    1.3983    0.0272    0.6323 C   0  0  0  0  0  0  0  0  0  0  0  0
    2.3990   -0.5899    0.2730 O   0  0  0  0  0  0  0  0  0  0  0  0
    1.1260    0.2675    1.9206 N   0  0  0  0  0  0  0  0  0  0  0  0
    0.3175    0.8306    2.1309 H   0  0  0  0  0  0  0  0  0  0  0  0
    1.9894   -0.1394    3.0268 C   0  0  0  0  0  0  0  0  0  0  0  0
    2.9408    0.3928    2.9611 H   0  0  0  0  0  0  0  0  0  0  0  0
    1.5140    0.0873    3.9816 H   0  0  0  0  0  0  0  0  0  0  0  0
    2.1874   -1.2118    2.9659 H   0  0  0  0  0  0  0  0  0  0  0  0
  5  6  2  0  0  0  0
  5  7  1  0  0  0  0
  2  3  1  0  0  0  0
  2  4  1  0  0  0  0
  2  5  1  0  0  0  0
  1  2  1  0  0  0  0
 19 20  2  0  0  0  0
 19 21  1  0  0  0  0
 17 18  1  0  0  0  0
 17 19  1  0  0  0  0
 14 15  1  0  0  0  0
 14 16  1  0  0  0  0
 14 17  1  0  0  0  0
 11 12  1  0  0  0  0
 11 13  1  0  0  0  0
 11 14  1  0  0  0  0
  8  9  1  0  0  0  0
  8 10  1  0  0  0  0
  8 11  1  0  0  0  0
  7  8  1  0  0  0  0
  7 17  1  0  0  0  0
 23 24  1  0  0  0  0
 23 25  1  0  0  0  0
 23 26  1  0  0  0  0
 21 22  1  0  0  0  0
 21 23  1  0  0  0  0
M  END
$$$$
default_name
  -OEChem-01062215323D

 26 26  0     1  0  0  0  0  0999 V2000
   -1.8446   -3.5060   -0.3010 H   0  0  0  0  0  0  0  0  0  0  0  0
   -2.0746   -2.4490   -0.4240 C   0  0  0  0  0  0  0  0  0  0  0  0
   -2.6906   -2.1160    0.4090 H   0  0  0  0  0  0  0  0  0  0  0  0
   -2.5986   -2.2980   -1.3650 H   0  0  0  0  0  0  0  0  0  0  0  0
   -0.7756   -1.6630   -0.4350 C   0  0  0  0  0  0  0  0  0  0  0  0
    0.2844   -2.2800   -0.4550 O   0  0  0  0  0  0  0  0  0  0  0  0
   -0.8246   -0.3180   -0.4350 N   0  0  0  0  0  0  0  0  0  0  0  0
   -2.0106    0.5080   -0.5910 C   0  0  0  0  0  0  0  0  0  0  0  0
   -2.6721    0.3080    0.2535 H   0  0  0  0  0  0  0  0  0  0  0  0
   -2.5150    0.2830   -1.5301 H   0  0  0  0  0  0  0  0  0  0  0  0
   -1.5702    1.9703   -0.5736 C   0  0  0  0  0  0  0  0  0  0  0  0
   -2.2105    2.5547    0.0890 H   0  0  0  0  0  0  0  0  0  0  0  0
   -1.6112    2.3569   -1.5924 H   0  0  0  0  0  0  0  0  0  0  0  0
   -0.1209    1.9420   -0.0885 C   0  0  0  0  0  0  0  0  0  0  0  0
   -0.1136    2.1208    0.9886 H   0  0  0  0  0  0  0  0  0  0  0  0
    0.4774    2.6964   -0.5992 H   0  0  0  0  0  0  0  0  0  0  0  0
    0.3724    0.5200   -0.4020 C   0  0  1  0  0  0  0  0  0  0  0  0
    0.8239    0.5134   -1.3943 H   0  0  0  0  0  0  0  0  0  0  0  0
    1.3983    0.0272    0.6323 C   0  0  0  0  0  0  0  0  0  0  0  0
    2.5163   -0.3395    0.2760 O   0  0  0  0  0  0  0  0  0  0  0  0
    1.0004   -0.0171    1.9096 N   0  0  0  0  0  0  0  0  0  0  0  0
    0.0909    0.3560    2.1296 H   0  0  0  0  0  0  0  0  0  0  0  0
    1.8465   -0.4667    3.0126 C   0  0  0  0  0  0  0  0  0  0  0  0
    2.6878    0.2197    3.1295 H   0  0  0  0  0  0  0  0  0  0  0  0
    1.2743   -0.4981    3.9404 H   0  0  0  0  0  0  0  0  0  0  0  0
    2.2393   -1.4623    2.7950 H   0  0  0  0  0  0  0  0  0  0  0  0
  5  6  2  0  0  0  0
  5  7  1  0  0  0  0
  2  3  1  0  0  0  0
  2  4  1  0  0  0  0
  2  5  1  0  0  0  0
  1  2  1  0  0  0  0
 19 20  2  0  0  0  0
 19 21  1  0  0  0  0
 17 18  1  0  0  0  0
 17 19  1  0  0  0  0
 14 15  1  0  0  0  0
 14 16  1  0  0  0  0
 14 17  1  0  0  0  0
 11 12  1  0  0  0  0
 11 13  1  0  0  0  0
 11 14  1  0  0  0  0
  8  9  1  0  0  0  0
  8 10  1  0  0  0  0
  8 11  1  0  0  0  0
  7  8  1  0  0  0  0
  7 17  1  0  0  0  0
 23 24  1  0  0  0  0
 23 25  1  0  0  0  0
 23 26  1  0  0  0  0
 21 22  1  0  0  0  0
 21 23  1  0  0  0  0
M  END
$$$$
default_name
  -OEChem-01062215323D

 26 26  0     1  0  0  0  0  0999 V2000
   -1.8446   -3.5060   -0.3010 H   0  0  0  0  0  0  0  0  0  0  0  0
   -2.0746   -2.4490   -0.4240 C   0  0  0  0  0  0  0  0  0  0  0  0
   -2.6906   -2.1160    0.4090 H   0  0  0  0  0  0  0  0  0  0  0  0
   -2.5986   -2.2980   -1.3650 H   0  0  0  0  0  0  0  0  0  0  0  0
   -0.7756   -1.6630   -0.4350 C   0  0  0  0  0  0  0  0  0  0  0  0
    0.2844   -2.2800   -0.4550 O   0  0  0  0  0  0  0  0  0  0  0  0
   -0.8246   -0.3180   -0.4350 N   0  0  0  0  0  0  0  0  0  0  0  0
   -2.0106    0.5080   -0.5910 C   0  0  0  0  0  0  0  0  0  0  0  0
   -2.6721    0.3080    0.2535 H   0  0  0  0  0  0  0  0  0  0  0  0
   -2.5150    0.2830   -1.5301 H   0  0  0  0  0  0  0  0  0  0  0  0
   -1.5702    1.9703   -0.5736 C   0  0  0  0  0  0  0  0  0  0  0  0
   -2.2105    2.5547    0.0890 H   0  0  0  0  0  0  0  0  0  0  0  0
   -1.6112    2.3569   -1.5924 H   0  0  0  0  0  0  0  0  0  0  0  0
   -0.1209    1.9420   -0.0885 C   0  0  0  0  0  0  0  0  0  0  0  0
   -0.1136    2.1208    0.9886 H   0  0  0  0  0  0  0  0  0  0  0  0
    0.4774    2.6964   -0.5992 H   0  0  0  0  0  0  0  0  0  0  0  0
    0.3724    0.5200   -0.4020 C   0  0  1  0  0  0  0  0  0  0  0  0
    0.8239    0.5134   -1.3943 H   0  0  0  0  0  0  0  0  0  0  0  0
    1.3983    0.0272    0.6323 C   0  0  0  0  0  0  0  0  0  0  0  0
    2.5857   -0.0776    0.3318 O   0  0  0  0  0  0  0  0  0  0  0  0
    0.9296   -0.3120    1.8393 N   0  0  0  0  0  0  0  0  0  0  0  0
   -0.0453   -0.1416    2.0276 H   0  0  0  0  0  0  0  0  0  0  0  0
    1.7666   -0.8053    2.9305 C   0  0  0  0  0  0  0  0  0  0  0  0
    2.4596   -0.0206    3.2414 H   0  0  0  0  0  0  0  0  0  0  0  0
    1.1482   -1.0981    3.7796 H   0  0  0  0  0  0  0  0  0  0  0  0
    2.3473   -1.6657    2.5911 H   0  0  0  0  0  0  0  0  0  0  0  0
  5  6  2  0  0  0  0
  5  7  1  0  0  0  0
  2  3  1  0  0  0  0
  2  4  1  0  0  0  0
  2  5  1  0  0  0  0
  1  2  1  0  0  0  0
 19 20  2  0  0  0  0
 19 21  1  0  0  0  0
 17 18  1  0  0  0  0
 17 19  1  0  0  0  0
 14 15  1  0  0  0  0
 14 16  1  0  0  0  0
 14 17  1  0  0  0  0
 11 12  1  0  0  0  0
 11 13  1  0  0  0  0
 11 14  1  0  0  0  0
  8  9  1  0  0  0  0
  8 10  1  0  0  0  0
  8 11  1  0  0  0  0
  7  8  1  0  0  0  0
  7 17  1  0  0  0  0
 23 24  1  0  0  0  0
 23 25  1  0  0  0  0
 23 26  1  0  0  0  0
 21 22  1  0  0  0  0
 21 23  1  0  0  0  0
M  END
$$$$
default_name
  -OEChem-01062215323D

 26 26  0     1  0  0  0  0  0999 V2000
   -1.8446   -3.5060   -0.3010 H   0  0  0  0  0  0  0  0  0  0  0  0
   -2.0746   -2.4490   -0.4240 C   0  0  0  0  0  0  0  0  0  0  0  0
   -2.6906   -2.1160    0.4090 H   0  0  0  0  0  0  0  0  0  0  0  0
   -2.5986   -2.2980   -1.3650 H   0  0  0  0  0  0  0  0  0  0  0  0
   -0.7756   -1.6630   -0.4350 C   0  0  0  0  0  0  0  0  0  0  0  0
    0.2844   -2.2800   -0.4550 O   0  0  0  0  0  0  0  0  0  0  0  0
   -0.8246   -0.3180   -0.4350 N   0  0  0  0  0  0  0  0  0  0  0  0
   -2.0106    0.5080   -0.5910 C   0  0  0  0  0  0  0  0  0  0  0  0
   -2.6721    0.3080    0.2535 H   0  0  0  0  0  0  0  0  0  0  0  0
   -2.5150    0.2830   -1.5301 H   0  0  0  0  0  0  0  0  0  0  0  0
   -1.5702    1.9703   -0.5736 C   0  0  0  0  0  0  0  0  0  0  0  0
   -2.2105    2.5547    0.0890 H   0  0  0  0  0  0  0  0  0  0  0  0
   -1.6112    2.3569   -1.5924 H   0  0  0  0  0  0  0  0  0  0  0  0
   -0.1209    1.9420   -0.0885 C   0  0  0  0  0  0  0  0  0  0  0  0
   -0.1136    2.1208    0.9886 H   0  0  0  0  0  0  0  0  0  0  0  0
    0.4774    2.6964   -0.5992 H   0  0  0  0  0  0  0  0  0  0  0  0
    0.3724    0.5200   -0.4020 C   0  0  1  0  0  0  0  0  0  0  0  0
    0.8239    0.5134   -1.3943 H   0  0  0  0  0  0  0  0  0  0  0  0
    1.3983    0.0272    0.6323 C   0  0  0  0  0  0  0  0  0  0  0  0
    2.6026    0.1777    0.4367 O   0  0  0  0  0  0  0  0  0  0  0  0
    0.9184   -0.5971    1.7147 N   0  0  0  0  0  0  0  0  0  0  0  0
   -0.0817   -0.6284    1.8318 H   0  0  0  0  0  0  0  0  0  0  0  0
    1.7551   -1.1321    2.7862 C   0  0  0  0  0  0  0  0  0  0  0  0
    2.2717   -0.3117    3.2891 H   0  0  0  0  0  0  0  0  0  0  0  0
    1.1441   -1.6719    3.5103 H   0  0  0  0  0  0  0  0  0  0  0  0
    2.5039   -1.8083    2.3678 H   0  0  0  0  0  0  0  0  0  0  0  0
  5  6  2  0  0  0  0
  5  7  1  0  0  0  0
  2  3  1  0  0  0  0
  2  4  1  0  0  0  0
  2  5  1  0  0  0  0
  1  2  1  0  0  0  0
 19 20  2  0  0  0  0
 19 21  1  0  0  0  0
 17 18  1  0  0  0  0
 17 19  1  0  0  0  0
 14 15  1  0  0  0  0
 14 16  1  0  0  0  0
 14 17  1  0  0  0  0
 11 12  1  0  0  0  0
 11 13  1  0  0  0  0
 11 14  1  0  0  0  0
  8  9  1  0  0  0  0
  8 10  1  0  0  0  0
  8 11  1  0  0  0  0
  7  8  1  0  0  0  0
  7 17  1  0  0  0  0
 23 24  1  0  0  0  0
 23 25  1  0  0  0  0
 23 26  1  0  0  0  0
 21 22  1  0  0  0  0
 21 23  1  0  0  0  0
M  END
$$$$
default_name
  -OEChem-01062215323D

 26 26  0     1  0  0  0  0  0999 V2000
   -1.8446   -3.5060   -0.3010 H   0  0  0  0  0  0  0  0  0  0  0  0
   -2.0746   -2.4490   -0.4240 C   0  0  0  0  0  0  0  0  0  0  0  0
   -2.6906   -2.1160    0.4090 H   0  0  0  0  0  0  0  0  0  0  0  0
   -2.5986   -2.2980   -1.3650 H   0  0  0  0  0  0  0  0  0  0  0  0
   -0.7756   -1.6630   -0.4350 C   0  0  0  0  0  0  0  0  0  0  0  0
    0.2844   -2.2800   -0.4550 O   0  0  0  0  0  0  0  0  0  0  0  0
   -0.8246   -0.3180   -0.4350 N   0  0  0  0  0  0  0  0  0  0  0  0
   -2.0106    0.5080   -0.5910 C   0  0  0  0  0  0  0  0  0  0  0  0
   -2.6721    0.3080    0.2535 H   0  0  0  0  0  0  0  0  0  0  0  0
   -2.5150    0.2830   -1.5301 H   0  0  0  0  0  0  0  0  0  0  0  0
   -1.5702    1.9703   -0.5736 C   0  0  0  0  0  0  0  0  0  0  0  0
   -2.2105    2.5547    0.0890 H   0  0  0  0  0  0  0  0  0  0  0  0
   -1.6112    2.3569   -1.5924 H   0  0  0  0  0  0  0  0  0  0  0  0
   -0.1209    1.9420   -0.0885 C   0  0  0  0  0  0  0  0  0  0  0  0
   -0.1136    2.1208    0.9886 H   0  0  0  0  0  0  0  0  0  0  0  0
    0.4774    2.6964   -0.5992 H   0  0  0  0  0  0  0  0  0  0  0  0
    0.3724    0.5200   -0.4020 C   0  0  1  0  0  0  0  0  0  0  0  0
    0.8239    0.5134   -1.3943 H   0  0  0  0  0  0  0  0  0  0  0  0
    1.3983    0.0272    0.6323 C   0  0  0  0  0  0  0  0  0  0  0  0
    2.5658    0.4092    0.5835 O   0  0  0  0  0  0  0  0  0  0  0  0
    0.9674   -0.8529    1.5441 N   0  0  0  0  0  0  0  0  0  0  0  0
   -0.0160   -1.0711    1.5557 H   0  0  0  0  0  0  0  0  0  0  0  0
    1.8129   -1.4248    2.5894 C   0  0  0  0  0  0  0  0  0  0  0  0
    2.1369   -0.6339    3.2692 H   0  0  0  0  0  0  0  0  0  0  0  0
    1.2624   -2.1804    3.1507 H   0  0  0  0  0  0  0  0  0  0  0  0
    2.6984   -1.8801    2.1406 H   0  0  0  0  0  0  0  0  0  0  0  0
  5  6  2  0  0  0  0
  5  7  1  0  0  0  0
  2  3  1  0  0  0  0
  2  4  1  0  0  0  0
  2  5  1  0  0  0  0
  1  2  1  0  0  0  0
 19 20  2  0  0  0  0
 19 21  1  0  0  0  0
 17 18  1  0  0  0  0
 17 19  1  0  0  0  0
 14 15  1  0  0  0  0
 14 16  1  0  0  0  0
 14 17  1  0  0  0  0
 11 12  1  0  0  0  0
 11 13  1  0  0  0  0
 11 14  1  0  0  0  0
  8  9  1  0  0  0  0
  8 10  1  0  0  0  0
  8 11  1  0  0  0  0
  7  8  1  0  0  0  0
  7 17  1  0  0  0  0
 23 24  1  0  0  0  0
 23 25  1  0  0  0  0
 23 26  1  0  0  0  0
 21 22  1  0  0  0  0
 21 23  1  0  0  0  0
M  END
$$$$
default_name
  -OEChem-01062215323D

 26 26  0     1  0  0  0  0  0999 V2000
   -1.8446   -3.5060   -0.3010 H   0  0  0  0  0  0  0  0  0  0  0  0
   -2.0746   -2.4490   -0.4240 C   0  0  0  0  0  0  0  0  0  0  0  0
   -2.6906   -2.1160    0.4090 H   0  0  0  0  0  0  0  0  0  0  0  0
   -2.5986   -2.2980   -1.3650 H   0  0  0  0  0  0  0  0  0  0  0  0
   -0.7756   -1.6630   -0.4350 C   0  0  0  0  0  0  0  0  0  0  0  0
    0.2844   -2.2800   -0.4550 O   0  0  0  0  0  0  0  0  0  0  0  0
   -0.8246   -0.3180   -0.4350 N   0  0  0  0  0  0  0  0  0  0  0  0
   -2.0106    0.5080   -0.5910 C   0  0  0  0  0  0  0  0  0  0  0  0
   -2.6721    0.3080    0.2535 H   0  0  0  0  0  0  0  0  0  0  0  0
   -2.5150    0.2830   -1.5301 H   0  0  0  0  0  0  0  0  0  0  0  0
   -1.5702    1.9703   -0.5736 C   0  0  0  0  0  0  0  0  0  0  0  0
   -2.2105    2.5547    0.0890 H   0  0  0  0  0  0  0  0  0  0  0  0
   -1.6112    2.3569   -1.5924 H   0  0  0  0  0  0  0  0  0  0  0  0
   -0.1209    1.9420   -0.0885 C   0  0  0  0  0  0  0  0  0  0  0  0
   -0.1136    2.1208    0.9886 H   0  0  0  0  0  0  0  0  0  0  0  0
    0.4774    2.6964   -0.5992 H   0  0  0  0  0  0  0  0  0  0  0  0
    0.3724    0.5200   -0.4020 C   0  0  1  0  0  0  0  0  0  0  0  0
    0.8239    0.5134   -1.3943 H   0  0  0  0  0  0  0  0  0  0  0  0
    1.3983    0.0272    0.6323 C   0  0  0  0  0  0  0  0  0  0  0  0
    2.4778    0.6010    0.7622 O   0  0  0  0  0  0  0  0  0  0  0  0
    1.0735   -1.0619    1.3393 N   0  0  0  0  0  0  0  0  0  0  0  0
    0.1475   -1.4396    1.2180 H   0  0  0  0  0  0  0  0  0  0  0  0
    1.9360   -1.6635    2.3536 C   0  0  0  0  0  0  0  0  0  0  0  0
    2.0645   -0.9651    3.1833 H   0  0  0  0  0  0  0  0  0  0  0  0
    1.4950   -2.5889    2.7254 H   0  0  0  0  0  0  0  0  0  0  0  0
    2.9177   -1.8765    1.9249 H   0  0  0  0  0  0  0  0  0  0  0  0
  5  6  2  0  0  0  0
  5  7  1  0  0  0  0
  2  3  1  0  0  0  0
  2  4  1  0  0  0  0
  2  5  1  0  0  0  0
  1  2  1  0  0  0  0
 19 20  2  0  0  0  0
 19 21  1  0  0  0  0
 17 18  1  0  0  0  0
 17 19  1  0  0  0  0
 14 15  1  0  0  0  0
 14 16  1  0  0  0  0
 14 17  1  0  0  0  0
 11 12  1  0  0  0  0
 11 13  1  0  0  0  0
 11 14  1  0  0  0  0
  8  9  1  0  0  0  0
  8 10  1  0  0  0  0
  8 11  1  0  0  0  0
  7  8  1  0  0  0  0
  7 17  1  0  0  0  0
 23 24  1  0  0  0  0
 23 25  1  0  0  0  0
 23 26  1  0  0  0  0
 21 22  1  0  0  0  0
 21 23  1  0  0  0  0
M  END
$$$$
default_name
  -OEChem-01062215323D

 26 26  0     1  0  0  0  0  0999 V2000
   -1.8446   -3.5060   -0.3010 H   0  0  0  0  0  0  0  0  0  0  0  0
   -2.0746   -2.4490   -0.4240 C   0  0  0  0  0  0  0  0  0  0  0  0
   -2.6906   -2.1160    0.4090 H   0  0  0  0  0  0  0  0  0  0  0  0
   -2.5986   -2.2980   -1.3650 H   0  0  0  0  0  0  0  0  0  0  0  0
   -0.7756   -1.6630   -0.4350 C   0  0  0  0  0  0  0  0  0  0  0  0
    0.2844   -2.2800   -0.4550 O   0  0  0  0  0  0  0  0  0  0  0  0
   -0.8246   -0.3180   -0.4350 N   0  0  0  0  0  0  0  0  0  0  0  0
   -2.0106    0.5080   -0.5910 C   0  0  0  0  0  0  0  0  0  0  0  0
   -2.6721    0.3080    0.2535 H   0  0  0  0  0  0  0  0  0  0  0  0
   -2.5150    0.2830   -1.5301 H   0  0  0  0  0  0  0  0  0  0  0  0
   -1.5702    1.9703   -0.5736 C   0  0  0  0  0  0  0  0  0  0  0  0
   -2.2105    2.5547    0.0890 H   0  0  0  0  0  0  0  0  0  0  0  0
   -1.6112    2.3569   -1.5924 H   0  0  0  0  0  0  0  0  0  0  0  0
   -0.1209    1.9420   -0.0885 C   0  0  0  0  0  0  0  0  0  0  0  0
   -0.1136    2.1208    0.9886 H   0  0  0  0  0  0  0  0  0  0  0  0
    0.4774    2.6964   -0.5992 H   0  0  0  0  0  0  0  0  0  0  0  0
    0.3724    0.5200   -0.4020 C   0  0  1  0  0  0  0  0  0  0  0  0
    0.8239    0.5134   -1.3943 H   0  0  0  0  0  0  0  0  0  0  0  0
    1.3983    0.0272    0.6323 C   0  0  0  0  0  0  0  0  0  0  0  0
    2.3445    0.7401    0.9607 O   0  0  0  0  0  0  0  0  0  0  0  0
    1.2294   -1.2100    1.1142 N   0  0  0  0  0  0  0  0  0  0  0  0
    0.3975   -1.7088    0.8417 H   0  0  0  0  0  0  0  0  0  0  0  0
    2.1161   -1.8320    2.0948 C   0  0  0  0  0  0  0  0  0  0  0  0
    2.0593   -1.2828    3.0371 H   0  0  0  0  0  0  0  0  0  0  0  0
    1.8260   -2.8695    2.2634 H   0  0  0  0  0  0  0  0  0  0  0  0
    3.1468   -1.7975    1.7353 H   0  0  0  0  0  0  0  0  0  0  0  0
  5  6  2  0  0  0  0
  5  7  1  0  0  0  0
  2  3  1  0  0  0  0
  2  4  1  0  0  0  0
  2  5  1  0  0  0  0
  1  2  1  0  0  0  0
 19 20  2  0  0  0  0
 19 21  1  0  0  0  0
 17 18  1  0  0  0  0
 17 19  1  0  0  0  0
 14 15  1  0  0  0  0
 14 16  1  0  0  0  0
 14 17  1  0  0  0  0
 11 12  1  0  0  0  0
 11 13  1  0  0  0  0
 11 14  1  0  0  0  0
  8  9  1  0  0  0  0
  8 10  1  0  0  0  0
  8 11  1  0  0  0  0
  7  8  1  0  0  0  0
  7 17  1  0  0  0  0
 23 24  1  0  0  0  0
 23 25  1  0  0  0  0
 23 26  1  0  0  0  0
 21 22  1  0  0  0  0
 21 23  1  0  0  0  0
M  END
$$$$
default_name
  -OEChem-01062215323D

 26 26  0     1  0  0  0  0  0999 V2000
   -1.8446   -3.5060   -0.3010 H   0  0  0  0  0  0  0  0  0  0  0  0
   -2.0746   -2.4490   -0.4240 C   0  0  0  0  0  0  0  0  0  0  0  0
   -2.6906   -2.1160    0.4090 H   0  0  0  0  0  0  0  0  0  0  0  0
   -2.5986   -2.2980   -1.3650 H   0  0  0  0  0  0  0  0  0  0  0  0
   -0.7756   -1.6630   -0.4350 C   0  0  0  0  0  0  0  0  0  0  0  0
    0.2844   -2.2800   -0.4550 O   0  0  0  0  0  0  0  0  0  0  0  0
   -0.8246   -0.3180   -0.4350 N   0  0  0  0  0  0  0  0  0  0  0  0
   -2.0106    0.5080   -0.5910 C   0  0  0  0  0  0  0  0  0  0  0  0
   -2.6721    0.3080    0.2535 H   0  0  0  0  0  0  0  0  0  0  0  0
   -2.5150    0.2830   -1.5301 H   0  0  0  0  0  0  0  0  0  0  0  0
   -1.5702    1.9703   -0.5736 C   0  0  0  0  0  0  0  0  0  0  0  0
   -2.2105    2.5547    0.0890 H   0  0  0  0  0  0  0  0  0  0  0  0
   -1.6112    2.3569   -1.5924 H   0  0  0  0  0  0  0  0  0  0  0  0
   -0.1209    1.9420   -0.0885 C   0  0  0  0  0  0  0  0  0  0  0  0
   -0.1136    2.1208    0.9886 H   0  0  0  0  0  0  0  0  0  0  0  0
    0.4774    2.6964   -0.5992 H   0  0  0  0  0  0  0  0  0  0  0  0
    0.3724    0.5200   -0.4020 C   0  0  1  0  0  0  0  0  0  0  0  0
    0.8239    0.5134   -1.3943 H   0  0  0  0  0  0  0  0  0  0  0  0
    1.3983    0.0272    0.6323 C   0  0  0  0  0  0  0  0  0  0  0  0
    2.1751    0.8171    1.1653 O   0  0  0  0  0  0  0  0  0  0  0  0
    1.4244   -1.2871    0.8841 N   0  0  0  0  0  0  0  0  0  0  0  0
    0.7171   -1.8603    0.4526 H   0  0  0  0  0  0  0  0  0  0  0  0
    2.3407   -1.9186    1.8306 C   0  0  0  0  0  0  0  0  0  0  0  0
    2.1217   -1.5654    2.8405 H   0  0  0  0  0  0  0  0  0  0  0  0
    2.2329   -3.0032    1.7961 H   0  0  0  0  0  0  0  0  0  0  0  0
    3.3701   -1.6486    1.5848 H   0  0  0  0  0  0  0  0  0  0  0  0
  5  6  2  0  0  0  0
  5  7  1  0  0  0  0
  2  3  1  0  0  0  0
  2  4  1  0  0  0  0
  2  5  1  0  0  0  0
  1  2  1  0  0  0  0
 19 20  2  0  0  0  0
 19 21  1  0  0  0  0
 17 18  1  0  0  0  0
 17 19  1  0  0  0  0
 14 15  1  0  0  0  0
 14 16  1  0  0  0  0
 14 17  1  0  0  0  0
 11 12  1  0  0  0  0
 11 13  1  0  0  0  0
 11 14  1  0  0  0  0
  8  9  1  0  0  0  0
  8 10  1  0  0  0  0
  8 11  1  0  0  0  0
  7  8  1  0  0  0  0
  7 17  1  0  0  0  0
 23 24  1  0  0  0  0
 23 25  1  0  0  0  0
 23 26  1  0  0  0  0
 21 22  1  0  0  0  0
 21 23  1  0  0  0  0
M  END
$$$$
default_name
  -OEChem-01062215323D

 26 26  0     1  0  0  0  0  0999 V2000
   -1.8446   -3.5060   -0.3010 H   0  0  0  0  0  0  0  0  0  0  0  0
   -2.0746   -2.4490   -0.4240 C   0  0  0  0  0  0  0  0  0  0  0  0
   -2.6906   -2.1160    0.4090 H   0  0  0  0  0  0  0  0  0  0  0  0
   -2.5986   -2.2980   -1.3650 H   0  0  0  0  0  0  0  0  0  0  0  0
   -0.7756   -1.6630   -0.4350 C   0  0  0  0  0  0  0  0  0  0  0  0
    0.2844   -2.2800   -0.4550 O   0  0  0  0  0  0  0  0  0  0  0  0
   -0.8246   -0.3180   -0.4350 N   0  0  0  0  0  0  0  0  0  0  0  0
   -2.0106    0.5080   -0.5910 C   0  0  0  0  0  0  0  0  0  0  0  0
   -2.6721    0.3080    0.2535 H   0  0  0  0  0  0  0  0  0  0  0  0
   -2.5150    0.2830   -1.5301 H   0  0  0  0  0  0  0  0  0  0  0  0
   -1.5702    1.9703   -0.5736 C   0  0  0  0  0  0  0  0  0  0  0  0
   -2.2105    2.5547    0.0890 H   0  0  0  0  0  0  0  0  0  0  0  0
   -1.6112    2.3569   -1.5924 H   0  0  0  0  0  0  0  0  0  0  0  0
   -0.1209    1.9420   -0.0885 C   0  0  0  0  0  0  0  0  0  0  0  0
   -0.1136    2.1208    0.9886 H   0  0  0  0  0  0  0  0  0  0  0  0
    0.4774    2.6964   -0.5992 H   0  0  0  0  0  0  0  0  0  0  0  0
    0.3724    0.5200   -0.4020 C   0  0  1  0  0  0  0  0  0  0  0  0
    0.8239    0.5134   -1.3943 H   0  0  0  0  0  0  0  0  0  0  0  0
    1.3983    0.0272    0.6323 C   0  0  0  0  0  0  0  0  0  0  0  0
    1.9811    0.8265    1.3623 O   0  0  0  0  0  0  0  0  0  0  0  0
    1.6452   -1.2879    0.6646 N   0  0  0  0  0  0  0  0  0  0  0  0
    1.0845   -1.8838    0.0770 H   0  0  0  0  0  0  0  0  0  0  0  0
    2.5947   -1.9176    1.5791 C   0  0  0  0  0  0  0  0  0  0  0  0
    2.2475   -1.7935    2.6071 H   0  0  0  0  0  0  0  0  0  0  0  0
    2.6880   -2.9808    1.3554 H   0  0  0  0  0  0  0  0  0  0  0  0
    3.5723   -1.4399    1.4836 H   0  0  0  0  0  0  0  0  0  0  0  0
  5  6  2  0  0  0  0
  5  7  1  0  0  0  0
  2  3  1  0  0  0  0
  2  4  1  0  0  0  0
  2  5  1  0  0  0  0
  1  2  1  0  0  0  0
 19 20  2  0  0  0  0
 19 21  1  0  0  0  0
 17 18  1  0  0  0  0
 17 19  1  0  0  0  0
 14 15  1  0  0  0  0
 14 16  1  0  0  0  0
 14 17  1  0  0  0  0
 11 12  1  0  0  0  0
 11 13  1  0  0  0  0
 11 14  1  0  0  0  0
  8  9  1  0  0  0  0
  8 10  1  0  0  0  0
  8 11  1  0  0  0  0
  7  8  1  0  0  0  0
  7 17  1  0  0  0  0
 23 24  1  0  0  0  0
 23 25  1  0  0  0  0
 23 26  1  0  0  0  0
 21 22  1  0  0  0  0
 21 23  1  0  0  0  0
M  END
$$$$
default_name
  -OEChem-01062215323D

 26 26  0     1  0  0  0  0  0999 V2000
   -1.8446   -3.5060   -0.3010 H   0  0  0  0  0  0  0  0  0  0  0  0
   -2.0746   -2.4490   -0.4240 C   0  0  0  0  0  0  0  0  0  0  0  0
   -2.6906   -2.1160    0.4090 H   0  0  0  0  0  0  0  0  0  0  0  0
   -2.5986   -2.2980   -1.3650 H   0  0  0  0  0  0  0  0  0  0  0  0
   -0.7756   -1.6630   -0.4350 C   0  0  0  0  0  0  0  0  0  0  0  0
    0.2844   -2.2800   -0.4550 O   0  0  0  0  0  0  0  0  0  0  0  0
   -0.8246   -0.3180   -0.4350 N   0  0  0  0  0  0  0  0  0  0  0  0
   -2.0106    0.5080   -0.5910 C   0  0  0  0  0  0  0  0  0  0  0  0
   -2.6721    0.3080    0.2535 H   0  0  0  0  0  0  0  0  0  0  0  0
   -2.5150    0.2830   -1.5301 H   0  0  0  0  0  0  0  0  0  0  0  0
   -1.5702    1.9703   -0.5736 C   0  0  0  0  0  0  0  0  0  0  0  0
   -2.2105    2.5547    0.0890 H   0  0  0  0  0  0  0  0  0  0  0  0
   -1.6112    2.3569   -1.5924 H   0  0  0  0  0  0  0  0  0  0  0  0
   -0.1209    1.9420   -0.0885 C   0  0  0  0  0  0  0  0  0  0  0  0
   -0.1136    2.1208    0.9886 H   0  0  0  0  0  0  0  0  0  0  0  0
    0.4774    2.6964   -0.5992 H   0  0  0  0  0  0  0  0  0  0  0  0
    0.3724    0.5200   -0.4020 C   0  0  1  0  0  0  0  0  0  0  0  0
    0.8239    0.5134   -1.3943 H   0  0  0  0  0  0  0  0  0  0  0  0
    1.3983    0.0272    0.6323 C   0  0  0  0  0  0  0  0  0  0  0  0
    1.7758    0.7679    1.5380 O   0  0  0  0  0  0  0  0  0  0  0  0
    1.8769   -1.2123    0.4709 N   0  0  0  0  0  0  0  0  0  0  0  0
    1.4746   -1.7778   -0.2594 H   0  0  0  0  0  0  0  0  0  0  0  0
    2.8608   -1.8290    1.3575 C   0  0  0  0  0  0  0  0  0  0  0  0
    2.4280   -1.9516    2.3527 H   0  0  0  0  0  0  0  0  0  0  0  0
    3.1602   -2.8039    0.9713 H   0  0  0  0  0  0  0  0  0  0  0  0
    3.7396   -1.1857    1.4387 H   0  0  0  0  0  0  0  0  0  0  0  0
  5  6  2  0  0  0  0
  5  7  1  0  0  0  0
  2  3  1  0  0  0  0
  2  4  1  0  0  0  0
  2  5  1  0  0  0  0
  1  2  1  0  0  0  0
 19 20  2  0  0  0  0
 19 21  1  0  0  0  0
 17 18  1  0  0  0  0
 17 19  1  0  0  0  0
 14 15  1  0  0  0  0
 14 16  1  0  0  0  0
 14 17  1  0  0  0  0
 11 12  1  0  0  0  0
 11 13  1  0  0  0  0
 11 14  1  0  0  0  0
  8  9  1  0  0  0  0
  8 10  1  0  0  0  0
  8 11  1  0  0  0  0
  7  8  1  0  0  0  0
  7 17  1  0  0  0  0
 23 24  1  0  0  0  0
 23 25  1  0  0  0  0
 23 26  1  0  0  0  0
 21 22  1  0  0  0  0
 21 23  1  0  0  0  0
M  END
$$$$
default_name
  -OEChem-01062215323D

 26 26  0     1  0  0  0  0  0999 V2000
   -1.8446   -3.5060   -0.3010 H   0  0  0  0  0  0  0  0  0  0  0  0
   -2.0746   -2.4490   -0.4240 C   0  0  0  0  0  0  0  0  0  0  0  0
   -2.6906   -2.1160    0.4090 H   0  0  0  0  0  0  0  0  0  0  0  0
   -2.5986   -2.2980   -1.3650 H   0  0  0  0  0  0  0  0  0  0  0  0
   -0.7756   -1.6630   -0.4350 C   0  0  0  0  0  0  0  0  0  0  0  0
    0.2844   -2.2800   -0.4550 O   0  0  0  0  0  0  0  0  0  0  0  0
   -0.8246   -0.3180   -0.4350 N   0  0  0  0  0  0  0  0  0  0  0  0
   -2.0106    0.5080   -0.5910 C   0  0  0  0  0  0  0  0  0  0  0  0
   -2.6721    0.3080    0.2535 H   0  0  0  0  0  0  0  0  0  0  0  0
   -2.5150    0.2830   -1.5301 H   0  0  0  0  0  0  0  0  0  0  0  0
   -1.5702    1.9703   -0.5736 C   0  0  0  0  0  0  0  0  0  0  0  0
   -2.2105    2.5547    0.0890 H   0  0  0  0  0  0  0  0  0  0  0  0
   -1.6112    2.3569   -1.5924 H   0  0  0  0  0  0  0  0  0  0  0  0
   -0.1209    1.9420   -0.0885 C   0  0  0  0  0  0  0  0  0  0  0  0
   -0.1136    2.1208    0.9886 H   0  0  0  0  0  0  0  0  0  0  0  0
    0.4774    2.6964   -0.5992 H   0  0  0  0  0  0  0  0  0  0  0  0
    0.3724    0.5200   -0.4020 C   0  0  1  0  0  0  0  0  0  0  0  0
    0.8239    0.5134   -1.3943 H   0  0  0  0  0  0  0  0  0  0  0  0
    1.3983    0.0272    0.6323 C   0  0  0  0  0  0  0  0  0  0  0  0
    1.5730    0.6452    1.6806 O   0  0  0  0  0  0  0  0  0  0  0  0
    2.1035   -1.0655    0.3160 N   0  0  0  0  0  0  0  0  0  0  0  0
    1.8608   -1.5494   -0.5337 H   0  0  0  0  0  0  0  0  0  0  0  0
    3.1207   -1.6589    1.1807 C   0  0  0  0  0  0  0  0  0  0  0  0
    2.6511   -2.0290    2.0946 H   0  0  0  0  0  0  0  0  0  0  0  0
    3.6174   -2.4845    0.6700 H   0  0  0  0  0  0  0  0  0  0  0  0
    3.8608   -0.9032    1.4531 H   0  0  0  0  0  0  0  0  0  0  0  0
  5  6  2  0  0  0  0
  5  7  1  0  0  0  0
  2  3  1  0  0  0  0
  2  4  1  0  0  0  0
  2  5  1  0  0  0  0
  1  2  1  0  0  0  0
 19 20  2  0  0  0  0
 19 21  1  0  0  0  0
 17 18  1  0  0  0  0
 17 19  1  0  0  0  0
 14 15  1  0  0  0  0
 14 16  1  0  0  0  0
 14 17  1  0  0  0  0
 11 12  1  0  0  0  0
 11 13  1  0  0  0  0
 11 14  1  0  0  0  0
  8  9  1  0  0  0  0
  8 10  1  0  0  0  0
  8 11  1  0  0  0  0
  7  8  1  0  0  0  0
  7 17  1  0  0  0  0
 23 24  1  0  0  0  0
 23 25  1  0  0  0  0
 23 26  1  0  0  0  0
 21 22  1  0  0  0  0
 21 23  1  0  0  0  0
M  END
$$$$
default_name
  -OEChem-01062215323D

 26 26  0     1  0  0  0  0  0999 V2000
   -1.8446   -3.5060   -0.3010 H   0  0  0  0  0  0  0  0  0  0  0  0
   -2.0746   -2.4490   -0.4240 C   0  0  0  0  0  0  0  0  0  0  0  0
   -2.6906   -2.1160    0.4090 H   0  0  0  0  0  0  0  0  0  0  0  0
   -2.5986   -2.2980   -1.3650 H   0  0  0  0  0  0  0  0  0  0  0  0
   -0.7756   -1.6630   -0.4350 C   0  0  0  0  0  0  0  0  0  0  0  0
    0.2844   -2.2800   -0.4550 O   0  0  0  0  0  0  0  0  0  0  0  0
   -0.8246   -0.3180   -0.4350 N   0  0  0  0  0  0  0  0  0  0  0  0
   -2.0106    0.5080   -0.5910 C   0  0  0  0  0  0  0  0  0  0  0  0
   -2.6721    0.3080    0.2535 H   0  0  0  0  0  0  0  0  0  0  0  0
   -2.5150    0.2830   -1.5301 H   0  0  0  0  0  0  0  0  0  0  0  0
   -1.5702    1.9703   -0.5736 C   0  0  0  0  0  0  0  0  0  0  0  0
   -2.2105    2.5547    0.0890 H   0  0  0  0  0  0  0  0  0  0  0  0
   -1.6112    2.3569   -1.5924 H   0  0  0  0  0  0  0  0  0  0  0  0
   -0.1209    1.9420   -0.0885 C   0  0  0  0  0  0  0  0  0  0  0  0
   -0.1136    2.1208    0.9886 H   0  0  0  0  0  0  0  0  0  0  0  0
    0.4774    2.6964   -0.5992 H   0  0  0  0  0  0  0  0  0  0  0  0
    0.3724    0.5200   -0.4020 C   0  0  1  0  0  0  0  0  0  0  0  0
    0.8239    0.5134   -1.3943 H   0  0  0  0  0  0  0  0  0  0  0  0
    1.3983    0.0272    0.6323 C   0  0  0  0  0  0  0  0  0  0  0  0
    1.3868    0.4668    1.7804 O   0  0  0  0  0  0  0  0  0  0  0  0
    2.3098   -0.8576    0.2105 N   0  0  0  0  0  0  0  0  0  0  0  0
    2.2168   -1.2141   -0.7271 H   0  0  0  0  0  0  0  0  0  0  0  0
    3.3568   -1.4188    1.0609 C   0  0  0  0  0  0  0  0  0  0  0  0
    2.9014   -2.0204    1.8504 H   0  0  0  0  0  0  0  0  0  0  0  0
    4.0284   -2.0443    0.4721 H   0  0  0  0  0  0  0  0  0  0  0  0
    3.9274   -0.6118    1.5259 H   0  0  0  0  0  0  0  0  0  0  0  0
  5  6  2  0  0  0  0
  5  7  1  0  0  0  0
  2  3  1  0  0  0  0
  2  4  1  0  0  0  0
  2  5  1  0  0  0  0
  1  2  1  0  0  0  0
 19 20  2  0  0  0  0
 19 21  1  0  0  0  0
 17 18  1  0  0  0  0
 17 19  1  0  0  0  0
 14 15  1  0  0  0  0
 14 16  1  0  0  0  0
 14 17  1  0  0  0  0
 11 12  1  0  0  0  0
 11 13  1  0  0  0  0
 11 14  1  0  0  0  0
  8  9  1  0  0  0  0
  8 10  1  0  0  0  0
  8 11  1  0  0  0  0
  7  8  1  0  0  0  0
  7 17  1  0  0  0  0
 23 24  1  0  0  0  0
 23 25  1  0  0  0  0
 23 26  1  0  0  0  0
 21 22  1  0  0  0  0
 21 23  1  0  0  0  0
M  END
$$$$
default_name
  -OEChem-01062215323D

 26 26  0     1  0  0  0  0  0999 V2000
   -1.8446   -3.5060   -0.3010 H   0  0  0  0  0  0  0  0  0  0  0  0
   -2.0746   -2.4490   -0.4240 C   0  0  0  0  0  0  0  0  0  0  0  0
   -2.6906   -2.1160    0.4090 H   0  0  0  0  0  0  0  0  0  0  0  0
   -2.5986   -2.2980   -1.3650 H   0  0  0  0  0  0  0  0  0  0  0  0
   -0.7756   -1.6630   -0.4350 C   0  0  0  0  0  0  0  0  0  0  0  0
    0.2844   -2.2800   -0.4550 O   0  0  0  0  0  0  0  0  0  0  0  0
   -0.8246   -0.3180   -0.4350 N   0  0  0  0  0  0  0  0  0  0  0  0
   -2.0106    0.5080   -0.5910 C   0  0  0  0  0  0  0  0  0  0  0  0
   -2.6721    0.3080    0.2535 H   0  0  0  0  0  0  0  0  0  0  0  0
   -2.5150    0.2830   -1.5301 H   0  0  0  0  0  0  0  0  0  0  0  0
   -1.5702    1.9703   -0.5736 C   0  0  0  0  0  0  0  0  0  0  0  0
   -2.2105    2.5547    0.0890 H   0  0  0  0  0  0  0  0  0  0  0  0
   -1.6112    2.3569   -1.5924 H   0  0  0  0  0  0  0  0  0  0  0  0
   -0.1209    1.9420   -0.0885 C   0  0  0  0  0  0  0  0  0  0  0  0
   -0.1136    2.1208    0.9886 H   0  0  0  0  0  0  0  0  0  0  0  0
    0.4774    2.6964   -0.5992 H   0  0  0  0  0  0  0  0  0  0  0  0
    0.3724    0.5200   -0.4020 C   0  0  1  0  0  0  0  0  0  0  0  0
    0.8239    0.5134   -1.3943 H   0  0  0  0  0  0  0  0  0  0  0  0
    1.3983    0.0272    0.6323 C   0  0  0  0  0  0  0  0  0  0  0  0
    1.2296    0.2448    1.8305 O   0  0  0  0  0  0  0  0  0  0  0  0
    2.4815   -0.6026    0.1616 N   0  0  0  0  0  0  0  0  0  0  0  0
    2.5184   -0.7950   -0.8266 H   0  0  0  0  0  0  0  0  0  0  0  0
    3.5530   -1.1250    1.0063 C   0  0  0  0  0  0  0  0  0  0  0  0
    3.1619   -1.9264    1.6368 H   0  0  0  0  0  0  0  0  0  0  0  0
    4.3652   -1.5135    0.3909 H   0  0  0  0  0  0  0  0  0  0  0  0
    3.9351   -0.3313    1.6520 H   0  0  0  0  0  0  0  0  0  0  0  0
  5  6  2  0  0  0  0
  5  7  1  0  0  0  0
  2  3  1  0  0  0  0
  2  4  1  0  0  0  0
  2  5  1  0  0  0  0
  1  2  1  0  0  0  0
 19 20  2  0  0  0  0
 19 21  1  0  0  0  0
 17 18  1  0  0  0  0
 17 19  1  0  0  0  0
 14 15  1  0  0  0  0
 14 16  1  0  0  0  0
 14 17  1  0  0  0  0
 11 12  1  0  0  0  0
 11 13  1  0  0  0  0
 11 14  1  0  0  0  0
  8  9  1  0  0  0  0
  8 10  1  0  0  0  0
  8 11  1  0  0  0  0
  7  8  1  0  0  0  0
  7 17  1  0  0  0  0
 23 24  1  0  0  0  0
 23 25  1  0  0  0  0
 23 26  1  0  0  0  0
 21 22  1  0  0  0  0
 21 23  1  0  0  0  0
M  END
$$$$
default_name
  -OEChem-01062215323D

 26 26  0     1  0  0  0  0  0999 V2000
   -1.8446   -3.5060   -0.3010 H   0  0  0  0  0  0  0  0  0  0  0  0
   -2.0746   -2.4490   -0.4240 C   0  0  0  0  0  0  0  0  0  0  0  0
   -2.6906   -2.1160    0.4090 H   0  0  0  0  0  0  0  0  0  0  0  0
   -2.5986   -2.2980   -1.3650 H   0  0  0  0  0  0  0  0  0  0  0  0
   -0.7756   -1.6630   -0.4350 C   0  0  0  0  0  0  0  0  0  0  0  0
    0.2844   -2.2800   -0.4550 O   0  0  0  0  0  0  0  0  0  0  0  0
   -0.8246   -0.3180   -0.4350 N   0  0  0  0  0  0  0  0  0  0  0  0
   -2.0106    0.5080   -0.5910 C   0  0  0  0  0  0  0  0  0  0  0  0
   -2.6721    0.3080    0.2535 H   0  0  0  0  0  0  0  0  0  0  0  0
   -2.5150    0.2830   -1.5301 H   0  0  0  0  0  0  0  0  0  0  0  0
   -1.5702    1.9703   -0.5736 C   0  0  0  0  0  0  0  0  0  0  0  0
   -2.2105    2.5547    0.0890 H   0  0  0  0  0  0  0  0  0  0  0  0
   -1.6112    2.3569   -1.5924 H   0  0  0  0  0  0  0  0  0  0  0  0
   -0.1209    1.9420   -0.0885 C   0  0  0  0  0  0  0  0  0  0  0  0
   -0.1136    2.1208    0.9886 H   0  0  0  0  0  0  0  0  0  0  0  0
    0.4774    2.6964   -0.5992 H   0  0  0  0  0  0  0  0  0  0  0  0
    0.3724    0.5200   -0.4020 C   0  0  1  0  0  0  0  0  0  0  0  0
    0.8239    0.5134   -1.3943 H   0  0  0  0  0  0  0  0  0  0  0  0
    1.3983    0.0272    0.6323 C   0  0  0  0  0  0  0  0  0  0  0  0
    1.1123   -0.0057    1.8275 O   0  0  0  0  0  0  0  0  0  0  0  0
    2.6071   -0.3179    0.1727 N   0  0  0  0  0  0  0  0  0  0  0  0
    2.7450   -0.3204   -0.8252 H   0  0  0  0  0  0  0  0  0  0  0  0
    3.6960   -0.7977    1.0204 C   0  0  0  0  0  0  0  0  0  0  0  0
    3.4149   -1.7533    1.4684 H   0  0  0  0  0  0  0  0  0  0  0  0
    4.6048   -0.9281    0.4321 H   0  0  0  0  0  0  0  0  0  0  0  0
    3.8831   -0.0808    1.8228 H   0  0  0  0  0  0  0  0  0  0  0  0
  5  6  2  0  0  0  0
  5  7  1  0  0  0  0
  2  3  1  0  0  0  0
  2  4  1  0  0  0  0
  2  5  1  0  0  0  0
  1  2  1  0  0  0  0
 19 20  2  0  0  0  0
 19 21  1  0  0  0  0
 17 18  1  0  0  0  0
 17 19  1  0  0  0  0
 14 15  1  0  0  0  0
 14 16  1  0  0  0  0
 14 17  1  0  0  0  0
 11 12  1  0  0  0  0
 11 13  1  0  0  0  0
 11 14  1  0  0  0  0
  8  9  1  0  0  0  0
  8 10  1  0  0  0  0
  8 11  1  0  0  0  0
  7  8  1  0  0  0  0
  7 17  1  0  0  0  0
 23 24  1  0  0  0  0
 23 25  1  0  0  0  0
 23 26  1  0  0  0  0
 21 22  1  0  0  0  0
 21 23  1  0  0  0  0
M  END
$$$$
default_name
  -OEChem-01062215323D

 26 26  0     1  0  0  0  0  0999 V2000
   -1.8446   -3.5060   -0.3010 H   0  0  0  0  0  0  0  0  0  0  0  0
   -2.0746   -2.4490   -0.4240 C   0  0  0  0  0  0  0  0  0  0  0  0
   -2.6906   -2.1160    0.4090 H   0  0  0  0  0  0  0  0  0  0  0  0
   -2.5986   -2.2980   -1.3650 H   0  0  0  0  0  0  0  0  0  0  0  0
   -0.7756   -1.6630   -0.4350 C   0  0  0  0  0  0  0  0  0  0  0  0
    0.2844   -2.2800   -0.4550 O   0  0  0  0  0  0  0  0  0  0  0  0
   -0.8246   -0.3180   -0.4350 N   0  0  0  0  0  0  0  0  0  0  0  0
   -2.0106    0.5080   -0.5910 C   0  0  0  0  0  0  0  0  0  0  0  0
   -2.6721    0.3080    0.2535 H   0  0  0  0  0  0  0  0  0  0  0  0
   -2.5150    0.2830   -1.5301 H   0  0  0  0  0  0  0  0  0  0  0  0
   -1.5702    1.9703   -0.5736 C   0  0  0  0  0  0  0  0  0  0  0  0
   -2.2105    2.5547    0.0890 H   0  0  0  0  0  0  0  0  0  0  0  0
   -1.6112    2.3569   -1.5924 H   0  0  0  0  0  0  0  0  0  0  0  0
   -0.1209    1.9420   -0.0885 C   0  0  0  0  0  0  0  0  0  0  0  0
   -0.1136    2.1208    0.9886 H   0  0  0  0  0  0  0  0  0  0  0  0
    0.4774    2.6964   -0.5992 H   0  0  0  0  0  0  0  0  0  0  0  0
    0.3724    0.5200   -0.4020 C   0  0  1  0  0  0  0  0  0  0  0  0
    0.8239    0.5134   -1.3943 H   0  0  0  0  0  0  0  0  0  0  0  0
    1.3983    0.0272    0.6323 C   0  0  0  0  0  0  0  0  0  0  0  0
    1.0428   -0.2675    1.7717 O   0  0  0  0  0  0  0  0  0  0  0  0
    2.6779   -0.0230    0.2429 N   0  0  0  0  0  0  0  0  0  0  0  0
    2.8812    0.1772   -0.7232 H   0  0  0  0  0  0  0  0  0  0  0  0
    3.7759   -0.4591    1.1025 C   0  0  0  0  0  0  0  0  0  0  0  0
    3.6431   -1.5130    1.3565 H   0  0  0  0  0  0  0  0  0  0  0  0
    4.7310   -0.3280    0.5929 H   0  0  0  0  0  0  0  0  0  0  0  0
    3.7752    0.1227    2.0268 H   0  0  0  0  0  0  0  0  0  0  0  0
  5  6  2  0  0  0  0
  5  7  1  0  0  0  0
  2  3  1  0  0  0  0
  2  4  1  0  0  0  0
  2  5  1  0  0  0  0
  1  2  1  0  0  0  0
 19 20  2  0  0  0  0
 19 21  1  0  0  0  0
 17 18  1  0  0  0  0
 17 19  1  0  0  0  0
 14 15  1  0  0  0  0
 14 16  1  0  0  0  0
 14 17  1  0  0  0  0
 11 12  1  0  0  0  0
 11 13  1  0  0  0  0
 11 14  1  0  0  0  0
  8  9  1  0  0  0  0
  8 10  1  0  0  0  0
  8 11  1  0  0  0  0
  7  8  1  0  0  0  0
  7 17  1  0  0  0  0
 23 24  1  0  0  0  0
 23 25  1  0  0  0  0
 23 26  1  0  0  0  0
 21 22  1  0  0  0  0
 21 23  1  0  0  0  0
M  END
$$$$
default_name
  -OEChem-01062215323D

 26 26  0     1  0  0  0  0  0999 V2000
   -1.8446   -3.5060   -0.3010 H   0  0  0  0  0  0  0  0  0  0  0  0
   -2.0746   -2.4490   -0.4240 C   0  0  0  0  0  0  0  0  0  0  0  0
   -2.6906   -2.1160    0.4090 H   0  0  0  0  0  0  0  0  0  0  0  0
   -2.5986   -2.2980   -1.3650 H   0  0  0  0  0  0  0  0  0  0  0  0
   -0.7756   -1.6630   -0.4350 C   0  0  0  0  0  0  0  0  0  0  0  0
    0.2844   -2.2800   -0.4550 O   0  0  0  0  0  0  0  0  0  0  0  0
   -0.8246   -0.3180   -0.4350 N   0  0  0  0  0  0  0  0  0  0  0  0
   -2.0106    0.5080   -0.5910 C   0  0  0  0  0  0  0  0  0  0  0  0
   -2.6721    0.3080    0.2535 H   0  0  0  0  0  0  0  0  0  0  0  0
   -2.5150    0.2830   -1.5301 H   0  0  0  0  0  0  0  0  0  0  0  0
   -1.5702    1.9703   -0.5736 C   0  0  0  0  0  0  0  0  0  0  0  0
   -2.2105    2.5547    0.0890 H   0  0  0  0  0  0  0  0  0  0  0  0
   -1.6112    2.3569   -1.5924 H   0  0  0  0  0  0  0  0  0  0  0  0
   -0.1209    1.9420   -0.0885 C   0  0  0  0  0  0  0  0  0  0  0  0
   -0.1136    2.1208    0.9886 H   0  0  0  0  0  0  0  0  0  0  0  0
    0.4774    2.6964   -0.5992 H   0  0  0  0  0  0  0  0  0  0  0  0
    0.3724    0.5200   -0.4020 C   0  0  1  0  0  0  0  0  0  0  0  0
    0.8239    0.5134   -1.3943 H   0  0  0  0  0  0  0  0  0  0  0  0
    1.3983    0.0272    0.6323 C   0  0  0  0  0  0  0  0  0  0  0  0
    1.0260   -0.5229    1.6668 O   0  0  0  0  0  0  0  0  0  0  0  0
    2.6892    0.2620    0.3676 N   0  0  0  0  0  0  0  0  0  0  0  0
    2.9177    0.6639   -0.5275 H   0  0  0  0  0  0  0  0  0  0  0  0
    3.7873   -0.1323    1.2468 C   0  0  0  0  0  0  0  0  0  0  0  0
    3.8310   -1.2218    1.3088 H   0  0  0  0  0  0  0  0  0  0  0  0
    4.7350    0.2458    0.8622 H   0  0  0  0  0  0  0  0  0  0  0  0
    3.6186    0.2652    2.2500 H   0  0  0  0  0  0  0  0  0  0  0  0
  5  6  2  0  0  0  0
  5  7  1  0  0  0  0
  2  3  1  0  0  0  0
  2  4  1  0  0  0  0
  2  5  1  0  0  0  0
  1  2  1  0  0  0  0
 19 20  2  0  0  0  0
 19 21  1  0  0  0  0
 17 18  1  0  0  0  0
 17 19  1  0  0  0  0
 14 15  1  0  0  0  0
 14 16  1  0  0  0  0
 14 17  1  0  0  0  0
 11 12  1  0  0  0  0
 11 13  1  0  0  0  0
 11 14  1  0  0  0  0
  8  9  1  0  0  0  0
  8 10  1  0  0  0  0
  8 11  1  0  0  0  0
  7  8  1  0  0  0  0
  7 17  1  0  0  0  0
 23 24  1  0  0  0  0
 23 25  1  0  0  0  0
 23 26  1  0  0  0  0
 21 22  1  0  0  0  0
 21 23  1  0  0  0  0
M  END
$$$$
default_name
  -OEChem-01062215323D

 26 26  0     1  0  0  0  0  0999 V2000
   -1.8446   -3.5060   -0.3010 H   0  0  0  0  0  0  0  0  0  0  0  0
   -2.0746   -2.4490   -0.4240 C   0  0  0  0  0  0  0  0  0  0  0  0
   -2.6906   -2.1160    0.4090 H   0  0  0  0  0  0  0  0  0  0  0  0
   -2.5986   -2.2980   -1.3650 H   0  0  0  0  0  0  0  0  0  0  0  0
   -0.7756   -1.6630   -0.4350 C   0  0  0  0  0  0  0  0  0  0  0  0
    0.2844   -2.2800   -0.4550 O   0  0  0  0  0  0  0  0  0  0  0  0
   -0.8246   -0.3180   -0.4350 N   0  0  0  0  0  0  0  0  0  0  0  0
   -2.0106    0.5080   -0.5910 C   0  0  0  0  0  0  0  0  0  0  0  0
   -2.6721    0.3080    0.2535 H   0  0  0  0  0  0  0  0  0  0  0  0
   -2.5150    0.2830   -1.5301 H   0  0  0  0  0  0  0  0  0  0  0  0
   -1.5702    1.9703   -0.5736 C   0  0  0  0  0  0  0  0  0  0  0  0
   -2.2105    2.5547    0.0890 H   0  0  0  0  0  0  0  0  0  0  0  0
   -1.6112    2.3569   -1.5924 H   0  0  0  0  0  0  0  0  0  0  0  0
   -0.1209    1.9420   -0.0885 C   0  0  0  0  0  0  0  0  0  0  0  0
   -0.1136    2.1208    0.9886 H   0  0  0  0  0  0  0  0  0  0  0  0
    0.4774    2.6964   -0.5992 H   0  0  0  0  0  0  0  0  0  0  0  0
    0.3724    0.5200   -0.4020 C   0  0  1  0  0  0  0  0  0  0  0  0
    0.8239    0.5134   -1.3943 H   0  0  0  0  0  0  0  0  0  0  0  0
    1.3983    0.0272    0.6323 C   0  0  0  0  0  0  0  0  0  0  0  0
    1.0628   -0.7543    1.5200 O   0  0  0  0  0  0  0  0  0  0  0  0
    2.6401    0.5178    0.5381 N   0  0  0  0  0  0  0  0  0  0  0  0
    2.8519    1.1066   -0.2514 H   0  0  0  0  0  0  0  0  0  0  0  0
    3.7295    0.1604    1.4436 C   0  0  0  0  0  0  0  0  0  0  0  0
    3.9658   -0.8996    1.3287 H   0  0  0  0  0  0  0  0  0  0  0  0
    4.6168    0.7542    1.2218 H   0  0  0  0  0  0  0  0  0  0  0  0
    3.4241    0.3371    2.4772 H   0  0  0  0  0  0  0  0  0  0  0  0
  5  6  2  0  0  0  0
  5  7  1  0  0  0  0
  2  3  1  0  0  0  0
  2  4  1  0  0  0  0
  2  5  1  0  0  0  0
  1  2  1  0  0  0  0
 19 20  2  0  0  0  0
 19 21  1  0  0  0  0
 17 18  1  0  0  0  0
 17 19  1  0  0  0  0
 14 15  1  0  0  0  0
 14 16  1  0  0  0  0
 14 17  1  0  0  0  0
 11 12  1  0  0  0  0
 11 13  1  0  0  0  0
 11 14  1  0  0  0  0
  8  9  1  0  0  0  0
  8 10  1  0  0  0  0
  8 11  1  0  0  0  0
  7  8  1  0  0  0  0
  7 17  1  0  0  0  0
 23 24  1  0  0  0  0
 23 25  1  0  0  0  0
 23 26  1  0  0  0  0
 21 22  1  0  0  0  0
 21 23  1  0  0  0  0
M  END
$$$$
default_name
  -OEChem-01062215323D

 26 26  0     1  0  0  0  0  0999 V2000
   -1.8446   -3.5060   -0.3010 H   0  0  0  0  0  0  0  0  0  0  0  0
   -2.0746   -2.4490   -0.4240 C   0  0  0  0  0  0  0  0  0  0  0  0
   -2.6906   -2.1160    0.4090 H   0  0  0  0  0  0  0  0  0  0  0  0
   -2.5986   -2.2980   -1.3650 H   0  0  0  0  0  0  0  0  0  0  0  0
   -0.7756   -1.6630   -0.4350 C   0  0  0  0  0  0  0  0  0  0  0  0
    0.2844   -2.2800   -0.4550 O   0  0  0  0  0  0  0  0  0  0  0  0
   -0.8246   -0.3180   -0.4350 N   0  0  0  0  0  0  0  0  0  0  0  0
   -2.0106    0.5080   -0.5910 C   0  0  0  0  0  0  0  0  0  0  0  0
   -2.8341    0.1102    0.0043 H   0  0  0  0  0  0  0  0  0  0  0  0
   -2.3175    0.6317   -1.6290 H   0  0  0  0  0  0  0  0  0  0  0  0
   -1.5540    1.8486   -0.0195 C   0  0  0  0  0  0  0  0  0  0  0  0
   -2.1440    2.0396    0.8782 H   0  0  0  0  0  0  0  0  0  0  0  0
   -1.7706    2.5889   -0.7904 H   0  0  0  0  0  0  0  0  0  0  0  0
   -0.0542    1.8324    0.2758 C   0  0  0  0  0  0  0  0  0  0  0  0
    0.1153    1.7795    1.3531 H   0  0  0  0  0  0  0  0  0  0  0  0
    0.4689    2.6907   -0.1457 H   0  0  0  0  0  0  0  0  0  0  0  0
    0.3724    0.5200   -0.4020 C   0  0  1  0  0  0  0  0  0  0  0  0
    0.6709    0.7333   -1.4286 H   0  0  0  0  0  0  0  0  0  0  0  0
    1.5359   -0.1579    0.3408 C   0  0  0  0  0  0  0  0  0  0  0  0
    1.3870   -1.2644    0.8554 O   0  0  0  0  0  0  0  0  0  0  0  0
    2.6825    0.5272    0.4285 N   0  0  0  0  0  0  0  0  0  0  0  0
    2.7449    1.4006   -0.0696 H   0  0  0  0  0  0  0  0  0  0  0  0
    3.8791    0.0322    1.1050 C   0  0  0  0  0  0  0  0  0  0  0  0
    4.2567   -0.8477    0.5799 H   0  0  0  0  0  0  0  0  0  0  0  0
    4.6511    0.8022    1.1210 H   0  0  0  0  0  0  0  0  0  0  0  0
    3.6323   -0.2551    2.1294 H   0  0  0  0  0  0  0  0  0  0  0  0
  5  6  2  0  0  0  0
  5  7  1  0  0  0  0
  2  3  1  0  0  0  0
  2  4  1  0  0  0  0
  2  5  1  0  0  0  0
  1  2  1  0  0  0  0
 19 20  2  0  0  0  0
 19 21  1  0  0  0  0
 17 18  1  0  0  0  0
 17 19  1  0  0  0  0
 14 15  1  0  0  0  0
 14 16  1  0  0  0  0
 14 17  1  0  0  0  0
 11 12  1  0  0  0  0
 11 13  1  0  0  0  0
 11 14  1  0  0  0  0
  8  9  1  0  0  0  0
  8 10  1  0  0  0  0
  8 11  1  0  0  0  0
  7  8  1  0  0  0  0
  7 17  1  0  0  0  0
 23 24  1  0  0  0  0
 23 25  1  0  0  0  0
 23 26  1  0  0  0  0
 21 22  1  0  0  0  0
 21 23  1  0  0  0  0
M  END
$$$$
default_name
  -OEChem-01062215323D

 26 26  0     1  0  0  0  0  0999 V2000
   -1.8446   -3.5060   -0.3010 H   0  0  0  0  0  0  0  0  0  0  0  0
   -2.0746   -2.4490   -0.4240 C   0  0  0  0  0  0  0  0  0  0  0  0
   -2.6906   -2.1160    0.4090 H   0  0  0  0  0  0  0  0  0  0  0  0
   -2.5986   -2.2980   -1.3650 H   0  0  0  0  0  0  0  0  0  0  0  0
   -0.7756   -1.6630   -0.4350 C   0  0  0  0  0  0  0  0  0  0  0  0
    0.2844   -2.2800   -0.4550 O   0  0  0  0  0  0  0  0  0  0  0  0
   -0.8246   -0.3180   -0.4350 N   0  0  0  0  0  0  0  0  0  0  0  0
   -2.0106    0.5080   -0.5910 C   0  0  0  0  0  0  0  0  0  0  0  0
   -2.8341    0.1102    0.0043 H   0  0  0  0  0  0  0  0  0  0  0  0
   -2.3175    0.6317   -1.6290 H   0  0  0  0  0  0  0  0  0  0  0  0
   -1.5540    1.8486   -0.0195 C   0  0  0  0  0  0  0  0  0  0  0  0
   -2.1440    2.0396    0.8782 H   0  0  0  0  0  0  0  0  0  0  0  0
   -1.7706    2.5889   -0.7904 H   0  0  0  0  0  0  0  0  0  0  0  0
   -0.0542    1.8324    0.2758 C   0  0  0  0  0  0  0  0  0  0  0  0
    0.1153    1.7795    1.3531 H   0  0  0  0  0  0  0  0  0  0  0  0
    0.4689    2.6907   -0.1457 H   0  0  0  0  0  0  0  0  0  0  0  0
    0.3724    0.5200   -0.4020 C   0  0  1  0  0  0  0  0  0  0  0  0
    0.6709    0.7333   -1.4286 H   0  0  0  0  0  0  0  0  0  0  0  0
    1.5359   -0.1579    0.3408 C   0  0  0  0  0  0  0  0  0  0  0  0
    1.4878   -1.3554    0.6145 O   0  0  0  0  0  0  0  0  0  0  0  0
    2.5635    0.6209    0.7005 N   0  0  0  0  0  0  0  0  0  0  0  0
    2.5565    1.5786    0.3879 H   0  0  0  0  0  0  0  0  0  0  0  0
    3.7414    0.1381    1.4174 C   0  0  0  0  0  0  0  0  0  0  0  0
    4.2869   -0.5681    0.7878 H   0  0  0  0  0  0  0  0  0  0  0  0
    4.3955    0.9715    1.6759 H   0  0  0  0  0  0  0  0  0  0  0  0
    3.4333   -0.3774    2.3296 H   0  0  0  0  0  0  0  0  0  0  0  0
  5  6  2  0  0  0  0
  5  7  1  0  0  0  0
  2  3  1  0  0  0  0
  2  4  1  0  0  0  0
  2  5  1  0  0  0  0
  1  2  1  0  0  0  0
 19 20  2  0  0  0  0
 19 21  1  0  0  0  0
 17 18  1  0  0  0  0
 17 19  1  0  0  0  0
 14 15  1  0  0  0  0
 14 16  1  0  0  0  0
 14 17  1  0  0  0  0
 11 12  1  0  0  0  0
 11 13  1  0  0  0  0
 11 14  1  0  0  0  0
  8  9  1  0  0  0  0
  8 10  1  0  0  0  0
  8 11  1  0  0  0  0
  7  8  1  0  0  0  0
  7 17  1  0  0  0  0
 23 24  1  0  0  0  0
 23 25  1  0  0  0  0
 23 26  1  0  0  0  0
 21 22  1  0  0  0  0
 21 23  1  0  0  0  0
M  END
$$$$
default_name
  -OEChem-01062215323D

 26 26  0     1  0  0  0  0  0999 V2000
   -1.8446   -3.5060   -0.3010 H   0  0  0  0  0  0  0  0  0  0  0  0
   -2.0746   -2.4490   -0.4240 C   0  0  0  0  0  0  0  0  0  0  0  0
   -2.6906   -2.1160    0.4090 H   0  0  0  0  0  0  0  0  0  0  0  0
   -2.5986   -2.2980   -1.3650 H   0  0  0  0  0  0  0  0  0  0  0  0
   -0.7756   -1.6630   -0.4350 C   0  0  0  0  0  0  0  0  0  0  0  0
    0.2844   -2.2800   -0.4550 O   0  0  0  0  0  0  0  0  0  0  0  0
   -0.8246   -0.3180   -0.4350 N   0  0  0  0  0  0  0  0  0  0  0  0
   -2.0106    0.5080   -0.5910 C   0  0  0  0  0  0  0  0  0  0  0  0
   -2.8341    0.1102    0.0043 H   0  0  0  0  0  0  0  0  0  0  0  0
   -2.3175    0.6317   -1.6290 H   0  0  0  0  0  0  0  0  0  0  0  0
   -1.5540    1.8486   -0.0195 C   0  0  0  0  0  0  0  0  0  0  0  0
   -2.1440    2.0396    0.8782 H   0  0  0  0  0  0  0  0  0  0  0  0
   -1.7706    2.5889   -0.7904 H   0  0  0  0  0  0  0  0  0  0  0  0
   -0.0542    1.8324    0.2758 C   0  0  0  0  0  0  0  0  0  0  0  0
    0.1153    1.7795    1.3531 H   0  0  0  0  0  0  0  0  0  0  0  0
    0.4689    2.6907   -0.1457 H   0  0  0  0  0  0  0  0  0  0  0  0
    0.3724    0.5200   -0.4020 C   0  0  1  0  0  0  0  0  0  0  0  0
    0.6709    0.7333   -1.4286 H   0  0  0  0  0  0  0  0  0  0  0  0
    1.5359   -0.1579    0.3408 C   0  0  0  0  0  0  0  0  0  0  0  0
    1.6240   -1.3836    0.3754 O   0  0  0  0  0  0  0  0  0  0  0  0
    2.4057    0.6433    0.9679 N   0  0  0  0  0  0  0  0  0  0  0  0
    2.3000    1.6373    0.8433 H   0  0  0  0  0  0  0  0  0  0  0  0
    3.5594    0.1620    1.7242 C   0  0  0  0  0  0  0  0  0  0  0  0
    4.2573   -0.3349    1.0469 H   0  0  0  0  0  0  0  0  0  0  0  0
    4.0641    0.9944    2.2158 H   0  0  0  0  0  0  0  0  0  0  0  0
    3.2334   -0.5596    2.4764 H   0  0  0  0  0  0  0  0  0  0  0  0
  5  6  2  0  0  0  0
  5  7  1  0  0  0  0
  2  3  1  0  0  0  0
  2  4  1  0  0  0  0
  2  5  1  0  0  0  0
  1  2  1  0  0  0  0
 19 20  2  0  0  0  0
 19 21  1  0  0  0  0
 17 18  1  0  0  0  0
 17 19  1  0  0  0  0
 14 15  1  0  0  0  0
 14 16  1  0  0  0  0
 14 17  1  0  0  0  0
 11 12  1  0  0  0  0
 11 13  1  0  0  0  0
 11 14  1  0  0  0  0
  8  9  1  0  0  0  0
  8 10  1  0  0  0  0
  8 11  1  0  0  0  0
  7  8  1  0  0  0  0
  7 17  1  0  0  0  0
 23 24  1  0  0  0  0
 23 25  1  0  0  0  0
 23 26  1  0  0  0  0
 21 22  1  0  0  0  0
 21 23  1  0  0  0  0
M  END
$$$$
default_name
  -OEChem-01062215323D

 26 26  0     1  0  0  0  0  0999 V2000
   -1.8446   -3.5060   -0.3010 H   0  0  0  0  0  0  0  0  0  0  0  0
   -2.0746   -2.4490   -0.4240 C   0  0  0  0  0  0  0  0  0  0  0  0
   -2.6906   -2.1160    0.4090 H   0  0  0  0  0  0  0  0  0  0  0  0
   -2.5986   -2.2980   -1.3650 H   0  0  0  0  0  0  0  0  0  0  0  0
   -0.7756   -1.6630   -0.4350 C   0  0  0  0  0  0  0  0  0  0  0  0
    0.2844   -2.2800   -0.4550 O   0  0  0  0  0  0  0  0  0  0  0  0
   -0.8246   -0.3180   -0.4350 N   0  0  0  0  0  0  0  0  0  0  0  0
   -2.0106    0.5080   -0.5910 C   0  0  0  0  0  0  0  0  0  0  0  0
   -2.8341    0.1102    0.0043 H   0  0  0  0  0  0  0  0  0  0  0  0
   -2.3175    0.6317   -1.6290 H   0  0  0  0  0  0  0  0  0  0  0  0
   -1.5540    1.8486   -0.0195 C   0  0  0  0  0  0  0  0  0  0  0  0
   -2.1440    2.0396    0.8782 H   0  0  0  0  0  0  0  0  0  0  0  0
   -1.7706    2.5889   -0.7904 H   0  0  0  0  0  0  0  0  0  0  0  0
   -0.0542    1.8324    0.2758 C   0  0  0  0  0  0  0  0  0  0  0  0
    0.1153    1.7795    1.3531 H   0  0  0  0  0  0  0  0  0  0  0  0
    0.4689    2.6907   -0.1457 H   0  0  0  0  0  0  0  0  0  0  0  0
    0.3724    0.5200   -0.4020 C   0  0  1  0  0  0  0  0  0  0  0  0
    0.6709    0.7333   -1.4286 H   0  0  0  0  0  0  0  0  0  0  0  0
    1.5359   -0.1579    0.3408 C   0  0  0  0  0  0  0  0  0  0  0  0
    1.7863   -1.3469    0.1545 O   0  0  0  0  0  0  0  0  0  0  0  0
    2.2201    0.5928    1.2127 N   0  0  0  0  0  0  0  0  0  0  0  0
    1.9930    1.5729    1.2653 H   0  0  0  0  0  0  0  0  0  0  0  0
    3.3457    0.1023    2.0044 C   0  0  0  0  0  0  0  0  0  0  0  0
    4.1701   -0.1642    1.3394 H   0  0  0  0  0  0  0  0  0  0  0  0
    3.6796    0.8693    2.7039 H   0  0  0  0  0  0  0  0  0  0  0  0
    3.0465   -0.7893    2.5596 H   0  0  0  0  0  0  0  0  0  0  0  0
  5  6  2  0  0  0  0
  5  7  1  0  0  0  0
  2  3  1  0  0  0  0
  2  4  1  0  0  0  0
  2  5  1  0  0  0  0
  1  2  1  0  0  0  0
 19 20  2  0  0  0  0
 19 21  1  0  0  0  0
 17 18  1  0  0  0  0
 17 19  1  0  0  0  0
 14 15  1  0  0  0  0
 14 16  1  0  0  0  0
 14 17  1  0  0  0  0
 11 12  1  0  0  0  0
 11 13  1  0  0  0  0
 11 14  1  0  0  0  0
  8  9  1  0  0  0  0
  8 10  1  0  0  0  0
  8 11  1  0  0  0  0
  7  8  1  0  0  0  0
  7 17  1  0  0  0  0
 23 24  1  0  0  0  0
 23 25  1  0  0  0  0
 23 26  1  0  0  0  0
 21 22  1  0  0  0  0
 21 23  1  0  0  0  0
M  END
$$$$
default_name
  -OEChem-01062215323D

 26 26  0     1  0  0  0  0  0999 V2000
   -1.8446   -3.5060   -0.3010 H   0  0  0  0  0  0  0  0  0  0  0  0
   -2.0746   -2.4490   -0.4240 C   0  0  0  0  0  0  0  0  0  0  0  0
   -2.6906   -2.1160    0.4090 H   0  0  0  0  0  0  0  0  0  0  0  0
   -2.5986   -2.2980   -1.3650 H   0  0  0  0  0  0  0  0  0  0  0  0
   -0.7756   -1.6630   -0.4350 C   0  0  0  0  0  0  0  0  0  0  0  0
    0.2844   -2.2800   -0.4550 O   0  0  0  0  0  0  0  0  0  0  0  0
   -0.8246   -0.3180   -0.4350 N   0  0  0  0  0  0  0  0  0  0  0  0
   -2.0106    0.5080   -0.5910 C   0  0  0  0  0  0  0  0  0  0  0  0
   -2.8341    0.1102    0.0043 H   0  0  0  0  0  0  0  0  0  0  0  0
   -2.3175    0.6317   -1.6290 H   0  0  0  0  0  0  0  0  0  0  0  0
   -1.5540    1.8486   -0.0195 C   0  0  0  0  0  0  0  0  0  0  0  0
   -2.1440    2.0396    0.8782 H   0  0  0  0  0  0  0  0  0  0  0  0
   -1.7706    2.5889   -0.7904 H   0  0  0  0  0  0  0  0  0  0  0  0
   -0.0542    1.8324    0.2758 C   0  0  0  0  0  0  0  0  0  0  0  0
    0.1153    1.7795    1.3531 H   0  0  0  0  0  0  0  0  0  0  0  0
    0.4689    2.6907   -0.1457 H   0  0  0  0  0  0  0  0  0  0  0  0
    0.3724    0.5200   -0.4020 C   0  0  1  0  0  0  0  0  0  0  0  0
    0.6709    0.7333   -1.4286 H   0  0  0  0  0  0  0  0  0  0  0  0
    1.5359   -0.1579    0.3408 C   0  0  0  0  0  0  0  0  0  0  0  0
    1.9638   -1.2480   -0.0331 O   0  0  0  0  0  0  0  0  0  0  0  0
    2.0191    0.4729    1.4180 N   0  0  0  0  0  0  0  0  0  0  0  0
    1.6564    1.3896    1.6254 H   0  0  0  0  0  0  0  0  0  0  0  0
    3.1148   -0.0369    2.2390 C   0  0  0  0  0  0  0  0  0  0  0  0
    4.0311   -0.0674    1.6455 H   0  0  0  0  0  0  0  0  0  0  0  0
    3.2681    0.6049    3.1071 H   0  0  0  0  0  0  0  0  0  0  0  0
    2.8851   -1.0509    2.5737 H   0  0  0  0  0  0  0  0  0  0  0  0
  5  6  2  0  0  0  0
  5  7  1  0  0  0  0
  2  3  1  0  0  0  0
  2  4  1  0  0  0  0
  2  5  1  0  0  0  0
  1  2  1  0  0  0  0
 19 20  2  0  0  0  0
 19 21  1  0  0  0  0
 17 18  1  0  0  0  0
 17 19  1  0  0  0  0
 14 15  1  0  0  0  0
 14 16  1  0  0  0  0
 14 17  1  0  0  0  0
 11 12  1  0  0  0  0
 11 13  1  0  0  0  0
 11 14  1  0  0  0  0
  8  9  1  0  0  0  0
  8 10  1  0  0  0  0
  8 11  1  0  0  0  0
  7  8  1  0  0  0  0
  7 17  1  0  0  0  0
 23 24  1  0  0  0  0
 23 25  1  0  0  0  0
 23 26  1  0  0  0  0
 21 22  1  0  0  0  0
 21 23  1  0  0  0  0
M  END
$$$$
default_name
  -OEChem-01062215323D

 26 26  0     1  0  0  0  0  0999 V2000
   -1.8446   -3.5060   -0.3010 H   0  0  0  0  0  0  0  0  0  0  0  0
   -2.0746   -2.4490   -0.4240 C   0  0  0  0  0  0  0  0  0  0  0  0
   -2.6906   -2.1160    0.4090 H   0  0  0  0  0  0  0  0  0  0  0  0
   -2.5986   -2.2980   -1.3650 H   0  0  0  0  0  0  0  0  0  0  0  0
   -0.7756   -1.6630   -0.4350 C   0  0  0  0  0  0  0  0  0  0  0  0
    0.2844   -2.2800   -0.4550 O   0  0  0  0  0  0  0  0  0  0  0  0
   -0.8246   -0.3180   -0.4350 N   0  0  0  0  0  0  0  0  0  0  0  0
   -2.0106    0.5080   -0.5910 C   0  0  0  0  0  0  0  0  0  0  0  0
   -2.8341    0.1102    0.0043 H   0  0  0  0  0  0  0  0  0  0  0  0
   -2.3175    0.6317   -1.6290 H   0  0  0  0  0  0  0  0  0  0  0  0
   -1.5540    1.8486   -0.0195 C   0  0  0  0  0  0  0  0  0  0  0  0
   -2.1440    2.0396    0.8782 H   0  0  0  0  0  0  0  0  0  0  0  0
   -1.7706    2.5889   -0.7904 H   0  0  0  0  0  0  0  0  0  0  0  0
   -0.0542    1.8324    0.2758 C   0  0  0  0  0  0  0  0  0  0  0  0
    0.1153    1.7795    1.3531 H   0  0  0  0  0  0  0  0  0  0  0  0
    0.4689    2.6907   -0.1457 H   0  0  0  0  0  0  0  0  0  0  0  0
    0.3724    0.5200   -0.4020 C   0  0  1  0  0  0  0  0  0  0  0  0
    0.6709    0.7333   -1.4286 H   0  0  0  0  0  0  0  0  0  0  0  0
    1.5359   -0.1579    0.3408 C   0  0  0  0  0  0  0  0  0  0  0  0
    2.1442   -1.0935   -0.1748 O   0  0  0  0  0  0  0  0  0  0  0  0
    1.8166    0.2918    1.5699 N   0  0  0  0  0  0  0  0  0  0  0  0
    1.3130    1.0999    1.8988 H   0  0  0  0  0  0  0  0  0  0  0  0
    2.8824   -0.2463    2.4120 C   0  0  0  0  0  0  0  0  0  0  0  0
    3.8498   -0.0512    1.9442 H   0  0  0  0  0  0  0  0  0  0  0  0
    2.8577    0.2190    3.3979 H   0  0  0  0  0  0  0  0  0  0  0  0
    2.7603   -1.3265    2.5177 H   0  0  0  0  0  0  0  0  0  0  0  0
  5  6  2  0  0  0  0
  5  7  1  0  0  0  0
  2  3  1  0  0  0  0
  2  4  1  0  0  0  0
  2  5  1  0  0  0  0
  1  2  1  0  0  0  0
 19 20  2  0  0  0  0
 19 21  1  0  0  0  0
 17 18  1  0  0  0  0
 17 19  1  0  0  0  0
 14 15  1  0  0  0  0
 14 16  1  0  0  0  0
 14 17  1  0  0  0  0
 11 12  1  0  0  0  0
 11 13  1  0  0  0  0
 11 14  1  0  0  0  0
  8  9  1  0  0  0  0
  8 10  1  0  0  0  0
  8 11  1  0  0  0  0
  7  8  1  0  0  0  0
  7 17  1  0  0  0  0
 23 24  1  0  0  0  0
 23 25  1  0  0  0  0
 23 26  1  0  0  0  0
 21 22  1  0  0  0  0
 21 23  1  0  0  0  0
M  END
$$$$
default_name
  -OEChem-01062215323D

 26 26  0     1  0  0  0  0  0999 V2000
   -1.8446   -3.5060   -0.3010 H   0  0  0  0  0  0  0  0  0  0  0  0
   -2.0746   -2.4490   -0.4240 C   0  0  0  0  0  0  0  0  0  0  0  0
   -2.6906   -2.1160    0.4090 H   0  0  0  0  0  0  0  0  0  0  0  0
   -2.5986   -2.2980   -1.3650 H   0  0  0  0  0  0  0  0  0  0  0  0
   -0.7756   -1.6630   -0.4350 C   0  0  0  0  0  0  0  0  0  0  0  0
    0.2844   -2.2800   -0.4550 O   0  0  0  0  0  0  0  0  0  0  0  0
   -0.8246   -0.3180   -0.4350 N   0  0  0  0  0  0  0  0  0  0  0  0
   -2.0106    0.5080   -0.5910 C   0  0  0  0  0  0  0  0  0  0  0  0
   -2.8341    0.1102    0.0043 H   0  0  0  0  0  0  0  0  0  0  0  0
   -2.3175    0.6317   -1.6290 H   0  0  0  0  0  0  0  0  0  0  0  0
   -1.5540    1.8486   -0.0195 C   0  0  0  0  0  0  0  0  0  0  0  0
   -2.1440    2.0396    0.8782 H   0  0  0  0  0  0  0  0  0  0  0  0
   -1.7706    2.5889   -0.7904 H   0  0  0  0  0  0  0  0  0  0  0  0
   -0.0542    1.8324    0.2758 C   0  0  0  0  0  0  0  0  0  0  0  0
    0.1153    1.7795    1.3531 H   0  0  0  0  0  0  0  0  0  0  0  0
    0.4689    2.6907   -0.1457 H   0  0  0  0  0  0  0  0  0  0  0  0
    0.3724    0.5200   -0.4020 C   0  0  1  0  0  0  0  0  0  0  0  0
    0.6709    0.7333   -1.4286 H   0  0  0  0  0  0  0  0  0  0  0  0
    1.5359   -0.1579    0.3408 C   0  0  0  0  0  0  0  0  0  0  0  0
    2.3154   -0.8940   -0.2607 O   0  0  0  0  0  0  0  0  0  0  0  0
    1.6263    0.0617    1.6581 N   0  0  0  0  0  0  0  0  0  0  0  0
    0.9864    0.7237    2.0671 H   0  0  0  0  0  0  0  0  0  0  0  0
    2.6644   -0.5114    2.5116 C   0  0  0  0  0  0  0  0  0  0  0  0
    3.6386   -0.1168    2.2152 H   0  0  0  0  0  0  0  0  0  0  0  0
    2.4763   -0.2619    3.5563 H   0  0  0  0  0  0  0  0  0  0  0  0
    2.6806   -1.5973    2.3954 H   0  0  0  0  0  0  0  0  0  0  0  0
  5  6  2  0  0  0  0
  5  7  1  0  0  0  0
  2  3  1  0  0  0  0
  2  4  1  0  0  0  0
  2  5  1  0  0  0  0
  1  2  1  0  0  0  0
 19 20  2  0  0  0  0
 19 21  1  0  0  0  0
 17 18  1  0  0  0  0
 17 19  1  0  0  0  0
 14 15  1  0  0  0  0
 14 16  1  0  0  0  0
 14 17  1  0  0  0  0
 11 12  1  0  0  0  0
 11 13  1  0  0  0  0
 11 14  1  0  0  0  0
  8  9  1  0  0  0  0
  8 10  1  0  0  0  0
  8 11  1  0  0  0  0
  7  8  1  0  0  0  0
  7 17  1  0  0  0  0
 23 24  1  0  0  0  0
 23 25  1  0  0  0  0
 23 26  1  0  0  0  0
 21 22  1  0  0  0  0
 21 23  1  0  0  0  0
M  END
$$$$
default_name
  -OEChem-01062215323D

 26 26  0     1  0  0  0  0  0999 V2000
   -1.8446   -3.5060   -0.3010 H   0  0  0  0  0  0  0  0  0  0  0  0
   -2.0746   -2.4490   -0.4240 C   0  0  0  0  0  0  0  0  0  0  0  0
   -2.6906   -2.1160    0.4090 H   0  0  0  0  0  0  0  0  0  0  0  0
   -2.5986   -2.2980   -1.3650 H   0  0  0  0  0  0  0  0  0  0  0  0
   -0.7756   -1.6630   -0.4350 C   0  0  0  0  0  0  0  0  0  0  0  0
    0.2844   -2.2800   -0.4550 O   0  0  0  0  0  0  0  0  0  0  0  0
   -0.8246   -0.3180   -0.4350 N   0  0  0  0  0  0  0  0  0  0  0  0
   -2.0106    0.5080   -0.5910 C   0  0  0  0  0  0  0  0  0  0  0  0
   -2.8341    0.1102    0.0043 H   0  0  0  0  0  0  0  0  0  0  0  0
   -2.3175    0.6317   -1.6290 H   0  0  0  0  0  0  0  0  0  0  0  0
   -1.5540    1.8486   -0.0195 C   0  0  0  0  0  0  0  0  0  0  0  0
   -2.1440    2.0396    0.8782 H   0  0  0  0  0  0  0  0  0  0  0  0
   -1.7706    2.5889   -0.7904 H   0  0  0  0  0  0  0  0  0  0  0  0
   -0.0542    1.8324    0.2758 C   0  0  0  0  0  0  0  0  0  0  0  0
    0.1153    1.7795    1.3531 H   0  0  0  0  0  0  0  0  0  0  0  0
    0.4689    2.6907   -0.1457 H   0  0  0  0  0  0  0  0  0  0  0  0
    0.3724    0.5200   -0.4020 C   0  0  1  0  0  0  0  0  0  0  0  0
    0.6709    0.7333   -1.4286 H   0  0  0  0  0  0  0  0  0  0  0  0
    1.5359   -0.1579    0.3408 C   0  0  0  0  0  0  0  0  0  0  0  0
    2.4655   -0.6630   -0.2852 O   0  0  0  0  0  0  0  0  0  0  0  0
    1.4611   -0.2015    1.6766 N   0  0  0  0  0  0  0  0  0  0  0  0
    0.6987    0.2865    2.1187 H   0  0  0  0  0  0  0  0  0  0  0  0
    2.4755   -0.8143    2.5310 C   0  0  0  0  0  0  0  0  0  0  0  0
    3.4119   -0.2595    2.4400 H   0  0  0  0  0  0  0  0  0  0  0  0
    2.1500   -0.8051    3.5717 H   0  0  0  0  0  0  0  0  0  0  0  0
    2.6514   -1.8449    2.2152 H   0  0  0  0  0  0  0  0  0  0  0  0
  5  6  2  0  0  0  0
  5  7  1  0  0  0  0
  2  3  1  0  0  0  0
  2  4  1  0  0  0  0
  2  5  1  0  0  0  0
  1  2  1  0  0  0  0
 19 20  2  0  0  0  0
 19 21  1  0  0  0  0
 17 18  1  0  0  0  0
 17 19  1  0  0  0  0
 14 15  1  0  0  0  0
 14 16  1  0  0  0  0
 14 17  1  0  0  0  0
 11 12  1  0  0  0  0
 11 13  1  0  0  0  0
 11 14  1  0  0  0  0
  8  9  1  0  0  0  0
  8 10  1  0  0  0  0
  8 11  1  0  0  0  0
  7  8  1  0  0  0  0
  7 17  1  0  0  0  0
 23 24  1  0  0  0  0
 23 25  1  0  0  0  0
 23 26  1  0  0  0  0
 21 22  1  0  0  0  0
 21 23  1  0  0  0  0
M  END
$$$$
default_name
  -OEChem-01062215323D

 26 26  0     1  0  0  0  0  0999 V2000
   -1.8446   -3.5060   -0.3010 H   0  0  0  0  0  0  0  0  0  0  0  0
   -2.0746   -2.4490   -0.4240 C   0  0  0  0  0  0  0  0  0  0  0  0
   -2.6906   -2.1160    0.4090 H   0  0  0  0  0  0  0  0  0  0  0  0
   -2.5986   -2.2980   -1.3650 H   0  0  0  0  0  0  0  0  0  0  0  0
   -0.7756   -1.6630   -0.4350 C   0  0  0  0  0  0  0  0  0  0  0  0
    0.2844   -2.2800   -0.4550 O   0  0  0  0  0  0  0  0  0  0  0  0
   -0.8246   -0.3180   -0.4350 N   0  0  0  0  0  0  0  0  0  0  0  0
   -2.0106    0.5080   -0.5910 C   0  0  0  0  0  0  0  0  0  0  0  0
   -2.8341    0.1102    0.0043 H   0  0  0  0  0  0  0  0  0  0  0  0
   -2.3175    0.6317   -1.6290 H   0  0  0  0  0  0  0  0  0  0  0  0
   -1.5540    1.8486   -0.0195 C   0  0  0  0  0  0  0  0  0  0  0  0
   -2.1440    2.0396    0.8782 H   0  0  0  0  0  0  0  0  0  0  0  0
   -1.7706    2.5889   -0.7904 H   0  0  0  0  0  0  0  0  0  0  0  0
   -0.0542    1.8324    0.2758 C   0  0  0  0  0  0  0  0  0  0  0  0
    0.1153    1.7795    1.3531 H   0  0  0  0  0  0  0  0  0  0  0  0
    0.4689    2.6907   -0.1457 H   0  0  0  0  0  0  0  0  0  0  0  0
    0.3724    0.5200   -0.4020 C   0  0  1  0  0  0  0  0  0  0  0  0
    0.6709    0.7333   -1.4286 H   0  0  0  0  0  0  0  0  0  0  0  0
    1.5359   -0.1579    0.3408 C   0  0  0  0  0  0  0  0  0  0  0  0
    2.5845   -0.4164   -0.2465 O   0  0  0  0  0  0  0  0  0  0  0  0
    1.3324   -0.4801    1.6240 N   0  0  0  0  0  0  0  0  0  0  0  0
    0.4697   -0.1819    2.0501 H   0  0  0  0  0  0  0  0  0  0  0  0
    2.3288   -1.1342    2.4689 C   0  0  0  0  0  0  0  0  0  0  0  0
    3.1850   -0.4698    2.6034 H   0  0  0  0  0  0  0  0  0  0  0  0
    1.9010   -1.3736    3.4430 H   0  0  0  0  0  0  0  0  0  0  0  0
    2.6747   -2.0524    1.9892 H   0  0  0  0  0  0  0  0  0  0  0  0
  5  6  2  0  0  0  0
  5  7  1  0  0  0  0
  2  3  1  0  0  0  0
  2  4  1  0  0  0  0
  2  5  1  0  0  0  0
  1  2  1  0  0  0  0
 19 20  2  0  0  0  0
 19 21  1  0  0  0  0
 17 18  1  0  0  0  0
 17 19  1  0  0  0  0
 14 15  1  0  0  0  0
 14 16  1  0  0  0  0
 14 17  1  0  0  0  0
 11 12  1  0  0  0  0
 11 13  1  0  0  0  0
 11 14  1  0  0  0  0
  8  9  1  0  0  0  0
  8 10  1  0  0  0  0
  8 11  1  0  0  0  0
  7  8  1  0  0  0  0
  7 17  1  0  0  0  0
 23 24  1  0  0  0  0
 23 25  1  0  0  0  0
 23 26  1  0  0  0  0
 21 22  1  0  0  0  0
 21 23  1  0  0  0  0
M  END
$$$$
default_name
  -OEChem-01062215323D

 26 26  0     1  0  0  0  0  0999 V2000
   -1.8446   -3.5060   -0.3010 H   0  0  0  0  0  0  0  0  0  0  0  0
   -2.0746   -2.4490   -0.4240 C   0  0  0  0  0  0  0  0  0  0  0  0
   -2.6906   -2.1160    0.4090 H   0  0  0  0  0  0  0  0  0  0  0  0
   -2.5986   -2.2980   -1.3650 H   0  0  0  0  0  0  0  0  0  0  0  0
   -0.7756   -1.6630   -0.4350 C   0  0  0  0  0  0  0  0  0  0  0  0
    0.2844   -2.2800   -0.4550 O   0  0  0  0  0  0  0  0  0  0  0  0
   -0.8246   -0.3180   -0.4350 N   0  0  0  0  0  0  0  0  0  0  0  0
   -2.0106    0.5080   -0.5910 C   0  0  0  0  0  0  0  0  0  0  0  0
   -2.8341    0.1102    0.0043 H   0  0  0  0  0  0  0  0  0  0  0  0
   -2.3175    0.6317   -1.6290 H   0  0  0  0  0  0  0  0  0  0  0  0
   -1.5540    1.8486   -0.0195 C   0  0  0  0  0  0  0  0  0  0  0  0
   -2.1440    2.0396    0.8782 H   0  0  0  0  0  0  0  0  0  0  0  0
   -1.7706    2.5889   -0.7904 H   0  0  0  0  0  0  0  0  0  0  0  0
   -0.0542    1.8324    0.2758 C   0  0  0  0  0  0  0  0  0  0  0  0
    0.1153    1.7795    1.3531 H   0  0  0  0  0  0  0  0  0  0  0  0
    0.4689    2.6907   -0.1457 H   0  0  0  0  0  0  0  0  0  0  0  0
    0.3724    0.5200   -0.4020 C   0  0  1  0  0  0  0  0  0  0  0  0
    0.6709    0.7333   -1.4286 H   0  0  0  0  0  0  0  0  0  0  0  0
    1.5359   -0.1579    0.3408 C   0  0  0  0  0  0  0  0  0  0  0  0
    2.6642   -0.1708   -0.1472 O   0  0  0  0  0  0  0  0  0  0  0  0
    1.2489   -0.7549    1.5039 N   0  0  0  0  0  0  0  0  0  0  0  0
    0.3148   -0.6495    1.8660 H   0  0  0  0  0  0  0  0  0  0  0  0
    2.2341   -1.4494    2.3295 C   0  0  0  0  0  0  0  0  0  0  0  0
    2.9736   -0.7333    2.6941 H   0  0  0  0  0  0  0  0  0  0  0  0
    1.7462   -1.9287    3.1789 H   0  0  0  0  0  0  0  0  0  0  0  0
    2.7490   -2.2057    1.7330 H   0  0  0  0  0  0  0  0  0  0  0  0
  5  6  2  0  0  0  0
  5  7  1  0  0  0  0
  2  3  1  0  0  0  0
  2  4  1  0  0  0  0
  2  5  1  0  0  0  0
  1  2  1  0  0  0  0
 19 20  2  0  0  0  0
 19 21  1  0  0  0  0
 17 18  1  0  0  0  0
 17 19  1  0  0  0  0
 14 15  1  0  0  0  0
 14 16  1  0  0  0  0
 14 17  1  0  0  0  0
 11 12  1  0  0  0  0
 11 13  1  0  0  0  0
 11 14  1  0  0  0  0
  8  9  1  0  0  0  0
  8 10  1  0  0  0  0
  8 11  1  0  0  0  0
  7  8  1  0  0  0  0
  7 17  1  0  0  0  0
 23 24  1  0  0  0  0
 23 25  1  0  0  0  0
 23 26  1  0  0  0  0
 21 22  1  0  0  0  0
 21 23  1  0  0  0  0
M  END
$$$$
default_name
  -OEChem-01062215323D

 26 26  0     1  0  0  0  0  0999 V2000
   -1.8446   -3.5060   -0.3010 H   0  0  0  0  0  0  0  0  0  0  0  0
   -2.0746   -2.4490   -0.4240 C   0  0  0  0  0  0  0  0  0  0  0  0
   -2.6906   -2.1160    0.4090 H   0  0  0  0  0  0  0  0  0  0  0  0
   -2.5986   -2.2980   -1.3650 H   0  0  0  0  0  0  0  0  0  0  0  0
   -0.7756   -1.6630   -0.4350 C   0  0  0  0  0  0  0  0  0  0  0  0
    0.2844   -2.2800   -0.4550 O   0  0  0  0  0  0  0  0  0  0  0  0
   -0.8246   -0.3180   -0.4350 N   0  0  0  0  0  0  0  0  0  0  0  0
   -2.0106    0.5080   -0.5910 C   0  0  0  0  0  0  0  0  0  0  0  0
   -2.8341    0.1102    0.0043 H   0  0  0  0  0  0  0  0  0  0  0  0
   -2.3175    0.6317   -1.6290 H   0  0  0  0  0  0  0  0  0  0  0  0
   -1.5540    1.8486   -0.0195 C   0  0  0  0  0  0  0  0  0  0  0  0
   -2.1440    2.0396    0.8782 H   0  0  0  0  0  0  0  0  0  0  0  0
   -1.7706    2.5889   -0.7904 H   0  0  0  0  0  0  0  0  0  0  0  0
   -0.0542    1.8324    0.2758 C   0  0  0  0  0  0  0  0  0  0  0  0
    0.1153    1.7795    1.3531 H   0  0  0  0  0  0  0  0  0  0  0  0
    0.4689    2.6907   -0.1457 H   0  0  0  0  0  0  0  0  0  0  0  0
    0.3724    0.5200   -0.4020 C   0  0  1  0  0  0  0  0  0  0  0  0
    0.6709    0.7333   -1.4286 H   0  0  0  0  0  0  0  0  0  0  0  0
    1.5359   -0.1579    0.3408 C   0  0  0  0  0  0  0  0  0  0  0  0
    2.6991    0.0569    0.0059 O   0  0  0  0  0  0  0  0  0  0  0  0
    1.2163   -1.0073    1.3247 N   0  0  0  0  0  0  0  0  0  0  0  0
    0.2446   -1.0845    1.5789 H   0  0  0  0  0  0  0  0  0  0  0  0
    2.1979   -1.7385    2.1224 C   0  0  0  0  0  0  0  0  0  0  0  0
    2.7920   -1.0320    2.7060 H   0  0  0  0  0  0  0  0  0  0  0  0
    1.6962   -2.4325    2.7974 H   0  0  0  0  0  0  0  0  0  0  0  0
    2.8691   -2.2944    1.4640 H   0  0  0  0  0  0  0  0  0  0  0  0
  5  6  2  0  0  0  0
  5  7  1  0  0  0  0
  2  3  1  0  0  0  0
  2  4  1  0  0  0  0
  2  5  1  0  0  0  0
  1  2  1  0  0  0  0
 19 20  2  0  0  0  0
 19 21  1  0  0  0  0
 17 18  1  0  0  0  0
 17 19  1  0  0  0  0
 14 15  1  0  0  0  0
 14 16  1  0  0  0  0
 14 17  1  0  0  0  0
 11 12  1  0  0  0  0
 11 13  1  0  0  0  0
 11 14  1  0  0  0  0
  8  9  1  0  0  0  0
  8 10  1  0  0  0  0
  8 11  1  0  0  0  0
  7  8  1  0  0  0  0
  7 17  1  0  0  0  0
 23 24  1  0  0  0  0
 23 25  1  0  0  0  0
 23 26  1  0  0  0  0
 21 22  1  0  0  0  0
 21 23  1  0  0  0  0
M  END
$$$$
default_name
  -OEChem-01062215323D

 26 26  0     1  0  0  0  0  0999 V2000
   -1.8446   -3.5060   -0.3010 H   0  0  0  0  0  0  0  0  0  0  0  0
   -2.0746   -2.4490   -0.4240 C   0  0  0  0  0  0  0  0  0  0  0  0
   -2.6906   -2.1160    0.4090 H   0  0  0  0  0  0  0  0  0  0  0  0
   -2.5986   -2.2980   -1.3650 H   0  0  0  0  0  0  0  0  0  0  0  0
   -0.7756   -1.6630   -0.4350 C   0  0  0  0  0  0  0  0  0  0  0  0
    0.2844   -2.2800   -0.4550 O   0  0  0  0  0  0  0  0  0  0  0  0
   -0.8246   -0.3180   -0.4350 N   0  0  0  0  0  0  0  0  0  0  0  0
   -2.0106    0.5080   -0.5910 C   0  0  0  0  0  0  0  0  0  0  0  0
   -2.8341    0.1102    0.0043 H   0  0  0  0  0  0  0  0  0  0  0  0
   -2.3175    0.6317   -1.6290 H   0  0  0  0  0  0  0  0  0  0  0  0
   -1.5540    1.8486   -0.0195 C   0  0  0  0  0  0  0  0  0  0  0  0
   -2.1440    2.0396    0.8782 H   0  0  0  0  0  0  0  0  0  0  0  0
   -1.7706    2.5889   -0.7904 H   0  0  0  0  0  0  0  0  0  0  0  0
   -0.0542    1.8324    0.2758 C   0  0  0  0  0  0  0  0  0  0  0  0
    0.1153    1.7795    1.3531 H   0  0  0  0  0  0  0  0  0  0  0  0
    0.4689    2.6907   -0.1457 H   0  0  0  0  0  0  0  0  0  0  0  0
    0.3724    0.5200   -0.4020 C   0  0  1  0  0  0  0  0  0  0  0  0
    0.6709    0.7333   -1.4286 H   0  0  0  0  0  0  0  0  0  0  0  0
    1.5359   -0.1579    0.3408 C   0  0  0  0  0  0  0  0  0  0  0  0
    2.6869    0.2512    0.2023 O   0  0  0  0  0  0  0  0  0  0  0  0
    1.2369   -1.2201    1.0983 N   0  0  0  0  0  0  0  0  0  0  0  0
    0.2640   -1.4573    1.2085 H   0  0  0  0  0  0  0  0  0  0  0  0
    2.2228   -1.9816    1.8616 C   0  0  0  0  0  0  0  0  0  0  0  0
    2.6525   -1.3455    2.6384 H   0  0  0  0  0  0  0  0  0  0  0  0
    1.7544   -2.8507    2.3246 H   0  0  0  0  0  0  0  0  0  0  0  0
    3.0269   -2.3123    1.2005 H   0  0  0  0  0  0  0  0  0  0  0  0
  5  6  2  0  0  0  0
  5  7  1  0  0  0  0
  2  3  1  0  0  0  0
  2  4  1  0  0  0  0
  2  5  1  0  0  0  0
  1  2  1  0  0  0  0
 19 20  2  0  0  0  0
 19 21  1  0  0  0  0
 17 18  1  0  0  0  0
 17 19  1  0  0  0  0
 14 15  1  0  0  0  0
 14 16  1  0  0  0  0
 14 17  1  0  0  0  0
 11 12  1  0  0  0  0
 11 13  1  0  0  0  0
 11 14  1  0  0  0  0
  8  9  1  0  0  0  0
  8 10  1  0  0  0  0
  8 11  1  0  0  0  0
  7  8  1  0  0  0  0
  7 17  1  0  0  0  0
 23 24  1  0  0  0  0
 23 25  1  0  0  0  0
 23 26  1  0  0  0  0
 21 22  1  0  0  0  0
 21 23  1  0  0  0  0
M  END
$$$$
default_name
  -OEChem-01062215323D

 26 26  0     1  0  0  0  0  0999 V2000
   -1.8446   -3.5060   -0.3010 H   0  0  0  0  0  0  0  0  0  0  0  0
   -2.0746   -2.4490   -0.4240 C   0  0  0  0  0  0  0  0  0  0  0  0
   -2.6906   -2.1160    0.4090 H   0  0  0  0  0  0  0  0  0  0  0  0
   -2.5986   -2.2980   -1.3650 H   0  0  0  0  0  0  0  0  0  0  0  0
   -0.7756   -1.6630   -0.4350 C   0  0  0  0  0  0  0  0  0  0  0  0
    0.2844   -2.2800   -0.4550 O   0  0  0  0  0  0  0  0  0  0  0  0
   -0.8246   -0.3180   -0.4350 N   0  0  0  0  0  0  0  0  0  0  0  0
   -2.0106    0.5080   -0.5910 C   0  0  0  0  0  0  0  0  0  0  0  0
   -2.8341    0.1102    0.0043 H   0  0  0  0  0  0  0  0  0  0  0  0
   -2.3175    0.6317   -1.6290 H   0  0  0  0  0  0  0  0  0  0  0  0
   -1.5540    1.8486   -0.0195 C   0  0  0  0  0  0  0  0  0  0  0  0
   -2.1440    2.0396    0.8782 H   0  0  0  0  0  0  0  0  0  0  0  0
   -1.7706    2.5889   -0.7904 H   0  0  0  0  0  0  0  0  0  0  0  0
   -0.0542    1.8324    0.2758 C   0  0  0  0  0  0  0  0  0  0  0  0
    0.1153    1.7795    1.3531 H   0  0  0  0  0  0  0  0  0  0  0  0
    0.4689    2.6907   -0.1457 H   0  0  0  0  0  0  0  0  0  0  0  0
    0.3724    0.5200   -0.4020 C   0  0  1  0  0  0  0  0  0  0  0  0
    0.6709    0.7333   -1.4286 H   0  0  0  0  0  0  0  0  0  0  0  0
    1.5359   -0.1579    0.3408 C   0  0  0  0  0  0  0  0  0  0  0  0
    2.6285    0.3989    0.4287 O   0  0  0  0  0  0  0  0  0  0  0  0
    1.3091   -1.3788    0.8404 N   0  0  0  0  0  0  0  0  0  0  0  0
    0.3715   -1.7423    0.7798 H   0  0  0  0  0  0  0  0  0  0  0  0
    2.3070   -2.1623    1.5649 C   0  0  0  0  0  0  0  0  0  0  0  0
    2.5647   -1.6526    2.4957 H   0  0  0  0  0  0  0  0  0  0  0  0
    1.9169   -3.1548    1.7927 H   0  0  0  0  0  0  0  0  0  0  0  0
    3.2116   -2.2582    0.9605 H   0  0  0  0  0  0  0  0  0  0  0  0
  5  6  2  0  0  0  0
  5  7  1  0  0  0  0
  2  3  1  0  0  0  0
  2  4  1  0  0  0  0
  2  5  1  0  0  0  0
  1  2  1  0  0  0  0
 19 20  2  0  0  0  0
 19 21  1  0  0  0  0
 17 18  1  0  0  0  0
 17 19  1  0  0  0  0
 14 15  1  0  0  0  0
 14 16  1  0  0  0  0
 14 17  1  0  0  0  0
 11 12  1  0  0  0  0
 11 13  1  0  0  0  0
 11 14  1  0  0  0  0
  8  9  1  0  0  0  0
  8 10  1  0  0  0  0
  8 11  1  0  0  0  0
  7  8  1  0  0  0  0
  7 17  1  0  0  0  0
 23 24  1  0  0  0  0
 23 25  1  0  0  0  0
 23 26  1  0  0  0  0
 21 22  1  0  0  0  0
 21 23  1  0  0  0  0
M  END
$$$$
default_name
  -OEChem-01062215323D

 26 26  0     1  0  0  0  0  0999 V2000
   -1.8446   -3.5060   -0.3010 H   0  0  0  0  0  0  0  0  0  0  0  0
   -2.0746   -2.4490   -0.4240 C   0  0  0  0  0  0  0  0  0  0  0  0
   -2.6906   -2.1160    0.4090 H   0  0  0  0  0  0  0  0  0  0  0  0
   -2.5986   -2.2980   -1.3650 H   0  0  0  0  0  0  0  0  0  0  0  0
   -0.7756   -1.6630   -0.4350 C   0  0  0  0  0  0  0  0  0  0  0  0
    0.2844   -2.2800   -0.4550 O   0  0  0  0  0  0  0  0  0  0  0  0
   -0.8246   -0.3180   -0.4350 N   0  0  0  0  0  0  0  0  0  0  0  0
   -2.0106    0.5080   -0.5910 C   0  0  0  0  0  0  0  0  0  0  0  0
   -2.8341    0.1102    0.0043 H   0  0  0  0  0  0  0  0  0  0  0  0
   -2.3175    0.6317   -1.6290 H   0  0  0  0  0  0  0  0  0  0  0  0
   -1.5540    1.8486   -0.0195 C   0  0  0  0  0  0  0  0  0  0  0  0
   -2.1440    2.0396    0.8782 H   0  0  0  0  0  0  0  0  0  0  0  0
   -1.7706    2.5889   -0.7904 H   0  0  0  0  0  0  0  0  0  0  0  0
   -0.0542    1.8324    0.2758 C   0  0  0  0  0  0  0  0  0  0  0  0
    0.1153    1.7795    1.3531 H   0  0  0  0  0  0  0  0  0  0  0  0
    0.4689    2.6907   -0.1457 H   0  0  0  0  0  0  0  0  0  0  0  0
    0.3724    0.5200   -0.4020 C   0  0  1  0  0  0  0  0  0  0  0  0
    0.6709    0.7333   -1.4286 H   0  0  0  0  0  0  0  0  0  0  0  0
    1.5359   -0.1579    0.3408 C   0  0  0  0  0  0  0  0  0  0  0  0
    2.5277    0.4899    0.6696 O   0  0  0  0  0  0  0  0  0  0  0  0
    1.4281   -1.4725    0.5684 N   0  0  0  0  0  0  0  0  0  0  0  0
    0.5600   -1.9203    0.3223 H   0  0  0  0  0  0  0  0  0  0  0  0
    2.4447   -2.2682    1.2525 C   0  0  0  0  0  0  0  0  0  0  0  0
    2.5346   -1.9322    2.2877 H   0  0  0  0  0  0  0  0  0  0  0  0
    2.1725   -3.3240    1.2379 H   0  0  0  0  0  0  0  0  0  0  0  0
    3.4107   -2.1360    0.7603 H   0  0  0  0  0  0  0  0  0  0  0  0
  5  6  2  0  0  0  0
  5  7  1  0  0  0  0
  2  3  1  0  0  0  0
  2  4  1  0  0  0  0
  2  5  1  0  0  0  0
  1  2  1  0  0  0  0
 19 20  2  0  0  0  0
 19 21  1  0  0  0  0
 17 18  1  0  0  0  0
 17 19  1  0  0  0  0
 14 15  1  0  0  0  0
 14 16  1  0  0  0  0
 14 17  1  0  0  0  0
 11 12  1  0  0  0  0
 11 13  1  0  0  0  0
 11 14  1  0  0  0  0
  8  9  1  0  0  0  0
  8 10  1  0  0  0  0
  8 11  1  0  0  0  0
  7  8  1  0  0  0  0
  7 17  1  0  0  0  0
 23 24  1  0  0  0  0
 23 25  1  0  0  0  0
 23 26  1  0  0  0  0
 21 22  1  0  0  0  0
 21 23  1  0  0  0  0
M  END
$$$$
default_name
  -OEChem-01062215323D

 26 26  0     1  0  0  0  0  0999 V2000
   -1.8446   -3.5060   -0.3010 H   0  0  0  0  0  0  0  0  0  0  0  0
   -2.0746   -2.4490   -0.4240 C   0  0  0  0  0  0  0  0  0  0  0  0
   -2.6906   -2.1160    0.4090 H   0  0  0  0  0  0  0  0  0  0  0  0
   -2.5986   -2.2980   -1.3650 H   0  0  0  0  0  0  0  0  0  0  0  0
   -0.7756   -1.6630   -0.4350 C   0  0  0  0  0  0  0  0  0  0  0  0
    0.2844   -2.2800   -0.4550 O   0  0  0  0  0  0  0  0  0  0  0  0
   -0.8246   -0.3180   -0.4350 N   0  0  0  0  0  0  0  0  0  0  0  0
   -2.0106    0.5080   -0.5910 C   0  0  0  0  0  0  0  0  0  0  0  0
   -2.8341    0.1102    0.0043 H   0  0  0  0  0  0  0  0  0  0  0  0
   -2.3175    0.6317   -1.6290 H   0  0  0  0  0  0  0  0  0  0  0  0
   -1.5540    1.8486   -0.0195 C   0  0  0  0  0  0  0  0  0  0  0  0
   -2.1440    2.0396    0.8782 H   0  0  0  0  0  0  0  0  0  0  0  0
   -1.7706    2.5889   -0.7904 H   0  0  0  0  0  0  0  0  0  0  0  0
   -0.0542    1.8324    0.2758 C   0  0  0  0  0  0  0  0  0  0  0  0
    0.1153    1.7795    1.3531 H   0  0  0  0  0  0  0  0  0  0  0  0
    0.4689    2.6907   -0.1457 H   0  0  0  0  0  0  0  0  0  0  0  0
    0.3724    0.5200   -0.4020 C   0  0  1  0  0  0  0  0  0  0  0  0
    0.6709    0.7333   -1.4286 H   0  0  0  0  0  0  0  0  0  0  0  0
    1.5359   -0.1579    0.3408 C   0  0  0  0  0  0  0  0  0  0  0  0
    2.3915    0.5181    0.9087 O   0  0  0  0  0  0  0  0  0  0  0  0
    1.5859   -1.4948    0.3010 N   0  0  0  0  0  0  0  0  0  0  0  0
    0.8164   -1.9791   -0.1331 H   0  0  0  0  0  0  0  0  0  0  0  0
    2.6266   -2.2921    0.9457 C   0  0  0  0  0  0  0  0  0  0  0  0
    2.5641   -2.1653    2.0287 H   0  0  0  0  0  0  0  0  0  0  0  0
    2.5038   -3.3469    0.6980 H   0  0  0  0  0  0  0  0  0  0  0  0
    3.6105   -1.9537    0.6135 H   0  0  0  0  0  0  0  0  0  0  0  0
  5  6  2  0  0  0  0
  5  7  1  0  0  0  0
  2  3  1  0  0  0  0
  2  4  1  0  0  0  0
  2  5  1  0  0  0  0
  1  2  1  0  0  0  0
 19 20  2  0  0  0  0
 19 21  1  0  0  0  0
 17 18  1  0  0  0  0
 17 19  1  0  0  0  0
 14 15  1  0  0  0  0
 14 16  1  0  0  0  0
 14 17  1  0  0  0  0
 11 12  1  0  0  0  0
 11 13  1  0  0  0  0
 11 14  1  0  0  0  0
  8  9  1  0  0  0  0
  8 10  1  0  0  0  0
  8 11  1  0  0  0  0
  7  8  1  0  0  0  0
  7 17  1  0  0  0  0
 23 24  1  0  0  0  0
 23 25  1  0  0  0  0
 23 26  1  0  0  0  0
 21 22  1  0  0  0  0
 21 23  1  0  0  0  0
M  END
$$$$
default_name
  -OEChem-01062215323D

 26 26  0     1  0  0  0  0  0999 V2000
   -1.8446   -3.5060   -0.3010 H   0  0  0  0  0  0  0  0  0  0  0  0
   -2.0746   -2.4490   -0.4240 C   0  0  0  0  0  0  0  0  0  0  0  0
   -2.6906   -2.1160    0.4090 H   0  0  0  0  0  0  0  0  0  0  0  0
   -2.5986   -2.2980   -1.3650 H   0  0  0  0  0  0  0  0  0  0  0  0
   -0.7756   -1.6630   -0.4350 C   0  0  0  0  0  0  0  0  0  0  0  0
    0.2844   -2.2800   -0.4550 O   0  0  0  0  0  0  0  0  0  0  0  0
   -0.8246   -0.3180   -0.4350 N   0  0  0  0  0  0  0  0  0  0  0  0
   -2.0106    0.5080   -0.5910 C   0  0  0  0  0  0  0  0  0  0  0  0
   -2.8341    0.1102    0.0043 H   0  0  0  0  0  0  0  0  0  0  0  0
   -2.3175    0.6317   -1.6290 H   0  0  0  0  0  0  0  0  0  0  0  0
   -1.5540    1.8486   -0.0195 C   0  0  0  0  0  0  0  0  0  0  0  0
   -2.1440    2.0396    0.8782 H   0  0  0  0  0  0  0  0  0  0  0  0
   -1.7706    2.5889   -0.7904 H   0  0  0  0  0  0  0  0  0  0  0  0
   -0.0542    1.8324    0.2758 C   0  0  0  0  0  0  0  0  0  0  0  0
    0.1153    1.7795    1.3531 H   0  0  0  0  0  0  0  0  0  0  0  0
    0.4689    2.6907   -0.1457 H   0  0  0  0  0  0  0  0  0  0  0  0
    0.3724    0.5200   -0.4020 C   0  0  1  0  0  0  0  0  0  0  0  0
    0.6709    0.7333   -1.4286 H   0  0  0  0  0  0  0  0  0  0  0  0
    1.5359   -0.1579    0.3408 C   0  0  0  0  0  0  0  0  0  0  0  0
    2.2291    0.4815    1.1296 O   0  0  0  0  0  0  0  0  0  0  0  0
    1.7715   -1.4444    0.0562 N   0  0  0  0  0  0  0  0  0  0  0  0
    1.1234   -1.9146   -0.5551 H   0  0  0  0  0  0  0  0  0  0  0  0
    2.8403   -2.2324    0.6655 C   0  0  0  0  0  0  0  0  0  0  0  0
    2.6514   -2.3361    1.7361 H   0  0  0  0  0  0  0  0  0  0  0  0
    2.8884   -3.2219    0.2098 H   0  0  0  0  0  0  0  0  0  0  0  0
    3.7975   -1.7240    0.5303 H   0  0  0  0  0  0  0  0  0  0  0  0
  5  6  2  0  0  0  0
  5  7  1  0  0  0  0
  2  3  1  0  0  0  0
  2  4  1  0  0  0  0
  2  5  1  0  0  0  0
  1  2  1  0  0  0  0
 19 20  2  0  0  0  0
 19 21  1  0  0  0  0
 17 18  1  0  0  0  0
 17 19  1  0  0  0  0
 14 15  1  0  0  0  0
 14 16  1  0  0  0  0
 14 17  1  0  0  0  0
 11 12  1  0  0  0  0
 11 13  1  0  0  0  0
 11 14  1  0  0  0  0
  8  9  1  0  0  0  0
  8 10  1  0  0  0  0
  8 11  1  0  0  0  0
  7  8  1  0  0  0  0
  7 17  1  0  0  0  0
 23 24  1  0  0  0  0
 23 25  1  0  0  0  0
 23 26  1  0  0  0  0
 21 22  1  0  0  0  0
 21 23  1  0  0  0  0
M  END
$$$$
default_name
  -OEChem-01062215323D

 26 26  0     1  0  0  0  0  0999 V2000
   -1.8446   -3.5060   -0.3010 H   0  0  0  0  0  0  0  0  0  0  0  0
   -2.0746   -2.4490   -0.4240 C   0  0  0  0  0  0  0  0  0  0  0  0
   -2.6906   -2.1160    0.4090 H   0  0  0  0  0  0  0  0  0  0  0  0
   -2.5986   -2.2980   -1.3650 H   0  0  0  0  0  0  0  0  0  0  0  0
   -0.7756   -1.6630   -0.4350 C   0  0  0  0  0  0  0  0  0  0  0  0
    0.2844   -2.2800   -0.4550 O   0  0  0  0  0  0  0  0  0  0  0  0
   -0.8246   -0.3180   -0.4350 N   0  0  0  0  0  0  0  0  0  0  0  0
   -2.0106    0.5080   -0.5910 C   0  0  0  0  0  0  0  0  0  0  0  0
   -2.8341    0.1102    0.0043 H   0  0  0  0  0  0  0  0  0  0  0  0
   -2.3175    0.6317   -1.6290 H   0  0  0  0  0  0  0  0  0  0  0  0
   -1.5540    1.8486   -0.0195 C   0  0  0  0  0  0  0  0  0  0  0  0
   -2.1440    2.0396    0.8782 H   0  0  0  0  0  0  0  0  0  0  0  0
   -1.7706    2.5889   -0.7904 H   0  0  0  0  0  0  0  0  0  0  0  0
   -0.0542    1.8324    0.2758 C   0  0  0  0  0  0  0  0  0  0  0  0
    0.1153    1.7795    1.3531 H   0  0  0  0  0  0  0  0  0  0  0  0
    0.4689    2.6907   -0.1457 H   0  0  0  0  0  0  0  0  0  0  0  0
    0.3724    0.5200   -0.4020 C   0  0  1  0  0  0  0  0  0  0  0  0
    0.6709    0.7333   -1.4286 H   0  0  0  0  0  0  0  0  0  0  0  0
    1.5359   -0.1579    0.3408 C   0  0  0  0  0  0  0  0  0  0  0  0
    2.0517    0.3825    1.3172 O   0  0  0  0  0  0  0  0  0  0  0  0
    1.9725   -1.3245   -0.1491 N   0  0  0  0  0  0  0  0  0  0  0  0
    1.4601   -1.7313   -0.9152 H   0  0  0  0  0  0  0  0  0  0  0  0
    3.0712   -2.0931    0.4309 C   0  0  0  0  0  0  0  0  0  0  0  0
    2.7904   -2.4329    1.4301 H   0  0  0  0  0  0  0  0  0  0  0  0
    3.2998   -2.9574   -0.1934 H   0  0  0  0  0  0  0  0  0  0  0  0
    3.9589   -1.4625    0.5162 H   0  0  0  0  0  0  0  0  0  0  0  0
  5  6  2  0  0  0  0
  5  7  1  0  0  0  0
  2  3  1  0  0  0  0
  2  4  1  0  0  0  0
  2  5  1  0  0  0  0
  1  2  1  0  0  0  0
 19 20  2  0  0  0  0
 19 21  1  0  0  0  0
 17 18  1  0  0  0  0
 17 19  1  0  0  0  0
 14 15  1  0  0  0  0
 14 16  1  0  0  0  0
 14 17  1  0  0  0  0
 11 12  1  0  0  0  0
 11 13  1  0  0  0  0
 11 14  1  0  0  0  0
  8  9  1  0  0  0  0
  8 10  1  0  0  0  0
  8 11  1  0  0  0  0
  7  8  1  0  0  0  0
  7 17  1  0  0  0  0
 23 24  1  0  0  0  0
 23 25  1  0  0  0  0
 23 26  1  0  0  0  0
 21 22  1  0  0  0  0
 21 23  1  0  0  0  0
M  END
$$$$
default_name
  -OEChem-01062215323D

 26 26  0     1  0  0  0  0  0999 V2000
   -1.8446   -3.5060   -0.3010 H   0  0  0  0  0  0  0  0  0  0  0  0
   -2.0746   -2.4490   -0.4240 C   0  0  0  0  0  0  0  0  0  0  0  0
   -2.6906   -2.1160    0.4090 H   0  0  0  0  0  0  0  0  0  0  0  0
   -2.5986   -2.2980   -1.3650 H   0  0  0  0  0  0  0  0  0  0  0  0
   -0.7756   -1.6630   -0.4350 C   0  0  0  0  0  0  0  0  0  0  0  0
    0.2844   -2.2800   -0.4550 O   0  0  0  0  0  0  0  0  0  0  0  0
   -0.8246   -0.3180   -0.4350 N   0  0  0  0  0  0  0  0  0  0  0  0
   -2.0106    0.5080   -0.5910 C   0  0  0  0  0  0  0  0  0  0  0  0
   -2.8341    0.1102    0.0043 H   0  0  0  0  0  0  0  0  0  0  0  0
   -2.3175    0.6317   -1.6290 H   0  0  0  0  0  0  0  0  0  0  0  0
   -1.5540    1.8486   -0.0195 C   0  0  0  0  0  0  0  0  0  0  0  0
   -2.1440    2.0396    0.8782 H   0  0  0  0  0  0  0  0  0  0  0  0
   -1.7706    2.5889   -0.7904 H   0  0  0  0  0  0  0  0  0  0  0  0
   -0.0542    1.8324    0.2758 C   0  0  0  0  0  0  0  0  0  0  0  0
    0.1153    1.7795    1.3531 H   0  0  0  0  0  0  0  0  0  0  0  0
    0.4689    2.6907   -0.1457 H   0  0  0  0  0  0  0  0  0  0  0  0
    0.3724    0.5200   -0.4020 C   0  0  1  0  0  0  0  0  0  0  0  0
    0.6709    0.7333   -1.4286 H   0  0  0  0  0  0  0  0  0  0  0  0
    1.5359   -0.1579    0.3408 C   0  0  0  0  0  0  0  0  0  0  0  0
    1.8712    0.2280    1.4589 O   0  0  0  0  0  0  0  0  0  0  0  0
    2.1750   -1.1433   -0.3011 N   0  0  0  0  0  0  0  0  0  0  0  0
    1.8034   -1.4417   -1.1887 H   0  0  0  0  0  0  0  0  0  0  0  0
    3.3036   -1.8838    0.2579 C   0  0  0  0  0  0  0  0  0  0  0  0
    2.9717   -2.4490    1.1314 H   0  0  0  0  0  0  0  0  0  0  0  0
    3.7102   -2.5716   -0.4842 H   0  0  0  0  0  0  0  0  0  0  0  0
    4.0837   -1.1869    0.5722 H   0  0  0  0  0  0  0  0  0  0  0  0
  5  6  2  0  0  0  0
  5  7  1  0  0  0  0
  2  3  1  0  0  0  0
  2  4  1  0  0  0  0
  2  5  1  0  0  0  0
  1  2  1  0  0  0  0
 19 20  2  0  0  0  0
 19 21  1  0  0  0  0
 17 18  1  0  0  0  0
 17 19  1  0  0  0  0
 14 15  1  0  0  0  0
 14 16  1  0  0  0  0
 14 17  1  0  0  0  0
 11 12  1  0  0  0  0
 11 13  1  0  0  0  0
 11 14  1  0  0  0  0
  8  9  1  0  0  0  0
  8 10  1  0  0  0  0
  8 11  1  0  0  0  0
  7  8  1  0  0  0  0
  7 17  1  0  0  0  0
 23 24  1  0  0  0  0
 23 25  1  0  0  0  0
 23 26  1  0  0  0  0
 21 22  1  0  0  0  0
 21 23  1  0  0  0  0
M  END
$$$$
default_name
  -OEChem-01062215323D

 26 26  0     1  0  0  0  0  0999 V2000
   -1.8446   -3.5060   -0.3010 H   0  0  0  0  0  0  0  0  0  0  0  0
   -2.0746   -2.4490   -0.4240 C   0  0  0  0  0  0  0  0  0  0  0  0
   -2.6906   -2.1160    0.4090 H   0  0  0  0  0  0  0  0  0  0  0  0
   -2.5986   -2.2980   -1.3650 H   0  0  0  0  0  0  0  0  0  0  0  0
   -0.7756   -1.6630   -0.4350 C   0  0  0  0  0  0  0  0  0  0  0  0
    0.2844   -2.2800   -0.4550 O   0  0  0  0  0  0  0  0  0  0  0  0
   -0.8246   -0.3180   -0.4350 N   0  0  0  0  0  0  0  0  0  0  0  0
   -2.0106    0.5080   -0.5910 C   0  0  0  0  0  0  0  0  0  0  0  0
   -2.8341    0.1102    0.0043 H   0  0  0  0  0  0  0  0  0  0  0  0
   -2.3175    0.6317   -1.6290 H   0  0  0  0  0  0  0  0  0  0  0  0
   -1.5540    1.8486   -0.0195 C   0  0  0  0  0  0  0  0  0  0  0  0
   -2.1440    2.0396    0.8782 H   0  0  0  0  0  0  0  0  0  0  0  0
   -1.7706    2.5889   -0.7904 H   0  0  0  0  0  0  0  0  0  0  0  0
   -0.0542    1.8324    0.2758 C   0  0  0  0  0  0  0  0  0  0  0  0
    0.1153    1.7795    1.3531 H   0  0  0  0  0  0  0  0  0  0  0  0
    0.4689    2.6907   -0.1457 H   0  0  0  0  0  0  0  0  0  0  0  0
    0.3724    0.5200   -0.4020 C   0  0  1  0  0  0  0  0  0  0  0  0
    0.6709    0.7333   -1.4286 H   0  0  0  0  0  0  0  0  0  0  0  0
    1.5359   -0.1579    0.3408 C   0  0  0  0  0  0  0  0  0  0  0  0
    1.7001    0.0285    1.5449 O   0  0  0  0  0  0  0  0  0  0  0  0
    2.3653   -0.9133   -0.3892 N   0  0  0  0  0  0  0  0  0  0  0  0
    2.1301   -1.0654   -1.3569 H   0  0  0  0  0  0  0  0  0  0  0  0
    3.5217   -1.6187    0.1583 C   0  0  0  0  0  0  0  0  0  0  0  0
    3.1829   -2.3835    0.8604 H   0  0  0  0  0  0  0  0  0  0  0  0
    4.0916   -2.0907   -0.6426 H   0  0  0  0  0  0  0  0  0  0  0  0
    4.1634   -0.9161    0.6945 H   0  0  0  0  0  0  0  0  0  0  0  0
  5  6  2  0  0  0  0
  5  7  1  0  0  0  0
  2  3  1  0  0  0  0
  2  4  1  0  0  0  0
  2  5  1  0  0  0  0
  1  2  1  0  0  0  0
 19 20  2  0  0  0  0
 19 21  1  0  0  0  0
 17 18  1  0  0  0  0
 17 19  1  0  0  0  0
 14 15  1  0  0  0  0
 14 16  1  0  0  0  0
 14 17  1  0  0  0  0
 11 12  1  0  0  0  0
 11 13  1  0  0  0  0
 11 14  1  0  0  0  0
  8  9  1  0  0  0  0
  8 10  1  0  0  0  0
  8 11  1  0  0  0  0
  7  8  1  0  0  0  0
  7 17  1  0  0  0  0
 23 24  1  0  0  0  0
 23 25  1  0  0  0  0
 23 26  1  0  0  0  0
 21 22  1  0  0  0  0
 21 23  1  0  0  0  0
M  END
$$$$
default_name
  -OEChem-01062215323D

 26 26  0     1  0  0  0  0  0999 V2000
   -1.8446   -3.5060   -0.3010 H   0  0  0  0  0  0  0  0  0  0  0  0
   -2.0746   -2.4490   -0.4240 C   0  0  0  0  0  0  0  0  0  0  0  0
   -2.6906   -2.1160    0.4090 H   0  0  0  0  0  0  0  0  0  0  0  0
   -2.5986   -2.2980   -1.3650 H   0  0  0  0  0  0  0  0  0  0  0  0
   -0.7756   -1.6630   -0.4350 C   0  0  0  0  0  0  0  0  0  0  0  0
    0.2844   -2.2800   -0.4550 O   0  0  0  0  0  0  0  0  0  0  0  0
   -0.8246   -0.3180   -0.4350 N   0  0  0  0  0  0  0  0  0  0  0  0
   -2.0106    0.5080   -0.5910 C   0  0  0  0  0  0  0  0  0  0  0  0
   -2.8341    0.1102    0.0043 H   0  0  0  0  0  0  0  0  0  0  0  0
   -2.3175    0.6317   -1.6290 H   0  0  0  0  0  0  0  0  0  0  0  0
   -1.5540    1.8486   -0.0195 C   0  0  0  0  0  0  0  0  0  0  0  0
   -2.1440    2.0396    0.8782 H   0  0  0  0  0  0  0  0  0  0  0  0
   -1.7706    2.5889   -0.7904 H   0  0  0  0  0  0  0  0  0  0  0  0
   -0.0542    1.8324    0.2758 C   0  0  0  0  0  0  0  0  0  0  0  0
    0.1153    1.7795    1.3531 H   0  0  0  0  0  0  0  0  0  0  0  0
    0.4689    2.6907   -0.1457 H   0  0  0  0  0  0  0  0  0  0  0  0
    0.3724    0.5200   -0.4020 C   0  0  1  0  0  0  0  0  0  0  0  0
    0.6709    0.7333   -1.4286 H   0  0  0  0  0  0  0  0  0  0  0  0
    1.5359   -0.1579    0.3408 C   0  0  0  0  0  0  0  0  0  0  0  0
    1.5499   -0.2024    1.5693 O   0  0  0  0  0  0  0  0  0  0  0  0
    2.5305   -0.6500   -0.4077 N   0  0  0  0  0  0  0  0  0  0  0  0
    2.4177   -0.6282   -1.4085 H   0  0  0  0  0  0  0  0  0  0  0  0
    3.7105   -1.3158    0.1389 C   0  0  0  0  0  0  0  0  0  0  0  0
    3.4096   -2.2407    0.6356 H   0  0  0  0  0  0  0  0  0  0  0  0
    4.4179   -1.5475   -0.6580 H   0  0  0  0  0  0  0  0  0  0  0  0
    4.1925   -0.6685    0.8747 H   0  0  0  0  0  0  0  0  0  0  0  0
  5  6  2  0  0  0  0
  5  7  1  0  0  0  0
  2  3  1  0  0  0  0
  2  4  1  0  0  0  0
  2  5  1  0  0  0  0
  1  2  1  0  0  0  0
 19 20  2  0  0  0  0
 19 21  1  0  0  0  0
 17 18  1  0  0  0  0
 17 19  1  0  0  0  0
 14 15  1  0  0  0  0
 14 16  1  0  0  0  0
 14 17  1  0  0  0  0
 11 12  1  0  0  0  0
 11 13  1  0  0  0  0
 11 14  1  0  0  0  0
  8  9  1  0  0  0  0
  8 10  1  0  0  0  0
  8 11  1  0  0  0  0
  7  8  1  0  0  0  0
  7 17  1  0  0  0  0
 23 24  1  0  0  0  0
 23 25  1  0  0  0  0
 23 26  1  0  0  0  0
 21 22  1  0  0  0  0
 21 23  1  0  0  0  0
M  END
$$$$
default_name
  -OEChem-01062215323D

 26 26  0     1  0  0  0  0  0999 V2000
   -1.8446   -3.5060   -0.3010 H   0  0  0  0  0  0  0  0  0  0  0  0
   -2.0746   -2.4490   -0.4240 C   0  0  0  0  0  0  0  0  0  0  0  0
   -2.6906   -2.1160    0.4090 H   0  0  0  0  0  0  0  0  0  0  0  0
   -2.5986   -2.2980   -1.3650 H   0  0  0  0  0  0  0  0  0  0  0  0
   -0.7756   -1.6630   -0.4350 C   0  0  0  0  0  0  0  0  0  0  0  0
    0.2844   -2.2800   -0.4550 O   0  0  0  0  0  0  0  0  0  0  0  0
   -0.8246   -0.3180   -0.4350 N   0  0  0  0  0  0  0  0  0  0  0  0
   -2.0106    0.5080   -0.5910 C   0  0  0  0  0  0  0  0  0  0  0  0
   -2.8341    0.1102    0.0043 H   0  0  0  0  0  0  0  0  0  0  0  0
   -2.3175    0.6317   -1.6290 H   0  0  0  0  0  0  0  0  0  0  0  0
   -1.5540    1.8486   -0.0195 C   0  0  0  0  0  0  0  0  0  0  0  0
   -2.1440    2.0396    0.8782 H   0  0  0  0  0  0  0  0  0  0  0  0
   -1.7706    2.5889   -0.7904 H   0  0  0  0  0  0  0  0  0  0  0  0
   -0.0542    1.8324    0.2758 C   0  0  0  0  0  0  0  0  0  0  0  0
    0.1153    1.7795    1.3531 H   0  0  0  0  0  0  0  0  0  0  0  0
    0.4689    2.6907   -0.1457 H   0  0  0  0  0  0  0  0  0  0  0  0
    0.3724    0.5200   -0.4020 C   0  0  1  0  0  0  0  0  0  0  0  0
    0.6709    0.7333   -1.4286 H   0  0  0  0  0  0  0  0  0  0  0  0
    1.5359   -0.1579    0.3408 C   0  0  0  0  0  0  0  0  0  0  0  0
    1.4309   -0.4491    1.5306 O   0  0  0  0  0  0  0  0  0  0  0  0
    2.6592   -0.3715   -0.3551 N   0  0  0  0  0  0  0  0  0  0  0  0
    2.6468   -0.1598   -1.3399 H   0  0  0  0  0  0  0  0  0  0  0  0
    3.8573   -0.9959    0.2010 C   0  0  0  0  0  0  0  0  0  0  0  0
    3.6364   -2.0304    0.4722 H   0  0  0  0  0  0  0  0  0  0  0  0
    4.6669   -0.9789   -0.5293 H   0  0  0  0  0  0  0  0  0  0  0  0
    4.1692   -0.4609    1.1007 H   0  0  0  0  0  0  0  0  0  0  0  0
  5  6  2  0  0  0  0
  5  7  1  0  0  0  0
  2  3  1  0  0  0  0
  2  4  1  0  0  0  0
  2  5  1  0  0  0  0
  1  2  1  0  0  0  0
 19 20  2  0  0  0  0
 19 21  1  0  0  0  0
 17 18  1  0  0  0  0
 17 19  1  0  0  0  0
 14 15  1  0  0  0  0
 14 16  1  0  0  0  0
 14 17  1  0  0  0  0
 11 12  1  0  0  0  0
 11 13  1  0  0  0  0
 11 14  1  0  0  0  0
  8  9  1  0  0  0  0
  8 10  1  0  0  0  0
  8 11  1  0  0  0  0
  7  8  1  0  0  0  0
  7 17  1  0  0  0  0
 23 24  1  0  0  0  0
 23 25  1  0  0  0  0
 23 26  1  0  0  0  0
 21 22  1  0  0  0  0
 21 23  1  0  0  0  0
M  END
$$$$
default_name
  -OEChem-01062215323D

 26 26  0     1  0  0  0  0  0999 V2000
   -1.8446   -3.5060   -0.3010 H   0  0  0  0  0  0  0  0  0  0  0  0
   -2.0746   -2.4490   -0.4240 C   0  0  0  0  0  0  0  0  0  0  0  0
   -2.6906   -2.1160    0.4090 H   0  0  0  0  0  0  0  0  0  0  0  0
   -2.5986   -2.2980   -1.3650 H   0  0  0  0  0  0  0  0  0  0  0  0
   -0.7756   -1.6630   -0.4350 C   0  0  0  0  0  0  0  0  0  0  0  0
    0.2844   -2.2800   -0.4550 O   0  0  0  0  0  0  0  0  0  0  0  0
   -0.8246   -0.3180   -0.4350 N   0  0  0  0  0  0  0  0  0  0  0  0
   -2.0106    0.5080   -0.5910 C   0  0  0  0  0  0  0  0  0  0  0  0
   -2.8341    0.1102    0.0043 H   0  0  0  0  0  0  0  0  0  0  0  0
   -2.3175    0.6317   -1.6290 H   0  0  0  0  0  0  0  0  0  0  0  0
   -1.5540    1.8486   -0.0195 C   0  0  0  0  0  0  0  0  0  0  0  0
   -2.1440    2.0396    0.8782 H   0  0  0  0  0  0  0  0  0  0  0  0
   -1.7706    2.5889   -0.7904 H   0  0  0  0  0  0  0  0  0  0  0  0
   -0.0542    1.8324    0.2758 C   0  0  0  0  0  0  0  0  0  0  0  0
    0.1153    1.7795    1.3531 H   0  0  0  0  0  0  0  0  0  0  0  0
    0.4689    2.6907   -0.1457 H   0  0  0  0  0  0  0  0  0  0  0  0
    0.3724    0.5200   -0.4020 C   0  0  1  0  0  0  0  0  0  0  0  0
    0.6709    0.7333   -1.4286 H   0  0  0  0  0  0  0  0  0  0  0  0
    1.5359   -0.1579    0.3408 C   0  0  0  0  0  0  0  0  0  0  0  0
    1.3513   -0.6946    1.4313 O   0  0  0  0  0  0  0  0  0  0  0  0
    2.7427   -0.0967   -0.2350 N   0  0  0  0  0  0  0  0  0  0  0  0
    2.8017    0.3078   -1.1558 H   0  0  0  0  0  0  0  0  0  0  0  0
    3.9520   -0.6806    0.3404 C   0  0  0  0  0  0  0  0  0  0  0  0
    3.8478   -1.7670    0.3815 H   0  0  0  0  0  0  0  0  0  0  0  0
    4.8217   -0.4239   -0.2652 H   0  0  0  0  0  0  0  0  0  0  0  0
    4.0950   -0.3076    1.3569 H   0  0  0  0  0  0  0  0  0  0  0  0
  5  6  2  0  0  0  0
  5  7  1  0  0  0  0
  2  3  1  0  0  0  0
  2  4  1  0  0  0  0
  2  5  1  0  0  0  0
  1  2  1  0  0  0  0
 19 20  2  0  0  0  0
 19 21  1  0  0  0  0
 17 18  1  0  0  0  0
 17 19  1  0  0  0  0
 14 15  1  0  0  0  0
 14 16  1  0  0  0  0
 14 17  1  0  0  0  0
 11 12  1  0  0  0  0
 11 13  1  0  0  0  0
 11 14  1  0  0  0  0
  8  9  1  0  0  0  0
  8 10  1  0  0  0  0
  8 11  1  0  0  0  0
  7  8  1  0  0  0  0
  7 17  1  0  0  0  0
 23 24  1  0  0  0  0
 23 25  1  0  0  0  0
 23 26  1  0  0  0  0
 21 22  1  0  0  0  0
 21 23  1  0  0  0  0
M  END
$$$$
default_name
  -OEChem-01062215323D

 26 26  0     1  0  0  0  0  0999 V2000
   -1.8446   -3.5060   -0.3010 H   0  0  0  0  0  0  0  0  0  0  0  0
   -2.0746   -2.4490   -0.4240 C   0  0  0  0  0  0  0  0  0  0  0  0
   -2.6906   -2.1160    0.4090 H   0  0  0  0  0  0  0  0  0  0  0  0
   -2.5986   -2.2980   -1.3650 H   0  0  0  0  0  0  0  0  0  0  0  0
   -0.7756   -1.6630   -0.4350 C   0  0  0  0  0  0  0  0  0  0  0  0
    0.2844   -2.2800   -0.4550 O   0  0  0  0  0  0  0  0  0  0  0  0
   -0.8246   -0.3180   -0.4350 N   0  0  0  0  0  0  0  0  0  0  0  0
   -2.0106    0.5080   -0.5910 C   0  0  0  0  0  0  0  0  0  0  0  0
   -2.8341    0.1102    0.0043 H   0  0  0  0  0  0  0  0  0  0  0  0
   -2.3175    0.6317   -1.6290 H   0  0  0  0  0  0  0  0  0  0  0  0
   -1.5540    1.8486   -0.0195 C   0  0  0  0  0  0  0  0  0  0  0  0
   -2.1440    2.0396    0.8782 H   0  0  0  0  0  0  0  0  0  0  0  0
   -1.7706    2.5889   -0.7904 H   0  0  0  0  0  0  0  0  0  0  0  0
   -0.0542    1.8324    0.2758 C   0  0  0  0  0  0  0  0  0  0  0  0
    0.1153    1.7795    1.3531 H   0  0  0  0  0  0  0  0  0  0  0  0
    0.4689    2.6907   -0.1457 H   0  0  0  0  0  0  0  0  0  0  0  0
    0.3724    0.5200   -0.4020 C   0  0  1  0  0  0  0  0  0  0  0  0
    0.6709    0.7333   -1.4286 H   0  0  0  0  0  0  0  0  0  0  0  0
    1.5359   -0.1579    0.3408 C   0  0  0  0  0  0  0  0  0  0  0  0
    1.3163   -0.9223    1.2782 O   0  0  0  0  0  0  0  0  0  0  0  0
    2.7753    0.1558   -0.0558 N   0  0  0  0  0  0  0  0  0  0  0  0
    2.8719    0.7428   -0.8687 H   0  0  0  0  0  0  0  0  0  0  0  0
    3.9881   -0.3916    0.5475 C   0  0  0  0  0  0  0  0  0  0  0  0
    4.0295   -1.4683    0.3695 H   0  0  0  0  0  0  0  0  0  0  0  0
    4.8717    0.0799    0.1163 H   0  0  0  0  0  0  0  0  0  0  0  0
    3.9748   -0.2190    1.6259 H   0  0  0  0  0  0  0  0  0  0  0  0
  5  6  2  0  0  0  0
  5  7  1  0  0  0  0
  2  3  1  0  0  0  0
  2  4  1  0  0  0  0
  2  5  1  0  0  0  0
  1  2  1  0  0  0  0
 19 20  2  0  0  0  0
 19 21  1  0  0  0  0
 17 18  1  0  0  0  0
 17 19  1  0  0  0  0
 14 15  1  0  0  0  0
 14 16  1  0  0  0  0
 14 17  1  0  0  0  0
 11 12  1  0  0  0  0
 11 13  1  0  0  0  0
 11 14  1  0  0  0  0
  8  9  1  0  0  0  0
  8 10  1  0  0  0  0
  8 11  1  0  0  0  0
  7  8  1  0  0  0  0
  7 17  1  0  0  0  0
 23 24  1  0  0  0  0
 23 25  1  0  0  0  0
 23 26  1  0  0  0  0
 21 22  1  0  0  0  0
 21 23  1  0  0  0  0
M  END
$$$$
default_name
  -OEChem-01062215323D

 26 26  0     1  0  0  0  0  0999 V2000
   -1.8446   -3.5060   -0.3010 H   0  0  0  0  0  0  0  0  0  0  0  0
   -2.0746   -2.4490   -0.4240 C   0  0  0  0  0  0  0  0  0  0  0  0
   -2.6906   -2.1160    0.4090 H   0  0  0  0  0  0  0  0  0  0  0  0
   -2.5986   -2.2980   -1.3650 H   0  0  0  0  0  0  0  0  0  0  0  0
   -0.7756   -1.6630   -0.4350 C   0  0  0  0  0  0  0  0  0  0  0  0
    0.2844   -2.2800   -0.4550 O   0  0  0  0  0  0  0  0  0  0  0  0
   -0.8246   -0.3180   -0.4350 N   0  0  0  0  0  0  0  0  0  0  0  0
   -2.0106    0.5080   -0.5910 C   0  0  0  0  0  0  0  0  0  0  0  0
   -2.8341    0.1102    0.0043 H   0  0  0  0  0  0  0  0  0  0  0  0
   -2.3175    0.6317   -1.6290 H   0  0  0  0  0  0  0  0  0  0  0  0
   -1.5540    1.8486   -0.0195 C   0  0  0  0  0  0  0  0  0  0  0  0
   -2.1440    2.0396    0.8782 H   0  0  0  0  0  0  0  0  0  0  0  0
   -1.7706    2.5889   -0.7904 H   0  0  0  0  0  0  0  0  0  0  0  0
   -0.0542    1.8324    0.2758 C   0  0  0  0  0  0  0  0  0  0  0  0
    0.1153    1.7795    1.3531 H   0  0  0  0  0  0  0  0  0  0  0  0
    0.4689    2.6907   -0.1457 H   0  0  0  0  0  0  0  0  0  0  0  0
    0.3724    0.5200   -0.4020 C   0  0  1  0  0  0  0  0  0  0  0  0
    0.6709    0.7333   -1.4286 H   0  0  0  0  0  0  0  0  0  0  0  0
    1.5359   -0.1579    0.3408 C   0  0  0  0  0  0  0  0  0  0  0  0
    1.3285   -1.1167    1.0818 O   0  0  0  0  0  0  0  0  0  0  0  0
    2.7547    0.3685    0.1706 N   0  0  0  0  0  0  0  0  0  0  0  0
    2.8525    1.1155   -0.4983 H   0  0  0  0  0  0  0  0  0  0  0  0
    3.9632   -0.1484    0.8083 C   0  0  0  0  0  0  0  0  0  0  0  0
    4.1689   -1.1548    0.4372 H   0  0  0  0  0  0  0  0  0  0  0  0
    4.8135    0.4981    0.5891 H   0  0  0  0  0  0  0  0  0  0  0  0
    3.8170   -0.2011    1.8894 H   0  0  0  0  0  0  0  0  0  0  0  0
  5  6  2  0  0  0  0
  5  7  1  0  0  0  0
  2  3  1  0  0  0  0
  2  4  1  0  0  0  0
  2  5  1  0  0  0  0
  1  2  1  0  0  0  0
 19 20  2  0  0  0  0
 19 21  1  0  0  0  0
 17 18  1  0  0  0  0
 17 19  1  0  0  0  0
 14 15  1  0  0  0  0
 14 16  1  0  0  0  0
 14 17  1  0  0  0  0
 11 12  1  0  0  0  0
 11 13  1  0  0  0  0
 11 14  1  0  0  0  0
  8  9  1  0  0  0  0
  8 10  1  0  0  0  0
  8 11  1  0  0  0  0
  7  8  1  0  0  0  0
  7 17  1  0  0  0  0
 23 24  1  0  0  0  0
 23 25  1  0  0  0  0
 23 26  1  0  0  0  0
 21 22  1  0  0  0  0
 21 23  1  0  0  0  0
M  END
$$$$
default_name
  -OEChem-01062215323D

 26 26  0     1  0  0  0  0  0999 V2000
   -1.8446   -3.5060   -0.3010 H   0  0  0  0  0  0  0  0  0  0  0  0
   -2.0746   -2.4490   -0.4240 C   0  0  0  0  0  0  0  0  0  0  0  0
   -2.6906   -2.1160    0.4090 H   0  0  0  0  0  0  0  0  0  0  0  0
   -2.5986   -2.2980   -1.3650 H   0  0  0  0  0  0  0  0  0  0  0  0
   -0.7756   -1.6630   -0.4350 C   0  0  0  0  0  0  0  0  0  0  0  0
    0.2844   -2.2800   -0.4550 O   0  0  0  0  0  0  0  0  0  0  0  0
   -0.8246   -0.3180   -0.4350 N   0  0  0  0  0  0  0  0  0  0  0  0
   -2.0106    0.5080   -0.5910 C   0  0  0  0  0  0  0  0  0  0  0  0
   -2.9339    0.0826   -0.1944 H   0  0  0  0  0  0  0  0  0  0  0  0
   -2.1933    0.9787   -1.5564 H   0  0  0  0  0  0  0  0  0  0  0  0
   -1.4455    1.5334    0.3897 C   0  0  0  0  0  0  0  0  0  0  0  0
   -1.9639    1.2793    1.3155 H   0  0  0  0  0  0  0  0  0  0  0  0
   -1.8339    2.4620   -0.0297 H   0  0  0  0  0  0  0  0  0  0  0  0
    0.0649    1.6497    0.5946 C   0  0  0  0  0  0  0  0  0  0  0  0
    0.3925    1.3738    1.5989 H   0  0  0  0  0  0  0  0  0  0  0  0
    0.5281    2.5889    0.2924 H   0  0  0  0  0  0  0  0  0  0  0  0
    0.3724    0.5200   -0.4020 C   0  0  1  0  0  0  0  0  0  0  0  0
    0.5167    0.9521   -1.3925 H   0  0  0  0  0  0  0  0  0  0  0  0
    1.6267   -0.2741   -0.0004 C   0  0  0  0  0  0  0  0  0  0  0  0
    1.5449   -1.4674    0.2837 O   0  0  0  0  0  0  0  0  0  0  0  0
    2.7804    0.4018    0.0604 N   0  0  0  0  0  0  0  0  0  0  0  0
    2.7768    1.3620   -0.2445 H   0  0  0  0  0  0  0  0  0  0  0  0
    4.0594   -0.1988    0.4319 C   0  0  0  0  0  0  0  0  0  0  0  0
    4.3456   -0.9393   -0.3181 H   0  0  0  0  0  0  0  0  0  0  0  0
    4.8329    0.5671    0.4969 H   0  0  0  0  0  0  0  0  0  0  0  0
    3.9651   -0.7017    1.3969 H   0  0  0  0  0  0  0  0  0  0  0  0
  5  6  2  0  0  0  0
  5  7  1  0  0  0  0
  2  3  1  0  0  0  0
  2  4  1  0  0  0  0
  2  5  1  0  0  0  0
  1  2  1  0  0  0  0
 19 20  2  0  0  0  0
 19 21  1  0  0  0  0
 17 18  1  0  0  0  0
 17 19  1  0  0  0  0
 14 15  1  0  0  0  0
 14 16  1  0  0  0  0
 14 17  1  0  0  0  0
 11 12  1  0  0  0  0
 11 13  1  0  0  0  0
 11 14  1  0  0  0  0
  8  9  1  0  0  0  0
  8 10  1  0  0  0  0
  8 11  1  0  0  0  0
  7  8  1  0  0  0  0
  7 17  1  0  0  0  0
 23 24  1  0  0  0  0
 23 25  1  0  0  0  0
 23 26  1  0  0  0  0
 21 22  1  0  0  0  0
 21 23  1  0  0  0  0
M  END
$$$$
default_name
  -OEChem-01062215323D

 26 26  0     1  0  0  0  0  0999 V2000
   -1.8446   -3.5060   -0.3010 H   0  0  0  0  0  0  0  0  0  0  0  0
   -2.0746   -2.4490   -0.4240 C   0  0  0  0  0  0  0  0  0  0  0  0
   -2.6906   -2.1160    0.4090 H   0  0  0  0  0  0  0  0  0  0  0  0
   -2.5986   -2.2980   -1.3650 H   0  0  0  0  0  0  0  0  0  0  0  0
   -0.7756   -1.6630   -0.4350 C   0  0  0  0  0  0  0  0  0  0  0  0
    0.2844   -2.2800   -0.4550 O   0  0  0  0  0  0  0  0  0  0  0  0
   -0.8246   -0.3180   -0.4350 N   0  0  0  0  0  0  0  0  0  0  0  0
   -2.0106    0.5080   -0.5910 C   0  0  0  0  0  0  0  0  0  0  0  0
   -2.9339    0.0826   -0.1944 H   0  0  0  0  0  0  0  0  0  0  0  0
   -2.1933    0.9787   -1.5564 H   0  0  0  0  0  0  0  0  0  0  0  0
   -1.4455    1.5334    0.3897 C   0  0  0  0  0  0  0  0  0  0  0  0
   -1.9639    1.2793    1.3155 H   0  0  0  0  0  0  0  0  0  0  0  0
   -1.8339    2.4620   -0.0297 H   0  0  0  0  0  0  0  0  0  0  0  0
    0.0649    1.6497    0.5946 C   0  0  0  0  0  0  0  0  0  0  0  0
    0.3925    1.3738    1.5989 H   0  0  0  0  0  0  0  0  0  0  0  0
    0.5281    2.5889    0.2924 H   0  0  0  0  0  0  0  0  0  0  0  0
    0.3724    0.5200   -0.4020 C   0  0  1  0  0  0  0  0  0  0  0  0
    0.5167    0.9521   -1.3925 H   0  0  0  0  0  0  0  0  0  0  0  0
    1.6267   -0.2741   -0.0004 C   0  0  0  0  0  0  0  0  0  0  0  0
    1.6077   -1.5032    0.0167 O   0  0  0  0  0  0  0  0  0  0  0  0
    2.7042    0.4333    0.3606 N   0  0  0  0  0  0  0  0  0  0  0  0
    2.6605    1.4350    0.2632 H   0  0  0  0  0  0  0  0  0  0  0  0
    3.9708   -0.1644    0.7765 C   0  0  0  0  0  0  0  0  0  0  0  0
    4.4092   -0.7094   -0.0622 H   0  0  0  0  0  0  0  0  0  0  0  0
    4.6646    0.6095    1.1065 H   0  0  0  0  0  0  0  0  0  0  0  0
    3.7969   -0.8678    1.5937 H   0  0  0  0  0  0  0  0  0  0  0  0
  5  6  2  0  0  0  0
  5  7  1  0  0  0  0
  2  3  1  0  0  0  0
  2  4  1  0  0  0  0
  2  5  1  0  0  0  0
  1  2  1  0  0  0  0
 19 20  2  0  0  0  0
 19 21  1  0  0  0  0
 17 18  1  0  0  0  0
 17 19  1  0  0  0  0
 14 15  1  0  0  0  0
 14 16  1  0  0  0  0
 14 17  1  0  0  0  0
 11 12  1  0  0  0  0
 11 13  1  0  0  0  0
 11 14  1  0  0  0  0
  8  9  1  0  0  0  0
  8 10  1  0  0  0  0
  8 11  1  0  0  0  0
  7  8  1  0  0  0  0
  7 17  1  0  0  0  0
 23 24  1  0  0  0  0
 23 25  1  0  0  0  0
 23 26  1  0  0  0  0
 21 22  1  0  0  0  0
 21 23  1  0  0  0  0
M  END
$$$$
default_name
  -OEChem-01062215323D

 26 26  0     1  0  0  0  0  0999 V2000
   -1.8446   -3.5060   -0.3010 H   0  0  0  0  0  0  0  0  0  0  0  0
   -2.0746   -2.4490   -0.4240 C   0  0  0  0  0  0  0  0  0  0  0  0
   -2.6906   -2.1160    0.4090 H   0  0  0  0  0  0  0  0  0  0  0  0
   -2.5986   -2.2980   -1.3650 H   0  0  0  0  0  0  0  0  0  0  0  0
   -0.7756   -1.6630   -0.4350 C   0  0  0  0  0  0  0  0  0  0  0  0
    0.2844   -2.2800   -0.4550 O   0  0  0  0  0  0  0  0  0  0  0  0
   -0.8246   -0.3180   -0.4350 N   0  0  0  0  0  0  0  0  0  0  0  0
   -2.0106    0.5080   -0.5910 C   0  0  0  0  0  0  0  0  0  0  0  0
   -2.9339    0.0826   -0.1944 H   0  0  0  0  0  0  0  0  0  0  0  0
   -2.1933    0.9787   -1.5564 H   0  0  0  0  0  0  0  0  0  0  0  0
   -1.4455    1.5334    0.3897 C   0  0  0  0  0  0  0  0  0  0  0  0
   -1.9639    1.2793    1.3155 H   0  0  0  0  0  0  0  0  0  0  0  0
   -1.8339    2.4620   -0.0297 H   0  0  0  0  0  0  0  0  0  0  0  0
    0.0649    1.6497    0.5946 C   0  0  0  0  0  0  0  0  0  0  0  0
    0.3925    1.3738    1.5989 H   0  0  0  0  0  0  0  0  0  0  0  0
    0.5281    2.5889    0.2924 H   0  0  0  0  0  0  0  0  0  0  0  0
    0.3724    0.5200   -0.4020 C   0  0  1  0  0  0  0  0  0  0  0  0
    0.5167    0.9521   -1.3925 H   0  0  0  0  0  0  0  0  0  0  0  0
    1.6267   -0.2741   -0.0004 C   0  0  0  0  0  0  0  0  0  0  0  0
    1.7065   -1.4771   -0.2403 O   0  0  0  0  0  0  0  0  0  0  0  0
    2.5883    0.3951    0.6470 N   0  0  0  0  0  0  0  0  0  0  0  0
    2.4753    1.3905    0.7534 H   0  0  0  0  0  0  0  0  0  0  0  0
    3.8369   -0.2099    1.1048 C   0  0  0  0  0  0  0  0  0  0  0  0
    4.4210   -0.5370    0.2419 H   0  0  0  0  0  0  0  0  0  0  0  0
    4.4176    0.5104    1.6819 H   0  0  0  0  0  0  0  0  0  0  0  0
    3.6193   -1.0813    1.7263 H   0  0  0  0  0  0  0  0  0  0  0  0
  5  6  2  0  0  0  0
  5  7  1  0  0  0  0
  2  3  1  0  0  0  0
  2  4  1  0  0  0  0
  2  5  1  0  0  0  0
  1  2  1  0  0  0  0
 19 20  2  0  0  0  0
 19 21  1  0  0  0  0
 17 18  1  0  0  0  0
 17 19  1  0  0  0  0
 14 15  1  0  0  0  0
 14 16  1  0  0  0  0
 14 17  1  0  0  0  0
 11 12  1  0  0  0  0
 11 13  1  0  0  0  0
 11 14  1  0  0  0  0
  8  9  1  0  0  0  0
  8 10  1  0  0  0  0
  8 11  1  0  0  0  0
  7  8  1  0  0  0  0
  7 17  1  0  0  0  0
 23 24  1  0  0  0  0
 23 25  1  0  0  0  0
 23 26  1  0  0  0  0
 21 22  1  0  0  0  0
 21 23  1  0  0  0  0
M  END
$$$$
default_name
  -OEChem-01062215323D

 26 26  0     1  0  0  0  0  0999 V2000
   -1.8446   -3.5060   -0.3010 H   0  0  0  0  0  0  0  0  0  0  0  0
   -2.0746   -2.4490   -0.4240 C   0  0  0  0  0  0  0  0  0  0  0  0
   -2.6906   -2.1160    0.4090 H   0  0  0  0  0  0  0  0  0  0  0  0
   -2.5986   -2.2980   -1.3650 H   0  0  0  0  0  0  0  0  0  0  0  0
   -0.7756   -1.6630   -0.4350 C   0  0  0  0  0  0  0  0  0  0  0  0
    0.2844   -2.2800   -0.4550 O   0  0  0  0  0  0  0  0  0  0  0  0
   -0.8246   -0.3180   -0.4350 N   0  0  0  0  0  0  0  0  0  0  0  0
   -2.0106    0.5080   -0.5910 C   0  0  0  0  0  0  0  0  0  0  0  0
   -2.9339    0.0826   -0.1944 H   0  0  0  0  0  0  0  0  0  0  0  0
   -2.1933    0.9787   -1.5564 H   0  0  0  0  0  0  0  0  0  0  0  0
   -1.4455    1.5334    0.3897 C   0  0  0  0  0  0  0  0  0  0  0  0
   -1.9639    1.2793    1.3155 H   0  0  0  0  0  0  0  0  0  0  0  0
   -1.8339    2.4620   -0.0297 H   0  0  0  0  0  0  0  0  0  0  0  0
    0.0649    1.6497    0.5946 C   0  0  0  0  0  0  0  0  0  0  0  0
    0.3925    1.3738    1.5989 H   0  0  0  0  0  0  0  0  0  0  0  0
    0.5281    2.5889    0.2924 H   0  0  0  0  0  0  0  0  0  0  0  0
    0.3724    0.5200   -0.4020 C   0  0  1  0  0  0  0  0  0  0  0  0
    0.5167    0.9521   -1.3925 H   0  0  0  0  0  0  0  0  0  0  0  0
    1.6267   -0.2741   -0.0004 C   0  0  0  0  0  0  0  0  0  0  0  0
    1.8345   -1.3911   -0.4699 O   0  0  0  0  0  0  0  0  0  0  0  0
    2.4407    0.2899    0.9001 N   0  0  0  0  0  0  0  0  0  0  0  0
    2.2340    1.2315    1.1927 H   0  0  0  0  0  0  0  0  0  0  0  0
    3.6668   -0.3322    1.3944 C   0  0  0  0  0  0  0  0  0  0  0  0
    4.3800   -0.4339    0.5736 H   0  0  0  0  0  0  0  0  0  0  0  0
    4.1089    0.2766    2.1837 H   0  0  0  0  0  0  0  0  0  0  0  0
    3.4445   -1.3274    1.7855 H   0  0  0  0  0  0  0  0  0  0  0  0
  5  6  2  0  0  0  0
  5  7  1  0  0  0  0
  2  3  1  0  0  0  0
  2  4  1  0  0  0  0
  2  5  1  0  0  0  0
  1  2  1  0  0  0  0
 19 20  2  0  0  0  0
 19 21  1  0  0  0  0
 17 18  1  0  0  0  0
 17 19  1  0  0  0  0
 14 15  1  0  0  0  0
 14 16  1  0  0  0  0
 14 17  1  0  0  0  0
 11 12  1  0  0  0  0
 11 13  1  0  0  0  0
 11 14  1  0  0  0  0
  8  9  1  0  0  0  0
  8 10  1  0  0  0  0
  8 11  1  0  0  0  0
  7  8  1  0  0  0  0
  7 17  1  0  0  0  0
 23 24  1  0  0  0  0
 23 25  1  0  0  0  0
 23 26  1  0  0  0  0
 21 22  1  0  0  0  0
 21 23  1  0  0  0  0
M  END
$$$$
default_name
  -OEChem-01062215323D

 26 26  0     1  0  0  0  0  0999 V2000
   -1.8446   -3.5060   -0.3010 H   0  0  0  0  0  0  0  0  0  0  0  0
   -2.0746   -2.4490   -0.4240 C   0  0  0  0  0  0  0  0  0  0  0  0
   -2.6906   -2.1160    0.4090 H   0  0  0  0  0  0  0  0  0  0  0  0
   -2.5986   -2.2980   -1.3650 H   0  0  0  0  0  0  0  0  0  0  0  0
   -0.7756   -1.6630   -0.4350 C   0  0  0  0  0  0  0  0  0  0  0  0
    0.2844   -2.2800   -0.4550 O   0  0  0  0  0  0  0  0  0  0  0  0
   -0.8246   -0.3180   -0.4350 N   0  0  0  0  0  0  0  0  0  0  0  0
   -2.0106    0.5080   -0.5910 C   0  0  0  0  0  0  0  0  0  0  0  0
   -2.9339    0.0826   -0.1944 H   0  0  0  0  0  0  0  0  0  0  0  0
   -2.1933    0.9787   -1.5564 H   0  0  0  0  0  0  0  0  0  0  0  0
   -1.4455    1.5334    0.3897 C   0  0  0  0  0  0  0  0  0  0  0  0
   -1.9639    1.2793    1.3155 H   0  0  0  0  0  0  0  0  0  0  0  0
   -1.8339    2.4620   -0.0297 H   0  0  0  0  0  0  0  0  0  0  0  0
    0.0649    1.6497    0.5946 C   0  0  0  0  0  0  0  0  0  0  0  0
    0.3925    1.3738    1.5989 H   0  0  0  0  0  0  0  0  0  0  0  0
    0.5281    2.5889    0.2924 H   0  0  0  0  0  0  0  0  0  0  0  0
    0.3724    0.5200   -0.4020 C   0  0  1  0  0  0  0  0  0  0  0  0
    0.5167    0.9521   -1.3925 H   0  0  0  0  0  0  0  0  0  0  0  0
    1.6267   -0.2741   -0.0004 C   0  0  0  0  0  0  0  0  0  0  0  0
    1.9829   -1.2508   -0.6564 O   0  0  0  0  0  0  0  0  0  0  0  0
    2.2714    0.1250    1.1027 N   0  0  0  0  0  0  0  0  0  0  0  0
    1.9529    0.9689    1.5513 H   0  0  0  0  0  0  0  0  0  0  0  0
    3.4720   -0.5229    1.6255 C   0  0  0  0  0  0  0  0  0  0  0  0
    4.2892   -0.4071    0.9103 H   0  0  0  0  0  0  0  0  0  0  0  0
    3.7594   -0.0761    2.5778 H   0  0  0  0  0  0  0  0  0  0  0  0
    3.2844   -1.5895    1.7674 H   0  0  0  0  0  0  0  0  0  0  0  0
  5  6  2  0  0  0  0
  5  7  1  0  0  0  0
  2  3  1  0  0  0  0
  2  4  1  0  0  0  0
  2  5  1  0  0  0  0
  1  2  1  0  0  0  0
 19 20  2  0  0  0  0
 19 21  1  0  0  0  0
 17 18  1  0  0  0  0
 17 19  1  0  0  0  0
 14 15  1  0  0  0  0
 14 16  1  0  0  0  0
 14 17  1  0  0  0  0
 11 12  1  0  0  0  0
 11 13  1  0  0  0  0
 11 14  1  0  0  0  0
  8  9  1  0  0  0  0
  8 10  1  0  0  0  0
  8 11  1  0  0  0  0
  7  8  1  0  0  0  0
  7 17  1  0  0  0  0
 23 24  1  0  0  0  0
 23 25  1  0  0  0  0
 23 26  1  0  0  0  0
 21 22  1  0  0  0  0
 21 23  1  0  0  0  0
M  END
$$$$
default_name
  -OEChem-01062215323D

 26 26  0     1  0  0  0  0  0999 V2000
   -1.8446   -3.5060   -0.3010 H   0  0  0  0  0  0  0  0  0  0  0  0
   -2.0746   -2.4490   -0.4240 C   0  0  0  0  0  0  0  0  0  0  0  0
   -2.6906   -2.1160    0.4090 H   0  0  0  0  0  0  0  0  0  0  0  0
   -2.5986   -2.2980   -1.3650 H   0  0  0  0  0  0  0  0  0  0  0  0
   -0.7756   -1.6630   -0.4350 C   0  0  0  0  0  0  0  0  0  0  0  0
    0.2844   -2.2800   -0.4550 O   0  0  0  0  0  0  0  0  0  0  0  0
   -0.8246   -0.3180   -0.4350 N   0  0  0  0  0  0  0  0  0  0  0  0
   -2.0106    0.5080   -0.5910 C   0  0  0  0  0  0  0  0  0  0  0  0
   -2.9339    0.0826   -0.1944 H   0  0  0  0  0  0  0  0  0  0  0  0
   -2.1933    0.9787   -1.5564 H   0  0  0  0  0  0  0  0  0  0  0  0
   -1.4455    1.5334    0.3897 C   0  0  0  0  0  0  0  0  0  0  0  0
   -1.9639    1.2793    1.3155 H   0  0  0  0  0  0  0  0  0  0  0  0
   -1.8339    2.4620   -0.0297 H   0  0  0  0  0  0  0  0  0  0  0  0
    0.0649    1.6497    0.5946 C   0  0  0  0  0  0  0  0  0  0  0  0
    0.3925    1.3738    1.5989 H   0  0  0  0  0  0  0  0  0  0  0  0
    0.5281    2.5889    0.2924 H   0  0  0  0  0  0  0  0  0  0  0  0
    0.3724    0.5200   -0.4020 C   0  0  1  0  0  0  0  0  0  0  0  0
    0.5167    0.9521   -1.3925 H   0  0  0  0  0  0  0  0  0  0  0  0
    1.6267   -0.2741   -0.0004 C   0  0  0  0  0  0  0  0  0  0  0  0
    2.1418   -1.0660   -0.7870 O   0  0  0  0  0  0  0  0  0  0  0  0
    2.0919   -0.0886    1.2409 N   0  0  0  0  0  0  0  0  0  0  0  0
    1.6513    0.6205    1.8047 H   0  0  0  0  0  0  0  0  0  0  0  0
    3.2658   -0.7692    1.7825 C   0  0  0  0  0  0  0  0  0  0  0  0
    4.1546   -0.4585    1.2291 H   0  0  0  0  0  0  0  0  0  0  0  0
    3.3930   -0.5236    2.8373 H   0  0  0  0  0  0  0  0  0  0  0  0
    3.1498   -1.8497    1.6732 H   0  0  0  0  0  0  0  0  0  0  0  0
  5  6  2  0  0  0  0
  5  7  1  0  0  0  0
  2  3  1  0  0  0  0
  2  4  1  0  0  0  0
  2  5  1  0  0  0  0
  1  2  1  0  0  0  0
 19 20  2  0  0  0  0
 19 21  1  0  0  0  0
 17 18  1  0  0  0  0
 17 19  1  0  0  0  0
 14 15  1  0  0  0  0
 14 16  1  0  0  0  0
 14 17  1  0  0  0  0
 11 12  1  0  0  0  0
 11 13  1  0  0  0  0
 11 14  1  0  0  0  0
  8  9  1  0  0  0  0
  8 10  1  0  0  0  0
  8 11  1  0  0  0  0
  7  8  1  0  0  0  0
  7 17  1  0  0  0  0
 23 24  1  0  0  0  0
 23 25  1  0  0  0  0
 23 26  1  0  0  0  0
 21 22  1  0  0  0  0
 21 23  1  0  0  0  0
M  END
$$$$
default_name
  -OEChem-01062215323D

 26 26  0     1  0  0  0  0  0999 V2000
   -1.8446   -3.5060   -0.3010 H   0  0  0  0  0  0  0  0  0  0  0  0
   -2.0746   -2.4490   -0.4240 C   0  0  0  0  0  0  0  0  0  0  0  0
   -2.6906   -2.1160    0.4090 H   0  0  0  0  0  0  0  0  0  0  0  0
   -2.5986   -2.2980   -1.3650 H   0  0  0  0  0  0  0  0  0  0  0  0
   -0.7756   -1.6630   -0.4350 C   0  0  0  0  0  0  0  0  0  0  0  0
    0.2844   -2.2800   -0.4550 O   0  0  0  0  0  0  0  0  0  0  0  0
   -0.8246   -0.3180   -0.4350 N   0  0  0  0  0  0  0  0  0  0  0  0
   -2.0106    0.5080   -0.5910 C   0  0  0  0  0  0  0  0  0  0  0  0
   -2.9339    0.0826   -0.1944 H   0  0  0  0  0  0  0  0  0  0  0  0
   -2.1933    0.9787   -1.5564 H   0  0  0  0  0  0  0  0  0  0  0  0
   -1.4455    1.5334    0.3897 C   0  0  0  0  0  0  0  0  0  0  0  0
   -1.9639    1.2793    1.3155 H   0  0  0  0  0  0  0  0  0  0  0  0
   -1.8339    2.4620   -0.0297 H   0  0  0  0  0  0  0  0  0  0  0  0
    0.0649    1.6497    0.5946 C   0  0  0  0  0  0  0  0  0  0  0  0
    0.3925    1.3738    1.5989 H   0  0  0  0  0  0  0  0  0  0  0  0
    0.5281    2.5889    0.2924 H   0  0  0  0  0  0  0  0  0  0  0  0
    0.3724    0.5200   -0.4020 C   0  0  1  0  0  0  0  0  0  0  0  0
    0.5167    0.9521   -1.3925 H   0  0  0  0  0  0  0  0  0  0  0  0
    1.6267   -0.2741   -0.0004 C   0  0  0  0  0  0  0  0  0  0  0  0
    2.3003   -0.8491   -0.8530 O   0  0  0  0  0  0  0  0  0  0  0  0
    1.9146   -0.3362    1.3053 N   0  0  0  0  0  0  0  0  0  0  0  0
    1.3495    0.2102    1.9356 H   0  0  0  0  0  0  0  0  0  0  0  0
    3.0624   -1.0541    1.8546 C   0  0  0  0  0  0  0  0  0  0  0  0
    3.9855   -0.5845    1.5081 H   0  0  0  0  0  0  0  0  0  0  0  0
    3.0347   -1.0353    2.9446 H   0  0  0  0  0  0  0  0  0  0  0  0
    3.0500   -2.0902    1.5093 H   0  0  0  0  0  0  0  0  0  0  0  0
  5  6  2  0  0  0  0
  5  7  1  0  0  0  0
  2  3  1  0  0  0  0
  2  4  1  0  0  0  0
  2  5  1  0  0  0  0
  1  2  1  0  0  0  0
 19 20  2  0  0  0  0
 19 21  1  0  0  0  0
 17 18  1  0  0  0  0
 17 19  1  0  0  0  0
 14 15  1  0  0  0  0
 14 16  1  0  0  0  0
 14 17  1  0  0  0  0
 11 12  1  0  0  0  0
 11 13  1  0  0  0  0
 11 14  1  0  0  0  0
  8  9  1  0  0  0  0
  8 10  1  0  0  0  0
  8 11  1  0  0  0  0
  7  8  1  0  0  0  0
  7 17  1  0  0  0  0
 23 24  1  0  0  0  0
 23 25  1  0  0  0  0
 23 26  1  0  0  0  0
 21 22  1  0  0  0  0
 21 23  1  0  0  0  0
M  END
$$$$
default_name
  -OEChem-01062215323D

 26 26  0     1  0  0  0  0  0999 V2000
   -1.8446   -3.5060   -0.3010 H   0  0  0  0  0  0  0  0  0  0  0  0
   -2.0746   -2.4490   -0.4240 C   0  0  0  0  0  0  0  0  0  0  0  0
   -2.6906   -2.1160    0.4090 H   0  0  0  0  0  0  0  0  0  0  0  0
   -2.5986   -2.2980   -1.3650 H   0  0  0  0  0  0  0  0  0  0  0  0
   -0.7756   -1.6630   -0.4350 C   0  0  0  0  0  0  0  0  0  0  0  0
    0.2844   -2.2800   -0.4550 O   0  0  0  0  0  0  0  0  0  0  0  0
   -0.8246   -0.3180   -0.4350 N   0  0  0  0  0  0  0  0  0  0  0  0
   -2.0106    0.5080   -0.5910 C   0  0  0  0  0  0  0  0  0  0  0  0
   -2.9339    0.0826   -0.1944 H   0  0  0  0  0  0  0  0  0  0  0  0
   -2.1933    0.9787   -1.5564 H   0  0  0  0  0  0  0  0  0  0  0  0
   -1.4455    1.5334    0.3897 C   0  0  0  0  0  0  0  0  0  0  0  0
   -1.9639    1.2793    1.3155 H   0  0  0  0  0  0  0  0  0  0  0  0
   -1.8339    2.4620   -0.0297 H   0  0  0  0  0  0  0  0  0  0  0  0
    0.0649    1.6497    0.5946 C   0  0  0  0  0  0  0  0  0  0  0  0
    0.3925    1.3738    1.5989 H   0  0  0  0  0  0  0  0  0  0  0  0
    0.5281    2.5889    0.2924 H   0  0  0  0  0  0  0  0  0  0  0  0
    0.3724    0.5200   -0.4020 C   0  0  1  0  0  0  0  0  0  0  0  0
    0.5167    0.9521   -1.3925 H   0  0  0  0  0  0  0  0  0  0  0  0
    1.6267   -0.2741   -0.0004 C   0  0  0  0  0  0  0  0  0  0  0  0
    2.4474   -0.6149   -0.8498 O   0  0  0  0  0  0  0  0  0  0  0  0
    1.7513   -0.6009    1.2916 N   0  0  0  0  0  0  0  0  0  0  0  0
    1.0684   -0.2342    1.9350 H   0  0  0  0  0  0  0  0  0  0  0  0
    2.8755   -1.3582    1.8369 C   0  0  0  0  0  0  0  0  0  0  0  0
    3.7934   -0.7765    1.7285 H   0  0  0  0  0  0  0  0  0  0  0  0
    2.7088   -1.5765    2.8922 H   0  0  0  0  0  0  0  0  0  0  0  0
    2.9918   -2.2946    1.2869 H   0  0  0  0  0  0  0  0  0  0  0  0
  5  6  2  0  0  0  0
  5  7  1  0  0  0  0
  2  3  1  0  0  0  0
  2  4  1  0  0  0  0
  2  5  1  0  0  0  0
  1  2  1  0  0  0  0
 19 20  2  0  0  0  0
 19 21  1  0  0  0  0
 17 18  1  0  0  0  0
 17 19  1  0  0  0  0
 14 15  1  0  0  0  0
 14 16  1  0  0  0  0
 14 17  1  0  0  0  0
 11 12  1  0  0  0  0
 11 13  1  0  0  0  0
 11 14  1  0  0  0  0
  8  9  1  0  0  0  0
  8 10  1  0  0  0  0
  8 11  1  0  0  0  0
  7  8  1  0  0  0  0
  7 17  1  0  0  0  0
 23 24  1  0  0  0  0
 23 25  1  0  0  0  0
 23 26  1  0  0  0  0
 21 22  1  0  0  0  0
 21 23  1  0  0  0  0
M  END
$$$$
default_name
  -OEChem-01062215323D

 26 26  0     1  0  0  0  0  0999 V2000
   -1.8446   -3.5060   -0.3010 H   0  0  0  0  0  0  0  0  0  0  0  0
   -2.0746   -2.4490   -0.4240 C   0  0  0  0  0  0  0  0  0  0  0  0
   -2.6906   -2.1160    0.4090 H   0  0  0  0  0  0  0  0  0  0  0  0
   -2.5986   -2.2980   -1.3650 H   0  0  0  0  0  0  0  0  0  0  0  0
   -0.7756   -1.6630   -0.4350 C   0  0  0  0  0  0  0  0  0  0  0  0
    0.2844   -2.2800   -0.4550 O   0  0  0  0  0  0  0  0  0  0  0  0
   -0.8246   -0.3180   -0.4350 N   0  0  0  0  0  0  0  0  0  0  0  0
   -2.0106    0.5080   -0.5910 C   0  0  0  0  0  0  0  0  0  0  0  0
   -2.9339    0.0826   -0.1944 H   0  0  0  0  0  0  0  0  0  0  0  0
   -2.1933    0.9787   -1.5564 H   0  0  0  0  0  0  0  0  0  0  0  0
   -1.4455    1.5334    0.3897 C   0  0  0  0  0  0  0  0  0  0  0  0
   -1.9639    1.2793    1.3155 H   0  0  0  0  0  0  0  0  0  0  0  0
   -1.8339    2.4620   -0.0297 H   0  0  0  0  0  0  0  0  0  0  0  0
    0.0649    1.6497    0.5946 C   0  0  0  0  0  0  0  0  0  0  0  0
    0.3925    1.3738    1.5989 H   0  0  0  0  0  0  0  0  0  0  0  0
    0.5281    2.5889    0.2924 H   0  0  0  0  0  0  0  0  0  0  0  0
    0.3724    0.5200   -0.4020 C   0  0  1  0  0  0  0  0  0  0  0  0
    0.5167    0.9521   -1.3925 H   0  0  0  0  0  0  0  0  0  0  0  0
    1.6267   -0.2741   -0.0004 C   0  0  0  0  0  0  0  0  0  0  0  0
    2.5734   -0.3795   -0.7775 O   0  0  0  0  0  0  0  0  0  0  0  0
    1.6134   -0.8648    1.2007 N   0  0  0  0  0  0  0  0  0  0  0  0
    0.8269   -0.6824    1.8031 H   0  0  0  0  0  0  0  0  0  0  0  0
    2.7179   -1.6609    1.7307 C   0  0  0  0  0  0  0  0  0  0  0  0
    3.5913   -1.0215    1.8751 H   0  0  0  0  0  0  0  0  0  0  0  0
    2.4376   -2.1102    2.6839 H   0  0  0  0  0  0  0  0  0  0  0  0
    2.9791   -2.4491    1.0212 H   0  0  0  0  0  0  0  0  0  0  0  0
  5  6  2  0  0  0  0
  5  7  1  0  0  0  0
  2  3  1  0  0  0  0
  2  4  1  0  0  0  0
  2  5  1  0  0  0  0
  1  2  1  0  0  0  0
 19 20  2  0  0  0  0
 19 21  1  0  0  0  0
 17 18  1  0  0  0  0
 17 19  1  0  0  0  0
 14 15  1  0  0  0  0
 14 16  1  0  0  0  0
 14 17  1  0  0  0  0
 11 12  1  0  0  0  0
 11 13  1  0  0  0  0
 11 14  1  0  0  0  0
  8  9  1  0  0  0  0
  8 10  1  0  0  0  0
  8 11  1  0  0  0  0
  7  8  1  0  0  0  0
  7 17  1  0  0  0  0
 23 24  1  0  0  0  0
 23 25  1  0  0  0  0
 23 26  1  0  0  0  0
 21 22  1  0  0  0  0
 21 23  1  0  0  0  0
M  END
$$$$
default_name
  -OEChem-01062215323D

 26 26  0     1  0  0  0  0  0999 V2000
   -1.8446   -3.5060   -0.3010 H   0  0  0  0  0  0  0  0  0  0  0  0
   -2.0746   -2.4490   -0.4240 C   0  0  0  0  0  0  0  0  0  0  0  0
   -2.6906   -2.1160    0.4090 H   0  0  0  0  0  0  0  0  0  0  0  0
   -2.5986   -2.2980   -1.3650 H   0  0  0  0  0  0  0  0  0  0  0  0
   -0.7756   -1.6630   -0.4350 C   0  0  0  0  0  0  0  0  0  0  0  0
    0.2844   -2.2800   -0.4550 O   0  0  0  0  0  0  0  0  0  0  0  0
   -0.8246   -0.3180   -0.4350 N   0  0  0  0  0  0  0  0  0  0  0  0
   -2.0106    0.5080   -0.5910 C   0  0  0  0  0  0  0  0  0  0  0  0
   -2.9339    0.0826   -0.1944 H   0  0  0  0  0  0  0  0  0  0  0  0
   -2.1933    0.9787   -1.5564 H   0  0  0  0  0  0  0  0  0  0  0  0
   -1.4455    1.5334    0.3897 C   0  0  0  0  0  0  0  0  0  0  0  0
   -1.9639    1.2793    1.3155 H   0  0  0  0  0  0  0  0  0  0  0  0
   -1.8339    2.4620   -0.0297 H   0  0  0  0  0  0  0  0  0  0  0  0
    0.0649    1.6497    0.5946 C   0  0  0  0  0  0  0  0  0  0  0  0
    0.3925    1.3738    1.5989 H   0  0  0  0  0  0  0  0  0  0  0  0
    0.5281    2.5889    0.2924 H   0  0  0  0  0  0  0  0  0  0  0  0
    0.3724    0.5200   -0.4020 C   0  0  1  0  0  0  0  0  0  0  0  0
    0.5167    0.9521   -1.3925 H   0  0  0  0  0  0  0  0  0  0  0  0
    1.6267   -0.2741   -0.0004 C   0  0  0  0  0  0  0  0  0  0  0  0
    2.6694   -0.1589   -0.6412 O   0  0  0  0  0  0  0  0  0  0  0  0
    1.5102   -1.1098    1.0387 N   0  0  0  0  0  0  0  0  0  0  0  0
    0.6415   -1.1038    1.5489 H   0  0  0  0  0  0  0  0  0  0  0  0
    2.6003   -1.9415    1.5431 C   0  0  0  0  0  0  0  0  0  0  0  0
    3.3931   -1.3027    1.9381 H   0  0  0  0  0  0  0  0  0  0  0  0
    2.2396   -2.6001    2.3338 H   0  0  0  0  0  0  0  0  0  0  0  0
    3.0128   -2.5431    0.7302 H   0  0  0  0  0  0  0  0  0  0  0  0
  5  6  2  0  0  0  0
  5  7  1  0  0  0  0
  2  3  1  0  0  0  0
  2  4  1  0  0  0  0
  2  5  1  0  0  0  0
  1  2  1  0  0  0  0
 19 20  2  0  0  0  0
 19 21  1  0  0  0  0
 17 18  1  0  0  0  0
 17 19  1  0  0  0  0
 14 15  1  0  0  0  0
 14 16  1  0  0  0  0
 14 17  1  0  0  0  0
 11 12  1  0  0  0  0
 11 13  1  0  0  0  0
 11 14  1  0  0  0  0
  8  9  1  0  0  0  0
  8 10  1  0  0  0  0
  8 11  1  0  0  0  0
  7  8  1  0  0  0  0
  7 17  1  0  0  0  0
 23 24  1  0  0  0  0
 23 25  1  0  0  0  0
 23 26  1  0  0  0  0
 21 22  1  0  0  0  0
 21 23  1  0  0  0  0
M  END
$$$$
default_name
  -OEChem-01062215323D

 26 26  0     1  0  0  0  0  0999 V2000
   -1.8446   -3.5060   -0.3010 H   0  0  0  0  0  0  0  0  0  0  0  0
   -2.0746   -2.4490   -0.4240 C   0  0  0  0  0  0  0  0  0  0  0  0
   -2.6906   -2.1160    0.4090 H   0  0  0  0  0  0  0  0  0  0  0  0
   -2.5986   -2.2980   -1.3650 H   0  0  0  0  0  0  0  0  0  0  0  0
   -0.7756   -1.6630   -0.4350 C   0  0  0  0  0  0  0  0  0  0  0  0
    0.2844   -2.2800   -0.4550 O   0  0  0  0  0  0  0  0  0  0  0  0
   -0.8246   -0.3180   -0.4350 N   0  0  0  0  0  0  0  0  0  0  0  0
   -2.0106    0.5080   -0.5910 C   0  0  0  0  0  0  0  0  0  0  0  0
   -2.9339    0.0826   -0.1944 H   0  0  0  0  0  0  0  0  0  0  0  0
   -2.1933    0.9787   -1.5564 H   0  0  0  0  0  0  0  0  0  0  0  0
   -1.4455    1.5334    0.3897 C   0  0  0  0  0  0  0  0  0  0  0  0
   -1.9639    1.2793    1.3155 H   0  0  0  0  0  0  0  0  0  0  0  0
   -1.8339    2.4620   -0.0297 H   0  0  0  0  0  0  0  0  0  0  0  0
    0.0649    1.6497    0.5946 C   0  0  0  0  0  0  0  0  0  0  0  0
    0.3925    1.3738    1.5989 H   0  0  0  0  0  0  0  0  0  0  0  0
    0.5281    2.5889    0.2924 H   0  0  0  0  0  0  0  0  0  0  0  0
    0.3724    0.5200   -0.4020 C   0  0  1  0  0  0  0  0  0  0  0  0
    0.5167    0.9521   -1.3925 H   0  0  0  0  0  0  0  0  0  0  0  0
    1.6267   -0.2741   -0.0004 C   0  0  0  0  0  0  0  0  0  0  0  0
    2.7291    0.0320   -0.4502 O   0  0  0  0  0  0  0  0  0  0  0  0
    1.4487   -1.3192    0.8167 N   0  0  0  0  0  0  0  0  0  0  0  0
    0.5249   -1.4696    1.1895 H   0  0  0  0  0  0  0  0  0  0  0  0
    2.5307   -2.1809    1.2869 C   0  0  0  0  0  0  0  0  0  0  0  0
    3.2123   -1.6011    1.9130 H   0  0  0  0  0  0  0  0  0  0  0  0
    2.1282   -3.0128    1.8657 H   0  0  0  0  0  0  0  0  0  0  0  0
    3.0906   -2.5701    0.4337 H   0  0  0  0  0  0  0  0  0  0  0  0
  5  6  2  0  0  0  0
  5  7  1  0  0  0  0
  2  3  1  0  0  0  0
  2  4  1  0  0  0  0
  2  5  1  0  0  0  0
  1  2  1  0  0  0  0
 19 20  2  0  0  0  0
 19 21  1  0  0  0  0
 17 18  1  0  0  0  0
 17 19  1  0  0  0  0
 14 15  1  0  0  0  0
 14 16  1  0  0  0  0
 14 17  1  0  0  0  0
 11 12  1  0  0  0  0
 11 13  1  0  0  0  0
 11 14  1  0  0  0  0
  8  9  1  0  0  0  0
  8 10  1  0  0  0  0
  8 11  1  0  0  0  0
  7  8  1  0  0  0  0
  7 17  1  0  0  0  0
 23 24  1  0  0  0  0
 23 25  1  0  0  0  0
 23 26  1  0  0  0  0
 21 22  1  0  0  0  0
 21 23  1  0  0  0  0
M  END
$$$$
default_name
  -OEChem-01062215323D

 26 26  0     1  0  0  0  0  0999 V2000
   -1.8446   -3.5060   -0.3010 H   0  0  0  0  0  0  0  0  0  0  0  0
   -2.0746   -2.4490   -0.4240 C   0  0  0  0  0  0  0  0  0  0  0  0
   -2.6906   -2.1160    0.4090 H   0  0  0  0  0  0  0  0  0  0  0  0
   -2.5986   -2.2980   -1.3650 H   0  0  0  0  0  0  0  0  0  0  0  0
   -0.7756   -1.6630   -0.4350 C   0  0  0  0  0  0  0  0  0  0  0  0
    0.2844   -2.2800   -0.4550 O   0  0  0  0  0  0  0  0  0  0  0  0
   -0.8246   -0.3180   -0.4350 N   0  0  0  0  0  0  0  0  0  0  0  0
   -2.0106    0.5080   -0.5910 C   0  0  0  0  0  0  0  0  0  0  0  0
   -2.9339    0.0826   -0.1944 H   0  0  0  0  0  0  0  0  0  0  0  0
   -2.1933    0.9787   -1.5564 H   0  0  0  0  0  0  0  0  0  0  0  0
   -1.4455    1.5334    0.3897 C   0  0  0  0  0  0  0  0  0  0  0  0
   -1.9639    1.2793    1.3155 H   0  0  0  0  0  0  0  0  0  0  0  0
   -1.8339    2.4620   -0.0297 H   0  0  0  0  0  0  0  0  0  0  0  0
    0.0649    1.6497    0.5946 C   0  0  0  0  0  0  0  0  0  0  0  0
    0.3925    1.3738    1.5989 H   0  0  0  0  0  0  0  0  0  0  0  0
    0.5281    2.5889    0.2924 H   0  0  0  0  0  0  0  0  0  0  0  0
    0.3724    0.5200   -0.4020 C   0  0  1  0  0  0  0  0  0  0  0  0
    0.5167    0.9521   -1.3925 H   0  0  0  0  0  0  0  0  0  0  0  0
    1.6267   -0.2741   -0.0004 C   0  0  0  0  0  0  0  0  0  0  0  0
    2.7483    0.1801   -0.2174 O   0  0  0  0  0  0  0  0  0  0  0  0
    1.4331   -1.4788    0.5499 N   0  0  0  0  0  0  0  0  0  0  0  0
    0.4851   -1.7551    0.7497 H   0  0  0  0  0  0  0  0  0  0  0  0
    2.5140   -2.3628    0.9797 C   0  0  0  0  0  0  0  0  0  0  0  0
    3.0611   -1.8962    1.8016 H   0  0  0  0  0  0  0  0  0  0  0  0
    2.1110   -3.3202    1.3116 H   0  0  0  0  0  0  0  0  0  0  0  0
    3.2071   -2.5285    0.1521 H   0  0  0  0  0  0  0  0  0  0  0  0
  5  6  2  0  0  0  0
  5  7  1  0  0  0  0
  2  3  1  0  0  0  0
  2  4  1  0  0  0  0
  2  5  1  0  0  0  0
  1  2  1  0  0  0  0
 19 20  2  0  0  0  0
 19 21  1  0  0  0  0
 17 18  1  0  0  0  0
 17 19  1  0  0  0  0
 14 15  1  0  0  0  0
 14 16  1  0  0  0  0
 14 17  1  0  0  0  0
 11 12  1  0  0  0  0
 11 13  1  0  0  0  0
 11 14  1  0  0  0  0
  8  9  1  0  0  0  0
  8 10  1  0  0  0  0
  8 11  1  0  0  0  0
  7  8  1  0  0  0  0
  7 17  1  0  0  0  0
 23 24  1  0  0  0  0
 23 25  1  0  0  0  0
 23 26  1  0  0  0  0
 21 22  1  0  0  0  0
 21 23  1  0  0  0  0
M  END
$$$$
default_name
  -OEChem-01062215323D

 26 26  0     1  0  0  0  0  0999 V2000
   -1.8446   -3.5060   -0.3010 H   0  0  0  0  0  0  0  0  0  0  0  0
   -2.0746   -2.4490   -0.4240 C   0  0  0  0  0  0  0  0  0  0  0  0
   -2.6906   -2.1160    0.4090 H   0  0  0  0  0  0  0  0  0  0  0  0
   -2.5986   -2.2980   -1.3650 H   0  0  0  0  0  0  0  0  0  0  0  0
   -0.7756   -1.6630   -0.4350 C   0  0  0  0  0  0  0  0  0  0  0  0
    0.2844   -2.2800   -0.4550 O   0  0  0  0  0  0  0  0  0  0  0  0
   -0.8246   -0.3180   -0.4350 N   0  0  0  0  0  0  0  0  0  0  0  0
   -2.0106    0.5080   -0.5910 C   0  0  0  0  0  0  0  0  0  0  0  0
   -2.9339    0.0826   -0.1944 H   0  0  0  0  0  0  0  0  0  0  0  0
   -2.1933    0.9787   -1.5564 H   0  0  0  0  0  0  0  0  0  0  0  0
   -1.4455    1.5334    0.3897 C   0  0  0  0  0  0  0  0  0  0  0  0
   -1.9639    1.2793    1.3155 H   0  0  0  0  0  0  0  0  0  0  0  0
   -1.8339    2.4620   -0.0297 H   0  0  0  0  0  0  0  0  0  0  0  0
    0.0649    1.6497    0.5946 C   0  0  0  0  0  0  0  0  0  0  0  0
    0.3925    1.3738    1.5989 H   0  0  0  0  0  0  0  0  0  0  0  0
    0.5281    2.5889    0.2924 H   0  0  0  0  0  0  0  0  0  0  0  0
    0.3724    0.5200   -0.4020 C   0  0  1  0  0  0  0  0  0  0  0  0
    0.5167    0.9521   -1.3925 H   0  0  0  0  0  0  0  0  0  0  0  0
    1.6267   -0.2741   -0.0004 C   0  0  0  0  0  0  0  0  0  0  0  0
    2.7257    0.2752    0.0413 O   0  0  0  0  0  0  0  0  0  0  0  0
    1.4644   -1.5777    0.2564 N   0  0  0  0  0  0  0  0  0  0  0  0
    0.5247   -1.9406    0.2592 H   0  0  0  0  0  0  0  0  0  0  0  0
    2.5511   -2.4747    0.6423 C   0  0  0  0  0  0  0  0  0  0  0  0
    2.9499   -2.1679    1.6116 H   0  0  0  0  0  0  0  0  0  0  0  0
    2.1893   -3.5012    0.7092 H   0  0  0  0  0  0  0  0  0  0  0  0
    3.3546   -2.4209   -0.0956 H   0  0  0  0  0  0  0  0  0  0  0  0
  5  6  2  0  0  0  0
  5  7  1  0  0  0  0
  2  3  1  0  0  0  0
  2  4  1  0  0  0  0
  2  5  1  0  0  0  0
  1  2  1  0  0  0  0
 19 20  2  0  0  0  0
 19 21  1  0  0  0  0
 17 18  1  0  0  0  0
 17 19  1  0  0  0  0
 14 15  1  0  0  0  0
 14 16  1  0  0  0  0
 14 17  1  0  0  0  0
 11 12  1  0  0  0  0
 11 13  1  0  0  0  0
 11 14  1  0  0  0  0
  8  9  1  0  0  0  0
  8 10  1  0  0  0  0
  8 11  1  0  0  0  0
  7  8  1  0  0  0  0
  7 17  1  0  0  0  0
 23 24  1  0  0  0  0
 23 25  1  0  0  0  0
 23 26  1  0  0  0  0
 21 22  1  0  0  0  0
 21 23  1  0  0  0  0
M  END
$$$$
default_name
  -OEChem-01062215323D

 26 26  0     1  0  0  0  0  0999 V2000
   -1.8446   -3.5060   -0.3010 H   0  0  0  0  0  0  0  0  0  0  0  0
   -2.0746   -2.4490   -0.4240 C   0  0  0  0  0  0  0  0  0  0  0  0
   -2.6906   -2.1160    0.4090 H   0  0  0  0  0  0  0  0  0  0  0  0
   -2.5986   -2.2980   -1.3650 H   0  0  0  0  0  0  0  0  0  0  0  0
   -0.7756   -1.6630   -0.4350 C   0  0  0  0  0  0  0  0  0  0  0  0
    0.2844   -2.2800   -0.4550 O   0  0  0  0  0  0  0  0  0  0  0  0
   -0.8246   -0.3180   -0.4350 N   0  0  0  0  0  0  0  0  0  0  0  0
   -2.0106    0.5080   -0.5910 C   0  0  0  0  0  0  0  0  0  0  0  0
   -2.9339    0.0826   -0.1944 H   0  0  0  0  0  0  0  0  0  0  0  0
   -2.1933    0.9787   -1.5564 H   0  0  0  0  0  0  0  0  0  0  0  0
   -1.4455    1.5334    0.3897 C   0  0  0  0  0  0  0  0  0  0  0  0
   -1.9639    1.2793    1.3155 H   0  0  0  0  0  0  0  0  0  0  0  0
   -1.8339    2.4620   -0.0297 H   0  0  0  0  0  0  0  0  0  0  0  0
    0.0649    1.6497    0.5946 C   0  0  0  0  0  0  0  0  0  0  0  0
    0.3925    1.3738    1.5989 H   0  0  0  0  0  0  0  0  0  0  0  0
    0.5281    2.5889    0.2924 H   0  0  0  0  0  0  0  0  0  0  0  0
    0.3724    0.5200   -0.4020 C   0  0  1  0  0  0  0  0  0  0  0  0
    0.5167    0.9521   -1.3925 H   0  0  0  0  0  0  0  0  0  0  0  0
    1.6267   -0.2741   -0.0004 C   0  0  0  0  0  0  0  0  0  0  0  0
    2.6629    0.3110    0.3083 O   0  0  0  0  0  0  0  0  0  0  0  0
    1.5407   -1.6091   -0.0438 N   0  0  0  0  0  0  0  0  0  0  0  0
    0.6410   -2.0136   -0.2485 H   0  0  0  0  0  0  0  0  0  0  0  0
    2.6397   -2.5091    0.2977 C   0  0  0  0  0  0  0  0  0  0  0  0
    2.8862   -2.3978    1.3558 H   0  0  0  0  0  0  0  0  0  0  0  0
    2.3576   -3.5437    0.0995 H   0  0  0  0  0  0  0  0  0  0  0  0
    3.5228   -2.2547   -0.2924 H   0  0  0  0  0  0  0  0  0  0  0  0
  5  6  2  0  0  0  0
  5  7  1  0  0  0  0
  2  3  1  0  0  0  0
  2  4  1  0  0  0  0
  2  5  1  0  0  0  0
  1  2  1  0  0  0  0
 19 20  2  0  0  0  0
 19 21  1  0  0  0  0
 17 18  1  0  0  0  0
 17 19  1  0  0  0  0
 14 15  1  0  0  0  0
 14 16  1  0  0  0  0
 14 17  1  0  0  0  0
 11 12  1  0  0  0  0
 11 13  1  0  0  0  0
 11 14  1  0  0  0  0
  8  9  1  0  0  0  0
  8 10  1  0  0  0  0
  8 11  1  0  0  0  0
  7  8  1  0  0  0  0
  7 17  1  0  0  0  0
 23 24  1  0  0  0  0
 23 25  1  0  0  0  0
 23 26  1  0  0  0  0
 21 22  1  0  0  0  0
 21 23  1  0  0  0  0
M  END
$$$$
default_name
  -OEChem-01062215323D

 26 26  0     1  0  0  0  0  0999 V2000
   -1.8446   -3.5060   -0.3010 H   0  0  0  0  0  0  0  0  0  0  0  0
   -2.0746   -2.4490   -0.4240 C   0  0  0  0  0  0  0  0  0  0  0  0
   -2.6906   -2.1160    0.4090 H   0  0  0  0  0  0  0  0  0  0  0  0
   -2.5986   -2.2980   -1.3650 H   0  0  0  0  0  0  0  0  0  0  0  0
   -0.7756   -1.6630   -0.4350 C   0  0  0  0  0  0  0  0  0  0  0  0
    0.2844   -2.2800   -0.4550 O   0  0  0  0  0  0  0  0  0  0  0  0
   -0.8246   -0.3180   -0.4350 N   0  0  0  0  0  0  0  0  0  0  0  0
   -2.0106    0.5080   -0.5910 C   0  0  0  0  0  0  0  0  0  0  0  0
   -2.9339    0.0826   -0.1944 H   0  0  0  0  0  0  0  0  0  0  0  0
   -2.1933    0.9787   -1.5564 H   0  0  0  0  0  0  0  0  0  0  0  0
   -1.4455    1.5334    0.3897 C   0  0  0  0  0  0  0  0  0  0  0  0
   -1.9639    1.2793    1.3155 H   0  0  0  0  0  0  0  0  0  0  0  0
   -1.8339    2.4620   -0.0297 H   0  0  0  0  0  0  0  0  0  0  0  0
    0.0649    1.6497    0.5946 C   0  0  0  0  0  0  0  0  0  0  0  0
    0.3925    1.3738    1.5989 H   0  0  0  0  0  0  0  0  0  0  0  0
    0.5281    2.5889    0.2924 H   0  0  0  0  0  0  0  0  0  0  0  0
    0.3724    0.5200   -0.4020 C   0  0  1  0  0  0  0  0  0  0  0  0
    0.5167    0.9521   -1.3925 H   0  0  0  0  0  0  0  0  0  0  0  0
    1.6267   -0.2741   -0.0004 C   0  0  0  0  0  0  0  0  0  0  0  0
    2.5641    0.2850    0.5653 O   0  0  0  0  0  0  0  0  0  0  0  0
    1.6565   -1.5709   -0.3303 N   0  0  0  0  0  0  0  0  0  0  0  0
    0.8261   -1.9691   -0.7387 H   0  0  0  0  0  0  0  0  0  0  0  0
    2.7736   -2.4636   -0.0306 C   0  0  0  0  0  0  0  0  0  0  0  0
    2.8745   -2.5702    1.0516 H   0  0  0  0  0  0  0  0  0  0  0  0
    2.6046   -3.4446   -0.4758 H   0  0  0  0  0  0  0  0  0  0  0  0
    3.7004   -2.0412   -0.4250 H   0  0  0  0  0  0  0  0  0  0  0  0
  5  6  2  0  0  0  0
  5  7  1  0  0  0  0
  2  3  1  0  0  0  0
  2  4  1  0  0  0  0
  2  5  1  0  0  0  0
  1  2  1  0  0  0  0
 19 20  2  0  0  0  0
 19 21  1  0  0  0  0
 17 18  1  0  0  0  0
 17 19  1  0  0  0  0
 14 15  1  0  0  0  0
 14 16  1  0  0  0  0
 14 17  1  0  0  0  0
 11 12  1  0  0  0  0
 11 13  1  0  0  0  0
 11 14  1  0  0  0  0
  8  9  1  0  0  0  0
  8 10  1  0  0  0  0
  8 11  1  0  0  0  0
  7  8  1  0  0  0  0
  7 17  1  0  0  0  0
 23 24  1  0  0  0  0
 23 25  1  0  0  0  0
 23 26  1  0  0  0  0
 21 22  1  0  0  0  0
 21 23  1  0  0  0  0
M  END
$$$$
default_name
  -OEChem-01062215323D

 26 26  0     1  0  0  0  0  0999 V2000
   -1.8446   -3.5060   -0.3010 H   0  0  0  0  0  0  0  0  0  0  0  0
   -2.0746   -2.4490   -0.4240 C   0  0  0  0  0  0  0  0  0  0  0  0
   -2.6906   -2.1160    0.4090 H   0  0  0  0  0  0  0  0  0  0  0  0
   -2.5986   -2.2980   -1.3650 H   0  0  0  0  0  0  0  0  0  0  0  0
   -0.7756   -1.6630   -0.4350 C   0  0  0  0  0  0  0  0  0  0  0  0
    0.2844   -2.2800   -0.4550 O   0  0  0  0  0  0  0  0  0  0  0  0
   -0.8246   -0.3180   -0.4350 N   0  0  0  0  0  0  0  0  0  0  0  0
   -2.0106    0.5080   -0.5910 C   0  0  0  0  0  0  0  0  0  0  0  0
   -2.9339    0.0826   -0.1944 H   0  0  0  0  0  0  0  0  0  0  0  0
   -2.1933    0.9787   -1.5564 H   0  0  0  0  0  0  0  0  0  0  0  0
   -1.4455    1.5334    0.3897 C   0  0  0  0  0  0  0  0  0  0  0  0
   -1.9639    1.2793    1.3155 H   0  0  0  0  0  0  0  0  0  0  0  0
   -1.8339    2.4620   -0.0297 H   0  0  0  0  0  0  0  0  0  0  0  0
    0.0649    1.6497    0.5946 C   0  0  0  0  0  0  0  0  0  0  0  0
    0.3925    1.3738    1.5989 H   0  0  0  0  0  0  0  0  0  0  0  0
    0.5281    2.5889    0.2924 H   0  0  0  0  0  0  0  0  0  0  0  0
    0.3724    0.5200   -0.4020 C   0  0  1  0  0  0  0  0  0  0  0  0
    0.5167    0.9521   -1.3925 H   0  0  0  0  0  0  0  0  0  0  0  0
    1.6267   -0.2741   -0.0004 C   0  0  0  0  0  0  0  0  0  0  0  0
    2.4361    0.1989    0.7949 O   0  0  0  0  0  0  0  0  0  0  0  0
    1.8041   -1.4658   -0.5834 N   0  0  0  0  0  0  0  0  0  0  0  0
    1.0675   -1.8101   -1.1780 H   0  0  0  0  0  0  0  0  0  0  0  0
    2.9437   -2.3413   -0.3202 C   0  0  0  0  0  0  0  0  0  0  0  0
    2.9155   -2.6733    0.7199 H   0  0  0  0  0  0  0  0  0  0  0  0
    2.9133   -3.2107   -0.9777 H   0  0  0  0  0  0  0  0  0  0  0  0
    3.8752   -1.7951   -0.4842 H   0  0  0  0  0  0  0  0  0  0  0  0
  5  6  2  0  0  0  0
  5  7  1  0  0  0  0
  2  3  1  0  0  0  0
  2  4  1  0  0  0  0
  2  5  1  0  0  0  0
  1  2  1  0  0  0  0
 19 20  2  0  0  0  0
 19 21  1  0  0  0  0
 17 18  1  0  0  0  0
 17 19  1  0  0  0  0
 14 15  1  0  0  0  0
 14 16  1  0  0  0  0
 14 17  1  0  0  0  0
 11 12  1  0  0  0  0
 11 13  1  0  0  0  0
 11 14  1  0  0  0  0
  8  9  1  0  0  0  0
  8 10  1  0  0  0  0
  8 11  1  0  0  0  0
  7  8  1  0  0  0  0
  7 17  1  0  0  0  0
 23 24  1  0  0  0  0
 23 25  1  0  0  0  0
 23 26  1  0  0  0  0
 21 22  1  0  0  0  0
 21 23  1  0  0  0  0
M  END
$$$$
default_name
  -OEChem-01062215323D

 26 26  0     1  0  0  0  0  0999 V2000
   -1.8446   -3.5060   -0.3010 H   0  0  0  0  0  0  0  0  0  0  0  0
   -2.0746   -2.4490   -0.4240 C   0  0  0  0  0  0  0  0  0  0  0  0
   -2.6906   -2.1160    0.4090 H   0  0  0  0  0  0  0  0  0  0  0  0
   -2.5986   -2.2980   -1.3650 H   0  0  0  0  0  0  0  0  0  0  0  0
   -0.7756   -1.6630   -0.4350 C   0  0  0  0  0  0  0  0  0  0  0  0
    0.2844   -2.2800   -0.4550 O   0  0  0  0  0  0  0  0  0  0  0  0
   -0.8246   -0.3180   -0.4350 N   0  0  0  0  0  0  0  0  0  0  0  0
   -2.0106    0.5080   -0.5910 C   0  0  0  0  0  0  0  0  0  0  0  0
   -2.9339    0.0826   -0.1944 H   0  0  0  0  0  0  0  0  0  0  0  0
   -2.1933    0.9787   -1.5564 H   0  0  0  0  0  0  0  0  0  0  0  0
   -1.4455    1.5334    0.3897 C   0  0  0  0  0  0  0  0  0  0  0  0
   -1.9639    1.2793    1.3155 H   0  0  0  0  0  0  0  0  0  0  0  0
   -1.8339    2.4620   -0.0297 H   0  0  0  0  0  0  0  0  0  0  0  0
    0.0649    1.6497    0.5946 C   0  0  0  0  0  0  0  0  0  0  0  0
    0.3925    1.3738    1.5989 H   0  0  0  0  0  0  0  0  0  0  0  0
    0.5281    2.5889    0.2924 H   0  0  0  0  0  0  0  0  0  0  0  0
    0.3724    0.5200   -0.4020 C   0  0  1  0  0  0  0  0  0  0  0  0
    0.5167    0.9521   -1.3925 H   0  0  0  0  0  0  0  0  0  0  0  0
    1.6267   -0.2741   -0.0004 C   0  0  0  0  0  0  0  0  0  0  0  0
    2.2876    0.0587    0.9813 O   0  0  0  0  0  0  0  0  0  0  0  0
    1.9735   -1.3008   -0.7859 N   0  0  0  0  0  0  0  0  0  0  0  0
    1.3485   -1.5475   -1.5366 H   0  0  0  0  0  0  0  0  0  0  0  0
    3.1385   -2.1506   -0.5513 C   0  0  0  0  0  0  0  0  0  0  0  0
    3.0063   -2.7001    0.3832 H   0  0  0  0  0  0  0  0  0  0  0  0
    3.2628   -2.8581   -1.3718 H   0  0  0  0  0  0  0  0  0  0  0  0
    4.0353   -1.5330   -0.4661 H   0  0  0  0  0  0  0  0  0  0  0  0
  5  6  2  0  0  0  0
  5  7  1  0  0  0  0
  2  3  1  0  0  0  0
  2  4  1  0  0  0  0
  2  5  1  0  0  0  0
  1  2  1  0  0  0  0
 19 20  2  0  0  0  0
 19 21  1  0  0  0  0
 17 18  1  0  0  0  0
 17 19  1  0  0  0  0
 14 15  1  0  0  0  0
 14 16  1  0  0  0  0
 14 17  1  0  0  0  0
 11 12  1  0  0  0  0
 11 13  1  0  0  0  0
 11 14  1  0  0  0  0
  8  9  1  0  0  0  0
  8 10  1  0  0  0  0
  8 11  1  0  0  0  0
  7  8  1  0  0  0  0
  7 17  1  0  0  0  0
 23 24  1  0  0  0  0
 23 25  1  0  0  0  0
 23 26  1  0  0  0  0
 21 22  1  0  0  0  0
 21 23  1  0  0  0  0
M  END
$$$$
default_name
  -OEChem-01062215323D

 26 26  0     1  0  0  0  0  0999 V2000
   -1.8446   -3.5060   -0.3010 H   0  0  0  0  0  0  0  0  0  0  0  0
   -2.0746   -2.4490   -0.4240 C   0  0  0  0  0  0  0  0  0  0  0  0
   -2.6906   -2.1160    0.4090 H   0  0  0  0  0  0  0  0  0  0  0  0
   -2.5986   -2.2980   -1.3650 H   0  0  0  0  0  0  0  0  0  0  0  0
   -0.7756   -1.6630   -0.4350 C   0  0  0  0  0  0  0  0  0  0  0  0
    0.2844   -2.2800   -0.4550 O   0  0  0  0  0  0  0  0  0  0  0  0
   -0.8246   -0.3180   -0.4350 N   0  0  0  0  0  0  0  0  0  0  0  0
   -2.0106    0.5080   -0.5910 C   0  0  0  0  0  0  0  0  0  0  0  0
   -2.9339    0.0826   -0.1944 H   0  0  0  0  0  0  0  0  0  0  0  0
   -2.1933    0.9787   -1.5564 H   0  0  0  0  0  0  0  0  0  0  0  0
   -1.4455    1.5334    0.3897 C   0  0  0  0  0  0  0  0  0  0  0  0
   -1.9639    1.2793    1.3155 H   0  0  0  0  0  0  0  0  0  0  0  0
   -1.8339    2.4620   -0.0297 H   0  0  0  0  0  0  0  0  0  0  0  0
    0.0649    1.6497    0.5946 C   0  0  0  0  0  0  0  0  0  0  0  0
    0.3925    1.3738    1.5989 H   0  0  0  0  0  0  0  0  0  0  0  0
    0.5281    2.5889    0.2924 H   0  0  0  0  0  0  0  0  0  0  0  0
    0.3724    0.5200   -0.4020 C   0  0  1  0  0  0  0  0  0  0  0  0
    0.5167    0.9521   -1.3925 H   0  0  0  0  0  0  0  0  0  0  0  0
    1.6267   -0.2741   -0.0004 C   0  0  0  0  0  0  0  0  0  0  0  0
    2.1287   -0.1262    1.1120 O   0  0  0  0  0  0  0  0  0  0  0  0
    2.1529   -1.0873   -0.9242 N   0  0  0  0  0  0  0  0  0  0  0  0
    1.6502   -1.1991   -1.7900 H   0  0  0  0  0  0  0  0  0  0  0  0
    3.3447   -1.9044   -0.7083 C   0  0  0  0  0  0  0  0  0  0  0  0
    3.1409   -2.6487    0.0644 H   0  0  0  0  0  0  0  0  0  0  0  0
    3.6291   -2.4106   -1.6313 H   0  0  0  0  0  0  0  0  0  0  0  0
    4.1699   -1.2729   -0.3720 H   0  0  0  0  0  0  0  0  0  0  0  0
  5  6  2  0  0  0  0
  5  7  1  0  0  0  0
  2  3  1  0  0  0  0
  2  4  1  0  0  0  0
  2  5  1  0  0  0  0
  1  2  1  0  0  0  0
 19 20  2  0  0  0  0
 19 21  1  0  0  0  0
 17 18  1  0  0  0  0
 17 19  1  0  0  0  0
 14 15  1  0  0  0  0
 14 16  1  0  0  0  0
 14 17  1  0  0  0  0
 11 12  1  0  0  0  0
 11 13  1  0  0  0  0
 11 14  1  0  0  0  0
  8  9  1  0  0  0  0
  8 10  1  0  0  0  0
  8 11  1  0  0  0  0
  7  8  1  0  0  0  0
  7 17  1  0  0  0  0
 23 24  1  0  0  0  0
 23 25  1  0  0  0  0
 23 26  1  0  0  0  0
 21 22  1  0  0  0  0
 21 23  1  0  0  0  0
M  END
$$$$
default_name
  -OEChem-01062215323D

 26 26  0     1  0  0  0  0  0999 V2000
   -1.8446   -3.5060   -0.3010 H   0  0  0  0  0  0  0  0  0  0  0  0
   -2.0746   -2.4490   -0.4240 C   0  0  0  0  0  0  0  0  0  0  0  0
   -2.6906   -2.1160    0.4090 H   0  0  0  0  0  0  0  0  0  0  0  0
   -2.5986   -2.2980   -1.3650 H   0  0  0  0  0  0  0  0  0  0  0  0
   -0.7756   -1.6630   -0.4350 C   0  0  0  0  0  0  0  0  0  0  0  0
    0.2844   -2.2800   -0.4550 O   0  0  0  0  0  0  0  0  0  0  0  0
   -0.8246   -0.3180   -0.4350 N   0  0  0  0  0  0  0  0  0  0  0  0
   -2.0106    0.5080   -0.5910 C   0  0  0  0  0  0  0  0  0  0  0  0
   -2.9339    0.0826   -0.1944 H   0  0  0  0  0  0  0  0  0  0  0  0
   -2.1933    0.9787   -1.5564 H   0  0  0  0  0  0  0  0  0  0  0  0
   -1.4455    1.5334    0.3897 C   0  0  0  0  0  0  0  0  0  0  0  0
   -1.9639    1.2793    1.3155 H   0  0  0  0  0  0  0  0  0  0  0  0
   -1.8339    2.4620   -0.0297 H   0  0  0  0  0  0  0  0  0  0  0  0
    0.0649    1.6497    0.5946 C   0  0  0  0  0  0  0  0  0  0  0  0
    0.3925    1.3738    1.5989 H   0  0  0  0  0  0  0  0  0  0  0  0
    0.5281    2.5889    0.2924 H   0  0  0  0  0  0  0  0  0  0  0  0
    0.3724    0.5200   -0.4020 C   0  0  1  0  0  0  0  0  0  0  0  0
    0.5167    0.9521   -1.3925 H   0  0  0  0  0  0  0  0  0  0  0  0
    1.6267   -0.2741   -0.0004 C   0  0  0  0  0  0  0  0  0  0  0  0
    1.9703   -0.3431    1.1780 O   0  0  0  0  0  0  0  0  0  0  0  0
    2.3303   -0.8397   -0.9886 N   0  0  0  0  0  0  0  0  0  0  0  0
    1.9519   -0.7888   -1.9209 H   0  0  0  0  0  0  0  0  0  0  0  0
    3.5481   -1.6195   -0.7804 C   0  0  0  0  0  0  0  0  0  0  0  0
    3.3100   -2.5227   -0.2146 H   0  0  0  0  0  0  0  0  0  0  0  0
    3.9875   -1.8988   -1.7385 H   0  0  0  0  0  0  0  0  0  0  0  0
    4.2696   -1.0323   -0.2081 H   0  0  0  0  0  0  0  0  0  0  0  0
  5  6  2  0  0  0  0
  5  7  1  0  0  0  0
  2  3  1  0  0  0  0
  2  4  1  0  0  0  0
  2  5  1  0  0  0  0
  1  2  1  0  0  0  0
 19 20  2  0  0  0  0
 19 21  1  0  0  0  0
 17 18  1  0  0  0  0
 17 19  1  0  0  0  0
 14 15  1  0  0  0  0
 14 16  1  0  0  0  0
 14 17  1  0  0  0  0
 11 12  1  0  0  0  0
 11 13  1  0  0  0  0
 11 14  1  0  0  0  0
  8  9  1  0  0  0  0
  8 10  1  0  0  0  0
  8 11  1  0  0  0  0
  7  8  1  0  0  0  0
  7 17  1  0  0  0  0
 23 24  1  0  0  0  0
 23 25  1  0  0  0  0
 23 26  1  0  0  0  0
 21 22  1  0  0  0  0
 21 23  1  0  0  0  0
M  END
$$$$
default_name
  -OEChem-01062215323D

 26 26  0     1  0  0  0  0  0999 V2000
   -1.8446   -3.5060   -0.3010 H   0  0  0  0  0  0  0  0  0  0  0  0
   -2.0746   -2.4490   -0.4240 C   0  0  0  0  0  0  0  0  0  0  0  0
   -2.6906   -2.1160    0.4090 H   0  0  0  0  0  0  0  0  0  0  0  0
   -2.5986   -2.2980   -1.3650 H   0  0  0  0  0  0  0  0  0  0  0  0
   -0.7756   -1.6630   -0.4350 C   0  0  0  0  0  0  0  0  0  0  0  0
    0.2844   -2.2800   -0.4550 O   0  0  0  0  0  0  0  0  0  0  0  0
   -0.8246   -0.3180   -0.4350 N   0  0  0  0  0  0  0  0  0  0  0  0
   -2.0106    0.5080   -0.5910 C   0  0  0  0  0  0  0  0  0  0  0  0
   -2.9339    0.0826   -0.1944 H   0  0  0  0  0  0  0  0  0  0  0  0
   -2.1933    0.9787   -1.5564 H   0  0  0  0  0  0  0  0  0  0  0  0
   -1.4455    1.5334    0.3897 C   0  0  0  0  0  0  0  0  0  0  0  0
   -1.9639    1.2793    1.3155 H   0  0  0  0  0  0  0  0  0  0  0  0
   -1.8339    2.4620   -0.0297 H   0  0  0  0  0  0  0  0  0  0  0  0
    0.0649    1.6497    0.5946 C   0  0  0  0  0  0  0  0  0  0  0  0
    0.3925    1.3738    1.5989 H   0  0  0  0  0  0  0  0  0  0  0  0
    0.5281    2.5889    0.2924 H   0  0  0  0  0  0  0  0  0  0  0  0
    0.3724    0.5200   -0.4020 C   0  0  1  0  0  0  0  0  0  0  0  0
    0.5167    0.9521   -1.3925 H   0  0  0  0  0  0  0  0  0  0  0  0
    1.6267   -0.2741   -0.0004 C   0  0  0  0  0  0  0  0  0  0  0  0
    1.8231   -0.5772    1.1747 O   0  0  0  0  0  0  0  0  0  0  0  0
    2.4935   -0.5749   -0.9749 N   0  0  0  0  0  0  0  0  0  0  0  0
    2.2331   -0.3443   -1.9204 H   0  0  0  0  0  0  0  0  0  0  0  0
    3.7350   -1.3153   -0.7627 C   0  0  0  0  0  0  0  0  0  0  0  0
    3.5021   -2.3307   -0.4350 H   0  0  0  0  0  0  0  0  0  0  0  0
    4.3134   -1.3576   -1.6862 H   0  0  0  0  0  0  0  0  0  0  0  0
    4.3279   -0.8279    0.0143 H   0  0  0  0  0  0  0  0  0  0  0  0
  5  6  2  0  0  0  0
  5  7  1  0  0  0  0
  2  3  1  0  0  0  0
  2  4  1  0  0  0  0
  2  5  1  0  0  0  0
  1  2  1  0  0  0  0
 19 20  2  0  0  0  0
 19 21  1  0  0  0  0
 17 18  1  0  0  0  0
 17 19  1  0  0  0  0
 14 15  1  0  0  0  0
 14 16  1  0  0  0  0
 14 17  1  0  0  0  0
 11 12  1  0  0  0  0
 11 13  1  0  0  0  0
 11 14  1  0  0  0  0
  8  9  1  0  0  0  0
  8 10  1  0  0  0  0
  8 11  1  0  0  0  0
  7  8  1  0  0  0  0
  7 17  1  0  0  0  0
 23 24  1  0  0  0  0
 23 25  1  0  0  0  0
 23 26  1  0  0  0  0
 21 22  1  0  0  0  0
 21 23  1  0  0  0  0
M  END
$$$$
default_name
  -OEChem-01062215323D

 26 26  0     1  0  0  0  0  0999 V2000
   -1.8446   -3.5060   -0.3010 H   0  0  0  0  0  0  0  0  0  0  0  0
   -2.0746   -2.4490   -0.4240 C   0  0  0  0  0  0  0  0  0  0  0  0
   -2.6906   -2.1160    0.4090 H   0  0  0  0  0  0  0  0  0  0  0  0
   -2.5986   -2.2980   -1.3650 H   0  0  0  0  0  0  0  0  0  0  0  0
   -0.7756   -1.6630   -0.4350 C   0  0  0  0  0  0  0  0  0  0  0  0
    0.2844   -2.2800   -0.4550 O   0  0  0  0  0  0  0  0  0  0  0  0
   -0.8246   -0.3180   -0.4350 N   0  0  0  0  0  0  0  0  0  0  0  0
   -2.0106    0.5080   -0.5910 C   0  0  0  0  0  0  0  0  0  0  0  0
   -2.9339    0.0826   -0.1944 H   0  0  0  0  0  0  0  0  0  0  0  0
   -2.1933    0.9787   -1.5564 H   0  0  0  0  0  0  0  0  0  0  0  0
   -1.4455    1.5334    0.3897 C   0  0  0  0  0  0  0  0  0  0  0  0
   -1.9639    1.2793    1.3155 H   0  0  0  0  0  0  0  0  0  0  0  0
   -1.8339    2.4620   -0.0297 H   0  0  0  0  0  0  0  0  0  0  0  0
    0.0649    1.6497    0.5946 C   0  0  0  0  0  0  0  0  0  0  0  0
    0.3925    1.3738    1.5989 H   0  0  0  0  0  0  0  0  0  0  0  0
    0.5281    2.5889    0.2924 H   0  0  0  0  0  0  0  0  0  0  0  0
    0.3724    0.5200   -0.4020 C   0  0  1  0  0  0  0  0  0  0  0  0
    0.5167    0.9521   -1.3925 H   0  0  0  0  0  0  0  0  0  0  0  0
    1.6267   -0.2741   -0.0004 C   0  0  0  0  0  0  0  0  0  0  0  0
    1.6972   -0.8126    1.1025 O   0  0  0  0  0  0  0  0  0  0  0  0
    2.6314   -0.3111   -0.8839 N   0  0  0  0  0  0  0  0  0  0  0  0
    2.4746    0.1038   -1.7885 H   0  0  0  0  0  0  0  0  0  0  0  0
    3.8926   -1.0126   -0.6565 C   0  0  0  0  0  0  0  0  0  0  0  0
    3.7042   -2.0857   -0.5816 H   0  0  0  0  0  0  0  0  0  0  0  0
    4.5846   -0.8239   -1.4779 H   0  0  0  0  0  0  0  0  0  0  0  0
    4.3406   -0.6734    0.2801 H   0  0  0  0  0  0  0  0  0  0  0  0
  5  6  2  0  0  0  0
  5  7  1  0  0  0  0
  2  3  1  0  0  0  0
  2  4  1  0  0  0  0
  2  5  1  0  0  0  0
  1  2  1  0  0  0  0
 19 20  2  0  0  0  0
 19 21  1  0  0  0  0
 17 18  1  0  0  0  0
 17 19  1  0  0  0  0
 14 15  1  0  0  0  0
 14 16  1  0  0  0  0
 14 17  1  0  0  0  0
 11 12  1  0  0  0  0
 11 13  1  0  0  0  0
 11 14  1  0  0  0  0
  8  9  1  0  0  0  0
  8 10  1  0  0  0  0
  8 11  1  0  0  0  0
  7  8  1  0  0  0  0
  7 17  1  0  0  0  0
 23 24  1  0  0  0  0
 23 25  1  0  0  0  0
 23 26  1  0  0  0  0
 21 22  1  0  0  0  0
 21 23  1  0  0  0  0
M  END
$$$$
default_name
  -OEChem-01062215323D

 26 26  0     1  0  0  0  0  0999 V2000
   -1.8446   -3.5060   -0.3010 H   0  0  0  0  0  0  0  0  0  0  0  0
   -2.0746   -2.4490   -0.4240 C   0  0  0  0  0  0  0  0  0  0  0  0
   -2.6906   -2.1160    0.4090 H   0  0  0  0  0  0  0  0  0  0  0  0
   -2.5986   -2.2980   -1.3650 H   0  0  0  0  0  0  0  0  0  0  0  0
   -0.7756   -1.6630   -0.4350 C   0  0  0  0  0  0  0  0  0  0  0  0
    0.2844   -2.2800   -0.4550 O   0  0  0  0  0  0  0  0  0  0  0  0
   -0.8246   -0.3180   -0.4350 N   0  0  0  0  0  0  0  0  0  0  0  0
   -2.0106    0.5080   -0.5910 C   0  0  0  0  0  0  0  0  0  0  0  0
   -2.9339    0.0826   -0.1944 H   0  0  0  0  0  0  0  0  0  0  0  0
   -2.1933    0.9787   -1.5564 H   0  0  0  0  0  0  0  0  0  0  0  0
   -1.4455    1.5334    0.3897 C   0  0  0  0  0  0  0  0  0  0  0  0
   -1.9639    1.2793    1.3155 H   0  0  0  0  0  0  0  0  0  0  0  0
   -1.8339    2.4620   -0.0297 H   0  0  0  0  0  0  0  0  0  0  0  0
    0.0649    1.6497    0.5946 C   0  0  0  0  0  0  0  0  0  0  0  0
    0.3925    1.3738    1.5989 H   0  0  0  0  0  0  0  0  0  0  0  0
    0.5281    2.5889    0.2924 H   0  0  0  0  0  0  0  0  0  0  0  0
    0.3724    0.5200   -0.4020 C   0  0  1  0  0  0  0  0  0  0  0  0
    0.5167    0.9521   -1.3925 H   0  0  0  0  0  0  0  0  0  0  0  0
    1.6267   -0.2741   -0.0004 C   0  0  0  0  0  0  0  0  0  0  0  0
    1.6011   -1.0333    0.9662 O   0  0  0  0  0  0  0  0  0  0  0  0
    2.7347   -0.0661   -0.7220 N   0  0  0  0  0  0  0  0  0  0  0  0
    2.6600    0.5252   -1.5342 H   0  0  0  0  0  0  0  0  0  0  0  0
    4.0102   -0.7320   -0.4689 C   0  0  0  0  0  0  0  0  0  0  0  0
    3.9024   -1.8045   -0.6446 H   0  0  0  0  0  0  0  0  0  0  0  0
    4.7826   -0.3340   -1.1278 H   0  0  0  0  0  0  0  0  0  0  0  0
    4.3069   -0.5794    0.5711 H   0  0  0  0  0  0  0  0  0  0  0  0
  5  6  2  0  0  0  0
  5  7  1  0  0  0  0
  2  3  1  0  0  0  0
  2  4  1  0  0  0  0
  2  5  1  0  0  0  0
  1  2  1  0  0  0  0
 19 20  2  0  0  0  0
 19 21  1  0  0  0  0
 17 18  1  0  0  0  0
 17 19  1  0  0  0  0
 14 15  1  0  0  0  0
 14 16  1  0  0  0  0
 14 17  1  0  0  0  0
 11 12  1  0  0  0  0
 11 13  1  0  0  0  0
 11 14  1  0  0  0  0
  8  9  1  0  0  0  0
  8 10  1  0  0  0  0
  8 11  1  0  0  0  0
  7  8  1  0  0  0  0
  7 17  1  0  0  0  0
 23 24  1  0  0  0  0
 23 25  1  0  0  0  0
 23 26  1  0  0  0  0
 21 22  1  0  0  0  0
 21 23  1  0  0  0  0
M  END
$$$$
default_name
  -OEChem-01062215323D

 26 26  0     1  0  0  0  0  0999 V2000
   -1.8446   -3.5060   -0.3010 H   0  0  0  0  0  0  0  0  0  0  0  0
   -2.0746   -2.4490   -0.4240 C   0  0  0  0  0  0  0  0  0  0  0  0
   -2.6906   -2.1160    0.4090 H   0  0  0  0  0  0  0  0  0  0  0  0
   -2.5986   -2.2980   -1.3650 H   0  0  0  0  0  0  0  0  0  0  0  0
   -0.7756   -1.6630   -0.4350 C   0  0  0  0  0  0  0  0  0  0  0  0
    0.2844   -2.2800   -0.4550 O   0  0  0  0  0  0  0  0  0  0  0  0
   -0.8246   -0.3180   -0.4350 N   0  0  0  0  0  0  0  0  0  0  0  0
   -2.0106    0.5080   -0.5910 C   0  0  0  0  0  0  0  0  0  0  0  0
   -2.9339    0.0826   -0.1944 H   0  0  0  0  0  0  0  0  0  0  0  0
   -2.1933    0.9787   -1.5564 H   0  0  0  0  0  0  0  0  0  0  0  0
   -1.4455    1.5334    0.3897 C   0  0  0  0  0  0  0  0  0  0  0  0
   -1.9639    1.2793    1.3155 H   0  0  0  0  0  0  0  0  0  0  0  0
   -1.8339    2.4620   -0.0297 H   0  0  0  0  0  0  0  0  0  0  0  0
    0.0649    1.6497    0.5946 C   0  0  0  0  0  0  0  0  0  0  0  0
    0.3925    1.3738    1.5989 H   0  0  0  0  0  0  0  0  0  0  0  0
    0.5281    2.5889    0.2924 H   0  0  0  0  0  0  0  0  0  0  0  0
    0.3724    0.5200   -0.4020 C   0  0  1  0  0  0  0  0  0  0  0  0
    0.5167    0.9521   -1.3925 H   0  0  0  0  0  0  0  0  0  0  0  0
    1.6267   -0.2741   -0.0004 C   0  0  0  0  0  0  0  0  0  0  0  0
    1.5415   -1.2241    0.7752 O   0  0  0  0  0  0  0  0  0  0  0  0
    2.7962    0.1433   -0.5000 N   0  0  0  0  0  0  0  0  0  0  0  0
    2.7765    0.8910   -1.1749 H   0  0  0  0  0  0  0  0  0  0  0  0
    4.0798   -0.4926   -0.2127 C   0  0  0  0  0  0  0  0  0  0  0  0
    4.0832   -1.5061   -0.6195 H   0  0  0  0  0  0  0  0  0  0  0  0
    4.8940    0.0787   -0.6597 H   0  0  0  0  0  0  0  0  0  0  0  0
    4.2291   -0.5524    0.8675 H   0  0  0  0  0  0  0  0  0  0  0  0
  5  6  2  0  0  0  0
  5  7  1  0  0  0  0
  2  3  1  0  0  0  0
  2  4  1  0  0  0  0
  2  5  1  0  0  0  0
  1  2  1  0  0  0  0
 19 20  2  0  0  0  0
 19 21  1  0  0  0  0
 17 18  1  0  0  0  0
 17 19  1  0  0  0  0
 14 15  1  0  0  0  0
 14 16  1  0  0  0  0
 14 17  1  0  0  0  0
 11 12  1  0  0  0  0
 11 13  1  0  0  0  0
 11 14  1  0  0  0  0
  8  9  1  0  0  0  0
  8 10  1  0  0  0  0
  8 11  1  0  0  0  0
  7  8  1  0  0  0  0
  7 17  1  0  0  0  0
 23 24  1  0  0  0  0
 23 25  1  0  0  0  0
 23 26  1  0  0  0  0
 21 22  1  0  0  0  0
 21 23  1  0  0  0  0
M  END
$$$$
default_name
  -OEChem-01062215323D

 26 26  0     1  0  0  0  0  0999 V2000
   -1.8446   -3.5060   -0.3010 H   0  0  0  0  0  0  0  0  0  0  0  0
   -2.0746   -2.4490   -0.4240 C   0  0  0  0  0  0  0  0  0  0  0  0
   -2.6906   -2.1160    0.4090 H   0  0  0  0  0  0  0  0  0  0  0  0
   -2.5986   -2.2980   -1.3650 H   0  0  0  0  0  0  0  0  0  0  0  0
   -0.7756   -1.6630   -0.4350 C   0  0  0  0  0  0  0  0  0  0  0  0
    0.2844   -2.2800   -0.4550 O   0  0  0  0  0  0  0  0  0  0  0  0
   -0.8246   -0.3180   -0.4350 N   0  0  0  0  0  0  0  0  0  0  0  0
   -2.0106    0.5080   -0.5910 C   0  0  0  0  0  0  0  0  0  0  0  0
   -2.9339    0.0826   -0.1944 H   0  0  0  0  0  0  0  0  0  0  0  0
   -2.1933    0.9787   -1.5564 H   0  0  0  0  0  0  0  0  0  0  0  0
   -1.4455    1.5334    0.3897 C   0  0  0  0  0  0  0  0  0  0  0  0
   -1.9639    1.2793    1.3155 H   0  0  0  0  0  0  0  0  0  0  0  0
   -1.8339    2.4620   -0.0297 H   0  0  0  0  0  0  0  0  0  0  0  0
    0.0649    1.6497    0.5946 C   0  0  0  0  0  0  0  0  0  0  0  0
    0.3925    1.3738    1.5989 H   0  0  0  0  0  0  0  0  0  0  0  0
    0.5281    2.5889    0.2924 H   0  0  0  0  0  0  0  0  0  0  0  0
    0.3724    0.5200   -0.4020 C   0  0  1  0  0  0  0  0  0  0  0  0
    0.5167    0.9521   -1.3925 H   0  0  0  0  0  0  0  0  0  0  0  0
    1.6267   -0.2741   -0.0004 C   0  0  0  0  0  0  0  0  0  0  0  0
    1.5223   -1.3722    0.5424 O   0  0  0  0  0  0  0  0  0  0  0  0
    2.8118    0.3029   -0.2331 N   0  0  0  0  0  0  0  0  0  0  0  0
    2.8164    1.1765   -0.7350 H   0  0  0  0  0  0  0  0  0  0  0  0
    4.0965   -0.3107    0.0945 C   0  0  0  0  0  0  0  0  0  0  0  0
    4.2344   -1.2110   -0.5081 H   0  0  0  0  0  0  0  0  0  0  0  0
    4.9112    0.3860   -0.1056 H   0  0  0  0  0  0  0  0  0  0  0  0
    4.1125   -0.5941    1.1492 H   0  0  0  0  0  0  0  0  0  0  0  0
  5  6  2  0  0  0  0
  5  7  1  0  0  0  0
  2  3  1  0  0  0  0
  2  4  1  0  0  0  0
  2  5  1  0  0  0  0
  1  2  1  0  0  0  0
 19 20  2  0  0  0  0
 19 21  1  0  0  0  0
 17 18  1  0  0  0  0
 17 19  1  0  0  0  0
 14 15  1  0  0  0  0
 14 16  1  0  0  0  0
 14 17  1  0  0  0  0
 11 12  1  0  0  0  0
 11 13  1  0  0  0  0
 11 14  1  0  0  0  0
  8  9  1  0  0  0  0
  8 10  1  0  0  0  0
  8 11  1  0  0  0  0
  7  8  1  0  0  0  0
  7 17  1  0  0  0  0
 23 24  1  0  0  0  0
 23 25  1  0  0  0  0
 23 26  1  0  0  0  0
 21 22  1  0  0  0  0
 21 23  1  0  0  0  0
M  END
$$$$
default_name
  -OEChem-01062215323D

 26 26  0     1  0  0  0  0  0999 V2000
   -1.8446   -3.5060   -0.3010 H   0  0  0  0  0  0  0  0  0  0  0  0
   -2.0746   -2.4490   -0.4240 C   0  0  0  0  0  0  0  0  0  0  0  0
   -2.6906   -2.1160    0.4090 H   0  0  0  0  0  0  0  0  0  0  0  0
   -2.5986   -2.2980   -1.3650 H   0  0  0  0  0  0  0  0  0  0  0  0
   -0.7756   -1.6630   -0.4350 C   0  0  0  0  0  0  0  0  0  0  0  0
    0.2844   -2.2800   -0.4550 O   0  0  0  0  0  0  0  0  0  0  0  0
   -0.8246   -0.3180   -0.4350 N   0  0  0  0  0  0  0  0  0  0  0  0
   -2.0106    0.5080   -0.5910 C   0  0  0  0  0  0  0  0  0  0  0  0
   -2.9849    0.1472   -0.2574 H   0  0  0  0  0  0  0  0  0  0  0  0
   -2.1300    1.2488   -1.3808 H   0  0  0  0  0  0  0  0  0  0  0  0
   -1.2499    1.1180    0.5845 C   0  0  0  0  0  0  0  0  0  0  0  0
   -1.6680    0.4319    1.3227 H   0  0  0  0  0  0  0  0  0  0  0  0
   -1.8104    2.0531    0.5632 H   0  0  0  0  0  0  0  0  0  0  0  0
    0.2284    1.4064    0.8460 C   0  0  0  0  0  0  0  0  0  0  0  0
    0.6992    0.9315    1.7091 H   0  0  0  0  0  0  0  0  0  0  0  0
    0.6508    2.3981    0.6852 H   0  0  0  0  0  0  0  0  0  0  0  0
    0.3724    0.5200   -0.4020 C   0  0  1  0  0  0  0  0  0  0  0  0
    0.3718    1.1549   -1.2883 H   0  0  0  0  0  0  0  0  0  0  0  0
    1.6644   -0.3135   -0.3680 C   0  0  0  0  0  0  0  0  0  0  0  0
    1.6137   -1.5413   -0.3351 O   0  0  0  0  0  0  0  0  0  0  0  0
    2.8211    0.3593   -0.3363 N   0  0  0  0  0  0  0  0  0  0  0  0
    2.7818    1.3620   -0.4263 H   0  0  0  0  0  0  0  0  0  0  0  0
    4.1350   -0.2782   -0.2940 C   0  0  0  0  0  0  0  0  0  0  0  0
    4.2987   -0.8368   -1.2180 H   0  0  0  0  0  0  0  0  0  0  0  0
    4.9173    0.4733   -0.1829 H   0  0  0  0  0  0  0  0  0  0  0  0
    4.1805   -0.9757    0.5452 H   0  0  0  0  0  0  0  0  0  0  0  0
  5  6  2  0  0  0  0
  5  7  1  0  0  0  0
  2  3  1  0  0  0  0
  2  4  1  0  0  0  0
  2  5  1  0  0  0  0
  1  2  1  0  0  0  0
 19 20  2  0  0  0  0
 19 21  1  0  0  0  0
 17 18  1  0  0  0  0
 17 19  1  0  0  0  0
 14 15  1  0  0  0  0
 14 16  1  0  0  0  0
 14 17  1  0  0  0  0
 11 12  1  0  0  0  0
 11 13  1  0  0  0  0
 11 14  1  0  0  0  0
  8  9  1  0  0  0  0
  8 10  1  0  0  0  0
  8 11  1  0  0  0  0
  7  8  1  0  0  0  0
  7 17  1  0  0  0  0
 23 24  1  0  0  0  0
 23 25  1  0  0  0  0
 23 26  1  0  0  0  0
 21 22  1  0  0  0  0
 21 23  1  0  0  0  0
M  END
$$$$
default_name
  -OEChem-01062215323D

 26 26  0     1  0  0  0  0  0999 V2000
   -1.8446   -3.5060   -0.3010 H   0  0  0  0  0  0  0  0  0  0  0  0
   -2.0746   -2.4490   -0.4240 C   0  0  0  0  0  0  0  0  0  0  0  0
   -2.6906   -2.1160    0.4090 H   0  0  0  0  0  0  0  0  0  0  0  0
   -2.5986   -2.2980   -1.3650 H   0  0  0  0  0  0  0  0  0  0  0  0
   -0.7756   -1.6630   -0.4350 C   0  0  0  0  0  0  0  0  0  0  0  0
    0.2844   -2.2800   -0.4550 O   0  0  0  0  0  0  0  0  0  0  0  0
   -0.8246   -0.3180   -0.4350 N   0  0  0  0  0  0  0  0  0  0  0  0
   -2.0106    0.5080   -0.5910 C   0  0  0  0  0  0  0  0  0  0  0  0
   -2.9849    0.1472   -0.2574 H   0  0  0  0  0  0  0  0  0  0  0  0
   -2.1300    1.2488   -1.3808 H   0  0  0  0  0  0  0  0  0  0  0  0
   -1.2499    1.1180    0.5845 C   0  0  0  0  0  0  0  0  0  0  0  0
   -1.6680    0.4319    1.3227 H   0  0  0  0  0  0  0  0  0  0  0  0
   -1.8104    2.0531    0.5632 H   0  0  0  0  0  0  0  0  0  0  0  0
    0.2284    1.4064    0.8460 C   0  0  0  0  0  0  0  0  0  0  0  0
    0.6992    0.9315    1.7091 H   0  0  0  0  0  0  0  0  0  0  0  0
    0.6508    2.3981    0.6852 H   0  0  0  0  0  0  0  0  0  0  0  0
    0.3724    0.5200   -0.4020 C   0  0  1  0  0  0  0  0  0  0  0  0
    0.3718    1.1549   -1.2883 H   0  0  0  0  0  0  0  0  0  0  0  0
    1.6644   -0.3135   -0.3680 C   0  0  0  0  0  0  0  0  0  0  0  0
    1.6357   -1.5185   -0.6098 O   0  0  0  0  0  0  0  0  0  0  0  0
    2.7908    0.3249   -0.0284 N   0  0  0  0  0  0  0  0  0  0  0  0
    2.7432    1.3234    0.0968 H   0  0  0  0  0  0  0  0  0  0  0  0
    4.0991   -0.3194    0.0593 C   0  0  0  0  0  0  0  0  0  0  0  0
    4.4021   -0.6649   -0.9314 H   0  0  0  0  0  0  0  0  0  0  0  0
    4.8421    0.3821    0.4399 H   0  0  0  0  0  0  0  0  0  0  0  0
    4.0418   -1.1834    0.7249 H   0  0  0  0  0  0  0  0  0  0  0  0
  5  6  2  0  0  0  0
  5  7  1  0  0  0  0
  2  3  1  0  0  0  0
  2  4  1  0  0  0  0
  2  5  1  0  0  0  0
  1  2  1  0  0  0  0
 19 20  2  0  0  0  0
 19 21  1  0  0  0  0
 17 18  1  0  0  0  0
 17 19  1  0  0  0  0
 14 15  1  0  0  0  0
 14 16  1  0  0  0  0
 14 17  1  0  0  0  0
 11 12  1  0  0  0  0
 11 13  1  0  0  0  0
 11 14  1  0  0  0  0
  8  9  1  0  0  0  0
  8 10  1  0  0  0  0
  8 11  1  0  0  0  0
  7  8  1  0  0  0  0
  7 17  1  0  0  0  0
 23 24  1  0  0  0  0
 23 25  1  0  0  0  0
 23 26  1  0  0  0  0
 21 22  1  0  0  0  0
 21 23  1  0  0  0  0
M  END
$$$$
default_name
  -OEChem-01062215323D

 26 26  0     1  0  0  0  0  0999 V2000
   -1.8446   -3.5060   -0.3010 H   0  0  0  0  0  0  0  0  0  0  0  0
   -2.0746   -2.4490   -0.4240 C   0  0  0  0  0  0  0  0  0  0  0  0
   -2.6906   -2.1160    0.4090 H   0  0  0  0  0  0  0  0  0  0  0  0
   -2.5986   -2.2980   -1.3650 H   0  0  0  0  0  0  0  0  0  0  0  0
   -0.7756   -1.6630   -0.4350 C   0  0  0  0  0  0  0  0  0  0  0  0
    0.2844   -2.2800   -0.4550 O   0  0  0  0  0  0  0  0  0  0  0  0
   -0.8246   -0.3180   -0.4350 N   0  0  0  0  0  0  0  0  0  0  0  0
   -2.0106    0.5080   -0.5910 C   0  0  0  0  0  0  0  0  0  0  0  0
   -2.9849    0.1472   -0.2574 H   0  0  0  0  0  0  0  0  0  0  0  0
   -2.1300    1.2488   -1.3808 H   0  0  0  0  0  0  0  0  0  0  0  0
   -1.2499    1.1180    0.5845 C   0  0  0  0  0  0  0  0  0  0  0  0
   -1.6680    0.4319    1.3227 H   0  0  0  0  0  0  0  0  0  0  0  0
   -1.8104    2.0531    0.5632 H   0  0  0  0  0  0  0  0  0  0  0  0
    0.2284    1.4064    0.8460 C   0  0  0  0  0  0  0  0  0  0  0  0
    0.6992    0.9315    1.7091 H   0  0  0  0  0  0  0  0  0  0  0  0
    0.6508    2.3981    0.6852 H   0  0  0  0  0  0  0  0  0  0  0  0
    0.3724    0.5200   -0.4020 C   0  0  1  0  0  0  0  0  0  0  0  0
    0.3718    1.1549   -1.2883 H   0  0  0  0  0  0  0  0  0  0  0  0
    1.6644   -0.3135   -0.3680 C   0  0  0  0  0  0  0  0  0  0  0  0
    1.6953   -1.4365   -0.8672 O   0  0  0  0  0  0  0  0  0  0  0  0
    2.7185    0.2245    0.2573 N   0  0  0  0  0  0  0  0  0  0  0  0
    2.6328    1.1721    0.5882 H   0  0  0  0  0  0  0  0  0  0  0  0
    4.0152   -0.4362    0.3865 C   0  0  0  0  0  0  0  0  0  0  0  0
    4.4608   -0.5606   -0.6028 H   0  0  0  0  0  0  0  0  0  0  0  0
    4.6827    0.1582    1.0111 H   0  0  0  0  0  0  0  0  0  0  0  0
    3.8838   -1.4239    0.8339 H   0  0  0  0  0  0  0  0  0  0  0  0
  5  6  2  0  0  0  0
  5  7  1  0  0  0  0
  2  3  1  0  0  0  0
  2  4  1  0  0  0  0
  2  5  1  0  0  0  0
  1  2  1  0  0  0  0
 19 20  2  0  0  0  0
 19 21  1  0  0  0  0
 17 18  1  0  0  0  0
 17 19  1  0  0  0  0
 14 15  1  0  0  0  0
 14 16  1  0  0  0  0
 14 17  1  0  0  0  0
 11 12  1  0  0  0  0
 11 13  1  0  0  0  0
 11 14  1  0  0  0  0
  8  9  1  0  0  0  0
  8 10  1  0  0  0  0
  8 11  1  0  0  0  0
  7  8  1  0  0  0  0
  7 17  1  0  0  0  0
 23 24  1  0  0  0  0
 23 25  1  0  0  0  0
 23 26  1  0  0  0  0
 21 22  1  0  0  0  0
 21 23  1  0  0  0  0
M  END
$$$$
default_name
  -OEChem-01062215323D

 26 26  0     1  0  0  0  0  0999 V2000
   -1.8446   -3.5060   -0.3010 H   0  0  0  0  0  0  0  0  0  0  0  0
   -2.0746   -2.4490   -0.4240 C   0  0  0  0  0  0  0  0  0  0  0  0
   -2.6906   -2.1160    0.4090 H   0  0  0  0  0  0  0  0  0  0  0  0
   -2.5986   -2.2980   -1.3650 H   0  0  0  0  0  0  0  0  0  0  0  0
   -0.7756   -1.6630   -0.4350 C   0  0  0  0  0  0  0  0  0  0  0  0
    0.2844   -2.2800   -0.4550 O   0  0  0  0  0  0  0  0  0  0  0  0
   -0.8246   -0.3180   -0.4350 N   0  0  0  0  0  0  0  0  0  0  0  0
   -2.0106    0.5080   -0.5910 C   0  0  0  0  0  0  0  0  0  0  0  0
   -2.9849    0.1472   -0.2574 H   0  0  0  0  0  0  0  0  0  0  0  0
   -2.1300    1.2488   -1.3808 H   0  0  0  0  0  0  0  0  0  0  0  0
   -1.2499    1.1180    0.5845 C   0  0  0  0  0  0  0  0  0  0  0  0
   -1.6680    0.4319    1.3227 H   0  0  0  0  0  0  0  0  0  0  0  0
   -1.8104    2.0531    0.5632 H   0  0  0  0  0  0  0  0  0  0  0  0
    0.2284    1.4064    0.8460 C   0  0  0  0  0  0  0  0  0  0  0  0
    0.6992    0.9315    1.7091 H   0  0  0  0  0  0  0  0  0  0  0  0
    0.6508    2.3981    0.6852 H   0  0  0  0  0  0  0  0  0  0  0  0
    0.3724    0.5200   -0.4020 C   0  0  1  0  0  0  0  0  0  0  0  0
    0.3718    1.1549   -1.2883 H   0  0  0  0  0  0  0  0  0  0  0  0
    1.6644   -0.3135   -0.3680 C   0  0  0  0  0  0  0  0  0  0  0  0
    1.7885   -1.3011   -1.0896 O   0  0  0  0  0  0  0  0  0  0  0  0
    2.6092    0.0650    0.5013 N   0  0  0  0  0  0  0  0  0  0  0  0
    2.4580    0.9186    1.0145 H   0  0  0  0  0  0  0  0  0  0  0  0
    3.8888   -0.6207    0.6654 C   0  0  0  0  0  0  0  0  0  0  0  0
    4.4708   -0.5309   -0.2544 H   0  0  0  0  0  0  0  0  0  0  0  0
    4.4498   -0.1832    1.4918 H   0  0  0  0  0  0  0  0  0  0  0  0
    3.7173   -1.6808    0.8646 H   0  0  0  0  0  0  0  0  0  0  0  0
  5  6  2  0  0  0  0
  5  7  1  0  0  0  0
  2  3  1  0  0  0  0
  2  4  1  0  0  0  0
  2  5  1  0  0  0  0
  1  2  1  0  0  0  0
 19 20  2  0  0  0  0
 19 21  1  0  0  0  0
 17 18  1  0  0  0  0
 17 19  1  0  0  0  0
 14 15  1  0  0  0  0
 14 16  1  0  0  0  0
 14 17  1  0  0  0  0
 11 12  1  0  0  0  0
 11 13  1  0  0  0  0
 11 14  1  0  0  0  0
  8  9  1  0  0  0  0
  8 10  1  0  0  0  0
  8 11  1  0  0  0  0
  7  8  1  0  0  0  0
  7 17  1  0  0  0  0
 23 24  1  0  0  0  0
 23 25  1  0  0  0  0
 23 26  1  0  0  0  0
 21 22  1  0  0  0  0
 21 23  1  0  0  0  0
M  END
$$$$
default_name
  -OEChem-01062215323D

 26 26  0     1  0  0  0  0  0999 V2000
   -1.8446   -3.5060   -0.3010 H   0  0  0  0  0  0  0  0  0  0  0  0
   -2.0746   -2.4490   -0.4240 C   0  0  0  0  0  0  0  0  0  0  0  0
   -2.6906   -2.1160    0.4090 H   0  0  0  0  0  0  0  0  0  0  0  0
   -2.5986   -2.2980   -1.3650 H   0  0  0  0  0  0  0  0  0  0  0  0
   -0.7756   -1.6630   -0.4350 C   0  0  0  0  0  0  0  0  0  0  0  0
    0.2844   -2.2800   -0.4550 O   0  0  0  0  0  0  0  0  0  0  0  0
   -0.8246   -0.3180   -0.4350 N   0  0  0  0  0  0  0  0  0  0  0  0
   -2.0106    0.5080   -0.5910 C   0  0  0  0  0  0  0  0  0  0  0  0
   -2.9849    0.1472   -0.2574 H   0  0  0  0  0  0  0  0  0  0  0  0
   -2.1300    1.2488   -1.3808 H   0  0  0  0  0  0  0  0  0  0  0  0
   -1.2499    1.1180    0.5845 C   0  0  0  0  0  0  0  0  0  0  0  0
   -1.6680    0.4319    1.3227 H   0  0  0  0  0  0  0  0  0  0  0  0
   -1.8104    2.0531    0.5632 H   0  0  0  0  0  0  0  0  0  0  0  0
    0.2284    1.4064    0.8460 C   0  0  0  0  0  0  0  0  0  0  0  0
    0.6992    0.9315    1.7091 H   0  0  0  0  0  0  0  0  0  0  0  0
    0.6508    2.3981    0.6852 H   0  0  0  0  0  0  0  0  0  0  0  0
    0.3724    0.5200   -0.4020 C   0  0  1  0  0  0  0  0  0  0  0  0
    0.3718    1.1549   -1.2883 H   0  0  0  0  0  0  0  0  0  0  0  0
    1.6644   -0.3135   -0.3680 C   0  0  0  0  0  0  0  0  0  0  0  0
    1.9090   -1.1213   -1.2618 O   0  0  0  0  0  0  0  0  0  0  0  0
    2.4703   -0.1428    0.6869 N   0  0  0  0  0  0  0  0  0  0  0  0
    2.2308    0.5800    1.3466 H   0  0  0  0  0  0  0  0  0  0  0  0
    3.7288   -0.8602    0.8769 C   0  0  0  0  0  0  0  0  0  0  0  0
    4.4314   -0.5780    0.0899 H   0  0  0  0  0  0  0  0  0  0  0  0
    4.1594   -0.6188    1.8492 H   0  0  0  0  0  0  0  0  0  0  0  0
    3.5536   -1.9365    0.8152 H   0  0  0  0  0  0  0  0  0  0  0  0
  5  6  2  0  0  0  0
  5  7  1  0  0  0  0
  2  3  1  0  0  0  0
  2  4  1  0  0  0  0
  2  5  1  0  0  0  0
  1  2  1  0  0  0  0
 19 20  2  0  0  0  0
 19 21  1  0  0  0  0
 17 18  1  0  0  0  0
 17 19  1  0  0  0  0
 14 15  1  0  0  0  0
 14 16  1  0  0  0  0
 14 17  1  0  0  0  0
 11 12  1  0  0  0  0
 11 13  1  0  0  0  0
 11 14  1  0  0  0  0
  8  9  1  0  0  0  0
  8 10  1  0  0  0  0
  8 11  1  0  0  0  0
  7  8  1  0  0  0  0
  7 17  1  0  0  0  0
 23 24  1  0  0  0  0
 23 25  1  0  0  0  0
 23 26  1  0  0  0  0
 21 22  1  0  0  0  0
 21 23  1  0  0  0  0
M  END
$$$$
default_name
  -OEChem-01062215323D

 26 26  0     1  0  0  0  0  0999 V2000
   -1.8446   -3.5060   -0.3010 H   0  0  0  0  0  0  0  0  0  0  0  0
   -2.0746   -2.4490   -0.4240 C   0  0  0  0  0  0  0  0  0  0  0  0
   -2.6906   -2.1160    0.4090 H   0  0  0  0  0  0  0  0  0  0  0  0
   -2.5986   -2.2980   -1.3650 H   0  0  0  0  0  0  0  0  0  0  0  0
   -0.7756   -1.6630   -0.4350 C   0  0  0  0  0  0  0  0  0  0  0  0
    0.2844   -2.2800   -0.4550 O   0  0  0  0  0  0  0  0  0  0  0  0
   -0.8246   -0.3180   -0.4350 N   0  0  0  0  0  0  0  0  0  0  0  0
   -2.0106    0.5080   -0.5910 C   0  0  0  0  0  0  0  0  0  0  0  0
   -2.9849    0.1472   -0.2574 H   0  0  0  0  0  0  0  0  0  0  0  0
   -2.1300    1.2488   -1.3808 H   0  0  0  0  0  0  0  0  0  0  0  0
   -1.2499    1.1180    0.5845 C   0  0  0  0  0  0  0  0  0  0  0  0
   -1.6680    0.4319    1.3227 H   0  0  0  0  0  0  0  0  0  0  0  0
   -1.8104    2.0531    0.5632 H   0  0  0  0  0  0  0  0  0  0  0  0
    0.2284    1.4064    0.8460 C   0  0  0  0  0  0  0  0  0  0  0  0
    0.6992    0.9315    1.7091 H   0  0  0  0  0  0  0  0  0  0  0  0
    0.6508    2.3981    0.6852 H   0  0  0  0  0  0  0  0  0  0  0  0
    0.3724    0.5200   -0.4020 C   0  0  1  0  0  0  0  0  0  0  0  0
    0.3718    1.1549   -1.2883 H   0  0  0  0  0  0  0  0  0  0  0  0
    1.6644   -0.3135   -0.3680 C   0  0  0  0  0  0  0  0  0  0  0  0
    2.0485   -0.9096   -1.3723 O   0  0  0  0  0  0  0  0  0  0  0  0
    2.3113   -0.3846    0.8016 N   0  0  0  0  0  0  0  0  0  0  0  0
    1.9668    0.1794    1.5619 H   0  0  0  0  0  0  0  0  0  0  0  0
    3.5458   -1.1385    1.0067 C   0  0  0  0  0  0  0  0  0  0  0  0
    4.3453   -0.6985    0.4068 H   0  0  0  0  0  0  0  0  0  0  0  0
    3.8313   -1.1189    2.0590 H   0  0  0  0  0  0  0  0  0  0  0  0
    3.4039   -2.1738    0.6888 H   0  0  0  0  0  0  0  0  0  0  0  0
  5  6  2  0  0  0  0
  5  7  1  0  0  0  0
  2  3  1  0  0  0  0
  2  4  1  0  0  0  0
  2  5  1  0  0  0  0
  1  2  1  0  0  0  0
 19 20  2  0  0  0  0
 19 21  1  0  0  0  0
 17 18  1  0  0  0  0
 17 19  1  0  0  0  0
 14 15  1  0  0  0  0
 14 16  1  0  0  0  0
 14 17  1  0  0  0  0
 11 12  1  0  0  0  0
 11 13  1  0  0  0  0
 11 14  1  0  0  0  0
  8  9  1  0  0  0  0
  8 10  1  0  0  0  0
  8 11  1  0  0  0  0
  7  8  1  0  0  0  0
  7 17  1  0  0  0  0
 23 24  1  0  0  0  0
 23 25  1  0  0  0  0
 23 26  1  0  0  0  0
 21 22  1  0  0  0  0
 21 23  1  0  0  0  0
M  END
$$$$
default_name
  -OEChem-01062215323D

 26 26  0     1  0  0  0  0  0999 V2000
   -1.8446   -3.5060   -0.3010 H   0  0  0  0  0  0  0  0  0  0  0  0
   -2.0746   -2.4490   -0.4240 C   0  0  0  0  0  0  0  0  0  0  0  0
   -2.6906   -2.1160    0.4090 H   0  0  0  0  0  0  0  0  0  0  0  0
   -2.5986   -2.2980   -1.3650 H   0  0  0  0  0  0  0  0  0  0  0  0
   -0.7756   -1.6630   -0.4350 C   0  0  0  0  0  0  0  0  0  0  0  0
    0.2844   -2.2800   -0.4550 O   0  0  0  0  0  0  0  0  0  0  0  0
   -0.8246   -0.3180   -0.4350 N   0  0  0  0  0  0  0  0  0  0  0  0
   -2.0106    0.5080   -0.5910 C   0  0  0  0  0  0  0  0  0  0  0  0
   -2.9849    0.1472   -0.2574 H   0  0  0  0  0  0  0  0  0  0  0  0
   -2.1300    1.2488   -1.3808 H   0  0  0  0  0  0  0  0  0  0  0  0
   -1.2499    1.1180    0.5845 C   0  0  0  0  0  0  0  0  0  0  0  0
   -1.6680    0.4319    1.3227 H   0  0  0  0  0  0  0  0  0  0  0  0
   -1.8104    2.0531    0.5632 H   0  0  0  0  0  0  0  0  0  0  0  0
    0.2284    1.4064    0.8460 C   0  0  0  0  0  0  0  0  0  0  0  0
    0.6992    0.9315    1.7091 H   0  0  0  0  0  0  0  0  0  0  0  0
    0.6508    2.3981    0.6852 H   0  0  0  0  0  0  0  0  0  0  0  0
    0.3724    0.5200   -0.4020 C   0  0  1  0  0  0  0  0  0  0  0  0
    0.3718    1.1549   -1.2883 H   0  0  0  0  0  0  0  0  0  0  0  0
    1.6644   -0.3135   -0.3680 C   0  0  0  0  0  0  0  0  0  0  0  0
    2.1975   -0.6802   -1.4133 O   0  0  0  0  0  0  0  0  0  0  0  0
    2.1430   -0.6440    0.8375 N   0  0  0  0  0  0  0  0  0  0  0  0
    1.6838   -0.2559    1.6458 H   0  0  0  0  0  0  0  0  0  0  0  0
    3.3525   -1.4366    1.0459 C   0  0  0  0  0  0  0  0  0  0  0  0
    4.2184   -0.8843    0.6746 H   0  0  0  0  0  0  0  0  0  0  0  0
    3.4877   -1.6495    2.1068 H   0  0  0  0  0  0  0  0  0  0  0  0
    3.2783   -2.3763    0.4942 H   0  0  0  0  0  0  0  0  0  0  0  0
  5  6  2  0  0  0  0
  5  7  1  0  0  0  0
  2  3  1  0  0  0  0
  2  4  1  0  0  0  0
  2  5  1  0  0  0  0
  1  2  1  0  0  0  0
 19 20  2  0  0  0  0
 19 21  1  0  0  0  0
 17 18  1  0  0  0  0
 17 19  1  0  0  0  0
 14 15  1  0  0  0  0
 14 16  1  0  0  0  0
 14 17  1  0  0  0  0
 11 12  1  0  0  0  0
 11 13  1  0  0  0  0
 11 14  1  0  0  0  0
  8  9  1  0  0  0  0
  8 10  1  0  0  0  0
  8 11  1  0  0  0  0
  7  8  1  0  0  0  0
  7 17  1  0  0  0  0
 23 24  1  0  0  0  0
 23 25  1  0  0  0  0
 23 26  1  0  0  0  0
 21 22  1  0  0  0  0
 21 23  1  0  0  0  0
M  END
$$$$
default_name
  -OEChem-01062215323D

 26 26  0     1  0  0  0  0  0999 V2000
   -1.8446   -3.5060   -0.3010 H   0  0  0  0  0  0  0  0  0  0  0  0
   -2.0746   -2.4490   -0.4240 C   0  0  0  0  0  0  0  0  0  0  0  0
   -2.6906   -2.1160    0.4090 H   0  0  0  0  0  0  0  0  0  0  0  0
   -2.5986   -2.2980   -1.3650 H   0  0  0  0  0  0  0  0  0  0  0  0
   -0.7756   -1.6630   -0.4350 C   0  0  0  0  0  0  0  0  0  0  0  0
    0.2844   -2.2800   -0.4550 O   0  0  0  0  0  0  0  0  0  0  0  0
   -0.8246   -0.3180   -0.4350 N   0  0  0  0  0  0  0  0  0  0  0  0
   -2.0106    0.5080   -0.5910 C   0  0  0  0  0  0  0  0  0  0  0  0
   -2.9849    0.1472   -0.2574 H   0  0  0  0  0  0  0  0  0  0  0  0
   -2.1300    1.2488   -1.3808 H   0  0  0  0  0  0  0  0  0  0  0  0
   -1.2499    1.1180    0.5845 C   0  0  0  0  0  0  0  0  0  0  0  0
   -1.6680    0.4319    1.3227 H   0  0  0  0  0  0  0  0  0  0  0  0
   -1.8104    2.0531    0.5632 H   0  0  0  0  0  0  0  0  0  0  0  0
    0.2284    1.4064    0.8460 C   0  0  0  0  0  0  0  0  0  0  0  0
    0.6992    0.9315    1.7091 H   0  0  0  0  0  0  0  0  0  0  0  0
    0.6508    2.3981    0.6852 H   0  0  0  0  0  0  0  0  0  0  0  0
    0.3724    0.5200   -0.4020 C   0  0  1  0  0  0  0  0  0  0  0  0
    0.3718    1.1549   -1.2883 H   0  0  0  0  0  0  0  0  0  0  0  0
    1.6644   -0.3135   -0.3680 C   0  0  0  0  0  0  0  0  0  0  0  0
    2.3459   -0.4489   -1.3822 O   0  0  0  0  0  0  0  0  0  0  0  0
    1.9769   -0.9034    0.7921 N   0  0  0  0  0  0  0  0  0  0  0  0
    1.4012   -0.6961    1.5924 H   0  0  0  0  0  0  0  0  0  0  0  0
    3.1620   -1.7342    0.9919 C   0  0  0  0  0  0  0  0  0  0  0  0
    4.0593   -1.1228    0.8751 H   0  0  0  0  0  0  0  0  0  0  0  0
    3.1522   -2.1743    1.9895 H   0  0  0  0  0  0  0  0  0  0  0  0
    3.1855   -2.5303    0.2445 H   0  0  0  0  0  0  0  0  0  0  0  0
  5  6  2  0  0  0  0
  5  7  1  0  0  0  0
  2  3  1  0  0  0  0
  2  4  1  0  0  0  0
  2  5  1  0  0  0  0
  1  2  1  0  0  0  0
 19 20  2  0  0  0  0
 19 21  1  0  0  0  0
 17 18  1  0  0  0  0
 17 19  1  0  0  0  0
 14 15  1  0  0  0  0
 14 16  1  0  0  0  0
 14 17  1  0  0  0  0
 11 12  1  0  0  0  0
 11 13  1  0  0  0  0
 11 14  1  0  0  0  0
  8  9  1  0  0  0  0
  8 10  1  0  0  0  0
  8 11  1  0  0  0  0
  7  8  1  0  0  0  0
  7 17  1  0  0  0  0
 23 24  1  0  0  0  0
 23 25  1  0  0  0  0
 23 26  1  0  0  0  0
 21 22  1  0  0  0  0
 21 23  1  0  0  0  0
M  END
$$$$
default_name
  -OEChem-01062215323D

 26 26  0     1  0  0  0  0  0999 V2000
   -1.8446   -3.5060   -0.3010 H   0  0  0  0  0  0  0  0  0  0  0  0
   -2.0746   -2.4490   -0.4240 C   0  0  0  0  0  0  0  0  0  0  0  0
   -2.6906   -2.1160    0.4090 H   0  0  0  0  0  0  0  0  0  0  0  0
   -2.5986   -2.2980   -1.3650 H   0  0  0  0  0  0  0  0  0  0  0  0
   -0.7756   -1.6630   -0.4350 C   0  0  0  0  0  0  0  0  0  0  0  0
    0.2844   -2.2800   -0.4550 O   0  0  0  0  0  0  0  0  0  0  0  0
   -0.8246   -0.3180   -0.4350 N   0  0  0  0  0  0  0  0  0  0  0  0
   -2.0106    0.5080   -0.5910 C   0  0  0  0  0  0  0  0  0  0  0  0
   -2.9849    0.1472   -0.2574 H   0  0  0  0  0  0  0  0  0  0  0  0
   -2.1300    1.2488   -1.3808 H   0  0  0  0  0  0  0  0  0  0  0  0
   -1.2499    1.1180    0.5845 C   0  0  0  0  0  0  0  0  0  0  0  0
   -1.6680    0.4319    1.3227 H   0  0  0  0  0  0  0  0  0  0  0  0
   -1.8104    2.0531    0.5632 H   0  0  0  0  0  0  0  0  0  0  0  0
    0.2284    1.4064    0.8460 C   0  0  0  0  0  0  0  0  0  0  0  0
    0.6992    0.9315    1.7091 H   0  0  0  0  0  0  0  0  0  0  0  0
    0.6508    2.3981    0.6852 H   0  0  0  0  0  0  0  0  0  0  0  0
    0.3724    0.5200   -0.4020 C   0  0  1  0  0  0  0  0  0  0  0  0
    0.3718    1.1549   -1.2883 H   0  0  0  0  0  0  0  0  0  0  0  0
    1.6644   -0.3135   -0.3680 C   0  0  0  0  0  0  0  0  0  0  0  0
    2.4836   -0.2314   -1.2810 O   0  0  0  0  0  0  0  0  0  0  0  0
    1.8243   -1.1450    0.6686 N   0  0  0  0  0  0  0  0  0  0  0  0
    1.1382   -1.1114    1.4055 H   0  0  0  0  0  0  0  0  0  0  0  0
    2.9872   -2.0109    0.8482 C   0  0  0  0  0  0  0  0  0  0  0  0
    3.8789   -1.3976    0.9945 H   0  0  0  0  0  0  0  0  0  0  0  0
    2.8476   -2.6577    1.7150 H   0  0  0  0  0  0  0  0  0  0  0  0
    3.1318   -2.6253   -0.0431 H   0  0  0  0  0  0  0  0  0  0  0  0
  5  6  2  0  0  0  0
  5  7  1  0  0  0  0
  2  3  1  0  0  0  0
  2  4  1  0  0  0  0
  2  5  1  0  0  0  0
  1  2  1  0  0  0  0
 19 20  2  0  0  0  0
 19 21  1  0  0  0  0
 17 18  1  0  0  0  0
 17 19  1  0  0  0  0
 14 15  1  0  0  0  0
 14 16  1  0  0  0  0
 14 17  1  0  0  0  0
 11 12  1  0  0  0  0
 11 13  1  0  0  0  0
 11 14  1  0  0  0  0
  8  9  1  0  0  0  0
  8 10  1  0  0  0  0
  8 11  1  0  0  0  0
  7  8  1  0  0  0  0
  7 17  1  0  0  0  0
 23 24  1  0  0  0  0
 23 25  1  0  0  0  0
 23 26  1  0  0  0  0
 21 22  1  0  0  0  0
 21 23  1  0  0  0  0
M  END
$$$$
default_name
  -OEChem-01062215323D

 26 26  0     1  0  0  0  0  0999 V2000
   -1.8446   -3.5060   -0.3010 H   0  0  0  0  0  0  0  0  0  0  0  0
   -2.0746   -2.4490   -0.4240 C   0  0  0  0  0  0  0  0  0  0  0  0
   -2.6906   -2.1160    0.4090 H   0  0  0  0  0  0  0  0  0  0  0  0
   -2.5986   -2.2980   -1.3650 H   0  0  0  0  0  0  0  0  0  0  0  0
   -0.7756   -1.6630   -0.4350 C   0  0  0  0  0  0  0  0  0  0  0  0
    0.2844   -2.2800   -0.4550 O   0  0  0  0  0  0  0  0  0  0  0  0
   -0.8246   -0.3180   -0.4350 N   0  0  0  0  0  0  0  0  0  0  0  0
   -2.0106    0.5080   -0.5910 C   0  0  0  0  0  0  0  0  0  0  0  0
   -2.9849    0.1472   -0.2574 H   0  0  0  0  0  0  0  0  0  0  0  0
   -2.1300    1.2488   -1.3808 H   0  0  0  0  0  0  0  0  0  0  0  0
   -1.2499    1.1180    0.5845 C   0  0  0  0  0  0  0  0  0  0  0  0
   -1.6680    0.4319    1.3227 H   0  0  0  0  0  0  0  0  0  0  0  0
   -1.8104    2.0531    0.5632 H   0  0  0  0  0  0  0  0  0  0  0  0
    0.2284    1.4064    0.8460 C   0  0  0  0  0  0  0  0  0  0  0  0
    0.6992    0.9315    1.7091 H   0  0  0  0  0  0  0  0  0  0  0  0
    0.6508    2.3981    0.6852 H   0  0  0  0  0  0  0  0  0  0  0  0
    0.3724    0.5200   -0.4020 C   0  0  1  0  0  0  0  0  0  0  0  0
    0.3718    1.1549   -1.2883 H   0  0  0  0  0  0  0  0  0  0  0  0
    1.6644   -0.3135   -0.3680 C   0  0  0  0  0  0  0  0  0  0  0  0
    2.6011   -0.0425   -1.1167 O   0  0  0  0  0  0  0  0  0  0  0  0
    1.6956   -1.3524    0.4753 N   0  0  0  0  0  0  0  0  0  0  0  0
    0.9127   -1.4734    1.0978 H   0  0  0  0  0  0  0  0  0  0  0  0
    2.8401   -2.2480    0.6248 C   0  0  0  0  0  0  0  0  0  0  0  0
    3.6894   -1.6900    1.0249 H   0  0  0  0  0  0  0  0  0  0  0  0
    2.5946   -3.0667    1.3020 H   0  0  0  0  0  0  0  0  0  0  0  0
    3.1208   -2.6548   -0.3492 H   0  0  0  0  0  0  0  0  0  0  0  0
  5  6  2  0  0  0  0
  5  7  1  0  0  0  0
  2  3  1  0  0  0  0
  2  4  1  0  0  0  0
  2  5  1  0  0  0  0
  1  2  1  0  0  0  0
 19 20  2  0  0  0  0
 19 21  1  0  0  0  0
 17 18  1  0  0  0  0
 17 19  1  0  0  0  0
 14 15  1  0  0  0  0
 14 16  1  0  0  0  0
 14 17  1  0  0  0  0
 11 12  1  0  0  0  0
 11 13  1  0  0  0  0
 11 14  1  0  0  0  0
  8  9  1  0  0  0  0
  8 10  1  0  0  0  0
  8 11  1  0  0  0  0
  7  8  1  0  0  0  0
  7 17  1  0  0  0  0
 23 24  1  0  0  0  0
 23 25  1  0  0  0  0
 23 26  1  0  0  0  0
 21 22  1  0  0  0  0
 21 23  1  0  0  0  0
M  END
$$$$
default_name
  -OEChem-01062215323D

 26 26  0     1  0  0  0  0  0999 V2000
   -1.8446   -3.5060   -0.3010 H   0  0  0  0  0  0  0  0  0  0  0  0
   -2.0746   -2.4490   -0.4240 C   0  0  0  0  0  0  0  0  0  0  0  0
   -2.6906   -2.1160    0.4090 H   0  0  0  0  0  0  0  0  0  0  0  0
   -2.5986   -2.2980   -1.3650 H   0  0  0  0  0  0  0  0  0  0  0  0
   -0.7756   -1.6630   -0.4350 C   0  0  0  0  0  0  0  0  0  0  0  0
    0.2844   -2.2800   -0.4550 O   0  0  0  0  0  0  0  0  0  0  0  0
   -0.8246   -0.3180   -0.4350 N   0  0  0  0  0  0  0  0  0  0  0  0
   -2.0106    0.5080   -0.5910 C   0  0  0  0  0  0  0  0  0  0  0  0
   -2.9849    0.1472   -0.2574 H   0  0  0  0  0  0  0  0  0  0  0  0
   -2.1300    1.2488   -1.3808 H   0  0  0  0  0  0  0  0  0  0  0  0
   -1.2499    1.1180    0.5845 C   0  0  0  0  0  0  0  0  0  0  0  0
   -1.6680    0.4319    1.3227 H   0  0  0  0  0  0  0  0  0  0  0  0
   -1.8104    2.0531    0.5632 H   0  0  0  0  0  0  0  0  0  0  0  0
    0.2284    1.4064    0.8460 C   0  0  0  0  0  0  0  0  0  0  0  0
    0.6992    0.9315    1.7091 H   0  0  0  0  0  0  0  0  0  0  0  0
    0.6508    2.3981    0.6852 H   0  0  0  0  0  0  0  0  0  0  0  0
    0.3724    0.5200   -0.4020 C   0  0  1  0  0  0  0  0  0  0  0  0
    0.3718    1.1549   -1.2883 H   0  0  0  0  0  0  0  0  0  0  0  0
    1.6644   -0.3135   -0.3680 C   0  0  0  0  0  0  0  0  0  0  0  0
    2.6905    0.1049   -0.9004 O   0  0  0  0  0  0  0  0  0  0  0  0
    1.5995   -1.5114    0.2255 N   0  0  0  0  0  0  0  0  0  0  0  0
    0.7402   -1.7574    0.6902 H   0  0  0  0  0  0  0  0  0  0  0  0
    2.7308   -2.4292    0.3368 C   0  0  0  0  0  0  0  0  0  0  0  0
    3.5038   -1.9802    0.9640 H   0  0  0  0  0  0  0  0  0  0  0  0
    2.4105   -3.3734    0.7786 H   0  0  0  0  0  0  0  0  0  0  0  0
    3.1532   -2.6169   -0.6528 H   0  0  0  0  0  0  0  0  0  0  0  0
  5  6  2  0  0  0  0
  5  7  1  0  0  0  0
  2  3  1  0  0  0  0
  2  4  1  0  0  0  0
  2  5  1  0  0  0  0
  1  2  1  0  0  0  0
 19 20  2  0  0  0  0
 19 21  1  0  0  0  0
 17 18  1  0  0  0  0
 17 19  1  0  0  0  0
 14 15  1  0  0  0  0
 14 16  1  0  0  0  0
 14 17  1  0  0  0  0
 11 12  1  0  0  0  0
 11 13  1  0  0  0  0
 11 14  1  0  0  0  0
  8  9  1  0  0  0  0
  8 10  1  0  0  0  0
  8 11  1  0  0  0  0
  7  8  1  0  0  0  0
  7 17  1  0  0  0  0
 23 24  1  0  0  0  0
 23 25  1  0  0  0  0
 23 26  1  0  0  0  0
 21 22  1  0  0  0  0
 21 23  1  0  0  0  0
M  END
$$$$
default_name
  -OEChem-01062215323D

 26 26  0     1  0  0  0  0  0999 V2000
   -1.8446   -3.5060   -0.3010 H   0  0  0  0  0  0  0  0  0  0  0  0
   -2.0746   -2.4490   -0.4240 C   0  0  0  0  0  0  0  0  0  0  0  0
   -2.6906   -2.1160    0.4090 H   0  0  0  0  0  0  0  0  0  0  0  0
   -2.5986   -2.2980   -1.3650 H   0  0  0  0  0  0  0  0  0  0  0  0
   -0.7756   -1.6630   -0.4350 C   0  0  0  0  0  0  0  0  0  0  0  0
    0.2844   -2.2800   -0.4550 O   0  0  0  0  0  0  0  0  0  0  0  0
   -0.8246   -0.3180   -0.4350 N   0  0  0  0  0  0  0  0  0  0  0  0
   -2.0106    0.5080   -0.5910 C   0  0  0  0  0  0  0  0  0  0  0  0
   -2.9849    0.1472   -0.2574 H   0  0  0  0  0  0  0  0  0  0  0  0
   -2.1300    1.2488   -1.3808 H   0  0  0  0  0  0  0  0  0  0  0  0
   -1.2499    1.1180    0.5845 C   0  0  0  0  0  0  0  0  0  0  0  0
   -1.6680    0.4319    1.3227 H   0  0  0  0  0  0  0  0  0  0  0  0
   -1.8104    2.0531    0.5632 H   0  0  0  0  0  0  0  0  0  0  0  0
    0.2284    1.4064    0.8460 C   0  0  0  0  0  0  0  0  0  0  0  0
    0.6992    0.9315    1.7091 H   0  0  0  0  0  0  0  0  0  0  0  0
    0.6508    2.3981    0.6852 H   0  0  0  0  0  0  0  0  0  0  0  0
    0.3724    0.5200   -0.4020 C   0  0  1  0  0  0  0  0  0  0  0  0
    0.3718    1.1549   -1.2883 H   0  0  0  0  0  0  0  0  0  0  0  0
    1.6644   -0.3135   -0.3680 C   0  0  0  0  0  0  0  0  0  0  0  0
    2.7457    0.2007   -0.6469 O   0  0  0  0  0  0  0  0  0  0  0  0
    1.5427   -1.6112   -0.0638 N   0  0  0  0  0  0  0  0  0  0  0  0
    0.6323   -1.9442    0.2105 H   0  0  0  0  0  0  0  0  0  0  0  0
    2.6666   -2.5423    0.0038 C   0  0  0  0  0  0  0  0  0  0  0  0
    3.3348   -2.2483    0.8161 H   0  0  0  0  0  0  0  0  0  0  0  0
    2.3079   -3.5568    0.1806 H   0  0  0  0  0  0  0  0  0  0  0  0
    3.2269   -2.5140   -0.9332 H   0  0  0  0  0  0  0  0  0  0  0  0
  5  6  2  0  0  0  0
  5  7  1  0  0  0  0
  2  3  1  0  0  0  0
  2  4  1  0  0  0  0
  2  5  1  0  0  0  0
  1  2  1  0  0  0  0
 19 20  2  0  0  0  0
 19 21  1  0  0  0  0
 17 18  1  0  0  0  0
 17 19  1  0  0  0  0
 14 15  1  0  0  0  0
 14 16  1  0  0  0  0
 14 17  1  0  0  0  0
 11 12  1  0  0  0  0
 11 13  1  0  0  0  0
 11 14  1  0  0  0  0
  8  9  1  0  0  0  0
  8 10  1  0  0  0  0
  8 11  1  0  0  0  0
  7  8  1  0  0  0  0
  7 17  1  0  0  0  0
 23 24  1  0  0  0  0
 23 25  1  0  0  0  0
 23 26  1  0  0  0  0
 21 22  1  0  0  0  0
 21 23  1  0  0  0  0
M  END
$$$$
default_name
  -OEChem-01062215323D

 26 26  0     1  0  0  0  0  0999 V2000
   -1.8446   -3.5060   -0.3010 H   0  0  0  0  0  0  0  0  0  0  0  0
   -2.0746   -2.4490   -0.4240 C   0  0  0  0  0  0  0  0  0  0  0  0
   -2.6906   -2.1160    0.4090 H   0  0  0  0  0  0  0  0  0  0  0  0
   -2.5986   -2.2980   -1.3650 H   0  0  0  0  0  0  0  0  0  0  0  0
   -0.7756   -1.6630   -0.4350 C   0  0  0  0  0  0  0  0  0  0  0  0
    0.2844   -2.2800   -0.4550 O   0  0  0  0  0  0  0  0  0  0  0  0
   -0.8246   -0.3180   -0.4350 N   0  0  0  0  0  0  0  0  0  0  0  0
   -2.0106    0.5080   -0.5910 C   0  0  0  0  0  0  0  0  0  0  0  0
   -2.9849    0.1472   -0.2574 H   0  0  0  0  0  0  0  0  0  0  0  0
   -2.1300    1.2488   -1.3808 H   0  0  0  0  0  0  0  0  0  0  0  0
   -1.2499    1.1180    0.5845 C   0  0  0  0  0  0  0  0  0  0  0  0
   -1.6680    0.4319    1.3227 H   0  0  0  0  0  0  0  0  0  0  0  0
   -1.8104    2.0531    0.5632 H   0  0  0  0  0  0  0  0  0  0  0  0
    0.2284    1.4064    0.8460 C   0  0  0  0  0  0  0  0  0  0  0  0
    0.6992    0.9315    1.7091 H   0  0  0  0  0  0  0  0  0  0  0  0
    0.6508    2.3981    0.6852 H   0  0  0  0  0  0  0  0  0  0  0  0
    0.3724    0.5200   -0.4020 C   0  0  1  0  0  0  0  0  0  0  0  0
    0.3718    1.1549   -1.2883 H   0  0  0  0  0  0  0  0  0  0  0  0
    1.6644   -0.3135   -0.3680 C   0  0  0  0  0  0  0  0  0  0  0  0
    2.7629    0.2385   -0.3735 O   0  0  0  0  0  0  0  0  0  0  0  0
    1.5290   -1.6451   -0.3730 N   0  0  0  0  0  0  0  0  0  0  0  0
    0.5965   -2.0208   -0.3085 H   0  0  0  0  0  0  0  0  0  0  0  0
    2.6519   -2.5795   -0.3514 C   0  0  0  0  0  0  0  0  0  0  0  0
    3.1937   -2.4761    0.5912 H   0  0  0  0  0  0  0  0  0  0  0  0
    2.2936   -3.6046   -0.4513 H   0  0  0  0  0  0  0  0  0  0  0  0
    3.3369   -2.3533   -1.1714 H   0  0  0  0  0  0  0  0  0  0  0  0
  5  6  2  0  0  0  0
  5  7  1  0  0  0  0
  2  3  1  0  0  0  0
  2  4  1  0  0  0  0
  2  5  1  0  0  0  0
  1  2  1  0  0  0  0
 19 20  2  0  0  0  0
 19 21  1  0  0  0  0
 17 18  1  0  0  0  0
 17 19  1  0  0  0  0
 14 15  1  0  0  0  0
 14 16  1  0  0  0  0
 14 17  1  0  0  0  0
 11 12  1  0  0  0  0
 11 13  1  0  0  0  0
 11 14  1  0  0  0  0
  8  9  1  0  0  0  0
  8 10  1  0  0  0  0
  8 11  1  0  0  0  0
  7  8  1  0  0  0  0
  7 17  1  0  0  0  0
 23 24  1  0  0  0  0
 23 25  1  0  0  0  0
 23 26  1  0  0  0  0
 21 22  1  0  0  0  0
 21 23  1  0  0  0  0
M  END
$$$$
default_name
  -OEChem-01062215323D

 26 26  0     1  0  0  0  0  0999 V2000
   -1.8446   -3.5060   -0.3010 H   0  0  0  0  0  0  0  0  0  0  0  0
   -2.0746   -2.4490   -0.4240 C   0  0  0  0  0  0  0  0  0  0  0  0
   -2.6906   -2.1160    0.4090 H   0  0  0  0  0  0  0  0  0  0  0  0
   -2.5986   -2.2980   -1.3650 H   0  0  0  0  0  0  0  0  0  0  0  0
   -0.7756   -1.6630   -0.4350 C   0  0  0  0  0  0  0  0  0  0  0  0
    0.2844   -2.2800   -0.4550 O   0  0  0  0  0  0  0  0  0  0  0  0
   -0.8246   -0.3180   -0.4350 N   0  0  0  0  0  0  0  0  0  0  0  0
   -2.0106    0.5080   -0.5910 C   0  0  0  0  0  0  0  0  0  0  0  0
   -2.9849    0.1472   -0.2574 H   0  0  0  0  0  0  0  0  0  0  0  0
   -2.1300    1.2488   -1.3808 H   0  0  0  0  0  0  0  0  0  0  0  0
   -1.2499    1.1180    0.5845 C   0  0  0  0  0  0  0  0  0  0  0  0
   -1.6680    0.4319    1.3227 H   0  0  0  0  0  0  0  0  0  0  0  0
   -1.8104    2.0531    0.5632 H   0  0  0  0  0  0  0  0  0  0  0  0
    0.2284    1.4064    0.8460 C   0  0  0  0  0  0  0  0  0  0  0  0
    0.6992    0.9315    1.7091 H   0  0  0  0  0  0  0  0  0  0  0  0
    0.6508    2.3981    0.6852 H   0  0  0  0  0  0  0  0  0  0  0  0
    0.3724    0.5200   -0.4020 C   0  0  1  0  0  0  0  0  0  0  0  0
    0.3718    1.1549   -1.2883 H   0  0  0  0  0  0  0  0  0  0  0  0
    1.6644   -0.3135   -0.3680 C   0  0  0  0  0  0  0  0  0  0  0  0
    2.7409    0.2156   -0.0987 O   0  0  0  0  0  0  0  0  0  0  0  0
    1.5593   -1.6106   -0.6809 N   0  0  0  0  0  0  0  0  0  0  0  0
    0.6351   -1.9822   -0.8315 H   0  0  0  0  0  0  0  0  0  0  0  0
    2.6877   -2.5383   -0.7046 C   0  0  0  0  0  0  0  0  0  0  0  0
    3.0904   -2.6480    0.3047 H   0  0  0  0  0  0  0  0  0  0  0  0
    2.3688   -3.5134   -1.0741 H   0  0  0  0  0  0  0  0  0  0  0  0
    3.4756   -2.1456   -1.3511 H   0  0  0  0  0  0  0  0  0  0  0  0
  5  6  2  0  0  0  0
  5  7  1  0  0  0  0
  2  3  1  0  0  0  0
  2  4  1  0  0  0  0
  2  5  1  0  0  0  0
  1  2  1  0  0  0  0
 19 20  2  0  0  0  0
 19 21  1  0  0  0  0
 17 18  1  0  0  0  0
 17 19  1  0  0  0  0
 14 15  1  0  0  0  0
 14 16  1  0  0  0  0
 14 17  1  0  0  0  0
 11 12  1  0  0  0  0
 11 13  1  0  0  0  0
 11 14  1  0  0  0  0
  8  9  1  0  0  0  0
  8 10  1  0  0  0  0
  8 11  1  0  0  0  0
  7  8  1  0  0  0  0
  7 17  1  0  0  0  0
 23 24  1  0  0  0  0
 23 25  1  0  0  0  0
 23 26  1  0  0  0  0
 21 22  1  0  0  0  0
 21 23  1  0  0  0  0
M  END
$$$$
default_name
  -OEChem-01062215323D

 26 26  0     1  0  0  0  0  0999 V2000
   -1.8446   -3.5060   -0.3010 H   0  0  0  0  0  0  0  0  0  0  0  0
   -2.0746   -2.4490   -0.4240 C   0  0  0  0  0  0  0  0  0  0  0  0
   -2.6906   -2.1160    0.4090 H   0  0  0  0  0  0  0  0  0  0  0  0
   -2.5986   -2.2980   -1.3650 H   0  0  0  0  0  0  0  0  0  0  0  0
   -0.7756   -1.6630   -0.4350 C   0  0  0  0  0  0  0  0  0  0  0  0
    0.2844   -2.2800   -0.4550 O   0  0  0  0  0  0  0  0  0  0  0  0
   -0.8246   -0.3180   -0.4350 N   0  0  0  0  0  0  0  0  0  0  0  0
   -2.0106    0.5080   -0.5910 C   0  0  0  0  0  0  0  0  0  0  0  0
   -2.9849    0.1472   -0.2574 H   0  0  0  0  0  0  0  0  0  0  0  0
   -2.1300    1.2488   -1.3808 H   0  0  0  0  0  0  0  0  0  0  0  0
   -1.2499    1.1180    0.5845 C   0  0  0  0  0  0  0  0  0  0  0  0
   -1.6680    0.4319    1.3227 H   0  0  0  0  0  0  0  0  0  0  0  0
   -1.8104    2.0531    0.5632 H   0  0  0  0  0  0  0  0  0  0  0  0
    0.2284    1.4064    0.8460 C   0  0  0  0  0  0  0  0  0  0  0  0
    0.6992    0.9315    1.7091 H   0  0  0  0  0  0  0  0  0  0  0  0
    0.6508    2.3981    0.6852 H   0  0  0  0  0  0  0  0  0  0  0  0
    0.3724    0.5200   -0.4020 C   0  0  1  0  0  0  0  0  0  0  0  0
    0.3718    1.1549   -1.2883 H   0  0  0  0  0  0  0  0  0  0  0  0
    1.6644   -0.3135   -0.3680 C   0  0  0  0  0  0  0  0  0  0  0  0
    2.6813    0.1337    0.1586 O   0  0  0  0  0  0  0  0  0  0  0  0
    1.6316   -1.5102   -0.9666 N   0  0  0  0  0  0  0  0  0  0  0  0
    0.7456   -1.8310   -1.3230 H   0  0  0  0  0  0  0  0  0  0  0  0
    2.7717   -2.4215   -1.0318 C   0  0  0  0  0  0  0  0  0  0  0  0
    3.0317   -2.7523   -0.0240 H   0  0  0  0  0  0  0  0  0  0  0  0
    2.5283   -3.2895   -1.6453 H   0  0  0  0  0  0  0  0  0  0  0  0
    3.6336   -1.9051   -1.4600 H   0  0  0  0  0  0  0  0  0  0  0  0
  5  6  2  0  0  0  0
  5  7  1  0  0  0  0
  2  3  1  0  0  0  0
  2  4  1  0  0  0  0
  2  5  1  0  0  0  0
  1  2  1  0  0  0  0
 19 20  2  0  0  0  0
 19 21  1  0  0  0  0
 17 18  1  0  0  0  0
 17 19  1  0  0  0  0
 14 15  1  0  0  0  0
 14 16  1  0  0  0  0
 14 17  1  0  0  0  0
 11 12  1  0  0  0  0
 11 13  1  0  0  0  0
 11 14  1  0  0  0  0
  8  9  1  0  0  0  0
  8 10  1  0  0  0  0
  8 11  1  0  0  0  0
  7  8  1  0  0  0  0
  7 17  1  0  0  0  0
 23 24  1  0  0  0  0
 23 25  1  0  0  0  0
 23 26  1  0  0  0  0
 21 22  1  0  0  0  0
 21 23  1  0  0  0  0
M  END
$$$$
default_name
  -OEChem-01062215323D

 26 26  0     1  0  0  0  0  0999 V2000
   -1.8446   -3.5060   -0.3010 H   0  0  0  0  0  0  0  0  0  0  0  0
   -2.0746   -2.4490   -0.4240 C   0  0  0  0  0  0  0  0  0  0  0  0
   -2.6906   -2.1160    0.4090 H   0  0  0  0  0  0  0  0  0  0  0  0
   -2.5986   -2.2980   -1.3650 H   0  0  0  0  0  0  0  0  0  0  0  0
   -0.7756   -1.6630   -0.4350 C   0  0  0  0  0  0  0  0  0  0  0  0
    0.2844   -2.2800   -0.4550 O   0  0  0  0  0  0  0  0  0  0  0  0
   -0.8246   -0.3180   -0.4350 N   0  0  0  0  0  0  0  0  0  0  0  0
   -2.0106    0.5080   -0.5910 C   0  0  0  0  0  0  0  0  0  0  0  0
   -2.9849    0.1472   -0.2574 H   0  0  0  0  0  0  0  0  0  0  0  0
   -2.1300    1.2488   -1.3808 H   0  0  0  0  0  0  0  0  0  0  0  0
   -1.2499    1.1180    0.5845 C   0  0  0  0  0  0  0  0  0  0  0  0
   -1.6680    0.4319    1.3227 H   0  0  0  0  0  0  0  0  0  0  0  0
   -1.8104    2.0531    0.5632 H   0  0  0  0  0  0  0  0  0  0  0  0
    0.2284    1.4064    0.8460 C   0  0  0  0  0  0  0  0  0  0  0  0
    0.6992    0.9315    1.7091 H   0  0  0  0  0  0  0  0  0  0  0  0
    0.6508    2.3981    0.6852 H   0  0  0  0  0  0  0  0  0  0  0  0
    0.3724    0.5200   -0.4020 C   0  0  1  0  0  0  0  0  0  0  0  0
    0.3718    1.1549   -1.2883 H   0  0  0  0  0  0  0  0  0  0  0  0
    1.6644   -0.3135   -0.3680 C   0  0  0  0  0  0  0  0  0  0  0  0
    2.5881   -0.0018    0.3810 O   0  0  0  0  0  0  0  0  0  0  0  0
    1.7409   -1.3507   -1.2106 N   0  0  0  0  0  0  0  0  0  0  0  0
    0.9203   -1.5775   -1.7493 H   0  0  0  0  0  0  0  0  0  0  0  0
    2.8980   -2.2370   -1.3107 C   0  0  0  0  0  0  0  0  0  0  0  0
    3.0217   -2.7820   -0.3724 H   0  0  0  0  0  0  0  0  0  0  0  0
    2.7611   -2.9481   -2.1260 H   0  0  0  0  0  0  0  0  0  0  0  0
    3.8001   -1.6482   -1.4908 H   0  0  0  0  0  0  0  0  0  0  0  0
  5  6  2  0  0  0  0
  5  7  1  0  0  0  0
  2  3  1  0  0  0  0
  2  4  1  0  0  0  0
  2  5  1  0  0  0  0
  1  2  1  0  0  0  0
 19 20  2  0  0  0  0
 19 21  1  0  0  0  0
 17 18  1  0  0  0  0
 17 19  1  0  0  0  0
 14 15  1  0  0  0  0
 14 16  1  0  0  0  0
 14 17  1  0  0  0  0
 11 12  1  0  0  0  0
 11 13  1  0  0  0  0
 11 14  1  0  0  0  0
  8  9  1  0  0  0  0
  8 10  1  0  0  0  0
  8 11  1  0  0  0  0
  7  8  1  0  0  0  0
  7 17  1  0  0  0  0
 23 24  1  0  0  0  0
 23 25  1  0  0  0  0
 23 26  1  0  0  0  0
 21 22  1  0  0  0  0
 21 23  1  0  0  0  0
M  END
$$$$
default_name
  -OEChem-01062215323D

 26 26  0     1  0  0  0  0  0999 V2000
   -1.8446   -3.5060   -0.3010 H   0  0  0  0  0  0  0  0  0  0  0  0
   -2.0746   -2.4490   -0.4240 C   0  0  0  0  0  0  0  0  0  0  0  0
   -2.6906   -2.1160    0.4090 H   0  0  0  0  0  0  0  0  0  0  0  0
   -2.5986   -2.2980   -1.3650 H   0  0  0  0  0  0  0  0  0  0  0  0
   -0.7756   -1.6630   -0.4350 C   0  0  0  0  0  0  0  0  0  0  0  0
    0.2844   -2.2800   -0.4550 O   0  0  0  0  0  0  0  0  0  0  0  0
   -0.8246   -0.3180   -0.4350 N   0  0  0  0  0  0  0  0  0  0  0  0
   -2.0106    0.5080   -0.5910 C   0  0  0  0  0  0  0  0  0  0  0  0
   -2.9849    0.1472   -0.2574 H   0  0  0  0  0  0  0  0  0  0  0  0
   -2.1300    1.2488   -1.3808 H   0  0  0  0  0  0  0  0  0  0  0  0
   -1.2499    1.1180    0.5845 C   0  0  0  0  0  0  0  0  0  0  0  0
   -1.6680    0.4319    1.3227 H   0  0  0  0  0  0  0  0  0  0  0  0
   -1.8104    2.0531    0.5632 H   0  0  0  0  0  0  0  0  0  0  0  0
    0.2284    1.4064    0.8460 C   0  0  0  0  0  0  0  0  0  0  0  0
    0.6992    0.9315    1.7091 H   0  0  0  0  0  0  0  0  0  0  0  0
    0.6508    2.3981    0.6852 H   0  0  0  0  0  0  0  0  0  0  0  0
    0.3724    0.5200   -0.4020 C   0  0  1  0  0  0  0  0  0  0  0  0
    0.3718    1.1549   -1.2883 H   0  0  0  0  0  0  0  0  0  0  0  0
    1.6644   -0.3135   -0.3680 C   0  0  0  0  0  0  0  0  0  0  0  0
    2.4676   -0.1815    0.5532 O   0  0  0  0  0  0  0  0  0  0  0  0
    1.8798   -1.1430   -1.3962 N   0  0  0  0  0  0  0  0  0  0  0  0
    1.1475   -1.2389   -2.0814 H   0  0  0  0  0  0  0  0  0  0  0  0
    3.0581   -1.9975   -1.5222 C   0  0  0  0  0  0  0  0  0  0  0  0
    3.0611   -2.7350   -0.7167 H   0  0  0  0  0  0  0  0  0  0  0  0
    3.0515   -2.5125   -2.4834 H   0  0  0  0  0  0  0  0  0  0  0  0
    3.9638   -1.3925   -1.4413 H   0  0  0  0  0  0  0  0  0  0  0  0
  5  6  2  0  0  0  0
  5  7  1  0  0  0  0
  2  3  1  0  0  0  0
  2  4  1  0  0  0  0
  2  5  1  0  0  0  0
  1  2  1  0  0  0  0
 19 20  2  0  0  0  0
 19 21  1  0  0  0  0
 17 18  1  0  0  0  0
 17 19  1  0  0  0  0
 14 15  1  0  0  0  0
 14 16  1  0  0  0  0
 14 17  1  0  0  0  0
 11 12  1  0  0  0  0
 11 13  1  0  0  0  0
 11 14  1  0  0  0  0
  8  9  1  0  0  0  0
  8 10  1  0  0  0  0
  8 11  1  0  0  0  0
  7  8  1  0  0  0  0
  7 17  1  0  0  0  0
 23 24  1  0  0  0  0
 23 25  1  0  0  0  0
 23 26  1  0  0  0  0
 21 22  1  0  0  0  0
 21 23  1  0  0  0  0
M  END
$$$$
default_name
  -OEChem-01062215323D

 26 26  0     1  0  0  0  0  0999 V2000
   -1.8446   -3.5060   -0.3010 H   0  0  0  0  0  0  0  0  0  0  0  0
   -2.0746   -2.4490   -0.4240 C   0  0  0  0  0  0  0  0  0  0  0  0
   -2.6906   -2.1160    0.4090 H   0  0  0  0  0  0  0  0  0  0  0  0
   -2.5986   -2.2980   -1.3650 H   0  0  0  0  0  0  0  0  0  0  0  0
   -0.7756   -1.6630   -0.4350 C   0  0  0  0  0  0  0  0  0  0  0  0
    0.2844   -2.2800   -0.4550 O   0  0  0  0  0  0  0  0  0  0  0  0
   -0.8246   -0.3180   -0.4350 N   0  0  0  0  0  0  0  0  0  0  0  0
   -2.0106    0.5080   -0.5910 C   0  0  0  0  0  0  0  0  0  0  0  0
   -2.9849    0.1472   -0.2574 H   0  0  0  0  0  0  0  0  0  0  0  0
   -2.1300    1.2488   -1.3808 H   0  0  0  0  0  0  0  0  0  0  0  0
   -1.2499    1.1180    0.5845 C   0  0  0  0  0  0  0  0  0  0  0  0
   -1.6680    0.4319    1.3227 H   0  0  0  0  0  0  0  0  0  0  0  0
   -1.8104    2.0531    0.5632 H   0  0  0  0  0  0  0  0  0  0  0  0
    0.2284    1.4064    0.8460 C   0  0  0  0  0  0  0  0  0  0  0  0
    0.6992    0.9315    1.7091 H   0  0  0  0  0  0  0  0  0  0  0  0
    0.6508    2.3981    0.6852 H   0  0  0  0  0  0  0  0  0  0  0  0
    0.3724    0.5200   -0.4020 C   0  0  1  0  0  0  0  0  0  0  0  0
    0.3718    1.1549   -1.2883 H   0  0  0  0  0  0  0  0  0  0  0  0
    1.6644   -0.3135   -0.3680 C   0  0  0  0  0  0  0  0  0  0  0  0
    2.3281   -0.3933    0.6637 O   0  0  0  0  0  0  0  0  0  0  0  0
    2.0388   -0.9011   -1.5109 N   0  0  0  0  0  0  0  0  0  0  0  0
    1.4116   -0.8383   -2.2967 H   0  0  0  0  0  0  0  0  0  0  0  0
    3.2410   -1.7192   -1.6520 C   0  0  0  0  0  0  0  0  0  0  0  0
    3.1471   -2.6144   -1.0336 H   0  0  0  0  0  0  0  0  0  0  0  0
    3.3796   -2.0124   -2.6931 H   0  0  0  0  0  0  0  0  0  0  0  0
    4.1135   -1.1552   -1.3149 H   0  0  0  0  0  0  0  0  0  0  0  0
  5  6  2  0  0  0  0
  5  7  1  0  0  0  0
  2  3  1  0  0  0  0
  2  4  1  0  0  0  0
  2  5  1  0  0  0  0
  1  2  1  0  0  0  0
 19 20  2  0  0  0  0
 19 21  1  0  0  0  0
 17 18  1  0  0  0  0
 17 19  1  0  0  0  0
 14 15  1  0  0  0  0
 14 16  1  0  0  0  0
 14 17  1  0  0  0  0
 11 12  1  0  0  0  0
 11 13  1  0  0  0  0
 11 14  1  0  0  0  0
  8  9  1  0  0  0  0
  8 10  1  0  0  0  0
  8 11  1  0  0  0  0
  7  8  1  0  0  0  0
  7 17  1  0  0  0  0
 23 24  1  0  0  0  0
 23 25  1  0  0  0  0
 23 26  1  0  0  0  0
 21 22  1  0  0  0  0
 21 23  1  0  0  0  0
M  END
$$$$
default_name
  -OEChem-01062215323D

 26 26  0     1  0  0  0  0  0999 V2000
   -1.8446   -3.5060   -0.3010 H   0  0  0  0  0  0  0  0  0  0  0  0
   -2.0746   -2.4490   -0.4240 C   0  0  0  0  0  0  0  0  0  0  0  0
   -2.6906   -2.1160    0.4090 H   0  0  0  0  0  0  0  0  0  0  0  0
   -2.5986   -2.2980   -1.3650 H   0  0  0  0  0  0  0  0  0  0  0  0
   -0.7756   -1.6630   -0.4350 C   0  0  0  0  0  0  0  0  0  0  0  0
    0.2844   -2.2800   -0.4550 O   0  0  0  0  0  0  0  0  0  0  0  0
   -0.8246   -0.3180   -0.4350 N   0  0  0  0  0  0  0  0  0  0  0  0
   -2.0106    0.5080   -0.5910 C   0  0  0  0  0  0  0  0  0  0  0  0
   -2.9849    0.1472   -0.2574 H   0  0  0  0  0  0  0  0  0  0  0  0
   -2.1300    1.2488   -1.3808 H   0  0  0  0  0  0  0  0  0  0  0  0
   -1.2499    1.1180    0.5845 C   0  0  0  0  0  0  0  0  0  0  0  0
   -1.6680    0.4319    1.3227 H   0  0  0  0  0  0  0  0  0  0  0  0
   -1.8104    2.0531    0.5632 H   0  0  0  0  0  0  0  0  0  0  0  0
    0.2284    1.4064    0.8460 C   0  0  0  0  0  0  0  0  0  0  0  0
    0.6992    0.9315    1.7091 H   0  0  0  0  0  0  0  0  0  0  0  0
    0.6508    2.3981    0.6852 H   0  0  0  0  0  0  0  0  0  0  0  0
    0.3724    0.5200   -0.4020 C   0  0  1  0  0  0  0  0  0  0  0  0
    0.3718    1.1549   -1.2883 H   0  0  0  0  0  0  0  0  0  0  0  0
    1.6644   -0.3135   -0.3680 C   0  0  0  0  0  0  0  0  0  0  0  0
    2.1791   -0.6226    0.7047 O   0  0  0  0  0  0  0  0  0  0  0  0
    2.2071   -0.6417   -1.5467 N   0  0  0  0  0  0  0  0  0  0  0  0
    1.6946   -0.4030   -2.3805 H   0  0  0  0  0  0  0  0  0  0  0  0
    3.4344   -1.4211   -1.6912 C   0  0  0  0  0  0  0  0  0  0  0  0
    3.2740   -2.4286   -1.3014 H   0  0  0  0  0  0  0  0  0  0  0  0
    3.7232   -1.4818   -2.7410 H   0  0  0  0  0  0  0  0  0  0  0  0
    4.2391   -0.9527   -1.1203 H   0  0  0  0  0  0  0  0  0  0  0  0
  5  6  2  0  0  0  0
  5  7  1  0  0  0  0
  2  3  1  0  0  0  0
  2  4  1  0  0  0  0
  2  5  1  0  0  0  0
  1  2  1  0  0  0  0
 19 20  2  0  0  0  0
 19 21  1  0  0  0  0
 17 18  1  0  0  0  0
 17 19  1  0  0  0  0
 14 15  1  0  0  0  0
 14 16  1  0  0  0  0
 14 17  1  0  0  0  0
 11 12  1  0  0  0  0
 11 13  1  0  0  0  0
 11 14  1  0  0  0  0
  8  9  1  0  0  0  0
  8 10  1  0  0  0  0
  8 11  1  0  0  0  0
  7  8  1  0  0  0  0
  7 17  1  0  0  0  0
 23 24  1  0  0  0  0
 23 25  1  0  0  0  0
 23 26  1  0  0  0  0
 21 22  1  0  0  0  0
 21 23  1  0  0  0  0
M  END
$$$$
default_name
  -OEChem-01062215323D

 26 26  0     1  0  0  0  0  0999 V2000
   -1.8446   -3.5060   -0.3010 H   0  0  0  0  0  0  0  0  0  0  0  0
   -2.0746   -2.4490   -0.4240 C   0  0  0  0  0  0  0  0  0  0  0  0
   -2.6906   -2.1160    0.4090 H   0  0  0  0  0  0  0  0  0  0  0  0
   -2.5986   -2.2980   -1.3650 H   0  0  0  0  0  0  0  0  0  0  0  0
   -0.7756   -1.6630   -0.4350 C   0  0  0  0  0  0  0  0  0  0  0  0
    0.2844   -2.2800   -0.4550 O   0  0  0  0  0  0  0  0  0  0  0  0
   -0.8246   -0.3180   -0.4350 N   0  0  0  0  0  0  0  0  0  0  0  0
   -2.0106    0.5080   -0.5910 C   0  0  0  0  0  0  0  0  0  0  0  0
   -2.9849    0.1472   -0.2574 H   0  0  0  0  0  0  0  0  0  0  0  0
   -2.1300    1.2488   -1.3808 H   0  0  0  0  0  0  0  0  0  0  0  0
   -1.2499    1.1180    0.5845 C   0  0  0  0  0  0  0  0  0  0  0  0
   -1.6680    0.4319    1.3227 H   0  0  0  0  0  0  0  0  0  0  0  0
   -1.8104    2.0531    0.5632 H   0  0  0  0  0  0  0  0  0  0  0  0
    0.2284    1.4064    0.8460 C   0  0  0  0  0  0  0  0  0  0  0  0
    0.6992    0.9315    1.7091 H   0  0  0  0  0  0  0  0  0  0  0  0
    0.6508    2.3981    0.6852 H   0  0  0  0  0  0  0  0  0  0  0  0
    0.3724    0.5200   -0.4020 C   0  0  1  0  0  0  0  0  0  0  0  0
    0.3718    1.1549   -1.2883 H   0  0  0  0  0  0  0  0  0  0  0  0
    1.6644   -0.3135   -0.3680 C   0  0  0  0  0  0  0  0  0  0  0  0
    2.0307   -0.8539    0.6736 O   0  0  0  0  0  0  0  0  0  0  0  0
    2.3732   -0.3824   -1.5014 N   0  0  0  0  0  0  0  0  0  0  0  0
    1.9772    0.0373   -2.3272 H   0  0  0  0  0  0  0  0  0  0  0  0
    3.6249   -1.1236   -1.6372 C   0  0  0  0  0  0  0  0  0  0  0  0
    3.4331   -2.1902   -1.5018 H   0  0  0  0  0  0  0  0  0  0  0  0
    4.0587   -0.9570   -2.6237 H   0  0  0  0  0  0  0  0  0  0  0  0
    4.3319   -0.7987   -0.8706 H   0  0  0  0  0  0  0  0  0  0  0  0
  5  6  2  0  0  0  0
  5  7  1  0  0  0  0
  2  3  1  0  0  0  0
  2  4  1  0  0  0  0
  2  5  1  0  0  0  0
  1  2  1  0  0  0  0
 19 20  2  0  0  0  0
 19 21  1  0  0  0  0
 17 18  1  0  0  0  0
 17 19  1  0  0  0  0
 14 15  1  0  0  0  0
 14 16  1  0  0  0  0
 14 17  1  0  0  0  0
 11 12  1  0  0  0  0
 11 13  1  0  0  0  0
 11 14  1  0  0  0  0
  8  9  1  0  0  0  0
  8 10  1  0  0  0  0
  8 11  1  0  0  0  0
  7  8  1  0  0  0  0
  7 17  1  0  0  0  0
 23 24  1  0  0  0  0
 23 25  1  0  0  0  0
 23 26  1  0  0  0  0
 21 22  1  0  0  0  0
 21 23  1  0  0  0  0
M  END
$$$$
default_name
  -OEChem-01062215323D

 26 26  0     1  0  0  0  0  0999 V2000
   -1.8446   -3.5060   -0.3010 H   0  0  0  0  0  0  0  0  0  0  0  0
   -2.0746   -2.4490   -0.4240 C   0  0  0  0  0  0  0  0  0  0  0  0
   -2.6906   -2.1160    0.4090 H   0  0  0  0  0  0  0  0  0  0  0  0
   -2.5986   -2.2980   -1.3650 H   0  0  0  0  0  0  0  0  0  0  0  0
   -0.7756   -1.6630   -0.4350 C   0  0  0  0  0  0  0  0  0  0  0  0
    0.2844   -2.2800   -0.4550 O   0  0  0  0  0  0  0  0  0  0  0  0
   -0.8246   -0.3180   -0.4350 N   0  0  0  0  0  0  0  0  0  0  0  0
   -2.0106    0.5080   -0.5910 C   0  0  0  0  0  0  0  0  0  0  0  0
   -2.9849    0.1472   -0.2574 H   0  0  0  0  0  0  0  0  0  0  0  0
   -2.1300    1.2488   -1.3808 H   0  0  0  0  0  0  0  0  0  0  0  0
   -1.2499    1.1180    0.5845 C   0  0  0  0  0  0  0  0  0  0  0  0
   -1.6680    0.4319    1.3227 H   0  0  0  0  0  0  0  0  0  0  0  0
   -1.8104    2.0531    0.5632 H   0  0  0  0  0  0  0  0  0  0  0  0
    0.2284    1.4064    0.8460 C   0  0  0  0  0  0  0  0  0  0  0  0
    0.6992    0.9315    1.7091 H   0  0  0  0  0  0  0  0  0  0  0  0
    0.6508    2.3981    0.6852 H   0  0  0  0  0  0  0  0  0  0  0  0
    0.3724    0.5200   -0.4020 C   0  0  1  0  0  0  0  0  0  0  0  0
    0.3718    1.1549   -1.2883 H   0  0  0  0  0  0  0  0  0  0  0  0
    1.6644   -0.3135   -0.3680 C   0  0  0  0  0  0  0  0  0  0  0  0
    1.8930   -1.0714    0.5725 O   0  0  0  0  0  0  0  0  0  0  0  0
    2.5258   -0.1408   -1.3779 N   0  0  0  0  0  0  0  0  0  0  0  0
    2.2402    0.4525   -2.1403 H   0  0  0  0  0  0  0  0  0  0  0  0
    3.7997   -0.8468   -1.4935 C   0  0  0  0  0  0  0  0  0  0  0  0
    3.6135   -1.9153   -1.6213 H   0  0  0  0  0  0  0  0  0  0  0  0
    4.3633   -0.4736   -2.3491 H   0  0  0  0  0  0  0  0  0  0  0  0
    4.3856   -0.7037   -0.5830 H   0  0  0  0  0  0  0  0  0  0  0  0
  5  6  2  0  0  0  0
  5  7  1  0  0  0  0
  2  3  1  0  0  0  0
  2  4  1  0  0  0  0
  2  5  1  0  0  0  0
  1  2  1  0  0  0  0
 19 20  2  0  0  0  0
 19 21  1  0  0  0  0
 17 18  1  0  0  0  0
 17 19  1  0  0  0  0
 14 15  1  0  0  0  0
 14 16  1  0  0  0  0
 14 17  1  0  0  0  0
 11 12  1  0  0  0  0
 11 13  1  0  0  0  0
 11 14  1  0  0  0  0
  8  9  1  0  0  0  0
  8 10  1  0  0  0  0
  8 11  1  0  0  0  0
  7  8  1  0  0  0  0
  7 17  1  0  0  0  0
 23 24  1  0  0  0  0
 23 25  1  0  0  0  0
 23 26  1  0  0  0  0
 21 22  1  0  0  0  0
 21 23  1  0  0  0  0
M  END
$$$$
default_name
  -OEChem-01062215323D

 26 26  0     1  0  0  0  0  0999 V2000
   -1.8446   -3.5060   -0.3010 H   0  0  0  0  0  0  0  0  0  0  0  0
   -2.0746   -2.4490   -0.4240 C   0  0  0  0  0  0  0  0  0  0  0  0
   -2.6906   -2.1160    0.4090 H   0  0  0  0  0  0  0  0  0  0  0  0
   -2.5986   -2.2980   -1.3650 H   0  0  0  0  0  0  0  0  0  0  0  0
   -0.7756   -1.6630   -0.4350 C   0  0  0  0  0  0  0  0  0  0  0  0
    0.2844   -2.2800   -0.4550 O   0  0  0  0  0  0  0  0  0  0  0  0
   -0.8246   -0.3180   -0.4350 N   0  0  0  0  0  0  0  0  0  0  0  0
   -2.0106    0.5080   -0.5910 C   0  0  0  0  0  0  0  0  0  0  0  0
   -2.9849    0.1472   -0.2574 H   0  0  0  0  0  0  0  0  0  0  0  0
   -2.1300    1.2488   -1.3808 H   0  0  0  0  0  0  0  0  0  0  0  0
   -1.2499    1.1180    0.5845 C   0  0  0  0  0  0  0  0  0  0  0  0
   -1.6680    0.4319    1.3227 H   0  0  0  0  0  0  0  0  0  0  0  0
   -1.8104    2.0531    0.5632 H   0  0  0  0  0  0  0  0  0  0  0  0
    0.2284    1.4064    0.8460 C   0  0  0  0  0  0  0  0  0  0  0  0
    0.6992    0.9315    1.7091 H   0  0  0  0  0  0  0  0  0  0  0  0
    0.6508    2.3981    0.6852 H   0  0  0  0  0  0  0  0  0  0  0  0
    0.3724    0.5200   -0.4020 C   0  0  1  0  0  0  0  0  0  0  0  0
    0.3718    1.1549   -1.2883 H   0  0  0  0  0  0  0  0  0  0  0  0
    1.6644   -0.3135   -0.3680 C   0  0  0  0  0  0  0  0  0  0  0  0
    1.7755   -1.2603    0.4081 O   0  0  0  0  0  0  0  0  0  0  0  0
    2.6545    0.0666   -1.1846 N   0  0  0  0  0  0  0  0  0  0  0  0
    2.4656    0.8145   -1.8326 H   0  0  0  0  0  0  0  0  0  0  0  0
    3.9467   -0.6097   -1.2701 C   0  0  0  0  0  0  0  0  0  0  0  0
    3.8030   -1.6229   -1.6516 H   0  0  0  0  0  0  0  0  0  0  0  0
    4.6163   -0.0646   -1.9361 H   0  0  0  0  0  0  0  0  0  0  0  0
    4.3966   -0.6742   -0.2769 H   0  0  0  0  0  0  0  0  0  0  0  0
  5  6  2  0  0  0  0
  5  7  1  0  0  0  0
  2  3  1  0  0  0  0
  2  4  1  0  0  0  0
  2  5  1  0  0  0  0
  1  2  1  0  0  0  0
 19 20  2  0  0  0  0
 19 21  1  0  0  0  0
 17 18  1  0  0  0  0
 17 19  1  0  0  0  0
 14 15  1  0  0  0  0
 14 16  1  0  0  0  0
 14 17  1  0  0  0  0
 11 12  1  0  0  0  0
 11 13  1  0  0  0  0
 11 14  1  0  0  0  0
  8  9  1  0  0  0  0
  8 10  1  0  0  0  0
  8 11  1  0  0  0  0
  7  8  1  0  0  0  0
  7 17  1  0  0  0  0
 23 24  1  0  0  0  0
 23 25  1  0  0  0  0
 23 26  1  0  0  0  0
 21 22  1  0  0  0  0
 21 23  1  0  0  0  0
M  END
$$$$
default_name
  -OEChem-01062215323D

 26 26  0     1  0  0  0  0  0999 V2000
   -1.8446   -3.5060   -0.3010 H   0  0  0  0  0  0  0  0  0  0  0  0
   -2.0746   -2.4490   -0.4240 C   0  0  0  0  0  0  0  0  0  0  0  0
   -2.6906   -2.1160    0.4090 H   0  0  0  0  0  0  0  0  0  0  0  0
   -2.5986   -2.2980   -1.3650 H   0  0  0  0  0  0  0  0  0  0  0  0
   -0.7756   -1.6630   -0.4350 C   0  0  0  0  0  0  0  0  0  0  0  0
    0.2844   -2.2800   -0.4550 O   0  0  0  0  0  0  0  0  0  0  0  0
   -0.8246   -0.3180   -0.4350 N   0  0  0  0  0  0  0  0  0  0  0  0
   -2.0106    0.5080   -0.5910 C   0  0  0  0  0  0  0  0  0  0  0  0
   -2.9849    0.1472   -0.2574 H   0  0  0  0  0  0  0  0  0  0  0  0
   -2.1300    1.2488   -1.3808 H   0  0  0  0  0  0  0  0  0  0  0  0
   -1.2499    1.1180    0.5845 C   0  0  0  0  0  0  0  0  0  0  0  0
   -1.6680    0.4319    1.3227 H   0  0  0  0  0  0  0  0  0  0  0  0
   -1.8104    2.0531    0.5632 H   0  0  0  0  0  0  0  0  0  0  0  0
    0.2284    1.4064    0.8460 C   0  0  0  0  0  0  0  0  0  0  0  0
    0.6992    0.9315    1.7091 H   0  0  0  0  0  0  0  0  0  0  0  0
    0.6508    2.3981    0.6852 H   0  0  0  0  0  0  0  0  0  0  0  0
    0.3724    0.5200   -0.4020 C   0  0  1  0  0  0  0  0  0  0  0  0
    0.3718    1.1549   -1.2883 H   0  0  0  0  0  0  0  0  0  0  0  0
    1.6644   -0.3135   -0.3680 C   0  0  0  0  0  0  0  0  0  0  0  0
    1.6861   -1.4077    0.1919 O   0  0  0  0  0  0  0  0  0  0  0  0
    2.7506    0.2256   -0.9348 N   0  0  0  0  0  0  0  0  0  0  0  0
    2.6381    1.0986   -1.4250 H   0  0  0  0  0  0  0  0  0  0  0  0
    4.0561   -0.4285   -0.9821 C   0  0  0  0  0  0  0  0  0  0  0  0
    3.9886   -1.3327   -1.5908 H   0  0  0  0  0  0  0  0  0  0  0  0
    4.8004    0.2421   -1.4128 H   0  0  0  0  0  0  0  0  0  0  0  0
    4.3642   -0.7121    0.0266 H   0  0  0  0  0  0  0  0  0  0  0  0
  5  6  2  0  0  0  0
  5  7  1  0  0  0  0
  2  3  1  0  0  0  0
  2  4  1  0  0  0  0
  2  5  1  0  0  0  0
  1  2  1  0  0  0  0
 19 20  2  0  0  0  0
 19 21  1  0  0  0  0
 17 18  1  0  0  0  0
 17 19  1  0  0  0  0
 14 15  1  0  0  0  0
 14 16  1  0  0  0  0
 14 17  1  0  0  0  0
 11 12  1  0  0  0  0
 11 13  1  0  0  0  0
 11 14  1  0  0  0  0
  8  9  1  0  0  0  0
  8 10  1  0  0  0  0
  8 11  1  0  0  0  0
  7  8  1  0  0  0  0
  7 17  1  0  0  0  0
 23 24  1  0  0  0  0
 23 25  1  0  0  0  0
 23 26  1  0  0  0  0
 21 22  1  0  0  0  0
 21 23  1  0  0  0  0
M  END
$$$$
default_name
  -OEChem-01062215323D

 26 26  0     1  0  0  0  0  0999 V2000
   -1.8446   -3.5060   -0.3010 H   0  0  0  0  0  0  0  0  0  0  0  0
   -2.0746   -2.4490   -0.4240 C   0  0  0  0  0  0  0  0  0  0  0  0
   -2.6906   -2.1160    0.4090 H   0  0  0  0  0  0  0  0  0  0  0  0
   -2.5986   -2.2980   -1.3650 H   0  0  0  0  0  0  0  0  0  0  0  0
   -0.7756   -1.6630   -0.4350 C   0  0  0  0  0  0  0  0  0  0  0  0
    0.2844   -2.2800   -0.4550 O   0  0  0  0  0  0  0  0  0  0  0  0
   -0.8246   -0.3180   -0.4350 N   0  0  0  0  0  0  0  0  0  0  0  0
   -2.0106    0.5080   -0.5910 C   0  0  0  0  0  0  0  0  0  0  0  0
   -2.9849    0.1472   -0.2574 H   0  0  0  0  0  0  0  0  0  0  0  0
   -2.1300    1.2488   -1.3808 H   0  0  0  0  0  0  0  0  0  0  0  0
   -1.2499    1.1180    0.5845 C   0  0  0  0  0  0  0  0  0  0  0  0
   -1.6680    0.4319    1.3227 H   0  0  0  0  0  0  0  0  0  0  0  0
   -1.8104    2.0531    0.5632 H   0  0  0  0  0  0  0  0  0  0  0  0
    0.2284    1.4064    0.8460 C   0  0  0  0  0  0  0  0  0  0  0  0
    0.6992    0.9315    1.7091 H   0  0  0  0  0  0  0  0  0  0  0  0
    0.6508    2.3981    0.6852 H   0  0  0  0  0  0  0  0  0  0  0  0
    0.3724    0.5200   -0.4020 C   0  0  1  0  0  0  0  0  0  0  0  0
    0.3718    1.1549   -1.2883 H   0  0  0  0  0  0  0  0  0  0  0  0
    1.6644   -0.3135   -0.3680 C   0  0  0  0  0  0  0  0  0  0  0  0
    1.6309   -1.5036   -0.0616 O   0  0  0  0  0  0  0  0  0  0  0  0
    2.8074    0.3255   -0.6455 N   0  0  0  0  0  0  0  0  0  0  0  0
    2.7460    1.2853   -0.9453 H   0  0  0  0  0  0  0  0  0  0  0  0
    4.1203   -0.3154   -0.6491 C   0  0  0  0  0  0  0  0  0  0  0  0
    4.1577   -1.0646   -1.4429 H   0  0  0  0  0  0  0  0  0  0  0  0
    4.9030    0.4255   -0.8148 H   0  0  0  0  0  0  0  0  0  0  0  0
    4.2904   -0.8150    0.3071 H   0  0  0  0  0  0  0  0  0  0  0  0
  5  6  2  0  0  0  0
  5  7  1  0  0  0  0
  2  3  1  0  0  0  0
  2  4  1  0  0  0  0
  2  5  1  0  0  0  0
  1  2  1  0  0  0  0
 19 20  2  0  0  0  0
 19 21  1  0  0  0  0
 17 18  1  0  0  0  0
 17 19  1  0  0  0  0
 14 15  1  0  0  0  0
 14 16  1  0  0  0  0
 14 17  1  0  0  0  0
 11 12  1  0  0  0  0
 11 13  1  0  0  0  0
 11 14  1  0  0  0  0
  8  9  1  0  0  0  0
  8 10  1  0  0  0  0
  8 11  1  0  0  0  0
  7  8  1  0  0  0  0
  7 17  1  0  0  0  0
 23 24  1  0  0  0  0
 23 25  1  0  0  0  0
 23 26  1  0  0  0  0
 21 22  1  0  0  0  0
 21 23  1  0  0  0  0
M  END
$$$$
default_name
  -OEChem-01062215323D

 26 26  0     1  0  0  0  0  0999 V2000
   -1.8446   -3.5060   -0.3010 H   0  0  0  0  0  0  0  0  0  0  0  0
   -2.0746   -2.4490   -0.4240 C   0  0  0  0  0  0  0  0  0  0  0  0
   -2.6906   -2.1160    0.4090 H   0  0  0  0  0  0  0  0  0  0  0  0
   -2.5986   -2.2980   -1.3650 H   0  0  0  0  0  0  0  0  0  0  0  0
   -0.7756   -1.6630   -0.4350 C   0  0  0  0  0  0  0  0  0  0  0  0
    0.2844   -2.2800   -0.4550 O   0  0  0  0  0  0  0  0  0  0  0  0
   -0.8246   -0.3180   -0.4350 N   0  0  0  0  0  0  0  0  0  0  0  0
   -2.0106    0.5080   -0.5910 C   0  0  0  0  0  0  0  0  0  0  0  0
   -2.9719    0.2724   -0.1315 H   0  0  0  0  0  0  0  0  0  0  0  0
   -2.0905    1.4093   -1.1978 H   0  0  0  0  0  0  0  0  0  0  0  0
   -0.9491    0.7004    0.4901 C   0  0  0  0  0  0  0  0  0  0  0  0
   -1.1446   -0.3594    0.6609 H   0  0  0  0  0  0  0  0  0  0  0  0
   -1.7226    1.3162    0.9500 H   0  0  0  0  0  0  0  0  0  0  0  0
    0.4250    1.1190    1.0131 C   0  0  0  0  0  0  0  0  0  0  0  0
    1.0143    0.4826    1.6763 H   0  0  0  0  0  0  0  0  0  0  0  0
    0.8288    2.1313    1.0060 H   0  0  0  0  0  0  0  0  0  0  0  0
    0.3724    0.5200   -0.4020 C   0  0  1  0  0  0  0  0  0  0  0  0
    0.2462    1.3278   -1.1231 H   0  0  0  0  0  0  0  0  0  0  0  0
    1.6465   -0.2733   -0.7371 C   0  0  0  0  0  0  0  0  0  0  0  0
    1.5888   -1.4812   -0.9586 O   0  0  0  0  0  0  0  0  0  0  0  0
    2.8018    0.4026   -0.7345 N   0  0  0  0  0  0  0  0  0  0  0  0
    2.7597    1.4005   -0.6027 H   0  0  0  0  0  0  0  0  0  0  0  0
    4.1008   -0.2006   -1.0232 C   0  0  0  0  0  0  0  0  0  0  0  0
    4.1193   -0.5474   -2.0586 H   0  0  0  0  0  0  0  0  0  0  0  0
    4.8985    0.5273   -0.8718 H   0  0  0  0  0  0  0  0  0  0  0  0
    4.2637   -1.0587   -0.3674 H   0  0  0  0  0  0  0  0  0  0  0  0
  5  6  2  0  0  0  0
  5  7  1  0  0  0  0
  2  3  1  0  0  0  0
  2  4  1  0  0  0  0
  2  5  1  0  0  0  0
  1  2  1  0  0  0  0
 19 20  2  0  0  0  0
 19 21  1  0  0  0  0
 17 18  1  0  0  0  0
 17 19  1  0  0  0  0
 14 15  1  0  0  0  0
 14 16  1  0  0  0  0
 14 17  1  0  0  0  0
 11 12  1  0  0  0  0
 11 13  1  0  0  0  0
 11 14  1  0  0  0  0
  8  9  1  0  0  0  0
  8 10  1  0  0  0  0
  8 11  1  0  0  0  0
  7  8  1  0  0  0  0
  7 17  1  0  0  0  0
 23 24  1  0  0  0  0
 23 25  1  0  0  0  0
 23 26  1  0  0  0  0
 21 22  1  0  0  0  0
 21 23  1  0  0  0  0
M  END
$$$$
default_name
  -OEChem-01062215323D

 26 26  0     1  0  0  0  0  0999 V2000
   -1.8446   -3.5060   -0.3010 H   0  0  0  0  0  0  0  0  0  0  0  0
   -2.0746   -2.4490   -0.4240 C   0  0  0  0  0  0  0  0  0  0  0  0
   -2.6906   -2.1160    0.4090 H   0  0  0  0  0  0  0  0  0  0  0  0
   -2.5986   -2.2980   -1.3650 H   0  0  0  0  0  0  0  0  0  0  0  0
   -0.7756   -1.6630   -0.4350 C   0  0  0  0  0  0  0  0  0  0  0  0
    0.2844   -2.2800   -0.4550 O   0  0  0  0  0  0  0  0  0  0  0  0
   -0.8246   -0.3180   -0.4350 N   0  0  0  0  0  0  0  0  0  0  0  0
   -2.0106    0.5080   -0.5910 C   0  0  0  0  0  0  0  0  0  0  0  0
   -2.9719    0.2724   -0.1315 H   0  0  0  0  0  0  0  0  0  0  0  0
   -2.0905    1.4093   -1.1978 H   0  0  0  0  0  0  0  0  0  0  0  0
   -0.9491    0.7004    0.4901 C   0  0  0  0  0  0  0  0  0  0  0  0
   -1.1446   -0.3594    0.6609 H   0  0  0  0  0  0  0  0  0  0  0  0
   -1.7226    1.3162    0.9500 H   0  0  0  0  0  0  0  0  0  0  0  0
    0.4250    1.1190    1.0131 C   0  0  0  0  0  0  0  0  0  0  0  0
    1.0143    0.4826    1.6763 H   0  0  0  0  0  0  0  0  0  0  0  0
    0.8288    2.1313    1.0060 H   0  0  0  0  0  0  0  0  0  0  0  0
    0.3724    0.5200   -0.4020 C   0  0  1  0  0  0  0  0  0  0  0  0
    0.2462    1.3278   -1.1231 H   0  0  0  0  0  0  0  0  0  0  0  0
    1.6465   -0.2733   -0.7371 C   0  0  0  0  0  0  0  0  0  0  0  0
    1.5698   -1.4003   -1.2224 O   0  0  0  0  0  0  0  0  0  0  0  0
    2.8173    0.3031   -0.4399 N   0  0  0  0  0  0  0  0  0  0  0  0
    2.7991    1.2513   -0.0999 H   0  0  0  0  0  0  0  0  0  0  0  0
    4.1175   -0.3164   -0.6854 C   0  0  0  0  0  0  0  0  0  0  0  0
    4.2659   -0.4378   -1.7606 H   0  0  0  0  0  0  0  0  0  0  0  0
    4.9160    0.3048   -0.2785 H   0  0  0  0  0  0  0  0  0  0  0  0
    4.1513   -1.3027   -0.2175 H   0  0  0  0  0  0  0  0  0  0  0  0
  5  6  2  0  0  0  0
  5  7  1  0  0  0  0
  2  3  1  0  0  0  0
  2  4  1  0  0  0  0
  2  5  1  0  0  0  0
  1  2  1  0  0  0  0
 19 20  2  0  0  0  0
 19 21  1  0  0  0  0
 17 18  1  0  0  0  0
 17 19  1  0  0  0  0
 14 15  1  0  0  0  0
 14 16  1  0  0  0  0
 14 17  1  0  0  0  0
 11 12  1  0  0  0  0
 11 13  1  0  0  0  0
 11 14  1  0  0  0  0
  8  9  1  0  0  0  0
  8 10  1  0  0  0  0
  8 11  1  0  0  0  0
  7  8  1  0  0  0  0
  7 17  1  0  0  0  0
 23 24  1  0  0  0  0
 23 25  1  0  0  0  0
 23 26  1  0  0  0  0
 21 22  1  0  0  0  0
 21 23  1  0  0  0  0
M  END
$$$$
default_name
  -OEChem-01062215323D

 26 26  0     1  0  0  0  0  0999 V2000
   -1.8446   -3.5060   -0.3010 H   0  0  0  0  0  0  0  0  0  0  0  0
   -2.0746   -2.4490   -0.4240 C   0  0  0  0  0  0  0  0  0  0  0  0
   -2.6906   -2.1160    0.4090 H   0  0  0  0  0  0  0  0  0  0  0  0
   -2.5986   -2.2980   -1.3650 H   0  0  0  0  0  0  0  0  0  0  0  0
   -0.7756   -1.6630   -0.4350 C   0  0  0  0  0  0  0  0  0  0  0  0
    0.2844   -2.2800   -0.4550 O   0  0  0  0  0  0  0  0  0  0  0  0
   -0.8246   -0.3180   -0.4350 N   0  0  0  0  0  0  0  0  0  0  0  0
   -2.0106    0.5080   -0.5910 C   0  0  0  0  0  0  0  0  0  0  0  0
   -2.9719    0.2724   -0.1315 H   0  0  0  0  0  0  0  0  0  0  0  0
   -2.0905    1.4093   -1.1978 H   0  0  0  0  0  0  0  0  0  0  0  0
   -0.9491    0.7004    0.4901 C   0  0  0  0  0  0  0  0  0  0  0  0
   -1.1446   -0.3594    0.6609 H   0  0  0  0  0  0  0  0  0  0  0  0
   -1.7226    1.3162    0.9500 H   0  0  0  0  0  0  0  0  0  0  0  0
    0.4250    1.1190    1.0131 C   0  0  0  0  0  0  0  0  0  0  0  0
    1.0143    0.4826    1.6763 H   0  0  0  0  0  0  0  0  0  0  0  0
    0.8288    2.1313    1.0060 H   0  0  0  0  0  0  0  0  0  0  0  0
    0.3724    0.5200   -0.4020 C   0  0  1  0  0  0  0  0  0  0  0  0
    0.2462    1.3278   -1.1231 H   0  0  0  0  0  0  0  0  0  0  0  0
    1.6465   -0.2733   -0.7371 C   0  0  0  0  0  0  0  0  0  0  0  0
    1.5913   -1.2645   -1.4624 O   0  0  0  0  0  0  0  0  0  0  0  0
    2.7874    0.1430   -0.1746 N   0  0  0  0  0  0  0  0  0  0  0  0
    2.7616    0.9972    0.3590 H   0  0  0  0  0  0  0  0  0  0  0  0
    4.0821   -0.5016   -0.3818 C   0  0  0  0  0  0  0  0  0  0  0  0
    4.3740   -0.4041   -1.4296 H   0  0  0  0  0  0  0  0  0  0  0  0
    4.8412   -0.0383    0.2492 H   0  0  0  0  0  0  0  0  0  0  0  0
    4.0088   -1.5642   -0.1400 H   0  0  0  0  0  0  0  0  0  0  0  0
  5  6  2  0  0  0  0
  5  7  1  0  0  0  0
  2  3  1  0  0  0  0
  2  4  1  0  0  0  0
  2  5  1  0  0  0  0
  1  2  1  0  0  0  0
 19 20  2  0  0  0  0
 19 21  1  0  0  0  0
 17 18  1  0  0  0  0
 17 19  1  0  0  0  0
 14 15  1  0  0  0  0
 14 16  1  0  0  0  0
 14 17  1  0  0  0  0
 11 12  1  0  0  0  0
 11 13  1  0  0  0  0
 11 14  1  0  0  0  0
  8  9  1  0  0  0  0
  8 10  1  0  0  0  0
  8 11  1  0  0  0  0
  7  8  1  0  0  0  0
  7 17  1  0  0  0  0
 23 24  1  0  0  0  0
 23 25  1  0  0  0  0
 23 26  1  0  0  0  0
 21 22  1  0  0  0  0
 21 23  1  0  0  0  0
M  END
$$$$
default_name
  -OEChem-01062215323D

 26 26  0     1  0  0  0  0  0999 V2000
   -1.8446   -3.5060   -0.3010 H   0  0  0  0  0  0  0  0  0  0  0  0
   -2.0746   -2.4490   -0.4240 C   0  0  0  0  0  0  0  0  0  0  0  0
   -2.6906   -2.1160    0.4090 H   0  0  0  0  0  0  0  0  0  0  0  0
   -2.5986   -2.2980   -1.3650 H   0  0  0  0  0  0  0  0  0  0  0  0
   -0.7756   -1.6630   -0.4350 C   0  0  0  0  0  0  0  0  0  0  0  0
    0.2844   -2.2800   -0.4550 O   0  0  0  0  0  0  0  0  0  0  0  0
   -0.8246   -0.3180   -0.4350 N   0  0  0  0  0  0  0  0  0  0  0  0
   -2.0106    0.5080   -0.5910 C   0  0  0  0  0  0  0  0  0  0  0  0
   -2.9719    0.2724   -0.1315 H   0  0  0  0  0  0  0  0  0  0  0  0
   -2.0905    1.4093   -1.1978 H   0  0  0  0  0  0  0  0  0  0  0  0
   -0.9491    0.7004    0.4901 C   0  0  0  0  0  0  0  0  0  0  0  0
   -1.1446   -0.3594    0.6609 H   0  0  0  0  0  0  0  0  0  0  0  0
   -1.7226    1.3162    0.9500 H   0  0  0  0  0  0  0  0  0  0  0  0
    0.4250    1.1190    1.0131 C   0  0  0  0  0  0  0  0  0  0  0  0
    1.0143    0.4826    1.6763 H   0  0  0  0  0  0  0  0  0  0  0  0
    0.8288    2.1313    1.0060 H   0  0  0  0  0  0  0  0  0  0  0  0
    0.3724    0.5200   -0.4020 C   0  0  1  0  0  0  0  0  0  0  0  0
    0.2462    1.3278   -1.1231 H   0  0  0  0  0  0  0  0  0  0  0  0
    1.6465   -0.2733   -0.7371 C   0  0  0  0  0  0  0  0  0  0  0  0
    1.6517   -1.0830   -1.6622 O   0  0  0  0  0  0  0  0  0  0  0  0
    2.7141   -0.0668    0.0433 N   0  0  0  0  0  0  0  0  0  0  0  0
    2.6497    0.6554    0.7427 H   0  0  0  0  0  0  0  0  0  0  0  0
    3.9969   -0.7436   -0.1329 C   0  0  0  0  0  0  0  0  0  0  0  0
    4.4361   -0.4486   -1.0883 H   0  0  0  0  0  0  0  0  0  0  0  0
    4.6792   -0.4786    0.6754 H   0  0  0  0  0  0  0  0  0  0  0  0
    3.8462   -1.8253   -0.1402 H   0  0  0  0  0  0  0  0  0  0  0  0
  5  6  2  0  0  0  0
  5  7  1  0  0  0  0
  2  3  1  0  0  0  0
  2  4  1  0  0  0  0
  2  5  1  0  0  0  0
  1  2  1  0  0  0  0
 19 20  2  0  0  0  0
 19 21  1  0  0  0  0
 17 18  1  0  0  0  0
 17 19  1  0  0  0  0
 14 15  1  0  0  0  0
 14 16  1  0  0  0  0
 14 17  1  0  0  0  0
 11 12  1  0  0  0  0
 11 13  1  0  0  0  0
 11 14  1  0  0  0  0
  8  9  1  0  0  0  0
  8 10  1  0  0  0  0
  8 11  1  0  0  0  0
  7  8  1  0  0  0  0
  7 17  1  0  0  0  0
 23 24  1  0  0  0  0
 23 25  1  0  0  0  0
 23 26  1  0  0  0  0
 21 22  1  0  0  0  0
 21 23  1  0  0  0  0
M  END
$$$$
default_name
  -OEChem-01062215323D

 26 26  0     1  0  0  0  0  0999 V2000
   -1.8446   -3.5060   -0.3010 H   0  0  0  0  0  0  0  0  0  0  0  0
   -2.0746   -2.4490   -0.4240 C   0  0  0  0  0  0  0  0  0  0  0  0
   -2.6906   -2.1160    0.4090 H   0  0  0  0  0  0  0  0  0  0  0  0
   -2.5986   -2.2980   -1.3650 H   0  0  0  0  0  0  0  0  0  0  0  0
   -0.7756   -1.6630   -0.4350 C   0  0  0  0  0  0  0  0  0  0  0  0
    0.2844   -2.2800   -0.4550 O   0  0  0  0  0  0  0  0  0  0  0  0
   -0.8246   -0.3180   -0.4350 N   0  0  0  0  0  0  0  0  0  0  0  0
   -2.0106    0.5080   -0.5910 C   0  0  0  0  0  0  0  0  0  0  0  0
   -2.9719    0.2724   -0.1315 H   0  0  0  0  0  0  0  0  0  0  0  0
   -2.0905    1.4093   -1.1978 H   0  0  0  0  0  0  0  0  0  0  0  0
   -0.9491    0.7004    0.4901 C   0  0  0  0  0  0  0  0  0  0  0  0
   -1.1446   -0.3594    0.6609 H   0  0  0  0  0  0  0  0  0  0  0  0
   -1.7226    1.3162    0.9500 H   0  0  0  0  0  0  0  0  0  0  0  0
    0.4250    1.1190    1.0131 C   0  0  0  0  0  0  0  0  0  0  0  0
    1.0143    0.4826    1.6763 H   0  0  0  0  0  0  0  0  0  0  0  0
    0.8288    2.1313    1.0060 H   0  0  0  0  0  0  0  0  0  0  0  0
    0.3724    0.5200   -0.4020 C   0  0  1  0  0  0  0  0  0  0  0  0
    0.2462    1.3278   -1.1231 H   0  0  0  0  0  0  0  0  0  0  0  0
    1.6465   -0.2733   -0.7371 C   0  0  0  0  0  0  0  0  0  0  0  0
    1.7469   -0.8683   -1.8082 O   0  0  0  0  0  0  0  0  0  0  0  0
    2.6023   -0.3121    0.1991 N   0  0  0  0  0  0  0  0  0  0  0  0
    2.4712    0.2493    1.0252 H   0  0  0  0  0  0  0  0  0  0  0  0
    3.8677   -1.0259    0.0442 C   0  0  0  0  0  0  0  0  0  0  0  0
    4.4480   -0.5682   -0.7598 H   0  0  0  0  0  0  0  0  0  0  0  0
    4.4409   -0.9862    0.9710 H   0  0  0  0  0  0  0  0  0  0  0  0
    3.6743   -2.0683   -0.2181 H   0  0  0  0  0  0  0  0  0  0  0  0
  5  6  2  0  0  0  0
  5  7  1  0  0  0  0
  2  3  1  0  0  0  0
  2  4  1  0  0  0  0
  2  5  1  0  0  0  0
  1  2  1  0  0  0  0
 19 20  2  0  0  0  0
 19 21  1  0  0  0  0
 17 18  1  0  0  0  0
 17 19  1  0  0  0  0
 14 15  1  0  0  0  0
 14 16  1  0  0  0  0
 14 17  1  0  0  0  0
 11 12  1  0  0  0  0
 11 13  1  0  0  0  0
 11 14  1  0  0  0  0
  8  9  1  0  0  0  0
  8 10  1  0  0  0  0
  8 11  1  0  0  0  0
  7  8  1  0  0  0  0
  7 17  1  0  0  0  0
 23 24  1  0  0  0  0
 23 25  1  0  0  0  0
 23 26  1  0  0  0  0
 21 22  1  0  0  0  0
 21 23  1  0  0  0  0
M  END
$$$$
default_name
  -OEChem-01062215323D

 26 26  0     1  0  0  0  0  0999 V2000
   -1.8446   -3.5060   -0.3010 H   0  0  0  0  0  0  0  0  0  0  0  0
   -2.0746   -2.4490   -0.4240 C   0  0  0  0  0  0  0  0  0  0  0  0
   -2.6906   -2.1160    0.4090 H   0  0  0  0  0  0  0  0  0  0  0  0
   -2.5986   -2.2980   -1.3650 H   0  0  0  0  0  0  0  0  0  0  0  0
   -0.7756   -1.6630   -0.4350 C   0  0  0  0  0  0  0  0  0  0  0  0
    0.2844   -2.2800   -0.4550 O   0  0  0  0  0  0  0  0  0  0  0  0
   -0.8246   -0.3180   -0.4350 N   0  0  0  0  0  0  0  0  0  0  0  0
   -2.0106    0.5080   -0.5910 C   0  0  0  0  0  0  0  0  0  0  0  0
   -2.9719    0.2724   -0.1315 H   0  0  0  0  0  0  0  0  0  0  0  0
   -2.0905    1.4093   -1.1978 H   0  0  0  0  0  0  0  0  0  0  0  0
   -0.9491    0.7004    0.4901 C   0  0  0  0  0  0  0  0  0  0  0  0
   -1.1446   -0.3594    0.6609 H   0  0  0  0  0  0  0  0  0  0  0  0
   -1.7226    1.3162    0.9500 H   0  0  0  0  0  0  0  0  0  0  0  0
    0.4250    1.1190    1.0131 C   0  0  0  0  0  0  0  0  0  0  0  0
    1.0143    0.4826    1.6763 H   0  0  0  0  0  0  0  0  0  0  0  0
    0.8288    2.1313    1.0060 H   0  0  0  0  0  0  0  0  0  0  0  0
    0.3724    0.5200   -0.4020 C   0  0  1  0  0  0  0  0  0  0  0  0
    0.2462    1.3278   -1.1231 H   0  0  0  0  0  0  0  0  0  0  0  0
    1.6465   -0.2733   -0.7371 C   0  0  0  0  0  0  0  0  0  0  0  0
    1.8706   -0.6350   -1.8905 O   0  0  0  0  0  0  0  0  0  0  0  0
    2.4597   -0.5762    0.2820 N   0  0  0  0  0  0  0  0  0  0  0  0
    2.2381   -0.1934    1.1871 H   0  0  0  0  0  0  0  0  0  0  0  0
    3.7033   -1.3293    0.1375 C   0  0  0  0  0  0  0  0  0  0  0  0
    4.4089   -0.7549   -0.4666 H   0  0  0  0  0  0  0  0  0  0  0  0
    4.1426   -1.5264    1.1159 H   0  0  0  0  0  0  0  0  0  0  0  0
    3.5051   -2.2766   -0.3685 H   0  0  0  0  0  0  0  0  0  0  0  0
  5  6  2  0  0  0  0
  5  7  1  0  0  0  0
  2  3  1  0  0  0  0
  2  4  1  0  0  0  0
  2  5  1  0  0  0  0
  1  2  1  0  0  0  0
 19 20  2  0  0  0  0
 19 21  1  0  0  0  0
 17 18  1  0  0  0  0
 17 19  1  0  0  0  0
 14 15  1  0  0  0  0
 14 16  1  0  0  0  0
 14 17  1  0  0  0  0
 11 12  1  0  0  0  0
 11 13  1  0  0  0  0
 11 14  1  0  0  0  0
  8  9  1  0  0  0  0
  8 10  1  0  0  0  0
  8 11  1  0  0  0  0
  7  8  1  0  0  0  0
  7 17  1  0  0  0  0
 23 24  1  0  0  0  0
 23 25  1  0  0  0  0
 23 26  1  0  0  0  0
 21 22  1  0  0  0  0
 21 23  1  0  0  0  0
M  END
$$$$
default_name
  -OEChem-01062215323D

 26 26  0     1  0  0  0  0  0999 V2000
   -1.8446   -3.5060   -0.3010 H   0  0  0  0  0  0  0  0  0  0  0  0
   -2.0746   -2.4490   -0.4240 C   0  0  0  0  0  0  0  0  0  0  0  0
   -2.6906   -2.1160    0.4090 H   0  0  0  0  0  0  0  0  0  0  0  0
   -2.5986   -2.2980   -1.3650 H   0  0  0  0  0  0  0  0  0  0  0  0
   -0.7756   -1.6630   -0.4350 C   0  0  0  0  0  0  0  0  0  0  0  0
    0.2844   -2.2800   -0.4550 O   0  0  0  0  0  0  0  0  0  0  0  0
   -0.8246   -0.3180   -0.4350 N   0  0  0  0  0  0  0  0  0  0  0  0
   -2.0106    0.5080   -0.5910 C   0  0  0  0  0  0  0  0  0  0  0  0
   -2.9719    0.2724   -0.1315 H   0  0  0  0  0  0  0  0  0  0  0  0
   -2.0905    1.4093   -1.1978 H   0  0  0  0  0  0  0  0  0  0  0  0
   -0.9491    0.7004    0.4901 C   0  0  0  0  0  0  0  0  0  0  0  0
   -1.1446   -0.3594    0.6609 H   0  0  0  0  0  0  0  0  0  0  0  0
   -1.7226    1.3162    0.9500 H   0  0  0  0  0  0  0  0  0  0  0  0
    0.4250    1.1190    1.0131 C   0  0  0  0  0  0  0  0  0  0  0  0
    1.0143    0.4826    1.6763 H   0  0  0  0  0  0  0  0  0  0  0  0
    0.8288    2.1313    1.0060 H   0  0  0  0  0  0  0  0  0  0  0  0
    0.3724    0.5200   -0.4020 C   0  0  1  0  0  0  0  0  0  0  0  0
    0.2462    1.3278   -1.1231 H   0  0  0  0  0  0  0  0  0  0  0  0
    1.6465   -0.2733   -0.7371 C   0  0  0  0  0  0  0  0  0  0  0  0
    2.0141   -0.3990   -1.9035 O   0  0  0  0  0  0  0  0  0  0  0  0
    2.2960   -0.8409    0.2864 N   0  0  0  0  0  0  0  0  0  0  0  0
    1.9664   -0.6426    1.2174 H   0  0  0  0  0  0  0  0  0  0  0  0
    3.5150   -1.6330    0.1407 C   0  0  0  0  0  0  0  0  0  0  0  0
    4.3214   -0.9959   -0.2287 H   0  0  0  0  0  0  0  0  0  0  0  0
    3.8046   -2.0625    1.1002 H   0  0  0  0  0  0  0  0  0  0  0  0
    3.3499   -2.4361   -0.5810 H   0  0  0  0  0  0  0  0  0  0  0  0
  5  6  2  0  0  0  0
  5  7  1  0  0  0  0
  2  3  1  0  0  0  0
  2  4  1  0  0  0  0
  2  5  1  0  0  0  0
  1  2  1  0  0  0  0
 19 20  2  0  0  0  0
 19 21  1  0  0  0  0
 17 18  1  0  0  0  0
 17 19  1  0  0  0  0
 14 15  1  0  0  0  0
 14 16  1  0  0  0  0
 14 17  1  0  0  0  0
 11 12  1  0  0  0  0
 11 13  1  0  0  0  0
 11 14  1  0  0  0  0
  8  9  1  0  0  0  0
  8 10  1  0  0  0  0
  8 11  1  0  0  0  0
  7  8  1  0  0  0  0
  7 17  1  0  0  0  0
 23 24  1  0  0  0  0
 23 25  1  0  0  0  0
 23 26  1  0  0  0  0
 21 22  1  0  0  0  0
 21 23  1  0  0  0  0
M  END
$$$$
default_name
  -OEChem-01062215323D

 26 26  0     1  0  0  0  0  0999 V2000
   -1.8446   -3.5060   -0.3010 H   0  0  0  0  0  0  0  0  0  0  0  0
   -2.0746   -2.4490   -0.4240 C   0  0  0  0  0  0  0  0  0  0  0  0
   -2.6906   -2.1160    0.4090 H   0  0  0  0  0  0  0  0  0  0  0  0
   -2.5986   -2.2980   -1.3650 H   0  0  0  0  0  0  0  0  0  0  0  0
   -0.7756   -1.6630   -0.4350 C   0  0  0  0  0  0  0  0  0  0  0  0
    0.2844   -2.2800   -0.4550 O   0  0  0  0  0  0  0  0  0  0  0  0
   -0.8246   -0.3180   -0.4350 N   0  0  0  0  0  0  0  0  0  0  0  0
   -2.0106    0.5080   -0.5910 C   0  0  0  0  0  0  0  0  0  0  0  0
   -2.9719    0.2724   -0.1315 H   0  0  0  0  0  0  0  0  0  0  0  0
   -2.0905    1.4093   -1.1978 H   0  0  0  0  0  0  0  0  0  0  0  0
   -0.9491    0.7004    0.4901 C   0  0  0  0  0  0  0  0  0  0  0  0
   -1.1446   -0.3594    0.6609 H   0  0  0  0  0  0  0  0  0  0  0  0
   -1.7226    1.3162    0.9500 H   0  0  0  0  0  0  0  0  0  0  0  0
    0.4250    1.1190    1.0131 C   0  0  0  0  0  0  0  0  0  0  0  0
    1.0143    0.4826    1.6763 H   0  0  0  0  0  0  0  0  0  0  0  0
    0.8288    2.1313    1.0060 H   0  0  0  0  0  0  0  0  0  0  0  0
    0.3724    0.5200   -0.4020 C   0  0  1  0  0  0  0  0  0  0  0  0
    0.2462    1.3278   -1.1231 H   0  0  0  0  0  0  0  0  0  0  0  0
    1.6465   -0.2733   -0.7371 C   0  0  0  0  0  0  0  0  0  0  0  0
    2.1678   -0.1763   -1.8462 O   0  0  0  0  0  0  0  0  0  0  0  0
    2.1224   -1.0884    0.2120 N   0  0  0  0  0  0  0  0  0  0  0  0
    1.6745   -1.0677    1.1141 H   0  0  0  0  0  0  0  0  0  0  0  0
    3.3155   -1.9165    0.0534 C   0  0  0  0  0  0  0  0  0  0  0  0
    4.1916   -1.2748   -0.0622 H   0  0  0  0  0  0  0  0  0  0  0  0
    3.4501   -2.5579    0.9250 H   0  0  0  0  0  0  0  0  0  0  0  0
    3.2193   -2.5358   -0.8411 H   0  0  0  0  0  0  0  0  0  0  0  0
  5  6  2  0  0  0  0
  5  7  1  0  0  0  0
  2  3  1  0  0  0  0
  2  4  1  0  0  0  0
  2  5  1  0  0  0  0
  1  2  1  0  0  0  0
 19 20  2  0  0  0  0
 19 21  1  0  0  0  0
 17 18  1  0  0  0  0
 17 19  1  0  0  0  0
 14 15  1  0  0  0  0
 14 16  1  0  0  0  0
 14 17  1  0  0  0  0
 11 12  1  0  0  0  0
 11 13  1  0  0  0  0
 11 14  1  0  0  0  0
  8  9  1  0  0  0  0
  8 10  1  0  0  0  0
  8 11  1  0  0  0  0
  7  8  1  0  0  0  0
  7 17  1  0  0  0  0
 23 24  1  0  0  0  0
 23 25  1  0  0  0  0
 23 26  1  0  0  0  0
 21 22  1  0  0  0  0
 21 23  1  0  0  0  0
M  END
$$$$
default_name
  -OEChem-01062215323D

 26 26  0     1  0  0  0  0  0999 V2000
   -1.8446   -3.5060   -0.3010 H   0  0  0  0  0  0  0  0  0  0  0  0
   -2.0746   -2.4490   -0.4240 C   0  0  0  0  0  0  0  0  0  0  0  0
   -2.6906   -2.1160    0.4090 H   0  0  0  0  0  0  0  0  0  0  0  0
   -2.5986   -2.2980   -1.3650 H   0  0  0  0  0  0  0  0  0  0  0  0
   -0.7756   -1.6630   -0.4350 C   0  0  0  0  0  0  0  0  0  0  0  0
    0.2844   -2.2800   -0.4550 O   0  0  0  0  0  0  0  0  0  0  0  0
   -0.8246   -0.3180   -0.4350 N   0  0  0  0  0  0  0  0  0  0  0  0
   -2.0106    0.5080   -0.5910 C   0  0  0  0  0  0  0  0  0  0  0  0
   -2.9719    0.2724   -0.1315 H   0  0  0  0  0  0  0  0  0  0  0  0
   -2.0905    1.4093   -1.1978 H   0  0  0  0  0  0  0  0  0  0  0  0
   -0.9491    0.7004    0.4901 C   0  0  0  0  0  0  0  0  0  0  0  0
   -1.1446   -0.3594    0.6609 H   0  0  0  0  0  0  0  0  0  0  0  0
   -1.7226    1.3162    0.9500 H   0  0  0  0  0  0  0  0  0  0  0  0
    0.4250    1.1190    1.0131 C   0  0  0  0  0  0  0  0  0  0  0  0
    1.0143    0.4826    1.6763 H   0  0  0  0  0  0  0  0  0  0  0  0
    0.8288    2.1313    1.0060 H   0  0  0  0  0  0  0  0  0  0  0  0
    0.3724    0.5200   -0.4020 C   0  0  1  0  0  0  0  0  0  0  0  0
    0.2462    1.3278   -1.1231 H   0  0  0  0  0  0  0  0  0  0  0  0
    1.6465   -0.2733   -0.7371 C   0  0  0  0  0  0  0  0  0  0  0  0
    2.3212    0.0178   -1.7227 O   0  0  0  0  0  0  0  0  0  0  0  0
    1.9506   -1.3016    0.0639 N   0  0  0  0  0  0  0  0  0  0  0  0
    1.3824   -1.4397    0.8843 H   0  0  0  0  0  0  0  0  0  0  0  0
    3.1185   -2.1604   -0.1183 C   0  0  0  0  0  0  0  0  0  0  0  0
    4.0282   -1.5725    0.0215 H   0  0  0  0  0  0  0  0  0  0  0  0
    3.1030   -2.9788    0.6021 H   0  0  0  0  0  0  0  0  0  0  0  0
    3.1224   -2.5690   -1.1312 H   0  0  0  0  0  0  0  0  0  0  0  0
  5  6  2  0  0  0  0
  5  7  1  0  0  0  0
  2  3  1  0  0  0  0
  2  4  1  0  0  0  0
  2  5  1  0  0  0  0
  1  2  1  0  0  0  0
 19 20  2  0  0  0  0
 19 21  1  0  0  0  0
 17 18  1  0  0  0  0
 17 19  1  0  0  0  0
 14 15  1  0  0  0  0
 14 16  1  0  0  0  0
 14 17  1  0  0  0  0
 11 12  1  0  0  0  0
 11 13  1  0  0  0  0
 11 14  1  0  0  0  0
  8  9  1  0  0  0  0
  8 10  1  0  0  0  0
  8 11  1  0  0  0  0
  7  8  1  0  0  0  0
  7 17  1  0  0  0  0
 23 24  1  0  0  0  0
 23 25  1  0  0  0  0
 23 26  1  0  0  0  0
 21 22  1  0  0  0  0
 21 23  1  0  0  0  0
M  END
$$$$
default_name
  -OEChem-01062215323D

 26 26  0     1  0  0  0  0  0999 V2000
   -1.8446   -3.5060   -0.3010 H   0  0  0  0  0  0  0  0  0  0  0  0
   -2.0746   -2.4490   -0.4240 C   0  0  0  0  0  0  0  0  0  0  0  0
   -2.6906   -2.1160    0.4090 H   0  0  0  0  0  0  0  0  0  0  0  0
   -2.5986   -2.2980   -1.3650 H   0  0  0  0  0  0  0  0  0  0  0  0
   -0.7756   -1.6630   -0.4350 C   0  0  0  0  0  0  0  0  0  0  0  0
    0.2844   -2.2800   -0.4550 O   0  0  0  0  0  0  0  0  0  0  0  0
   -0.8246   -0.3180   -0.4350 N   0  0  0  0  0  0  0  0  0  0  0  0
   -2.0106    0.5080   -0.5910 C   0  0  0  0  0  0  0  0  0  0  0  0
   -2.9719    0.2724   -0.1315 H   0  0  0  0  0  0  0  0  0  0  0  0
   -2.0905    1.4093   -1.1978 H   0  0  0  0  0  0  0  0  0  0  0  0
   -0.9491    0.7004    0.4901 C   0  0  0  0  0  0  0  0  0  0  0  0
   -1.1446   -0.3594    0.6609 H   0  0  0  0  0  0  0  0  0  0  0  0
   -1.7226    1.3162    0.9500 H   0  0  0  0  0  0  0  0  0  0  0  0
    0.4250    1.1190    1.0131 C   0  0  0  0  0  0  0  0  0  0  0  0
    1.0143    0.4826    1.6763 H   0  0  0  0  0  0  0  0  0  0  0  0
    0.8288    2.1313    1.0060 H   0  0  0  0  0  0  0  0  0  0  0  0
    0.3724    0.5200   -0.4020 C   0  0  1  0  0  0  0  0  0  0  0  0
    0.2462    1.3278   -1.1231 H   0  0  0  0  0  0  0  0  0  0  0  0
    1.6465   -0.2733   -0.7371 C   0  0  0  0  0  0  0  0  0  0  0  0
    2.4639    0.1702   -1.5412 O   0  0  0  0  0  0  0  0  0  0  0  0
    1.7924   -1.4662   -0.1478 N   0  0  0  0  0  0  0  0  0  0  0  0
    1.1099   -1.7332    0.5434 H   0  0  0  0  0  0  0  0  0  0  0  0
    2.9373   -2.3480   -0.3628 C   0  0  0  0  0  0  0  0  0  0  0  0
    3.8424   -1.8688    0.0167 H   0  0  0  0  0  0  0  0  0  0  0  0
    2.7872   -3.2965    0.1537 H   0  0  0  0  0  0  0  0  0  0  0  0
    3.0656   -2.5333   -1.4315 H   0  0  0  0  0  0  0  0  0  0  0  0
  5  6  2  0  0  0  0
  5  7  1  0  0  0  0
  2  3  1  0  0  0  0
  2  4  1  0  0  0  0
  2  5  1  0  0  0  0
  1  2  1  0  0  0  0
 19 20  2  0  0  0  0
 19 21  1  0  0  0  0
 17 18  1  0  0  0  0
 17 19  1  0  0  0  0
 14 15  1  0  0  0  0
 14 16  1  0  0  0  0
 14 17  1  0  0  0  0
 11 12  1  0  0  0  0
 11 13  1  0  0  0  0
 11 14  1  0  0  0  0
  8  9  1  0  0  0  0
  8 10  1  0  0  0  0
  8 11  1  0  0  0  0
  7  8  1  0  0  0  0
  7 17  1  0  0  0  0
 23 24  1  0  0  0  0
 23 25  1  0  0  0  0
 23 26  1  0  0  0  0
 21 22  1  0  0  0  0
 21 23  1  0  0  0  0
M  END
$$$$
default_name
  -OEChem-01062215323D

 26 26  0     1  0  0  0  0  0999 V2000
   -1.8446   -3.5060   -0.3010 H   0  0  0  0  0  0  0  0  0  0  0  0
   -2.0746   -2.4490   -0.4240 C   0  0  0  0  0  0  0  0  0  0  0  0
   -2.6906   -2.1160    0.4090 H   0  0  0  0  0  0  0  0  0  0  0  0
   -2.5986   -2.2980   -1.3650 H   0  0  0  0  0  0  0  0  0  0  0  0
   -0.7756   -1.6630   -0.4350 C   0  0  0  0  0  0  0  0  0  0  0  0
    0.2844   -2.2800   -0.4550 O   0  0  0  0  0  0  0  0  0  0  0  0
   -0.8246   -0.3180   -0.4350 N   0  0  0  0  0  0  0  0  0  0  0  0
   -2.0106    0.5080   -0.5910 C   0  0  0  0  0  0  0  0  0  0  0  0
   -2.9719    0.2724   -0.1315 H   0  0  0  0  0  0  0  0  0  0  0  0
   -2.0905    1.4093   -1.1978 H   0  0  0  0  0  0  0  0  0  0  0  0
   -0.9491    0.7004    0.4901 C   0  0  0  0  0  0  0  0  0  0  0  0
   -1.1446   -0.3594    0.6609 H   0  0  0  0  0  0  0  0  0  0  0  0
   -1.7226    1.3162    0.9500 H   0  0  0  0  0  0  0  0  0  0  0  0
    0.4250    1.1190    1.0131 C   0  0  0  0  0  0  0  0  0  0  0  0
    1.0143    0.4826    1.6763 H   0  0  0  0  0  0  0  0  0  0  0  0
    0.8288    2.1313    1.0060 H   0  0  0  0  0  0  0  0  0  0  0  0
    0.3724    0.5200   -0.4020 C   0  0  1  0  0  0  0  0  0  0  0  0
    0.2462    1.3278   -1.1231 H   0  0  0  0  0  0  0  0  0  0  0  0
    1.6465   -0.2733   -0.7371 C   0  0  0  0  0  0  0  0  0  0  0  0
    2.5860    0.2704   -1.3142 O   0  0  0  0  0  0  0  0  0  0  0  0
    1.6586   -1.5709   -0.4087 N   0  0  0  0  0  0  0  0  0  0  0  0
    0.8757   -1.9283    0.1149 H   0  0  0  0  0  0  0  0  0  0  0  0
    2.7844   -2.4665   -0.6633 C   0  0  0  0  0  0  0  0  0  0  0  0
    3.6469   -2.1435   -0.0763 H   0  0  0  0  0  0  0  0  0  0  0  0
    2.5241   -3.4895   -0.3897 H   0  0  0  0  0  0  0  0  0  0  0  0
    3.0528   -2.4313   -1.7214 H   0  0  0  0  0  0  0  0  0  0  0  0
  5  6  2  0  0  0  0
  5  7  1  0  0  0  0
  2  3  1  0  0  0  0
  2  4  1  0  0  0  0
  2  5  1  0  0  0  0
  1  2  1  0  0  0  0
 19 20  2  0  0  0  0
 19 21  1  0  0  0  0
 17 18  1  0  0  0  0
 17 19  1  0  0  0  0
 14 15  1  0  0  0  0
 14 16  1  0  0  0  0
 14 17  1  0  0  0  0
 11 12  1  0  0  0  0
 11 13  1  0  0  0  0
 11 14  1  0  0  0  0
  8  9  1  0  0  0  0
  8 10  1  0  0  0  0
  8 11  1  0  0  0  0
  7  8  1  0  0  0  0
  7 17  1  0  0  0  0
 23 24  1  0  0  0  0
 23 25  1  0  0  0  0
 23 26  1  0  0  0  0
 21 22  1  0  0  0  0
 21 23  1  0  0  0  0
M  END
$$$$
default_name
  -OEChem-01062215323D

 26 26  0     1  0  0  0  0  0999 V2000
   -1.8446   -3.5060   -0.3010 H   0  0  0  0  0  0  0  0  0  0  0  0
   -2.0746   -2.4490   -0.4240 C   0  0  0  0  0  0  0  0  0  0  0  0
   -2.6906   -2.1160    0.4090 H   0  0  0  0  0  0  0  0  0  0  0  0
   -2.5986   -2.2980   -1.3650 H   0  0  0  0  0  0  0  0  0  0  0  0
   -0.7756   -1.6630   -0.4350 C   0  0  0  0  0  0  0  0  0  0  0  0
    0.2844   -2.2800   -0.4550 O   0  0  0  0  0  0  0  0  0  0  0  0
   -0.8246   -0.3180   -0.4350 N   0  0  0  0  0  0  0  0  0  0  0  0
   -2.0106    0.5080   -0.5910 C   0  0  0  0  0  0  0  0  0  0  0  0
   -2.9719    0.2724   -0.1315 H   0  0  0  0  0  0  0  0  0  0  0  0
   -2.0905    1.4093   -1.1978 H   0  0  0  0  0  0  0  0  0  0  0  0
   -0.9491    0.7004    0.4901 C   0  0  0  0  0  0  0  0  0  0  0  0
   -1.1446   -0.3594    0.6609 H   0  0  0  0  0  0  0  0  0  0  0  0
   -1.7226    1.3162    0.9500 H   0  0  0  0  0  0  0  0  0  0  0  0
    0.4250    1.1190    1.0131 C   0  0  0  0  0  0  0  0  0  0  0  0
    1.0143    0.4826    1.6763 H   0  0  0  0  0  0  0  0  0  0  0  0
    0.8288    2.1313    1.0060 H   0  0  0  0  0  0  0  0  0  0  0  0
    0.3724    0.5200   -0.4020 C   0  0  1  0  0  0  0  0  0  0  0  0
    0.2462    1.3278   -1.1231 H   0  0  0  0  0  0  0  0  0  0  0  0
    1.6465   -0.2733   -0.7371 C   0  0  0  0  0  0  0  0  0  0  0  0
    2.6793    0.3117   -1.0571 O   0  0  0  0  0  0  0  0  0  0  0  0
    1.5583   -1.6085   -0.7010 N   0  0  0  0  0  0  0  0  0  0  0  0
    0.6957   -2.0117   -0.3721 H   0  0  0  0  0  0  0  0  0  0  0  0
    2.6702   -2.5080   -0.9995 C   0  0  0  0  0  0  0  0  0  0  0  0
    3.4549   -2.3779   -0.2512 H   0  0  0  0  0  0  0  0  0  0  0  0
    2.3316   -3.5445   -0.9912 H   0  0  0  0  0  0  0  0  0  0  0  0
    3.0849   -2.2699   -1.9814 H   0  0  0  0  0  0  0  0  0  0  0  0
  5  6  2  0  0  0  0
  5  7  1  0  0  0  0
  2  3  1  0  0  0  0
  2  4  1  0  0  0  0
  2  5  1  0  0  0  0
  1  2  1  0  0  0  0
 19 20  2  0  0  0  0
 19 21  1  0  0  0  0
 17 18  1  0  0  0  0
 17 19  1  0  0  0  0
 14 15  1  0  0  0  0
 14 16  1  0  0  0  0
 14 17  1  0  0  0  0
 11 12  1  0  0  0  0
 11 13  1  0  0  0  0
 11 14  1  0  0  0  0
  8  9  1  0  0  0  0
  8 10  1  0  0  0  0
  8 11  1  0  0  0  0
  7  8  1  0  0  0  0
  7 17  1  0  0  0  0
 23 24  1  0  0  0  0
 23 25  1  0  0  0  0
 23 26  1  0  0  0  0
 21 22  1  0  0  0  0
 21 23  1  0  0  0  0
M  END
$$$$
default_name
  -OEChem-01062215323D

 26 26  0     1  0  0  0  0  0999 V2000
   -1.8446   -3.5060   -0.3010 H   0  0  0  0  0  0  0  0  0  0  0  0
   -2.0746   -2.4490   -0.4240 C   0  0  0  0  0  0  0  0  0  0  0  0
   -2.6906   -2.1160    0.4090 H   0  0  0  0  0  0  0  0  0  0  0  0
   -2.5986   -2.2980   -1.3650 H   0  0  0  0  0  0  0  0  0  0  0  0
   -0.7756   -1.6630   -0.4350 C   0  0  0  0  0  0  0  0  0  0  0  0
    0.2844   -2.2800   -0.4550 O   0  0  0  0  0  0  0  0  0  0  0  0
   -0.8246   -0.3180   -0.4350 N   0  0  0  0  0  0  0  0  0  0  0  0
   -2.0106    0.5080   -0.5910 C   0  0  0  0  0  0  0  0  0  0  0  0
   -2.9719    0.2724   -0.1315 H   0  0  0  0  0  0  0  0  0  0  0  0
   -2.0905    1.4093   -1.1978 H   0  0  0  0  0  0  0  0  0  0  0  0
   -0.9491    0.7004    0.4901 C   0  0  0  0  0  0  0  0  0  0  0  0
   -1.1446   -0.3594    0.6609 H   0  0  0  0  0  0  0  0  0  0  0  0
   -1.7226    1.3162    0.9500 H   0  0  0  0  0  0  0  0  0  0  0  0
    0.4250    1.1190    1.0131 C   0  0  0  0  0  0  0  0  0  0  0  0
    1.0143    0.4826    1.6763 H   0  0  0  0  0  0  0  0  0  0  0  0
    0.8288    2.1313    1.0060 H   0  0  0  0  0  0  0  0  0  0  0  0
    0.3724    0.5200   -0.4020 C   0  0  1  0  0  0  0  0  0  0  0  0
    0.2462    1.3278   -1.1231 H   0  0  0  0  0  0  0  0  0  0  0  0
    1.6465   -0.2733   -0.7371 C   0  0  0  0  0  0  0  0  0  0  0  0
    2.7374    0.2911   -0.7875 O   0  0  0  0  0  0  0  0  0  0  0  0
    1.4983   -1.5764   -1.0048 N   0  0  0  0  0  0  0  0  0  0  0  0
    0.5821   -1.9776   -0.8845 H   0  0  0  0  0  0  0  0  0  0  0  0
    2.6024   -2.4695   -1.3483 C   0  0  0  0  0  0  0  0  0  0  0  0
    3.2797   -2.5560   -0.4959 H   0  0  0  0  0  0  0  0  0  0  0  0
    2.2228   -3.4579   -1.6096 H   0  0  0  0  0  0  0  0  0  0  0  0
    3.1598   -2.0600   -2.1935 H   0  0  0  0  0  0  0  0  0  0  0  0
  5  6  2  0  0  0  0
  5  7  1  0  0  0  0
  2  3  1  0  0  0  0
  2  4  1  0  0  0  0
  2  5  1  0  0  0  0
  1  2  1  0  0  0  0
 19 20  2  0  0  0  0
 19 21  1  0  0  0  0
 17 18  1  0  0  0  0
 17 19  1  0  0  0  0
 14 15  1  0  0  0  0
 14 16  1  0  0  0  0
 14 17  1  0  0  0  0
 11 12  1  0  0  0  0
 11 13  1  0  0  0  0
 11 14  1  0  0  0  0
  8  9  1  0  0  0  0
  8 10  1  0  0  0  0
  8 11  1  0  0  0  0
  7  8  1  0  0  0  0
  7 17  1  0  0  0  0
 23 24  1  0  0  0  0
 23 25  1  0  0  0  0
 23 26  1  0  0  0  0
 21 22  1  0  0  0  0
 21 23  1  0  0  0  0
M  END
$$$$
default_name
  -OEChem-01062215323D

 26 26  0     1  0  0  0  0  0999 V2000
   -1.8446   -3.5060   -0.3010 H   0  0  0  0  0  0  0  0  0  0  0  0
   -2.0746   -2.4490   -0.4240 C   0  0  0  0  0  0  0  0  0  0  0  0
   -2.6906   -2.1160    0.4090 H   0  0  0  0  0  0  0  0  0  0  0  0
   -2.5986   -2.2980   -1.3650 H   0  0  0  0  0  0  0  0  0  0  0  0
   -0.7756   -1.6630   -0.4350 C   0  0  0  0  0  0  0  0  0  0  0  0
    0.2844   -2.2800   -0.4550 O   0  0  0  0  0  0  0  0  0  0  0  0
   -0.8246   -0.3180   -0.4350 N   0  0  0  0  0  0  0  0  0  0  0  0
   -2.0106    0.5080   -0.5910 C   0  0  0  0  0  0  0  0  0  0  0  0
   -2.9719    0.2724   -0.1315 H   0  0  0  0  0  0  0  0  0  0  0  0
   -2.0905    1.4093   -1.1978 H   0  0  0  0  0  0  0  0  0  0  0  0
   -0.9491    0.7004    0.4901 C   0  0  0  0  0  0  0  0  0  0  0  0
   -1.1446   -0.3594    0.6609 H   0  0  0  0  0  0  0  0  0  0  0  0
   -1.7226    1.3162    0.9500 H   0  0  0  0  0  0  0  0  0  0  0  0
    0.4250    1.1190    1.0131 C   0  0  0  0  0  0  0  0  0  0  0  0
    1.0143    0.4826    1.6763 H   0  0  0  0  0  0  0  0  0  0  0  0
    0.8288    2.1313    1.0060 H   0  0  0  0  0  0  0  0  0  0  0  0
    0.3724    0.5200   -0.4020 C   0  0  1  0  0  0  0  0  0  0  0  0
    0.2462    1.3278   -1.1231 H   0  0  0  0  0  0  0  0  0  0  0  0
    1.6465   -0.2733   -0.7371 C   0  0  0  0  0  0  0  0  0  0  0  0
    2.7564    0.2102   -0.5237 O   0  0  0  0  0  0  0  0  0  0  0  0
    1.4828   -1.4770   -1.2994 N   0  0  0  0  0  0  0  0  0  0  0  0
    0.5427   -1.8284   -1.3872 H   0  0  0  0  0  0  0  0  0  0  0  0
    2.5856   -2.3538   -1.6860 C   0  0  0  0  0  0  0  0  0  0  0  0
    3.1330   -2.6656   -0.7939 H   0  0  0  0  0  0  0  0  0  0  0  0
    2.2053   -3.2354   -2.2029 H   0  0  0  0  0  0  0  0  0  0  0  0
    3.2723   -1.8161   -2.3435 H   0  0  0  0  0  0  0  0  0  0  0  0
  5  6  2  0  0  0  0
  5  7  1  0  0  0  0
  2  3  1  0  0  0  0
  2  4  1  0  0  0  0
  2  5  1  0  0  0  0
  1  2  1  0  0  0  0
 19 20  2  0  0  0  0
 19 21  1  0  0  0  0
 17 18  1  0  0  0  0
 17 19  1  0  0  0  0
 14 15  1  0  0  0  0
 14 16  1  0  0  0  0
 14 17  1  0  0  0  0
 11 12  1  0  0  0  0
 11 13  1  0  0  0  0
 11 14  1  0  0  0  0
  8  9  1  0  0  0  0
  8 10  1  0  0  0  0
  8 11  1  0  0  0  0
  7  8  1  0  0  0  0
  7 17  1  0  0  0  0
 23 24  1  0  0  0  0
 23 25  1  0  0  0  0
 23 26  1  0  0  0  0
 21 22  1  0  0  0  0
 21 23  1  0  0  0  0
M  END
$$$$
default_name
  -OEChem-01062215323D

 26 26  0     1  0  0  0  0  0999 V2000
   -1.8446   -3.5060   -0.3010 H   0  0  0  0  0  0  0  0  0  0  0  0
   -2.0746   -2.4490   -0.4240 C   0  0  0  0  0  0  0  0  0  0  0  0
   -2.6906   -2.1160    0.4090 H   0  0  0  0  0  0  0  0  0  0  0  0
   -2.5986   -2.2980   -1.3650 H   0  0  0  0  0  0  0  0  0  0  0  0
   -0.7756   -1.6630   -0.4350 C   0  0  0  0  0  0  0  0  0  0  0  0
    0.2844   -2.2800   -0.4550 O   0  0  0  0  0  0  0  0  0  0  0  0
   -0.8246   -0.3180   -0.4350 N   0  0  0  0  0  0  0  0  0  0  0  0
   -2.0106    0.5080   -0.5910 C   0  0  0  0  0  0  0  0  0  0  0  0
   -2.9719    0.2724   -0.1315 H   0  0  0  0  0  0  0  0  0  0  0  0
   -2.0905    1.4093   -1.1978 H   0  0  0  0  0  0  0  0  0  0  0  0
   -0.9491    0.7004    0.4901 C   0  0  0  0  0  0  0  0  0  0  0  0
   -1.1446   -0.3594    0.6609 H   0  0  0  0  0  0  0  0  0  0  0  0
   -1.7226    1.3162    0.9500 H   0  0  0  0  0  0  0  0  0  0  0  0
    0.4250    1.1190    1.0131 C   0  0  0  0  0  0  0  0  0  0  0  0
    1.0143    0.4826    1.6763 H   0  0  0  0  0  0  0  0  0  0  0  0
    0.8288    2.1313    1.0060 H   0  0  0  0  0  0  0  0  0  0  0  0
    0.3724    0.5200   -0.4020 C   0  0  1  0  0  0  0  0  0  0  0  0
    0.2462    1.3278   -1.1231 H   0  0  0  0  0  0  0  0  0  0  0  0
    1.6465   -0.2733   -0.7371 C   0  0  0  0  0  0  0  0  0  0  0  0
    2.7350    0.0744   -0.2837 O   0  0  0  0  0  0  0  0  0  0  0  0
    1.5127   -1.3169   -1.5647 N   0  0  0  0  0  0  0  0  0  0  0  0
    0.5803   -1.5743   -1.8461 H   0  0  0  0  0  0  0  0  0  0  0  0
    2.6210   -2.1686   -1.9897 C   0  0  0  0  0  0  0  0  0  0  0  0
    3.0249   -2.6993   -1.1249 H   0  0  0  0  0  0  0  0  0  0  0  0
    2.2801   -2.8923   -2.7307 H   0  0  0  0  0  0  0  0  0  0  0  0
    3.4147   -1.5546   -2.4210 H   0  0  0  0  0  0  0  0  0  0  0  0
  5  6  2  0  0  0  0
  5  7  1  0  0  0  0
  2  3  1  0  0  0  0
  2  4  1  0  0  0  0
  2  5  1  0  0  0  0
  1  2  1  0  0  0  0
 19 20  2  0  0  0  0
 19 21  1  0  0  0  0
 17 18  1  0  0  0  0
 17 19  1  0  0  0  0
 14 15  1  0  0  0  0
 14 16  1  0  0  0  0
 14 17  1  0  0  0  0
 11 12  1  0  0  0  0
 11 13  1  0  0  0  0
 11 14  1  0  0  0  0
  8  9  1  0  0  0  0
  8 10  1  0  0  0  0
  8 11  1  0  0  0  0
  7  8  1  0  0  0  0
  7 17  1  0  0  0  0
 23 24  1  0  0  0  0
 23 25  1  0  0  0  0
 23 26  1  0  0  0  0
 21 22  1  0  0  0  0
 21 23  1  0  0  0  0
M  END
$$$$
default_name
  -OEChem-01062215323D

 26 26  0     1  0  0  0  0  0999 V2000
   -1.8446   -3.5060   -0.3010 H   0  0  0  0  0  0  0  0  0  0  0  0
   -2.0746   -2.4490   -0.4240 C   0  0  0  0  0  0  0  0  0  0  0  0
   -2.6906   -2.1160    0.4090 H   0  0  0  0  0  0  0  0  0  0  0  0
   -2.5986   -2.2980   -1.3650 H   0  0  0  0  0  0  0  0  0  0  0  0
   -0.7756   -1.6630   -0.4350 C   0  0  0  0  0  0  0  0  0  0  0  0
    0.2844   -2.2800   -0.4550 O   0  0  0  0  0  0  0  0  0  0  0  0
   -0.8246   -0.3180   -0.4350 N   0  0  0  0  0  0  0  0  0  0  0  0
   -2.0106    0.5080   -0.5910 C   0  0  0  0  0  0  0  0  0  0  0  0
   -2.9719    0.2724   -0.1315 H   0  0  0  0  0  0  0  0  0  0  0  0
   -2.0905    1.4093   -1.1978 H   0  0  0  0  0  0  0  0  0  0  0  0
   -0.9491    0.7004    0.4901 C   0  0  0  0  0  0  0  0  0  0  0  0
   -1.1446   -0.3594    0.6609 H   0  0  0  0  0  0  0  0  0  0  0  0
   -1.7226    1.3162    0.9500 H   0  0  0  0  0  0  0  0  0  0  0  0
    0.4250    1.1190    1.0131 C   0  0  0  0  0  0  0  0  0  0  0  0
    1.0143    0.4826    1.6763 H   0  0  0  0  0  0  0  0  0  0  0  0
    0.8288    2.1313    1.0060 H   0  0  0  0  0  0  0  0  0  0  0  0
    0.3724    0.5200   -0.4020 C   0  0  1  0  0  0  0  0  0  0  0  0
    0.2462    1.3278   -1.1231 H   0  0  0  0  0  0  0  0  0  0  0  0
    1.6465   -0.2733   -0.7371 C   0  0  0  0  0  0  0  0  0  0  0  0
    2.6746   -0.1071   -0.0839 O   0  0  0  0  0  0  0  0  0  0  0  0
    1.5860   -1.1070   -1.7826 N   0  0  0  0  0  0  0  0  0  0  0  0
    0.6921   -1.2325   -2.2299 H   0  0  0  0  0  0  0  0  0  0  0  0
    2.7063   -1.9266   -2.2386 C   0  0  0  0  0  0  0  0  0  0  0  0
    2.9628   -2.6549   -1.4662 H   0  0  0  0  0  0  0  0  0  0  0  0
    2.4422   -2.4519   -3.1569 H   0  0  0  0  0  0  0  0  0  0  0  0
    3.5774   -1.2934   -2.4207 H   0  0  0  0  0  0  0  0  0  0  0  0
  5  6  2  0  0  0  0
  5  7  1  0  0  0  0
  2  3  1  0  0  0  0
  2  4  1  0  0  0  0
  2  5  1  0  0  0  0
  1  2  1  0  0  0  0
 19 20  2  0  0  0  0
 19 21  1  0  0  0  0
 17 18  1  0  0  0  0
 17 19  1  0  0  0  0
 14 15  1  0  0  0  0
 14 16  1  0  0  0  0
 14 17  1  0  0  0  0
 11 12  1  0  0  0  0
 11 13  1  0  0  0  0
 11 14  1  0  0  0  0
  8  9  1  0  0  0  0
  8 10  1  0  0  0  0
  8 11  1  0  0  0  0
  7  8  1  0  0  0  0
  7 17  1  0  0  0  0
 23 24  1  0  0  0  0
 23 25  1  0  0  0  0
 23 26  1  0  0  0  0
 21 22  1  0  0  0  0
 21 23  1  0  0  0  0
M  END
$$$$
default_name
  -OEChem-01062215323D

 26 26  0     1  0  0  0  0  0999 V2000
   -1.8446   -3.5060   -0.3010 H   0  0  0  0  0  0  0  0  0  0  0  0
   -2.0746   -2.4490   -0.4240 C   0  0  0  0  0  0  0  0  0  0  0  0
   -2.6906   -2.1160    0.4090 H   0  0  0  0  0  0  0  0  0  0  0  0
   -2.5986   -2.2980   -1.3650 H   0  0  0  0  0  0  0  0  0  0  0  0
   -0.7756   -1.6630   -0.4350 C   0  0  0  0  0  0  0  0  0  0  0  0
    0.2844   -2.2800   -0.4550 O   0  0  0  0  0  0  0  0  0  0  0  0
   -0.8246   -0.3180   -0.4350 N   0  0  0  0  0  0  0  0  0  0  0  0
   -2.0106    0.5080   -0.5910 C   0  0  0  0  0  0  0  0  0  0  0  0
   -2.9719    0.2724   -0.1315 H   0  0  0  0  0  0  0  0  0  0  0  0
   -2.0905    1.4093   -1.1978 H   0  0  0  0  0  0  0  0  0  0  0  0
   -0.9491    0.7004    0.4901 C   0  0  0  0  0  0  0  0  0  0  0  0
   -1.1446   -0.3594    0.6609 H   0  0  0  0  0  0  0  0  0  0  0  0
   -1.7226    1.3162    0.9500 H   0  0  0  0  0  0  0  0  0  0  0  0
    0.4250    1.1190    1.0131 C   0  0  0  0  0  0  0  0  0  0  0  0
    1.0143    0.4826    1.6763 H   0  0  0  0  0  0  0  0  0  0  0  0
    0.8288    2.1313    1.0060 H   0  0  0  0  0  0  0  0  0  0  0  0
    0.3724    0.5200   -0.4020 C   0  0  1  0  0  0  0  0  0  0  0  0
    0.2462    1.3278   -1.1231 H   0  0  0  0  0  0  0  0  0  0  0  0
    1.6465   -0.2733   -0.7371 C   0  0  0  0  0  0  0  0  0  0  0  0
    2.5793   -0.3218    0.0621 O   0  0  0  0  0  0  0  0  0  0  0  0
    1.6978   -0.8617   -1.9383 N   0  0  0  0  0  0  0  0  0  0  0  0
    0.8707   -0.8265   -2.5123 H   0  0  0  0  0  0  0  0  0  0  0  0
    2.8355   -1.6443   -2.4157 C   0  0  0  0  0  0  0  0  0  0  0  0
    2.9509   -2.5352   -1.7947 H   0  0  0  0  0  0  0  0  0  0  0  0
    2.6805   -1.9444   -3.4525 H   0  0  0  0  0  0  0  0  0  0  0  0
    3.7492   -1.0504   -2.3428 H   0  0  0  0  0  0  0  0  0  0  0  0
  5  6  2  0  0  0  0
  5  7  1  0  0  0  0
  2  3  1  0  0  0  0
  2  4  1  0  0  0  0
  2  5  1  0  0  0  0
  1  2  1  0  0  0  0
 19 20  2  0  0  0  0
 19 21  1  0  0  0  0
 17 18  1  0  0  0  0
 17 19  1  0  0  0  0
 14 15  1  0  0  0  0
 14 16  1  0  0  0  0
 14 17  1  0  0  0  0
 11 12  1  0  0  0  0
 11 13  1  0  0  0  0
 11 14  1  0  0  0  0
  8  9  1  0  0  0  0
  8 10  1  0  0  0  0
  8 11  1  0  0  0  0
  7  8  1  0  0  0  0
  7 17  1  0  0  0  0
 23 24  1  0  0  0  0
 23 25  1  0  0  0  0
 23 26  1  0  0  0  0
 21 22  1  0  0  0  0
 21 23  1  0  0  0  0
M  END
$$$$
default_name
  -OEChem-01062215323D

 26 26  0     1  0  0  0  0  0999 V2000
   -1.8446   -3.5060   -0.3010 H   0  0  0  0  0  0  0  0  0  0  0  0
   -2.0746   -2.4490   -0.4240 C   0  0  0  0  0  0  0  0  0  0  0  0
   -2.6906   -2.1160    0.4090 H   0  0  0  0  0  0  0  0  0  0  0  0
   -2.5986   -2.2980   -1.3650 H   0  0  0  0  0  0  0  0  0  0  0  0
   -0.7756   -1.6630   -0.4350 C   0  0  0  0  0  0  0  0  0  0  0  0
    0.2844   -2.2800   -0.4550 O   0  0  0  0  0  0  0  0  0  0  0  0
   -0.8246   -0.3180   -0.4350 N   0  0  0  0  0  0  0  0  0  0  0  0
   -2.0106    0.5080   -0.5910 C   0  0  0  0  0  0  0  0  0  0  0  0
   -2.9719    0.2724   -0.1315 H   0  0  0  0  0  0  0  0  0  0  0  0
   -2.0905    1.4093   -1.1978 H   0  0  0  0  0  0  0  0  0  0  0  0
   -0.9491    0.7004    0.4901 C   0  0  0  0  0  0  0  0  0  0  0  0
   -1.1446   -0.3594    0.6609 H   0  0  0  0  0  0  0  0  0  0  0  0
   -1.7226    1.3162    0.9500 H   0  0  0  0  0  0  0  0  0  0  0  0
    0.4250    1.1190    1.0131 C   0  0  0  0  0  0  0  0  0  0  0  0
    1.0143    0.4826    1.6763 H   0  0  0  0  0  0  0  0  0  0  0  0
    0.8288    2.1313    1.0060 H   0  0  0  0  0  0  0  0  0  0  0  0
    0.3724    0.5200   -0.4020 C   0  0  1  0  0  0  0  0  0  0  0  0
    0.2462    1.3278   -1.1231 H   0  0  0  0  0  0  0  0  0  0  0  0
    1.6465   -0.2733   -0.7371 C   0  0  0  0  0  0  0  0  0  0  0  0
    2.4557   -0.5551    0.1444 O   0  0  0  0  0  0  0  0  0  0  0  0
    1.8404   -0.5977   -2.0212 N   0  0  0  0  0  0  0  0  0  0  0  0
    1.1037   -0.3837   -2.6742 H   0  0  0  0  0  0  0  0  0  0  0  0
    2.9998   -1.3409   -2.5090 C   0  0  0  0  0  0  0  0  0  0  0  0
    2.9900   -2.3485   -2.0879 H   0  0  0  0  0  0  0  0  0  0  0  0
    2.9787   -1.4041   -3.5974 H   0  0  0  0  0  0  0  0  0  0  0  0
    3.9185   -0.8421   -2.1925 H   0  0  0  0  0  0  0  0  0  0  0  0
  5  6  2  0  0  0  0
  5  7  1  0  0  0  0
  2  3  1  0  0  0  0
  2  4  1  0  0  0  0
  2  5  1  0  0  0  0
  1  2  1  0  0  0  0
 19 20  2  0  0  0  0
 19 21  1  0  0  0  0
 17 18  1  0  0  0  0
 17 19  1  0  0  0  0
 14 15  1  0  0  0  0
 14 16  1  0  0  0  0
 14 17  1  0  0  0  0
 11 12  1  0  0  0  0
 11 13  1  0  0  0  0
 11 14  1  0  0  0  0
  8  9  1  0  0  0  0
  8 10  1  0  0  0  0
  8 11  1  0  0  0  0
  7  8  1  0  0  0  0
  7 17  1  0  0  0  0
 23 24  1  0  0  0  0
 23 25  1  0  0  0  0
 23 26  1  0  0  0  0
 21 22  1  0  0  0  0
 21 23  1  0  0  0  0
M  END
$$$$
default_name
  -OEChem-01062215323D

 26 26  0     1  0  0  0  0  0999 V2000
   -1.8446   -3.5060   -0.3010 H   0  0  0  0  0  0  0  0  0  0  0  0
   -2.0746   -2.4490   -0.4240 C   0  0  0  0  0  0  0  0  0  0  0  0
   -2.6906   -2.1160    0.4090 H   0  0  0  0  0  0  0  0  0  0  0  0
   -2.5986   -2.2980   -1.3650 H   0  0  0  0  0  0  0  0  0  0  0  0
   -0.7756   -1.6630   -0.4350 C   0  0  0  0  0  0  0  0  0  0  0  0
    0.2844   -2.2800   -0.4550 O   0  0  0  0  0  0  0  0  0  0  0  0
   -0.8246   -0.3180   -0.4350 N   0  0  0  0  0  0  0  0  0  0  0  0
   -2.0106    0.5080   -0.5910 C   0  0  0  0  0  0  0  0  0  0  0  0
   -2.9719    0.2724   -0.1315 H   0  0  0  0  0  0  0  0  0  0  0  0
   -2.0905    1.4093   -1.1978 H   0  0  0  0  0  0  0  0  0  0  0  0
   -0.9491    0.7004    0.4901 C   0  0  0  0  0  0  0  0  0  0  0  0
   -1.1446   -0.3594    0.6609 H   0  0  0  0  0  0  0  0  0  0  0  0
   -1.7226    1.3162    0.9500 H   0  0  0  0  0  0  0  0  0  0  0  0
    0.4250    1.1190    1.0131 C   0  0  0  0  0  0  0  0  0  0  0  0
    1.0143    0.4826    1.6763 H   0  0  0  0  0  0  0  0  0  0  0  0
    0.8288    2.1313    1.0060 H   0  0  0  0  0  0  0  0  0  0  0  0
    0.3724    0.5200   -0.4020 C   0  0  1  0  0  0  0  0  0  0  0  0
    0.2462    1.3278   -1.1231 H   0  0  0  0  0  0  0  0  0  0  0  0
    1.6465   -0.2733   -0.7371 C   0  0  0  0  0  0  0  0  0  0  0  0
    2.3121   -0.7911    0.1574 O   0  0  0  0  0  0  0  0  0  0  0  0
    2.0041   -0.3329   -2.0256 N   0  0  0  0  0  0  0  0  0  0  0  0
    1.3755    0.0655   -2.7046 H   0  0  0  0  0  0  0  0  0  0  0  0
    3.1882   -1.0371   -2.5121 C   0  0  0  0  0  0  0  0  0  0  0  0
    3.0775   -2.1075   -2.3258 H   0  0  0  0  0  0  0  0  0  0  0  0
    3.3167   -0.8681   -3.5817 H   0  0  0  0  0  0  0  0  0  0  0  0
    4.0737   -0.6826   -1.9800 H   0  0  0  0  0  0  0  0  0  0  0  0
  5  6  2  0  0  0  0
  5  7  1  0  0  0  0
  2  3  1  0  0  0  0
  2  4  1  0  0  0  0
  2  5  1  0  0  0  0
  1  2  1  0  0  0  0
 19 20  2  0  0  0  0
 19 21  1  0  0  0  0
 17 18  1  0  0  0  0
 17 19  1  0  0  0  0
 14 15  1  0  0  0  0
 14 16  1  0  0  0  0
 14 17  1  0  0  0  0
 11 12  1  0  0  0  0
 11 13  1  0  0  0  0
 11 14  1  0  0  0  0
  8  9  1  0  0  0  0
  8 10  1  0  0  0  0
  8 11  1  0  0  0  0
  7  8  1  0  0  0  0
  7 17  1  0  0  0  0
 23 24  1  0  0  0  0
 23 25  1  0  0  0  0
 23 26  1  0  0  0  0
 21 22  1  0  0  0  0
 21 23  1  0  0  0  0
M  END
$$$$
default_name
  -OEChem-01062215323D

 26 26  0     1  0  0  0  0  0999 V2000
   -1.8446   -3.5060   -0.3010 H   0  0  0  0  0  0  0  0  0  0  0  0
   -2.0746   -2.4490   -0.4240 C   0  0  0  0  0  0  0  0  0  0  0  0
   -2.6906   -2.1160    0.4090 H   0  0  0  0  0  0  0  0  0  0  0  0
   -2.5986   -2.2980   -1.3650 H   0  0  0  0  0  0  0  0  0  0  0  0
   -0.7756   -1.6630   -0.4350 C   0  0  0  0  0  0  0  0  0  0  0  0
    0.2844   -2.2800   -0.4550 O   0  0  0  0  0  0  0  0  0  0  0  0
   -0.8246   -0.3180   -0.4350 N   0  0  0  0  0  0  0  0  0  0  0  0
   -2.0106    0.5080   -0.5910 C   0  0  0  0  0  0  0  0  0  0  0  0
   -2.9719    0.2724   -0.1315 H   0  0  0  0  0  0  0  0  0  0  0  0
   -2.0905    1.4093   -1.1978 H   0  0  0  0  0  0  0  0  0  0  0  0
   -0.9491    0.7004    0.4901 C   0  0  0  0  0  0  0  0  0  0  0  0
   -1.1446   -0.3594    0.6609 H   0  0  0  0  0  0  0  0  0  0  0  0
   -1.7226    1.3162    0.9500 H   0  0  0  0  0  0  0  0  0  0  0  0
    0.4250    1.1190    1.0131 C   0  0  0  0  0  0  0  0  0  0  0  0
    1.0143    0.4826    1.6763 H   0  0  0  0  0  0  0  0  0  0  0  0
    0.8288    2.1313    1.0060 H   0  0  0  0  0  0  0  0  0  0  0  0
    0.3724    0.5200   -0.4020 C   0  0  1  0  0  0  0  0  0  0  0  0
    0.2462    1.3278   -1.1231 H   0  0  0  0  0  0  0  0  0  0  0  0
    1.6465   -0.2733   -0.7371 C   0  0  0  0  0  0  0  0  0  0  0  0
    2.1584   -1.0138    0.1001 O   0  0  0  0  0  0  0  0  0  0  0  0
    2.1778   -0.0855   -1.9513 N   0  0  0  0  0  0  0  0  0  0  0  0
    1.6674    0.4906   -2.6013 H   0  0  0  0  0  0  0  0  0  0  0  0
    3.3876   -0.7536   -2.4248 C   0  0  0  0  0  0  0  0  0  0  0  0
    3.2074   -1.8287   -2.4923 H   0  0  0  0  0  0  0  0  0  0  0  0
    3.6712   -0.3727   -3.4064 H   0  0  0  0  0  0  0  0  0  0  0  0
    4.2042   -0.5829   -1.7199 H   0  0  0  0  0  0  0  0  0  0  0  0
  5  6  2  0  0  0  0
  5  7  1  0  0  0  0
  2  3  1  0  0  0  0
  2  4  1  0  0  0  0
  2  5  1  0  0  0  0
  1  2  1  0  0  0  0
 19 20  2  0  0  0  0
 19 21  1  0  0  0  0
 17 18  1  0  0  0  0
 17 19  1  0  0  0  0
 14 15  1  0  0  0  0
 14 16  1  0  0  0  0
 14 17  1  0  0  0  0
 11 12  1  0  0  0  0
 11 13  1  0  0  0  0
 11 14  1  0  0  0  0
  8  9  1  0  0  0  0
  8 10  1  0  0  0  0
  8 11  1  0  0  0  0
  7  8  1  0  0  0  0
  7 17  1  0  0  0  0
 23 24  1  0  0  0  0
 23 25  1  0  0  0  0
 23 26  1  0  0  0  0
 21 22  1  0  0  0  0
 21 23  1  0  0  0  0
M  END
$$$$
default_name
  -OEChem-01062215323D

 26 26  0     1  0  0  0  0  0999 V2000
   -1.8446   -3.5060   -0.3010 H   0  0  0  0  0  0  0  0  0  0  0  0
   -2.0746   -2.4490   -0.4240 C   0  0  0  0  0  0  0  0  0  0  0  0
   -2.6906   -2.1160    0.4090 H   0  0  0  0  0  0  0  0  0  0  0  0
   -2.5986   -2.2980   -1.3650 H   0  0  0  0  0  0  0  0  0  0  0  0
   -0.7756   -1.6630   -0.4350 C   0  0  0  0  0  0  0  0  0  0  0  0
    0.2844   -2.2800   -0.4550 O   0  0  0  0  0  0  0  0  0  0  0  0
   -0.8246   -0.3180   -0.4350 N   0  0  0  0  0  0  0  0  0  0  0  0
   -2.0106    0.5080   -0.5910 C   0  0  0  0  0  0  0  0  0  0  0  0
   -2.9719    0.2724   -0.1315 H   0  0  0  0  0  0  0  0  0  0  0  0
   -2.0905    1.4093   -1.1978 H   0  0  0  0  0  0  0  0  0  0  0  0
   -0.9491    0.7004    0.4901 C   0  0  0  0  0  0  0  0  0  0  0  0
   -1.1446   -0.3594    0.6609 H   0  0  0  0  0  0  0  0  0  0  0  0
   -1.7226    1.3162    0.9500 H   0  0  0  0  0  0  0  0  0  0  0  0
    0.4250    1.1190    1.0131 C   0  0  0  0  0  0  0  0  0  0  0  0
    1.0143    0.4826    1.6763 H   0  0  0  0  0  0  0  0  0  0  0  0
    0.8288    2.1313    1.0060 H   0  0  0  0  0  0  0  0  0  0  0  0
    0.3724    0.5200   -0.4020 C   0  0  1  0  0  0  0  0  0  0  0  0
    0.2462    1.3278   -1.1231 H   0  0  0  0  0  0  0  0  0  0  0  0
    1.6465   -0.2733   -0.7371 C   0  0  0  0  0  0  0  0  0  0  0  0
    2.0050   -1.2079   -0.0235 O   0  0  0  0  0  0  0  0  0  0  0  0
    2.3495    0.1278   -1.8032 N   0  0  0  0  0  0  0  0  0  0  0  0
    1.9595    0.8626   -2.3714 H   0  0  0  0  0  0  0  0  0  0  0  0
    3.5846   -0.5098   -2.2531 C   0  0  0  0  0  0  0  0  0  0  0  0
    3.3707   -1.5309   -2.5760 H   0  0  0  0  0  0  0  0  0  0  0  0
    4.0183    0.0482   -3.0836 H   0  0  0  0  0  0  0  0  0  0  0  0
    4.3012   -0.5498   -1.4298 H   0  0  0  0  0  0  0  0  0  0  0  0
  5  6  2  0  0  0  0
  5  7  1  0  0  0  0
  2  3  1  0  0  0  0
  2  4  1  0  0  0  0
  2  5  1  0  0  0  0
  1  2  1  0  0  0  0
 19 20  2  0  0  0  0
 19 21  1  0  0  0  0
 17 18  1  0  0  0  0
 17 19  1  0  0  0  0
 14 15  1  0  0  0  0
 14 16  1  0  0  0  0
 14 17  1  0  0  0  0
 11 12  1  0  0  0  0
 11 13  1  0  0  0  0
 11 14  1  0  0  0  0
  8  9  1  0  0  0  0
  8 10  1  0  0  0  0
  8 11  1  0  0  0  0
  7  8  1  0  0  0  0
  7 17  1  0  0  0  0
 23 24  1  0  0  0  0
 23 25  1  0  0  0  0
 23 26  1  0  0  0  0
 21 22  1  0  0  0  0
 21 23  1  0  0  0  0
M  END
$$$$
default_name
  -OEChem-01062215323D

 26 26  0     1  0  0  0  0  0999 V2000
   -1.8446   -3.5060   -0.3010 H   0  0  0  0  0  0  0  0  0  0  0  0
   -2.0746   -2.4490   -0.4240 C   0  0  0  0  0  0  0  0  0  0  0  0
   -2.6906   -2.1160    0.4090 H   0  0  0  0  0  0  0  0  0  0  0  0
   -2.5986   -2.2980   -1.3650 H   0  0  0  0  0  0  0  0  0  0  0  0
   -0.7756   -1.6630   -0.4350 C   0  0  0  0  0  0  0  0  0  0  0  0
    0.2844   -2.2800   -0.4550 O   0  0  0  0  0  0  0  0  0  0  0  0
   -0.8246   -0.3180   -0.4350 N   0  0  0  0  0  0  0  0  0  0  0  0
   -2.0106    0.5080   -0.5910 C   0  0  0  0  0  0  0  0  0  0  0  0
   -2.9719    0.2724   -0.1315 H   0  0  0  0  0  0  0  0  0  0  0  0
   -2.0905    1.4093   -1.1978 H   0  0  0  0  0  0  0  0  0  0  0  0
   -0.9491    0.7004    0.4901 C   0  0  0  0  0  0  0  0  0  0  0  0
   -1.1446   -0.3594    0.6609 H   0  0  0  0  0  0  0  0  0  0  0  0
   -1.7226    1.3162    0.9500 H   0  0  0  0  0  0  0  0  0  0  0  0
    0.4250    1.1190    1.0131 C   0  0  0  0  0  0  0  0  0  0  0  0
    1.0143    0.4826    1.6763 H   0  0  0  0  0  0  0  0  0  0  0  0
    0.8288    2.1313    1.0060 H   0  0  0  0  0  0  0  0  0  0  0  0
    0.3724    0.5200   -0.4020 C   0  0  1  0  0  0  0  0  0  0  0  0
    0.2462    1.3278   -1.1231 H   0  0  0  0  0  0  0  0  0  0  0  0
    1.6465   -0.2733   -0.7371 C   0  0  0  0  0  0  0  0  0  0  0  0
    1.8624   -1.3603   -0.2049 O   0  0  0  0  0  0  0  0  0  0  0  0
    2.5077    0.2924   -1.5915 N   0  0  0  0  0  0  0  0  0  0  0  0
    2.2319    1.1561   -2.0306 H   0  0  0  0  0  0  0  0  0  0  0  0
    3.7658   -0.3222   -2.0087 C   0  0  0  0  0  0  0  0  0  0  0  0
    3.5565   -1.2346   -2.5712 H   0  0  0  0  0  0  0  0  0  0  0  0
    4.3341    0.3660   -2.6352 H   0  0  0  0  0  0  0  0  0  0  0  0
    4.3580   -0.5854   -1.1295 H   0  0  0  0  0  0  0  0  0  0  0  0
  5  6  2  0  0  0  0
  5  7  1  0  0  0  0
  2  3  1  0  0  0  0
  2  4  1  0  0  0  0
  2  5  1  0  0  0  0
  1  2  1  0  0  0  0
 19 20  2  0  0  0  0
 19 21  1  0  0  0  0
 17 18  1  0  0  0  0
 17 19  1  0  0  0  0
 14 15  1  0  0  0  0
 14 16  1  0  0  0  0
 14 17  1  0  0  0  0
 11 12  1  0  0  0  0
 11 13  1  0  0  0  0
 11 14  1  0  0  0  0
  8  9  1  0  0  0  0
  8 10  1  0  0  0  0
  8 11  1  0  0  0  0
  7  8  1  0  0  0  0
  7 17  1  0  0  0  0
 23 24  1  0  0  0  0
 23 25  1  0  0  0  0
 23 26  1  0  0  0  0
 21 22  1  0  0  0  0
 21 23  1  0  0  0  0
M  END
$$$$
default_name
  -OEChem-01062215323D

 26 26  0     1  0  0  0  0  0999 V2000
   -1.8446   -3.5060   -0.3010 H   0  0  0  0  0  0  0  0  0  0  0  0
   -2.0746   -2.4490   -0.4240 C   0  0  0  0  0  0  0  0  0  0  0  0
   -2.6906   -2.1160    0.4090 H   0  0  0  0  0  0  0  0  0  0  0  0
   -2.5986   -2.2980   -1.3650 H   0  0  0  0  0  0  0  0  0  0  0  0
   -0.7756   -1.6630   -0.4350 C   0  0  0  0  0  0  0  0  0  0  0  0
    0.2844   -2.2800   -0.4550 O   0  0  0  0  0  0  0  0  0  0  0  0
   -0.8246   -0.3180   -0.4350 N   0  0  0  0  0  0  0  0  0  0  0  0
   -2.0106    0.5080   -0.5910 C   0  0  0  0  0  0  0  0  0  0  0  0
   -2.9719    0.2724   -0.1315 H   0  0  0  0  0  0  0  0  0  0  0  0
   -2.0905    1.4093   -1.1978 H   0  0  0  0  0  0  0  0  0  0  0  0
   -0.9491    0.7004    0.4901 C   0  0  0  0  0  0  0  0  0  0  0  0
   -1.1446   -0.3594    0.6609 H   0  0  0  0  0  0  0  0  0  0  0  0
   -1.7226    1.3162    0.9500 H   0  0  0  0  0  0  0  0  0  0  0  0
    0.4250    1.1190    1.0131 C   0  0  0  0  0  0  0  0  0  0  0  0
    1.0143    0.4826    1.6763 H   0  0  0  0  0  0  0  0  0  0  0  0
    0.8288    2.1313    1.0060 H   0  0  0  0  0  0  0  0  0  0  0  0
    0.3724    0.5200   -0.4020 C   0  0  1  0  0  0  0  0  0  0  0  0
    0.2462    1.3278   -1.1231 H   0  0  0  0  0  0  0  0  0  0  0  0
    1.6465   -0.2733   -0.7371 C   0  0  0  0  0  0  0  0  0  0  0  0
    1.7403   -1.4605   -0.4319 O   0  0  0  0  0  0  0  0  0  0  0  0
    2.6415    0.3970   -1.3306 N   0  0  0  0  0  0  0  0  0  0  0  0
    2.4661    1.3512   -1.6020 H   0  0  0  0  0  0  0  0  0  0  0  0
    3.9187   -0.2036   -1.7081 C   0  0  0  0  0  0  0  0  0  0  0  0
    3.7520   -0.9599   -2.4782 H   0  0  0  0  0  0  0  0  0  0  0  0
    4.5972    0.5590   -2.0917 H   0  0  0  0  0  0  0  0  0  0  0  0
    4.3707   -0.6874   -0.8395 H   0  0  0  0  0  0  0  0  0  0  0  0
  5  6  2  0  0  0  0
  5  7  1  0  0  0  0
  2  3  1  0  0  0  0
  2  4  1  0  0  0  0
  2  5  1  0  0  0  0
  1  2  1  0  0  0  0
 19 20  2  0  0  0  0
 19 21  1  0  0  0  0
 17 18  1  0  0  0  0
 17 19  1  0  0  0  0
 14 15  1  0  0  0  0
 14 16  1  0  0  0  0
 14 17  1  0  0  0  0
 11 12  1  0  0  0  0
 11 13  1  0  0  0  0
 11 14  1  0  0  0  0
  8  9  1  0  0  0  0
  8 10  1  0  0  0  0
  8 11  1  0  0  0  0
  7  8  1  0  0  0  0
  7 17  1  0  0  0  0
 23 24  1  0  0  0  0
 23 25  1  0  0  0  0
 23 26  1  0  0  0  0
 21 22  1  0  0  0  0
 21 23  1  0  0  0  0
M  END
$$$$
default_name
  -OEChem-01062215323D

 26 26  0     1  0  0  0  0  0999 V2000
   -1.8446   -3.5060   -0.3010 H   0  0  0  0  0  0  0  0  0  0  0  0
   -2.0746   -2.4490   -0.4240 C   0  0  0  0  0  0  0  0  0  0  0  0
   -2.6906   -2.1160    0.4090 H   0  0  0  0  0  0  0  0  0  0  0  0
   -2.5986   -2.2980   -1.3650 H   0  0  0  0  0  0  0  0  0  0  0  0
   -0.7756   -1.6630   -0.4350 C   0  0  0  0  0  0  0  0  0  0  0  0
    0.2844   -2.2800   -0.4550 O   0  0  0  0  0  0  0  0  0  0  0  0
   -0.8246   -0.3180   -0.4350 N   0  0  0  0  0  0  0  0  0  0  0  0
   -2.0106    0.5080   -0.5910 C   0  0  0  0  0  0  0  0  0  0  0  0
   -2.9719    0.2724   -0.1315 H   0  0  0  0  0  0  0  0  0  0  0  0
   -2.0905    1.4093   -1.1978 H   0  0  0  0  0  0  0  0  0  0  0  0
   -0.9491    0.7004    0.4901 C   0  0  0  0  0  0  0  0  0  0  0  0
   -1.1446   -0.3594    0.6609 H   0  0  0  0  0  0  0  0  0  0  0  0
   -1.7226    1.3162    0.9500 H   0  0  0  0  0  0  0  0  0  0  0  0
    0.4250    1.1190    1.0131 C   0  0  0  0  0  0  0  0  0  0  0  0
    1.0143    0.4826    1.6763 H   0  0  0  0  0  0  0  0  0  0  0  0
    0.8288    2.1313    1.0060 H   0  0  0  0  0  0  0  0  0  0  0  0
    0.3724    0.5200   -0.4020 C   0  0  1  0  0  0  0  0  0  0  0  0
    0.2462    1.3278   -1.1231 H   0  0  0  0  0  0  0  0  0  0  0  0
    1.6465   -0.2733   -0.7371 C   0  0  0  0  0  0  0  0  0  0  0  0
    1.6469   -1.5018   -0.6890 O   0  0  0  0  0  0  0  0  0  0  0  0
    2.7418    0.4346   -1.0383 N   0  0  0  0  0  0  0  0  0  0  0  0
    2.6462    1.4346   -1.1150 H   0  0  0  0  0  0  0  0  0  0  0  0
    4.0329   -0.1621   -1.3720 C   0  0  0  0  0  0  0  0  0  0  0  0
    3.9440   -0.7255   -2.3033 H   0  0  0  0  0  0  0  0  0  0  0  0
    4.7897    0.6140   -1.4903 H   0  0  0  0  0  0  0  0  0  0  0  0
    4.3386   -0.8488   -0.5796 H   0  0  0  0  0  0  0  0  0  0  0  0
  5  6  2  0  0  0  0
  5  7  1  0  0  0  0
  2  3  1  0  0  0  0
  2  4  1  0  0  0  0
  2  5  1  0  0  0  0
  1  2  1  0  0  0  0
 19 20  2  0  0  0  0
 19 21  1  0  0  0  0
 17 18  1  0  0  0  0
 17 19  1  0  0  0  0
 14 15  1  0  0  0  0
 14 16  1  0  0  0  0
 14 17  1  0  0  0  0
 11 12  1  0  0  0  0
 11 13  1  0  0  0  0
 11 14  1  0  0  0  0
  8  9  1  0  0  0  0
  8 10  1  0  0  0  0
  8 11  1  0  0  0  0
  7  8  1  0  0  0  0
  7 17  1  0  0  0  0
 23 24  1  0  0  0  0
 23 25  1  0  0  0  0
 23 26  1  0  0  0  0
 21 22  1  0  0  0  0
 21 23  1  0  0  0  0
M  END
$$$$
default_name
  -OEChem-01062215323D

 26 26  0     1  0  0  0  0  0999 V2000
   -1.8446   -3.5060   -0.3010 H   0  0  0  0  0  0  0  0  0  0  0  0
   -2.0746   -2.4490   -0.4240 C   0  0  0  0  0  0  0  0  0  0  0  0
   -2.6906   -2.1160    0.4090 H   0  0  0  0  0  0  0  0  0  0  0  0
   -2.5986   -2.2980   -1.3650 H   0  0  0  0  0  0  0  0  0  0  0  0
   -0.7756   -1.6630   -0.4350 C   0  0  0  0  0  0  0  0  0  0  0  0
    0.2844   -2.2800   -0.4550 O   0  0  0  0  0  0  0  0  0  0  0  0
   -0.8246   -0.3180   -0.4350 N   0  0  0  0  0  0  0  0  0  0  0  0
   -2.0106    0.5080   -0.5910 C   0  0  0  0  0  0  0  0  0  0  0  0
   -2.9719    0.2724   -0.1315 H   0  0  0  0  0  0  0  0  0  0  0  0
   -2.0905    1.4093   -1.1978 H   0  0  0  0  0  0  0  0  0  0  0  0
   -0.9491    0.7004    0.4901 C   0  0  0  0  0  0  0  0  0  0  0  0
   -1.1446   -0.3594    0.6609 H   0  0  0  0  0  0  0  0  0  0  0  0
   -1.7226    1.3162    0.9500 H   0  0  0  0  0  0  0  0  0  0  0  0
    0.4250    1.1190    1.0131 C   0  0  0  0  0  0  0  0  0  0  0  0
    1.0143    0.4826    1.6763 H   0  0  0  0  0  0  0  0  0  0  0  0
    0.8288    2.1313    1.0060 H   0  0  0  0  0  0  0  0  0  0  0  0
    0.3724    0.5200   -0.4020 C   0  0  1  0  0  0  0  0  0  0  0  0
    0.2462    1.3278   -1.1231 H   0  0  0  0  0  0  0  0  0  0  0  0
    1.6465   -0.2733   -0.7371 C   0  0  0  0  0  0  0  0  0  0  0  0
    1.5888   -1.4812   -0.9586 O   0  0  0  0  0  0  0  0  0  0  0  0
    2.8018    0.4026   -0.7345 N   0  0  0  0  0  0  0  0  0  0  0  0
    2.7597    1.4005   -0.6027 H   0  0  0  0  0  0  0  0  0  0  0  0
    4.1008   -0.2006   -1.0232 C   0  0  0  0  0  0  0  0  0  0  0  0
    4.1193   -0.5474   -2.0586 H   0  0  0  0  0  0  0  0  0  0  0  0
    4.8985    0.5273   -0.8718 H   0  0  0  0  0  0  0  0  0  0  0  0
    4.2637   -1.0587   -0.3674 H   0  0  0  0  0  0  0  0  0  0  0  0
  5  6  2  0  0  0  0
  5  7  1  0  0  0  0
  2  3  1  0  0  0  0
  2  4  1  0  0  0  0
  2  5  1  0  0  0  0
  1  2  1  0  0  0  0
 19 20  2  0  0  0  0
 19 21  1  0  0  0  0
 17 18  1  0  0  0  0
 17 19  1  0  0  0  0
 14 15  1  0  0  0  0
 14 16  1  0  0  0  0
 14 17  1  0  0  0  0
 11 12  1  0  0  0  0
 11 13  1  0  0  0  0
 11 14  1  0  0  0  0
  8  9  1  0  0  0  0
  8 10  1  0  0  0  0
  8 11  1  0  0  0  0
  7  8  1  0  0  0  0
  7 17  1  0  0  0  0
 23 24  1  0  0  0  0
 23 25  1  0  0  0  0
 23 26  1  0  0  0  0
 21 22  1  0  0  0  0
 21 23  1  0  0  0  0
M  END
$$$$
default_name
  -OEChem-01062215323D

 26 26  0     1  0  0  0  0  0999 V2000
   -1.8446   -3.5060   -0.3010 H   0  0  0  0  0  0  0  0  0  0  0  0
   -2.0746   -2.4490   -0.4240 C   0  0  0  0  0  0  0  0  0  0  0  0
   -2.6906   -2.1160    0.4090 H   0  0  0  0  0  0  0  0  0  0  0  0
   -2.5986   -2.2980   -1.3650 H   0  0  0  0  0  0  0  0  0  0  0  0
   -0.7756   -1.6630   -0.4350 C   0  0  0  0  0  0  0  0  0  0  0  0
    0.2844   -2.2800   -0.4550 O   0  0  0  0  0  0  0  0  0  0  0  0
   -0.8246   -0.3180   -0.4350 N   0  0  0  0  0  0  0  0  0  0  0  0
   -2.0106    0.5080   -0.5910 C   0  0  0  0  0  0  0  0  0  0  0  0
   -2.9719    0.2724   -0.1315 H   0  0  0  0  0  0  0  0  0  0  0  0
   -2.0905    1.4093   -1.1978 H   0  0  0  0  0  0  0  0  0  0  0  0
   -0.9491    0.7004    0.4901 C   0  0  0  0  0  0  0  0  0  0  0  0
   -1.1446   -0.3594    0.6609 H   0  0  0  0  0  0  0  0  0  0  0  0
   -1.7226    1.3162    0.9500 H   0  0  0  0  0  0  0  0  0  0  0  0
    0.4250    1.1190    1.0131 C   0  0  0  0  0  0  0  0  0  0  0  0
    1.0143    0.4826    1.6763 H   0  0  0  0  0  0  0  0  0  0  0  0
    0.8288    2.1313    1.0060 H   0  0  0  0  0  0  0  0  0  0  0  0
    0.3724    0.5200   -0.4020 C   0  0  1  0  0  0  0  0  0  0  0  0
    0.2462    1.3278   -1.1231 H   0  0  0  0  0  0  0  0  0  0  0  0
    1.6465   -0.2733   -0.7371 C   0  0  0  0  0  0  0  0  0  0  0  0
    1.5698   -1.4003   -1.2224 O   0  0  0  0  0  0  0  0  0  0  0  0
    2.8173    0.3031   -0.4399 N   0  0  0  0  0  0  0  0  0  0  0  0
    2.7991    1.2513   -0.0999 H   0  0  0  0  0  0  0  0  0  0  0  0
    4.1175   -0.3164   -0.6854 C   0  0  0  0  0  0  0  0  0  0  0  0
    4.2659   -0.4378   -1.7606 H   0  0  0  0  0  0  0  0  0  0  0  0
    4.9160    0.3048   -0.2785 H   0  0  0  0  0  0  0  0  0  0  0  0
    4.1513   -1.3027   -0.2175 H   0  0  0  0  0  0  0  0  0  0  0  0
  5  6  2  0  0  0  0
  5  7  1  0  0  0  0
  2  3  1  0  0  0  0
  2  4  1  0  0  0  0
  2  5  1  0  0  0  0
  1  2  1  0  0  0  0
 19 20  2  0  0  0  0
 19 21  1  0  0  0  0
 17 18  1  0  0  0  0
 17 19  1  0  0  0  0
 14 15  1  0  0  0  0
 14 16  1  0  0  0  0
 14 17  1  0  0  0  0
 11 12  1  0  0  0  0
 11 13  1  0  0  0  0
 11 14  1  0  0  0  0
  8  9  1  0  0  0  0
  8 10  1  0  0  0  0
  8 11  1  0  0  0  0
  7  8  1  0  0  0  0
  7 17  1  0  0  0  0
 23 24  1  0  0  0  0
 23 25  1  0  0  0  0
 23 26  1  0  0  0  0
 21 22  1  0  0  0  0
 21 23  1  0  0  0  0
M  END
$$$$
default_name
  -OEChem-01062215323D

 26 26  0     1  0  0  0  0  0999 V2000
   -1.8446   -3.5060   -0.3010 H   0  0  0  0  0  0  0  0  0  0  0  0
   -2.0746   -2.4490   -0.4240 C   0  0  0  0  0  0  0  0  0  0  0  0
   -2.6906   -2.1160    0.4090 H   0  0  0  0  0  0  0  0  0  0  0  0
   -2.5986   -2.2980   -1.3650 H   0  0  0  0  0  0  0  0  0  0  0  0
   -0.7756   -1.6630   -0.4350 C   0  0  0  0  0  0  0  0  0  0  0  0
    0.2844   -2.2800   -0.4550 O   0  0  0  0  0  0  0  0  0  0  0  0
   -0.8246   -0.3180   -0.4350 N   0  0  0  0  0  0  0  0  0  0  0  0
   -2.0106    0.5080   -0.5910 C   0  0  0  0  0  0  0  0  0  0  0  0
   -2.9719    0.2724   -0.1315 H   0  0  0  0  0  0  0  0  0  0  0  0
   -2.0905    1.4093   -1.1978 H   0  0  0  0  0  0  0  0  0  0  0  0
   -0.9491    0.7004    0.4901 C   0  0  0  0  0  0  0  0  0  0  0  0
   -1.1446   -0.3594    0.6609 H   0  0  0  0  0  0  0  0  0  0  0  0
   -1.7226    1.3162    0.9500 H   0  0  0  0  0  0  0  0  0  0  0  0
    0.4250    1.1190    1.0131 C   0  0  0  0  0  0  0  0  0  0  0  0
    1.0143    0.4826    1.6763 H   0  0  0  0  0  0  0  0  0  0  0  0
    0.8288    2.1313    1.0060 H   0  0  0  0  0  0  0  0  0  0  0  0
    0.3724    0.5200   -0.4020 C   0  0  1  0  0  0  0  0  0  0  0  0
    0.2462    1.3278   -1.1231 H   0  0  0  0  0  0  0  0  0  0  0  0
    1.6465   -0.2733   -0.7371 C   0  0  0  0  0  0  0  0  0  0  0  0
    1.5913   -1.2645   -1.4624 O   0  0  0  0  0  0  0  0  0  0  0  0
    2.7874    0.1430   -0.1746 N   0  0  0  0  0  0  0  0  0  0  0  0
    2.7616    0.9972    0.3590 H   0  0  0  0  0  0  0  0  0  0  0  0
    4.0821   -0.5016   -0.3818 C   0  0  0  0  0  0  0  0  0  0  0  0
    4.3740   -0.4041   -1.4296 H   0  0  0  0  0  0  0  0  0  0  0  0
    4.8412   -0.0383    0.2492 H   0  0  0  0  0  0  0  0  0  0  0  0
    4.0088   -1.5642   -0.1400 H   0  0  0  0  0  0  0  0  0  0  0  0
  5  6  2  0  0  0  0
  5  7  1  0  0  0  0
  2  3  1  0  0  0  0
  2  4  1  0  0  0  0
  2  5  1  0  0  0  0
  1  2  1  0  0  0  0
 19 20  2  0  0  0  0
 19 21  1  0  0  0  0
 17 18  1  0  0  0  0
 17 19  1  0  0  0  0
 14 15  1  0  0  0  0
 14 16  1  0  0  0  0
 14 17  1  0  0  0  0
 11 12  1  0  0  0  0
 11 13  1  0  0  0  0
 11 14  1  0  0  0  0
  8  9  1  0  0  0  0
  8 10  1  0  0  0  0
  8 11  1  0  0  0  0
  7  8  1  0  0  0  0
  7 17  1  0  0  0  0
 23 24  1  0  0  0  0
 23 25  1  0  0  0  0
 23 26  1  0  0  0  0
 21 22  1  0  0  0  0
 21 23  1  0  0  0  0
M  END
$$$$
default_name
  -OEChem-01062215323D

 26 26  0     1  0  0  0  0  0999 V2000
   -1.8446   -3.5060   -0.3010 H   0  0  0  0  0  0  0  0  0  0  0  0
   -2.0746   -2.4490   -0.4240 C   0  0  0  0  0  0  0  0  0  0  0  0
   -2.6906   -2.1160    0.4090 H   0  0  0  0  0  0  0  0  0  0  0  0
   -2.5986   -2.2980   -1.3650 H   0  0  0  0  0  0  0  0  0  0  0  0
   -0.7756   -1.6630   -0.4350 C   0  0  0  0  0  0  0  0  0  0  0  0
    0.2844   -2.2800   -0.4550 O   0  0  0  0  0  0  0  0  0  0  0  0
   -0.8246   -0.3180   -0.4350 N   0  0  0  0  0  0  0  0  0  0  0  0
   -2.0106    0.5080   -0.5910 C   0  0  0  0  0  0  0  0  0  0  0  0
   -2.9719    0.2724   -0.1315 H   0  0  0  0  0  0  0  0  0  0  0  0
   -2.0905    1.4093   -1.1978 H   0  0  0  0  0  0  0  0  0  0  0  0
   -0.9491    0.7004    0.4901 C   0  0  0  0  0  0  0  0  0  0  0  0
   -1.1446   -0.3594    0.6609 H   0  0  0  0  0  0  0  0  0  0  0  0
   -1.7226    1.3162    0.9500 H   0  0  0  0  0  0  0  0  0  0  0  0
    0.4250    1.1190    1.0131 C   0  0  0  0  0  0  0  0  0  0  0  0
    1.0143    0.4826    1.6763 H   0  0  0  0  0  0  0  0  0  0  0  0
    0.8288    2.1313    1.0060 H   0  0  0  0  0  0  0  0  0  0  0  0
    0.3724    0.5200   -0.4020 C   0  0  1  0  0  0  0  0  0  0  0  0
    0.2462    1.3278   -1.1231 H   0  0  0  0  0  0  0  0  0  0  0  0
    1.6465   -0.2733   -0.7371 C   0  0  0  0  0  0  0  0  0  0  0  0
    1.6517   -1.0830   -1.6622 O   0  0  0  0  0  0  0  0  0  0  0  0
    2.7141   -0.0668    0.0433 N   0  0  0  0  0  0  0  0  0  0  0  0
    2.6497    0.6554    0.7427 H   0  0  0  0  0  0  0  0  0  0  0  0
    3.9969   -0.7436   -0.1329 C   0  0  0  0  0  0  0  0  0  0  0  0
    4.4361   -0.4486   -1.0883 H   0  0  0  0  0  0  0  0  0  0  0  0
    4.6792   -0.4786    0.6754 H   0  0  0  0  0  0  0  0  0  0  0  0
    3.8462   -1.8253   -0.1402 H   0  0  0  0  0  0  0  0  0  0  0  0
  5  6  2  0  0  0  0
  5  7  1  0  0  0  0
  2  3  1  0  0  0  0
  2  4  1  0  0  0  0
  2  5  1  0  0  0  0
  1  2  1  0  0  0  0
 19 20  2  0  0  0  0
 19 21  1  0  0  0  0
 17 18  1  0  0  0  0
 17 19  1  0  0  0  0
 14 15  1  0  0  0  0
 14 16  1  0  0  0  0
 14 17  1  0  0  0  0
 11 12  1  0  0  0  0
 11 13  1  0  0  0  0
 11 14  1  0  0  0  0
  8  9  1  0  0  0  0
  8 10  1  0  0  0  0
  8 11  1  0  0  0  0
  7  8  1  0  0  0  0
  7 17  1  0  0  0  0
 23 24  1  0  0  0  0
 23 25  1  0  0  0  0
 23 26  1  0  0  0  0
 21 22  1  0  0  0  0
 21 23  1  0  0  0  0
M  END
$$$$
default_name
  -OEChem-01062215323D

 26 26  0     1  0  0  0  0  0999 V2000
   -1.8446   -3.5060   -0.3010 H   0  0  0  0  0  0  0  0  0  0  0  0
   -2.0746   -2.4490   -0.4240 C   0  0  0  0  0  0  0  0  0  0  0  0
   -2.6906   -2.1160    0.4090 H   0  0  0  0  0  0  0  0  0  0  0  0
   -2.5986   -2.2980   -1.3650 H   0  0  0  0  0  0  0  0  0  0  0  0
   -0.7756   -1.6630   -0.4350 C   0  0  0  0  0  0  0  0  0  0  0  0
    0.2844   -2.2800   -0.4550 O   0  0  0  0  0  0  0  0  0  0  0  0
   -0.8246   -0.3180   -0.4350 N   0  0  0  0  0  0  0  0  0  0  0  0
   -2.0106    0.5080   -0.5910 C   0  0  0  0  0  0  0  0  0  0  0  0
   -2.9719    0.2724   -0.1315 H   0  0  0  0  0  0  0  0  0  0  0  0
   -2.0905    1.4093   -1.1978 H   0  0  0  0  0  0  0  0  0  0  0  0
   -0.9491    0.7004    0.4901 C   0  0  0  0  0  0  0  0  0  0  0  0
   -1.1446   -0.3594    0.6609 H   0  0  0  0  0  0  0  0  0  0  0  0
   -1.7226    1.3162    0.9500 H   0  0  0  0  0  0  0  0  0  0  0  0
    0.4250    1.1190    1.0131 C   0  0  0  0  0  0  0  0  0  0  0  0
    1.0143    0.4826    1.6763 H   0  0  0  0  0  0  0  0  0  0  0  0
    0.8288    2.1313    1.0060 H   0  0  0  0  0  0  0  0  0  0  0  0
    0.3724    0.5200   -0.4020 C   0  0  1  0  0  0  0  0  0  0  0  0
    0.2462    1.3278   -1.1231 H   0  0  0  0  0  0  0  0  0  0  0  0
    1.6465   -0.2733   -0.7371 C   0  0  0  0  0  0  0  0  0  0  0  0
    1.7469   -0.8683   -1.8082 O   0  0  0  0  0  0  0  0  0  0  0  0
    2.6023   -0.3121    0.1991 N   0  0  0  0  0  0  0  0  0  0  0  0
    2.4712    0.2493    1.0252 H   0  0  0  0  0  0  0  0  0  0  0  0
    3.8677   -1.0259    0.0442 C   0  0  0  0  0  0  0  0  0  0  0  0
    4.4480   -0.5682   -0.7598 H   0  0  0  0  0  0  0  0  0  0  0  0
    4.4409   -0.9862    0.9710 H   0  0  0  0  0  0  0  0  0  0  0  0
    3.6743   -2.0683   -0.2181 H   0  0  0  0  0  0  0  0  0  0  0  0
  5  6  2  0  0  0  0
  5  7  1  0  0  0  0
  2  3  1  0  0  0  0
  2  4  1  0  0  0  0
  2  5  1  0  0  0  0
  1  2  1  0  0  0  0
 19 20  2  0  0  0  0
 19 21  1  0  0  0  0
 17 18  1  0  0  0  0
 17 19  1  0  0  0  0
 14 15  1  0  0  0  0
 14 16  1  0  0  0  0
 14 17  1  0  0  0  0
 11 12  1  0  0  0  0
 11 13  1  0  0  0  0
 11 14  1  0  0  0  0
  8  9  1  0  0  0  0
  8 10  1  0  0  0  0
  8 11  1  0  0  0  0
  7  8  1  0  0  0  0
  7 17  1  0  0  0  0
 23 24  1  0  0  0  0
 23 25  1  0  0  0  0
 23 26  1  0  0  0  0
 21 22  1  0  0  0  0
 21 23  1  0  0  0  0
M  END
$$$$
default_name
  -OEChem-01062215323D

 26 26  0     1  0  0  0  0  0999 V2000
   -1.8446   -3.5060   -0.3010 H   0  0  0  0  0  0  0  0  0  0  0  0
   -2.0746   -2.4490   -0.4240 C   0  0  0  0  0  0  0  0  0  0  0  0
   -2.6906   -2.1160    0.4090 H   0  0  0  0  0  0  0  0  0  0  0  0
   -2.5986   -2.2980   -1.3650 H   0  0  0  0  0  0  0  0  0  0  0  0
   -0.7756   -1.6630   -0.4350 C   0  0  0  0  0  0  0  0  0  0  0  0
    0.2844   -2.2800   -0.4550 O   0  0  0  0  0  0  0  0  0  0  0  0
   -0.8246   -0.3180   -0.4350 N   0  0  0  0  0  0  0  0  0  0  0  0
   -2.0106    0.5080   -0.5910 C   0  0  0  0  0  0  0  0  0  0  0  0
   -2.9719    0.2724   -0.1315 H   0  0  0  0  0  0  0  0  0  0  0  0
   -2.0905    1.4093   -1.1978 H   0  0  0  0  0  0  0  0  0  0  0  0
   -0.9491    0.7004    0.4901 C   0  0  0  0  0  0  0  0  0  0  0  0
   -1.1446   -0.3594    0.6609 H   0  0  0  0  0  0  0  0  0  0  0  0
   -1.7226    1.3162    0.9500 H   0  0  0  0  0  0  0  0  0  0  0  0
    0.4250    1.1190    1.0131 C   0  0  0  0  0  0  0  0  0  0  0  0
    1.0143    0.4826    1.6763 H   0  0  0  0  0  0  0  0  0  0  0  0
    0.8288    2.1313    1.0060 H   0  0  0  0  0  0  0  0  0  0  0  0
    0.3724    0.5200   -0.4020 C   0  0  1  0  0  0  0  0  0  0  0  0
    0.2462    1.3278   -1.1231 H   0  0  0  0  0  0  0  0  0  0  0  0
    1.6465   -0.2733   -0.7371 C   0  0  0  0  0  0  0  0  0  0  0  0
    1.8706   -0.6350   -1.8905 O   0  0  0  0  0  0  0  0  0  0  0  0
    2.4597   -0.5762    0.2820 N   0  0  0  0  0  0  0  0  0  0  0  0
    2.2381   -0.1934    1.1871 H   0  0  0  0  0  0  0  0  0  0  0  0
    3.7033   -1.3293    0.1375 C   0  0  0  0  0  0  0  0  0  0  0  0
    4.4089   -0.7549   -0.4666 H   0  0  0  0  0  0  0  0  0  0  0  0
    4.1426   -1.5264    1.1159 H   0  0  0  0  0  0  0  0  0  0  0  0
    3.5051   -2.2766   -0.3685 H   0  0  0  0  0  0  0  0  0  0  0  0
  5  6  2  0  0  0  0
  5  7  1  0  0  0  0
  2  3  1  0  0  0  0
  2  4  1  0  0  0  0
  2  5  1  0  0  0  0
  1  2  1  0  0  0  0
 19 20  2  0  0  0  0
 19 21  1  0  0  0  0
 17 18  1  0  0  0  0
 17 19  1  0  0  0  0
 14 15  1  0  0  0  0
 14 16  1  0  0  0  0
 14 17  1  0  0  0  0
 11 12  1  0  0  0  0
 11 13  1  0  0  0  0
 11 14  1  0  0  0  0
  8  9  1  0  0  0  0
  8 10  1  0  0  0  0
  8 11  1  0  0  0  0
  7  8  1  0  0  0  0
  7 17  1  0  0  0  0
 23 24  1  0  0  0  0
 23 25  1  0  0  0  0
 23 26  1  0  0  0  0
 21 22  1  0  0  0  0
 21 23  1  0  0  0  0
M  END
$$$$
default_name
  -OEChem-01062215323D

 26 26  0     1  0  0  0  0  0999 V2000
   -1.8446   -3.5060   -0.3010 H   0  0  0  0  0  0  0  0  0  0  0  0
   -2.0746   -2.4490   -0.4240 C   0  0  0  0  0  0  0  0  0  0  0  0
   -2.6906   -2.1160    0.4090 H   0  0  0  0  0  0  0  0  0  0  0  0
   -2.5986   -2.2980   -1.3650 H   0  0  0  0  0  0  0  0  0  0  0  0
   -0.7756   -1.6630   -0.4350 C   0  0  0  0  0  0  0  0  0  0  0  0
    0.2844   -2.2800   -0.4550 O   0  0  0  0  0  0  0  0  0  0  0  0
   -0.8246   -0.3180   -0.4350 N   0  0  0  0  0  0  0  0  0  0  0  0
   -2.0106    0.5080   -0.5910 C   0  0  0  0  0  0  0  0  0  0  0  0
   -2.9719    0.2724   -0.1315 H   0  0  0  0  0  0  0  0  0  0  0  0
   -2.0905    1.4093   -1.1978 H   0  0  0  0  0  0  0  0  0  0  0  0
   -0.9491    0.7004    0.4901 C   0  0  0  0  0  0  0  0  0  0  0  0
   -1.1446   -0.3594    0.6609 H   0  0  0  0  0  0  0  0  0  0  0  0
   -1.7226    1.3162    0.9500 H   0  0  0  0  0  0  0  0  0  0  0  0
    0.4250    1.1190    1.0131 C   0  0  0  0  0  0  0  0  0  0  0  0
    1.0143    0.4826    1.6763 H   0  0  0  0  0  0  0  0  0  0  0  0
    0.8288    2.1313    1.0060 H   0  0  0  0  0  0  0  0  0  0  0  0
    0.3724    0.5200   -0.4020 C   0  0  1  0  0  0  0  0  0  0  0  0
    0.2462    1.3278   -1.1231 H   0  0  0  0  0  0  0  0  0  0  0  0
    1.6465   -0.2733   -0.7371 C   0  0  0  0  0  0  0  0  0  0  0  0
    2.0141   -0.3990   -1.9035 O   0  0  0  0  0  0  0  0  0  0  0  0
    2.2960   -0.8409    0.2864 N   0  0  0  0  0  0  0  0  0  0  0  0
    1.9664   -0.6426    1.2174 H   0  0  0  0  0  0  0  0  0  0  0  0
    3.5150   -1.6330    0.1407 C   0  0  0  0  0  0  0  0  0  0  0  0
    4.3214   -0.9959   -0.2287 H   0  0  0  0  0  0  0  0  0  0  0  0
    3.8046   -2.0625    1.1002 H   0  0  0  0  0  0  0  0  0  0  0  0
    3.3499   -2.4361   -0.5810 H   0  0  0  0  0  0  0  0  0  0  0  0
  5  6  2  0  0  0  0
  5  7  1  0  0  0  0
  2  3  1  0  0  0  0
  2  4  1  0  0  0  0
  2  5  1  0  0  0  0
  1  2  1  0  0  0  0
 19 20  2  0  0  0  0
 19 21  1  0  0  0  0
 17 18  1  0  0  0  0
 17 19  1  0  0  0  0
 14 15  1  0  0  0  0
 14 16  1  0  0  0  0
 14 17  1  0  0  0  0
 11 12  1  0  0  0  0
 11 13  1  0  0  0  0
 11 14  1  0  0  0  0
  8  9  1  0  0  0  0
  8 10  1  0  0  0  0
  8 11  1  0  0  0  0
  7  8  1  0  0  0  0
  7 17  1  0  0  0  0
 23 24  1  0  0  0  0
 23 25  1  0  0  0  0
 23 26  1  0  0  0  0
 21 22  1  0  0  0  0
 21 23  1  0  0  0  0
M  END
$$$$
default_name
  -OEChem-01062215323D

 26 26  0     1  0  0  0  0  0999 V2000
   -1.8446   -3.5060   -0.3010 H   0  0  0  0  0  0  0  0  0  0  0  0
   -2.0746   -2.4490   -0.4240 C   0  0  0  0  0  0  0  0  0  0  0  0
   -2.6906   -2.1160    0.4090 H   0  0  0  0  0  0  0  0  0  0  0  0
   -2.5986   -2.2980   -1.3650 H   0  0  0  0  0  0  0  0  0  0  0  0
   -0.7756   -1.6630   -0.4350 C   0  0  0  0  0  0  0  0  0  0  0  0
    0.2844   -2.2800   -0.4550 O   0  0  0  0  0  0  0  0  0  0  0  0
   -0.8246   -0.3180   -0.4350 N   0  0  0  0  0  0  0  0  0  0  0  0
   -2.0106    0.5080   -0.5910 C   0  0  0  0  0  0  0  0  0  0  0  0
   -2.9719    0.2724   -0.1315 H   0  0  0  0  0  0  0  0  0  0  0  0
   -2.0905    1.4093   -1.1978 H   0  0  0  0  0  0  0  0  0  0  0  0
   -0.9491    0.7004    0.4901 C   0  0  0  0  0  0  0  0  0  0  0  0
   -1.1446   -0.3594    0.6609 H   0  0  0  0  0  0  0  0  0  0  0  0
   -1.7226    1.3162    0.9500 H   0  0  0  0  0  0  0  0  0  0  0  0
    0.4250    1.1190    1.0131 C   0  0  0  0  0  0  0  0  0  0  0  0
    1.0143    0.4826    1.6763 H   0  0  0  0  0  0  0  0  0  0  0  0
    0.8288    2.1313    1.0060 H   0  0  0  0  0  0  0  0  0  0  0  0
    0.3724    0.5200   -0.4020 C   0  0  1  0  0  0  0  0  0  0  0  0
    0.2462    1.3278   -1.1231 H   0  0  0  0  0  0  0  0  0  0  0  0
    1.6465   -0.2733   -0.7371 C   0  0  0  0  0  0  0  0  0  0  0  0
    2.1678   -0.1763   -1.8462 O   0  0  0  0  0  0  0  0  0  0  0  0
    2.1224   -1.0884    0.2120 N   0  0  0  0  0  0  0  0  0  0  0  0
    1.6745   -1.0677    1.1141 H   0  0  0  0  0  0  0  0  0  0  0  0
    3.3155   -1.9165    0.0534 C   0  0  0  0  0  0  0  0  0  0  0  0
    4.1916   -1.2748   -0.0622 H   0  0  0  0  0  0  0  0  0  0  0  0
    3.4501   -2.5579    0.9250 H   0  0  0  0  0  0  0  0  0  0  0  0
    3.2193   -2.5358   -0.8411 H   0  0  0  0  0  0  0  0  0  0  0  0
  5  6  2  0  0  0  0
  5  7  1  0  0  0  0
  2  3  1  0  0  0  0
  2  4  1  0  0  0  0
  2  5  1  0  0  0  0
  1  2  1  0  0  0  0
 19 20  2  0  0  0  0
 19 21  1  0  0  0  0
 17 18  1  0  0  0  0
 17 19  1  0  0  0  0
 14 15  1  0  0  0  0
 14 16  1  0  0  0  0
 14 17  1  0  0  0  0
 11 12  1  0  0  0  0
 11 13  1  0  0  0  0
 11 14  1  0  0  0  0
  8  9  1  0  0  0  0
  8 10  1  0  0  0  0
  8 11  1  0  0  0  0
  7  8  1  0  0  0  0
  7 17  1  0  0  0  0
 23 24  1  0  0  0  0
 23 25  1  0  0  0  0
 23 26  1  0  0  0  0
 21 22  1  0  0  0  0
 21 23  1  0  0  0  0
M  END
$$$$
default_name
  -OEChem-01062215323D

 26 26  0     1  0  0  0  0  0999 V2000
   -1.8446   -3.5060   -0.3010 H   0  0  0  0  0  0  0  0  0  0  0  0
   -2.0746   -2.4490   -0.4240 C   0  0  0  0  0  0  0  0  0  0  0  0
   -2.6906   -2.1160    0.4090 H   0  0  0  0  0  0  0  0  0  0  0  0
   -2.5986   -2.2980   -1.3650 H   0  0  0  0  0  0  0  0  0  0  0  0
   -0.7756   -1.6630   -0.4350 C   0  0  0  0  0  0  0  0  0  0  0  0
    0.2844   -2.2800   -0.4550 O   0  0  0  0  0  0  0  0  0  0  0  0
   -0.8246   -0.3180   -0.4350 N   0  0  0  0  0  0  0  0  0  0  0  0
   -2.0106    0.5080   -0.5910 C   0  0  0  0  0  0  0  0  0  0  0  0
   -2.9719    0.2724   -0.1315 H   0  0  0  0  0  0  0  0  0  0  0  0
   -2.0905    1.4093   -1.1978 H   0  0  0  0  0  0  0  0  0  0  0  0
   -0.9491    0.7004    0.4901 C   0  0  0  0  0  0  0  0  0  0  0  0
   -1.1446   -0.3594    0.6609 H   0  0  0  0  0  0  0  0  0  0  0  0
   -1.7226    1.3162    0.9500 H   0  0  0  0  0  0  0  0  0  0  0  0
    0.4250    1.1190    1.0131 C   0  0  0  0  0  0  0  0  0  0  0  0
    1.0143    0.4826    1.6763 H   0  0  0  0  0  0  0  0  0  0  0  0
    0.8288    2.1313    1.0060 H   0  0  0  0  0  0  0  0  0  0  0  0
    0.3724    0.5200   -0.4020 C   0  0  1  0  0  0  0  0  0  0  0  0
    0.2462    1.3278   -1.1231 H   0  0  0  0  0  0  0  0  0  0  0  0
    1.6465   -0.2733   -0.7371 C   0  0  0  0  0  0  0  0  0  0  0  0
    2.3212    0.0178   -1.7227 O   0  0  0  0  0  0  0  0  0  0  0  0
    1.9506   -1.3016    0.0639 N   0  0  0  0  0  0  0  0  0  0  0  0
    1.3824   -1.4397    0.8843 H   0  0  0  0  0  0  0  0  0  0  0  0
    3.1185   -2.1604   -0.1183 C   0  0  0  0  0  0  0  0  0  0  0  0
    4.0282   -1.5725    0.0215 H   0  0  0  0  0  0  0  0  0  0  0  0
    3.1030   -2.9788    0.6021 H   0  0  0  0  0  0  0  0  0  0  0  0
    3.1224   -2.5690   -1.1312 H   0  0  0  0  0  0  0  0  0  0  0  0
  5  6  2  0  0  0  0
  5  7  1  0  0  0  0
  2  3  1  0  0  0  0
  2  4  1  0  0  0  0
  2  5  1  0  0  0  0
  1  2  1  0  0  0  0
 19 20  2  0  0  0  0
 19 21  1  0  0  0  0
 17 18  1  0  0  0  0
 17 19  1  0  0  0  0
 14 15  1  0  0  0  0
 14 16  1  0  0  0  0
 14 17  1  0  0  0  0
 11 12  1  0  0  0  0
 11 13  1  0  0  0  0
 11 14  1  0  0  0  0
  8  9  1  0  0  0  0
  8 10  1  0  0  0  0
  8 11  1  0  0  0  0
  7  8  1  0  0  0  0
  7 17  1  0  0  0  0
 23 24  1  0  0  0  0
 23 25  1  0  0  0  0
 23 26  1  0  0  0  0
 21 22  1  0  0  0  0
 21 23  1  0  0  0  0
M  END
$$$$
default_name
  -OEChem-01062215323D

 26 26  0     1  0  0  0  0  0999 V2000
   -1.8446   -3.5060   -0.3010 H   0  0  0  0  0  0  0  0  0  0  0  0
   -2.0746   -2.4490   -0.4240 C   0  0  0  0  0  0  0  0  0  0  0  0
   -2.6906   -2.1160    0.4090 H   0  0  0  0  0  0  0  0  0  0  0  0
   -2.5986   -2.2980   -1.3650 H   0  0  0  0  0  0  0  0  0  0  0  0
   -0.7756   -1.6630   -0.4350 C   0  0  0  0  0  0  0  0  0  0  0  0
    0.2844   -2.2800   -0.4550 O   0  0  0  0  0  0  0  0  0  0  0  0
   -0.8246   -0.3180   -0.4350 N   0  0  0  0  0  0  0  0  0  0  0  0
   -2.0106    0.5080   -0.5910 C   0  0  0  0  0  0  0  0  0  0  0  0
   -2.9719    0.2724   -0.1315 H   0  0  0  0  0  0  0  0  0  0  0  0
   -2.0905    1.4093   -1.1978 H   0  0  0  0  0  0  0  0  0  0  0  0
   -0.9491    0.7004    0.4901 C   0  0  0  0  0  0  0  0  0  0  0  0
   -1.1446   -0.3594    0.6609 H   0  0  0  0  0  0  0  0  0  0  0  0
   -1.7226    1.3162    0.9500 H   0  0  0  0  0  0  0  0  0  0  0  0
    0.4250    1.1190    1.0131 C   0  0  0  0  0  0  0  0  0  0  0  0
    1.0143    0.4826    1.6763 H   0  0  0  0  0  0  0  0  0  0  0  0
    0.8288    2.1313    1.0060 H   0  0  0  0  0  0  0  0  0  0  0  0
    0.3724    0.5200   -0.4020 C   0  0  1  0  0  0  0  0  0  0  0  0
    0.2462    1.3278   -1.1231 H   0  0  0  0  0  0  0  0  0  0  0  0
    1.6465   -0.2733   -0.7371 C   0  0  0  0  0  0  0  0  0  0  0  0
    2.4639    0.1702   -1.5412 O   0  0  0  0  0  0  0  0  0  0  0  0
    1.7924   -1.4662   -0.1478 N   0  0  0  0  0  0  0  0  0  0  0  0
    1.1099   -1.7332    0.5434 H   0  0  0  0  0  0  0  0  0  0  0  0
    2.9373   -2.3480   -0.3628 C   0  0  0  0  0  0  0  0  0  0  0  0
    3.8424   -1.8688    0.0167 H   0  0  0  0  0  0  0  0  0  0  0  0
    2.7872   -3.2965    0.1537 H   0  0  0  0  0  0  0  0  0  0  0  0
    3.0656   -2.5333   -1.4315 H   0  0  0  0  0  0  0  0  0  0  0  0
  5  6  2  0  0  0  0
  5  7  1  0  0  0  0
  2  3  1  0  0  0  0
  2  4  1  0  0  0  0
  2  5  1  0  0  0  0
  1  2  1  0  0  0  0
 19 20  2  0  0  0  0
 19 21  1  0  0  0  0
 17 18  1  0  0  0  0
 17 19  1  0  0  0  0
 14 15  1  0  0  0  0
 14 16  1  0  0  0  0
 14 17  1  0  0  0  0
 11 12  1  0  0  0  0
 11 13  1  0  0  0  0
 11 14  1  0  0  0  0
  8  9  1  0  0  0  0
  8 10  1  0  0  0  0
  8 11  1  0  0  0  0
  7  8  1  0  0  0  0
  7 17  1  0  0  0  0
 23 24  1  0  0  0  0
 23 25  1  0  0  0  0
 23 26  1  0  0  0  0
 21 22  1  0  0  0  0
 21 23  1  0  0  0  0
M  END
$$$$
default_name
  -OEChem-01062215323D

 26 26  0     1  0  0  0  0  0999 V2000
   -1.8446   -3.5060   -0.3010 H   0  0  0  0  0  0  0  0  0  0  0  0
   -2.0746   -2.4490   -0.4240 C   0  0  0  0  0  0  0  0  0  0  0  0
   -2.6906   -2.1160    0.4090 H   0  0  0  0  0  0  0  0  0  0  0  0
   -2.5986   -2.2980   -1.3650 H   0  0  0  0  0  0  0  0  0  0  0  0
   -0.7756   -1.6630   -0.4350 C   0  0  0  0  0  0  0  0  0  0  0  0
    0.2844   -2.2800   -0.4550 O   0  0  0  0  0  0  0  0  0  0  0  0
   -0.8246   -0.3180   -0.4350 N   0  0  0  0  0  0  0  0  0  0  0  0
   -2.0106    0.5080   -0.5910 C   0  0  0  0  0  0  0  0  0  0  0  0
   -2.9719    0.2724   -0.1315 H   0  0  0  0  0  0  0  0  0  0  0  0
   -2.0905    1.4093   -1.1978 H   0  0  0  0  0  0  0  0  0  0  0  0
   -0.9491    0.7004    0.4901 C   0  0  0  0  0  0  0  0  0  0  0  0
   -1.1446   -0.3594    0.6609 H   0  0  0  0  0  0  0  0  0  0  0  0
   -1.7226    1.3162    0.9500 H   0  0  0  0  0  0  0  0  0  0  0  0
    0.4250    1.1190    1.0131 C   0  0  0  0  0  0  0  0  0  0  0  0
    1.0143    0.4826    1.6763 H   0  0  0  0  0  0  0  0  0  0  0  0
    0.8288    2.1313    1.0060 H   0  0  0  0  0  0  0  0  0  0  0  0
    0.3724    0.5200   -0.4020 C   0  0  1  0  0  0  0  0  0  0  0  0
    0.2462    1.3278   -1.1231 H   0  0  0  0  0  0  0  0  0  0  0  0
    1.6465   -0.2733   -0.7371 C   0  0  0  0  0  0  0  0  0  0  0  0
    2.5860    0.2704   -1.3142 O   0  0  0  0  0  0  0  0  0  0  0  0
    1.6586   -1.5709   -0.4087 N   0  0  0  0  0  0  0  0  0  0  0  0
    0.8757   -1.9283    0.1149 H   0  0  0  0  0  0  0  0  0  0  0  0
    2.7844   -2.4665   -0.6633 C   0  0  0  0  0  0  0  0  0  0  0  0
    3.6469   -2.1435   -0.0763 H   0  0  0  0  0  0  0  0  0  0  0  0
    2.5241   -3.4895   -0.3897 H   0  0  0  0  0  0  0  0  0  0  0  0
    3.0528   -2.4313   -1.7214 H   0  0  0  0  0  0  0  0  0  0  0  0
  5  6  2  0  0  0  0
  5  7  1  0  0  0  0
  2  3  1  0  0  0  0
  2  4  1  0  0  0  0
  2  5  1  0  0  0  0
  1  2  1  0  0  0  0
 19 20  2  0  0  0  0
 19 21  1  0  0  0  0
 17 18  1  0  0  0  0
 17 19  1  0  0  0  0
 14 15  1  0  0  0  0
 14 16  1  0  0  0  0
 14 17  1  0  0  0  0
 11 12  1  0  0  0  0
 11 13  1  0  0  0  0
 11 14  1  0  0  0  0
  8  9  1  0  0  0  0
  8 10  1  0  0  0  0
  8 11  1  0  0  0  0
  7  8  1  0  0  0  0
  7 17  1  0  0  0  0
 23 24  1  0  0  0  0
 23 25  1  0  0  0  0
 23 26  1  0  0  0  0
 21 22  1  0  0  0  0
 21 23  1  0  0  0  0
M  END
$$$$
default_name
  -OEChem-01062215323D

 26 26  0     1  0  0  0  0  0999 V2000
   -1.8446   -3.5060   -0.3010 H   0  0  0  0  0  0  0  0  0  0  0  0
   -2.0746   -2.4490   -0.4240 C   0  0  0  0  0  0  0  0  0  0  0  0
   -2.6906   -2.1160    0.4090 H   0  0  0  0  0  0  0  0  0  0  0  0
   -2.5986   -2.2980   -1.3650 H   0  0  0  0  0  0  0  0  0  0  0  0
   -0.7756   -1.6630   -0.4350 C   0  0  0  0  0  0  0  0  0  0  0  0
    0.2844   -2.2800   -0.4550 O   0  0  0  0  0  0  0  0  0  0  0  0
   -0.8246   -0.3180   -0.4350 N   0  0  0  0  0  0  0  0  0  0  0  0
   -2.0106    0.5080   -0.5910 C   0  0  0  0  0  0  0  0  0  0  0  0
   -2.9719    0.2724   -0.1315 H   0  0  0  0  0  0  0  0  0  0  0  0
   -2.0905    1.4093   -1.1978 H   0  0  0  0  0  0  0  0  0  0  0  0
   -0.9491    0.7004    0.4901 C   0  0  0  0  0  0  0  0  0  0  0  0
   -1.1446   -0.3594    0.6609 H   0  0  0  0  0  0  0  0  0  0  0  0
   -1.7226    1.3162    0.9500 H   0  0  0  0  0  0  0  0  0  0  0  0
    0.4250    1.1190    1.0131 C   0  0  0  0  0  0  0  0  0  0  0  0
    1.0143    0.4826    1.6763 H   0  0  0  0  0  0  0  0  0  0  0  0
    0.8288    2.1313    1.0060 H   0  0  0  0  0  0  0  0  0  0  0  0
    0.3724    0.5200   -0.4020 C   0  0  1  0  0  0  0  0  0  0  0  0
    0.2462    1.3278   -1.1231 H   0  0  0  0  0  0  0  0  0  0  0  0
    1.6465   -0.2733   -0.7371 C   0  0  0  0  0  0  0  0  0  0  0  0
    2.6793    0.3117   -1.0571 O   0  0  0  0  0  0  0  0  0  0  0  0
    1.5583   -1.6085   -0.7010 N   0  0  0  0  0  0  0  0  0  0  0  0
    0.6957   -2.0117   -0.3721 H   0  0  0  0  0  0  0  0  0  0  0  0
    2.6702   -2.5080   -0.9995 C   0  0  0  0  0  0  0  0  0  0  0  0
    3.4549   -2.3779   -0.2512 H   0  0  0  0  0  0  0  0  0  0  0  0
    2.3316   -3.5445   -0.9912 H   0  0  0  0  0  0  0  0  0  0  0  0
    3.0849   -2.2699   -1.9814 H   0  0  0  0  0  0  0  0  0  0  0  0
  5  6  2  0  0  0  0
  5  7  1  0  0  0  0
  2  3  1  0  0  0  0
  2  4  1  0  0  0  0
  2  5  1  0  0  0  0
  1  2  1  0  0  0  0
 19 20  2  0  0  0  0
 19 21  1  0  0  0  0
 17 18  1  0  0  0  0
 17 19  1  0  0  0  0
 14 15  1  0  0  0  0
 14 16  1  0  0  0  0
 14 17  1  0  0  0  0
 11 12  1  0  0  0  0
 11 13  1  0  0  0  0
 11 14  1  0  0  0  0
  8  9  1  0  0  0  0
  8 10  1  0  0  0  0
  8 11  1  0  0  0  0
  7  8  1  0  0  0  0
  7 17  1  0  0  0  0
 23 24  1  0  0  0  0
 23 25  1  0  0  0  0
 23 26  1  0  0  0  0
 21 22  1  0  0  0  0
 21 23  1  0  0  0  0
M  END
$$$$
default_name
  -OEChem-01062215323D

 26 26  0     1  0  0  0  0  0999 V2000
   -1.8446   -3.5060   -0.3010 H   0  0  0  0  0  0  0  0  0  0  0  0
   -2.0746   -2.4490   -0.4240 C   0  0  0  0  0  0  0  0  0  0  0  0
   -2.6906   -2.1160    0.4090 H   0  0  0  0  0  0  0  0  0  0  0  0
   -2.5986   -2.2980   -1.3650 H   0  0  0  0  0  0  0  0  0  0  0  0
   -0.7756   -1.6630   -0.4350 C   0  0  0  0  0  0  0  0  0  0  0  0
    0.2844   -2.2800   -0.4550 O   0  0  0  0  0  0  0  0  0  0  0  0
   -0.8246   -0.3180   -0.4350 N   0  0  0  0  0  0  0  0  0  0  0  0
   -2.0106    0.5080   -0.5910 C   0  0  0  0  0  0  0  0  0  0  0  0
   -2.9719    0.2724   -0.1315 H   0  0  0  0  0  0  0  0  0  0  0  0
   -2.0905    1.4093   -1.1978 H   0  0  0  0  0  0  0  0  0  0  0  0
   -0.9491    0.7004    0.4901 C   0  0  0  0  0  0  0  0  0  0  0  0
   -1.1446   -0.3594    0.6609 H   0  0  0  0  0  0  0  0  0  0  0  0
   -1.7226    1.3162    0.9500 H   0  0  0  0  0  0  0  0  0  0  0  0
    0.4250    1.1190    1.0131 C   0  0  0  0  0  0  0  0  0  0  0  0
    1.0143    0.4826    1.6763 H   0  0  0  0  0  0  0  0  0  0  0  0
    0.8288    2.1313    1.0060 H   0  0  0  0  0  0  0  0  0  0  0  0
    0.3724    0.5200   -0.4020 C   0  0  1  0  0  0  0  0  0  0  0  0
    0.2462    1.3278   -1.1231 H   0  0  0  0  0  0  0  0  0  0  0  0
    1.6465   -0.2733   -0.7371 C   0  0  0  0  0  0  0  0  0  0  0  0
    2.7374    0.2911   -0.7875 O   0  0  0  0  0  0  0  0  0  0  0  0
    1.4983   -1.5764   -1.0048 N   0  0  0  0  0  0  0  0  0  0  0  0
    0.5821   -1.9776   -0.8845 H   0  0  0  0  0  0  0  0  0  0  0  0
    2.6024   -2.4695   -1.3483 C   0  0  0  0  0  0  0  0  0  0  0  0
    3.2797   -2.5560   -0.4959 H   0  0  0  0  0  0  0  0  0  0  0  0
    2.2228   -3.4579   -1.6096 H   0  0  0  0  0  0  0  0  0  0  0  0
    3.1598   -2.0600   -2.1935 H   0  0  0  0  0  0  0  0  0  0  0  0
  5  6  2  0  0  0  0
  5  7  1  0  0  0  0
  2  3  1  0  0  0  0
  2  4  1  0  0  0  0
  2  5  1  0  0  0  0
  1  2  1  0  0  0  0
 19 20  2  0  0  0  0
 19 21  1  0  0  0  0
 17 18  1  0  0  0  0
 17 19  1  0  0  0  0
 14 15  1  0  0  0  0
 14 16  1  0  0  0  0
 14 17  1  0  0  0  0
 11 12  1  0  0  0  0
 11 13  1  0  0  0  0
 11 14  1  0  0  0  0
  8  9  1  0  0  0  0
  8 10  1  0  0  0  0
  8 11  1  0  0  0  0
  7  8  1  0  0  0  0
  7 17  1  0  0  0  0
 23 24  1  0  0  0  0
 23 25  1  0  0  0  0
 23 26  1  0  0  0  0
 21 22  1  0  0  0  0
 21 23  1  0  0  0  0
M  END
$$$$
default_name
  -OEChem-01062215323D

 26 26  0     1  0  0  0  0  0999 V2000
   -1.8446   -3.5060   -0.3010 H   0  0  0  0  0  0  0  0  0  0  0  0
   -2.0746   -2.4490   -0.4240 C   0  0  0  0  0  0  0  0  0  0  0  0
   -2.6906   -2.1160    0.4090 H   0  0  0  0  0  0  0  0  0  0  0  0
   -2.5986   -2.2980   -1.3650 H   0  0  0  0  0  0  0  0  0  0  0  0
   -0.7756   -1.6630   -0.4350 C   0  0  0  0  0  0  0  0  0  0  0  0
    0.2844   -2.2800   -0.4550 O   0  0  0  0  0  0  0  0  0  0  0  0
   -0.8246   -0.3180   -0.4350 N   0  0  0  0  0  0  0  0  0  0  0  0
   -2.0106    0.5080   -0.5910 C   0  0  0  0  0  0  0  0  0  0  0  0
   -2.9719    0.2724   -0.1315 H   0  0  0  0  0  0  0  0  0  0  0  0
   -2.0905    1.4093   -1.1978 H   0  0  0  0  0  0  0  0  0  0  0  0
   -0.9491    0.7004    0.4901 C   0  0  0  0  0  0  0  0  0  0  0  0
   -1.1446   -0.3594    0.6609 H   0  0  0  0  0  0  0  0  0  0  0  0
   -1.7226    1.3162    0.9500 H   0  0  0  0  0  0  0  0  0  0  0  0
    0.4250    1.1190    1.0131 C   0  0  0  0  0  0  0  0  0  0  0  0
    1.0143    0.4826    1.6763 H   0  0  0  0  0  0  0  0  0  0  0  0
    0.8288    2.1313    1.0060 H   0  0  0  0  0  0  0  0  0  0  0  0
    0.3724    0.5200   -0.4020 C   0  0  1  0  0  0  0  0  0  0  0  0
    0.2462    1.3278   -1.1231 H   0  0  0  0  0  0  0  0  0  0  0  0
    1.6465   -0.2733   -0.7371 C   0  0  0  0  0  0  0  0  0  0  0  0
    2.7564    0.2102   -0.5237 O   0  0  0  0  0  0  0  0  0  0  0  0
    1.4828   -1.4770   -1.2994 N   0  0  0  0  0  0  0  0  0  0  0  0
    0.5427   -1.8284   -1.3872 H   0  0  0  0  0  0  0  0  0  0  0  0
    2.5856   -2.3538   -1.6860 C   0  0  0  0  0  0  0  0  0  0  0  0
    3.1330   -2.6656   -0.7939 H   0  0  0  0  0  0  0  0  0  0  0  0
    2.2053   -3.2354   -2.2029 H   0  0  0  0  0  0  0  0  0  0  0  0
    3.2723   -1.8161   -2.3435 H   0  0  0  0  0  0  0  0  0  0  0  0
  5  6  2  0  0  0  0
  5  7  1  0  0  0  0
  2  3  1  0  0  0  0
  2  4  1  0  0  0  0
  2  5  1  0  0  0  0
  1  2  1  0  0  0  0
 19 20  2  0  0  0  0
 19 21  1  0  0  0  0
 17 18  1  0  0  0  0
 17 19  1  0  0  0  0
 14 15  1  0  0  0  0
 14 16  1  0  0  0  0
 14 17  1  0  0  0  0
 11 12  1  0  0  0  0
 11 13  1  0  0  0  0
 11 14  1  0  0  0  0
  8  9  1  0  0  0  0
  8 10  1  0  0  0  0
  8 11  1  0  0  0  0
  7  8  1  0  0  0  0
  7 17  1  0  0  0  0
 23 24  1  0  0  0  0
 23 25  1  0  0  0  0
 23 26  1  0  0  0  0
 21 22  1  0  0  0  0
 21 23  1  0  0  0  0
M  END
$$$$
default_name
  -OEChem-01062215323D

 26 26  0     1  0  0  0  0  0999 V2000
   -1.8446   -3.5060   -0.3010 H   0  0  0  0  0  0  0  0  0  0  0  0
   -2.0746   -2.4490   -0.4240 C   0  0  0  0  0  0  0  0  0  0  0  0
   -2.6906   -2.1160    0.4090 H   0  0  0  0  0  0  0  0  0  0  0  0
   -2.5986   -2.2980   -1.3650 H   0  0  0  0  0  0  0  0  0  0  0  0
   -0.7756   -1.6630   -0.4350 C   0  0  0  0  0  0  0  0  0  0  0  0
    0.2844   -2.2800   -0.4550 O   0  0  0  0  0  0  0  0  0  0  0  0
   -0.8246   -0.3180   -0.4350 N   0  0  0  0  0  0  0  0  0  0  0  0
   -2.0106    0.5080   -0.5910 C   0  0  0  0  0  0  0  0  0  0  0  0
   -2.9719    0.2724   -0.1315 H   0  0  0  0  0  0  0  0  0  0  0  0
   -2.0905    1.4093   -1.1978 H   0  0  0  0  0  0  0  0  0  0  0  0
   -0.9491    0.7004    0.4901 C   0  0  0  0  0  0  0  0  0  0  0  0
   -1.1446   -0.3594    0.6609 H   0  0  0  0  0  0  0  0  0  0  0  0
   -1.7226    1.3162    0.9500 H   0  0  0  0  0  0  0  0  0  0  0  0
    0.4250    1.1190    1.0131 C   0  0  0  0  0  0  0  0  0  0  0  0
    1.0143    0.4826    1.6763 H   0  0  0  0  0  0  0  0  0  0  0  0
    0.8288    2.1313    1.0060 H   0  0  0  0  0  0  0  0  0  0  0  0
    0.3724    0.5200   -0.4020 C   0  0  1  0  0  0  0  0  0  0  0  0
    0.2462    1.3278   -1.1231 H   0  0  0  0  0  0  0  0  0  0  0  0
    1.6465   -0.2733   -0.7371 C   0  0  0  0  0  0  0  0  0  0  0  0
    2.7350    0.0744   -0.2837 O   0  0  0  0  0  0  0  0  0  0  0  0
    1.5127   -1.3169   -1.5647 N   0  0  0  0  0  0  0  0  0  0  0  0
    0.5803   -1.5743   -1.8461 H   0  0  0  0  0  0  0  0  0  0  0  0
    2.6210   -2.1686   -1.9897 C   0  0  0  0  0  0  0  0  0  0  0  0
    3.0249   -2.6993   -1.1249 H   0  0  0  0  0  0  0  0  0  0  0  0
    2.2801   -2.8923   -2.7307 H   0  0  0  0  0  0  0  0  0  0  0  0
    3.4147   -1.5546   -2.4210 H   0  0  0  0  0  0  0  0  0  0  0  0
  5  6  2  0  0  0  0
  5  7  1  0  0  0  0
  2  3  1  0  0  0  0
  2  4  1  0  0  0  0
  2  5  1  0  0  0  0
  1  2  1  0  0  0  0
 19 20  2  0  0  0  0
 19 21  1  0  0  0  0
 17 18  1  0  0  0  0
 17 19  1  0  0  0  0
 14 15  1  0  0  0  0
 14 16  1  0  0  0  0
 14 17  1  0  0  0  0
 11 12  1  0  0  0  0
 11 13  1  0  0  0  0
 11 14  1  0  0  0  0
  8  9  1  0  0  0  0
  8 10  1  0  0  0  0
  8 11  1  0  0  0  0
  7  8  1  0  0  0  0
  7 17  1  0  0  0  0
 23 24  1  0  0  0  0
 23 25  1  0  0  0  0
 23 26  1  0  0  0  0
 21 22  1  0  0  0  0
 21 23  1  0  0  0  0
M  END
$$$$
default_name
  -OEChem-01062215323D

 26 26  0     1  0  0  0  0  0999 V2000
   -1.8446   -3.5060   -0.3010 H   0  0  0  0  0  0  0  0  0  0  0  0
   -2.0746   -2.4490   -0.4240 C   0  0  0  0  0  0  0  0  0  0  0  0
   -2.6906   -2.1160    0.4090 H   0  0  0  0  0  0  0  0  0  0  0  0
   -2.5986   -2.2980   -1.3650 H   0  0  0  0  0  0  0  0  0  0  0  0
   -0.7756   -1.6630   -0.4350 C   0  0  0  0  0  0  0  0  0  0  0  0
    0.2844   -2.2800   -0.4550 O   0  0  0  0  0  0  0  0  0  0  0  0
   -0.8246   -0.3180   -0.4350 N   0  0  0  0  0  0  0  0  0  0  0  0
   -2.0106    0.5080   -0.5910 C   0  0  0  0  0  0  0  0  0  0  0  0
   -2.9719    0.2724   -0.1315 H   0  0  0  0  0  0  0  0  0  0  0  0
   -2.0905    1.4093   -1.1978 H   0  0  0  0  0  0  0  0  0  0  0  0
   -0.9491    0.7004    0.4901 C   0  0  0  0  0  0  0  0  0  0  0  0
   -1.1446   -0.3594    0.6609 H   0  0  0  0  0  0  0  0  0  0  0  0
   -1.7226    1.3162    0.9500 H   0  0  0  0  0  0  0  0  0  0  0  0
    0.4250    1.1190    1.0131 C   0  0  0  0  0  0  0  0  0  0  0  0
    1.0143    0.4826    1.6763 H   0  0  0  0  0  0  0  0  0  0  0  0
    0.8288    2.1313    1.0060 H   0  0  0  0  0  0  0  0  0  0  0  0
    0.3724    0.5200   -0.4020 C   0  0  1  0  0  0  0  0  0  0  0  0
    0.2462    1.3278   -1.1231 H   0  0  0  0  0  0  0  0  0  0  0  0
    1.6465   -0.2733   -0.7371 C   0  0  0  0  0  0  0  0  0  0  0  0
    2.6746   -0.1071   -0.0839 O   0  0  0  0  0  0  0  0  0  0  0  0
    1.5860   -1.1070   -1.7826 N   0  0  0  0  0  0  0  0  0  0  0  0
    0.6921   -1.2325   -2.2299 H   0  0  0  0  0  0  0  0  0  0  0  0
    2.7063   -1.9266   -2.2386 C   0  0  0  0  0  0  0  0  0  0  0  0
    2.9628   -2.6549   -1.4662 H   0  0  0  0  0  0  0  0  0  0  0  0
    2.4422   -2.4519   -3.1569 H   0  0  0  0  0  0  0  0  0  0  0  0
    3.5774   -1.2934   -2.4207 H   0  0  0  0  0  0  0  0  0  0  0  0
  5  6  2  0  0  0  0
  5  7  1  0  0  0  0
  2  3  1  0  0  0  0
  2  4  1  0  0  0  0
  2  5  1  0  0  0  0
  1  2  1  0  0  0  0
 19 20  2  0  0  0  0
 19 21  1  0  0  0  0
 17 18  1  0  0  0  0
 17 19  1  0  0  0  0
 14 15  1  0  0  0  0
 14 16  1  0  0  0  0
 14 17  1  0  0  0  0
 11 12  1  0  0  0  0
 11 13  1  0  0  0  0
 11 14  1  0  0  0  0
  8  9  1  0  0  0  0
  8 10  1  0  0  0  0
  8 11  1  0  0  0  0
  7  8  1  0  0  0  0
  7 17  1  0  0  0  0
 23 24  1  0  0  0  0
 23 25  1  0  0  0  0
 23 26  1  0  0  0  0
 21 22  1  0  0  0  0
 21 23  1  0  0  0  0
M  END
$$$$
default_name
  -OEChem-01062215323D

 26 26  0     1  0  0  0  0  0999 V2000
   -1.8446   -3.5060   -0.3010 H   0  0  0  0  0  0  0  0  0  0  0  0
   -2.0746   -2.4490   -0.4240 C   0  0  0  0  0  0  0  0  0  0  0  0
   -2.6906   -2.1160    0.4090 H   0  0  0  0  0  0  0  0  0  0  0  0
   -2.5986   -2.2980   -1.3650 H   0  0  0  0  0  0  0  0  0  0  0  0
   -0.7756   -1.6630   -0.4350 C   0  0  0  0  0  0  0  0  0  0  0  0
    0.2844   -2.2800   -0.4550 O   0  0  0  0  0  0  0  0  0  0  0  0
   -0.8246   -0.3180   -0.4350 N   0  0  0  0  0  0  0  0  0  0  0  0
   -2.0106    0.5080   -0.5910 C   0  0  0  0  0  0  0  0  0  0  0  0
   -2.9719    0.2724   -0.1315 H   0  0  0  0  0  0  0  0  0  0  0  0
   -2.0905    1.4093   -1.1978 H   0  0  0  0  0  0  0  0  0  0  0  0
   -0.9491    0.7004    0.4901 C   0  0  0  0  0  0  0  0  0  0  0  0
   -1.1446   -0.3594    0.6609 H   0  0  0  0  0  0  0  0  0  0  0  0
   -1.7226    1.3162    0.9500 H   0  0  0  0  0  0  0  0  0  0  0  0
    0.4250    1.1190    1.0131 C   0  0  0  0  0  0  0  0  0  0  0  0
    1.0143    0.4826    1.6763 H   0  0  0  0  0  0  0  0  0  0  0  0
    0.8288    2.1313    1.0060 H   0  0  0  0  0  0  0  0  0  0  0  0
    0.3724    0.5200   -0.4020 C   0  0  1  0  0  0  0  0  0  0  0  0
    0.2462    1.3278   -1.1231 H   0  0  0  0  0  0  0  0  0  0  0  0
    1.6465   -0.2733   -0.7371 C   0  0  0  0  0  0  0  0  0  0  0  0
    2.5793   -0.3218    0.0621 O   0  0  0  0  0  0  0  0  0  0  0  0
    1.6978   -0.8617   -1.9383 N   0  0  0  0  0  0  0  0  0  0  0  0
    0.8707   -0.8265   -2.5123 H   0  0  0  0  0  0  0  0  0  0  0  0
    2.8355   -1.6443   -2.4157 C   0  0  0  0  0  0  0  0  0  0  0  0
    2.9509   -2.5352   -1.7947 H   0  0  0  0  0  0  0  0  0  0  0  0
    2.6805   -1.9444   -3.4525 H   0  0  0  0  0  0  0  0  0  0  0  0
    3.7492   -1.0504   -2.3428 H   0  0  0  0  0  0  0  0  0  0  0  0
  5  6  2  0  0  0  0
  5  7  1  0  0  0  0
  2  3  1  0  0  0  0
  2  4  1  0  0  0  0
  2  5  1  0  0  0  0
  1  2  1  0  0  0  0
 19 20  2  0  0  0  0
 19 21  1  0  0  0  0
 17 18  1  0  0  0  0
 17 19  1  0  0  0  0
 14 15  1  0  0  0  0
 14 16  1  0  0  0  0
 14 17  1  0  0  0  0
 11 12  1  0  0  0  0
 11 13  1  0  0  0  0
 11 14  1  0  0  0  0
  8  9  1  0  0  0  0
  8 10  1  0  0  0  0
  8 11  1  0  0  0  0
  7  8  1  0  0  0  0
  7 17  1  0  0  0  0
 23 24  1  0  0  0  0
 23 25  1  0  0  0  0
 23 26  1  0  0  0  0
 21 22  1  0  0  0  0
 21 23  1  0  0  0  0
M  END
$$$$
default_name
  -OEChem-01062215323D

 26 26  0     1  0  0  0  0  0999 V2000
   -1.8446   -3.5060   -0.3010 H   0  0  0  0  0  0  0  0  0  0  0  0
   -2.0746   -2.4490   -0.4240 C   0  0  0  0  0  0  0  0  0  0  0  0
   -2.6906   -2.1160    0.4090 H   0  0  0  0  0  0  0  0  0  0  0  0
   -2.5986   -2.2980   -1.3650 H   0  0  0  0  0  0  0  0  0  0  0  0
   -0.7756   -1.6630   -0.4350 C   0  0  0  0  0  0  0  0  0  0  0  0
    0.2844   -2.2800   -0.4550 O   0  0  0  0  0  0  0  0  0  0  0  0
   -0.8246   -0.3180   -0.4350 N   0  0  0  0  0  0  0  0  0  0  0  0
   -2.0106    0.5080   -0.5910 C   0  0  0  0  0  0  0  0  0  0  0  0
   -2.9719    0.2724   -0.1315 H   0  0  0  0  0  0  0  0  0  0  0  0
   -2.0905    1.4093   -1.1978 H   0  0  0  0  0  0  0  0  0  0  0  0
   -0.9491    0.7004    0.4901 C   0  0  0  0  0  0  0  0  0  0  0  0
   -1.1446   -0.3594    0.6609 H   0  0  0  0  0  0  0  0  0  0  0  0
   -1.7226    1.3162    0.9500 H   0  0  0  0  0  0  0  0  0  0  0  0
    0.4250    1.1190    1.0131 C   0  0  0  0  0  0  0  0  0  0  0  0
    1.0143    0.4826    1.6763 H   0  0  0  0  0  0  0  0  0  0  0  0
    0.8288    2.1313    1.0060 H   0  0  0  0  0  0  0  0  0  0  0  0
    0.3724    0.5200   -0.4020 C   0  0  1  0  0  0  0  0  0  0  0  0
    0.2462    1.3278   -1.1231 H   0  0  0  0  0  0  0  0  0  0  0  0
    1.6465   -0.2733   -0.7371 C   0  0  0  0  0  0  0  0  0  0  0  0
    2.4557   -0.5551    0.1444 O   0  0  0  0  0  0  0  0  0  0  0  0
    1.8404   -0.5977   -2.0212 N   0  0  0  0  0  0  0  0  0  0  0  0
    1.1037   -0.3837   -2.6742 H   0  0  0  0  0  0  0  0  0  0  0  0
    2.9998   -1.3409   -2.5090 C   0  0  0  0  0  0  0  0  0  0  0  0
    2.9900   -2.3485   -2.0879 H   0  0  0  0  0  0  0  0  0  0  0  0
    2.9787   -1.4041   -3.5974 H   0  0  0  0  0  0  0  0  0  0  0  0
    3.9185   -0.8421   -2.1925 H   0  0  0  0  0  0  0  0  0  0  0  0
  5  6  2  0  0  0  0
  5  7  1  0  0  0  0
  2  3  1  0  0  0  0
  2  4  1  0  0  0  0
  2  5  1  0  0  0  0
  1  2  1  0  0  0  0
 19 20  2  0  0  0  0
 19 21  1  0  0  0  0
 17 18  1  0  0  0  0
 17 19  1  0  0  0  0
 14 15  1  0  0  0  0
 14 16  1  0  0  0  0
 14 17  1  0  0  0  0
 11 12  1  0  0  0  0
 11 13  1  0  0  0  0
 11 14  1  0  0  0  0
  8  9  1  0  0  0  0
  8 10  1  0  0  0  0
  8 11  1  0  0  0  0
  7  8  1  0  0  0  0
  7 17  1  0  0  0  0
 23 24  1  0  0  0  0
 23 25  1  0  0  0  0
 23 26  1  0  0  0  0
 21 22  1  0  0  0  0
 21 23  1  0  0  0  0
M  END
$$$$
default_name
  -OEChem-01062215323D

 26 26  0     1  0  0  0  0  0999 V2000
   -1.8446   -3.5060   -0.3010 H   0  0  0  0  0  0  0  0  0  0  0  0
   -2.0746   -2.4490   -0.4240 C   0  0  0  0  0  0  0  0  0  0  0  0
   -2.6906   -2.1160    0.4090 H   0  0  0  0  0  0  0  0  0  0  0  0
   -2.5986   -2.2980   -1.3650 H   0  0  0  0  0  0  0  0  0  0  0  0
   -0.7756   -1.6630   -0.4350 C   0  0  0  0  0  0  0  0  0  0  0  0
    0.2844   -2.2800   -0.4550 O   0  0  0  0  0  0  0  0  0  0  0  0
   -0.8246   -0.3180   -0.4350 N   0  0  0  0  0  0  0  0  0  0  0  0
   -2.0106    0.5080   -0.5910 C   0  0  0  0  0  0  0  0  0  0  0  0
   -2.9719    0.2724   -0.1315 H   0  0  0  0  0  0  0  0  0  0  0  0
   -2.0905    1.4093   -1.1978 H   0  0  0  0  0  0  0  0  0  0  0  0
   -0.9491    0.7004    0.4901 C   0  0  0  0  0  0  0  0  0  0  0  0
   -1.1446   -0.3594    0.6609 H   0  0  0  0  0  0  0  0  0  0  0  0
   -1.7226    1.3162    0.9500 H   0  0  0  0  0  0  0  0  0  0  0  0
    0.4250    1.1190    1.0131 C   0  0  0  0  0  0  0  0  0  0  0  0
    1.0143    0.4826    1.6763 H   0  0  0  0  0  0  0  0  0  0  0  0
    0.8288    2.1313    1.0060 H   0  0  0  0  0  0  0  0  0  0  0  0
    0.3724    0.5200   -0.4020 C   0  0  1  0  0  0  0  0  0  0  0  0
    0.2462    1.3278   -1.1231 H   0  0  0  0  0  0  0  0  0  0  0  0
    1.6465   -0.2733   -0.7371 C   0  0  0  0  0  0  0  0  0  0  0  0
    2.3121   -0.7911    0.1574 O   0  0  0  0  0  0  0  0  0  0  0  0
    2.0041   -0.3329   -2.0256 N   0  0  0  0  0  0  0  0  0  0  0  0
    1.3755    0.0655   -2.7046 H   0  0  0  0  0  0  0  0  0  0  0  0
    3.1882   -1.0371   -2.5121 C   0  0  0  0  0  0  0  0  0  0  0  0
    3.0775   -2.1075   -2.3258 H   0  0  0  0  0  0  0  0  0  0  0  0
    3.3167   -0.8681   -3.5817 H   0  0  0  0  0  0  0  0  0  0  0  0
    4.0737   -0.6826   -1.9800 H   0  0  0  0  0  0  0  0  0  0  0  0
  5  6  2  0  0  0  0
  5  7  1  0  0  0  0
  2  3  1  0  0  0  0
  2  4  1  0  0  0  0
  2  5  1  0  0  0  0
  1  2  1  0  0  0  0
 19 20  2  0  0  0  0
 19 21  1  0  0  0  0
 17 18  1  0  0  0  0
 17 19  1  0  0  0  0
 14 15  1  0  0  0  0
 14 16  1  0  0  0  0
 14 17  1  0  0  0  0
 11 12  1  0  0  0  0
 11 13  1  0  0  0  0
 11 14  1  0  0  0  0
  8  9  1  0  0  0  0
  8 10  1  0  0  0  0
  8 11  1  0  0  0  0
  7  8  1  0  0  0  0
  7 17  1  0  0  0  0
 23 24  1  0  0  0  0
 23 25  1  0  0  0  0
 23 26  1  0  0  0  0
 21 22  1  0  0  0  0
 21 23  1  0  0  0  0
M  END
$$$$
default_name
  -OEChem-01062215323D

 26 26  0     1  0  0  0  0  0999 V2000
   -1.8446   -3.5060   -0.3010 H   0  0  0  0  0  0  0  0  0  0  0  0
   -2.0746   -2.4490   -0.4240 C   0  0  0  0  0  0  0  0  0  0  0  0
   -2.6906   -2.1160    0.4090 H   0  0  0  0  0  0  0  0  0  0  0  0
   -2.5986   -2.2980   -1.3650 H   0  0  0  0  0  0  0  0  0  0  0  0
   -0.7756   -1.6630   -0.4350 C   0  0  0  0  0  0  0  0  0  0  0  0
    0.2844   -2.2800   -0.4550 O   0  0  0  0  0  0  0  0  0  0  0  0
   -0.8246   -0.3180   -0.4350 N   0  0  0  0  0  0  0  0  0  0  0  0
   -2.0106    0.5080   -0.5910 C   0  0  0  0  0  0  0  0  0  0  0  0
   -2.9719    0.2724   -0.1315 H   0  0  0  0  0  0  0  0  0  0  0  0
   -2.0905    1.4093   -1.1978 H   0  0  0  0  0  0  0  0  0  0  0  0
   -0.9491    0.7004    0.4901 C   0  0  0  0  0  0  0  0  0  0  0  0
   -1.1446   -0.3594    0.6609 H   0  0  0  0  0  0  0  0  0  0  0  0
   -1.7226    1.3162    0.9500 H   0  0  0  0  0  0  0  0  0  0  0  0
    0.4250    1.1190    1.0131 C   0  0  0  0  0  0  0  0  0  0  0  0
    1.0143    0.4826    1.6763 H   0  0  0  0  0  0  0  0  0  0  0  0
    0.8288    2.1313    1.0060 H   0  0  0  0  0  0  0  0  0  0  0  0
    0.3724    0.5200   -0.4020 C   0  0  1  0  0  0  0  0  0  0  0  0
    0.2462    1.3278   -1.1231 H   0  0  0  0  0  0  0  0  0  0  0  0
    1.6465   -0.2733   -0.7371 C   0  0  0  0  0  0  0  0  0  0  0  0
    2.1584   -1.0138    0.1001 O   0  0  0  0  0  0  0  0  0  0  0  0
    2.1778   -0.0855   -1.9513 N   0  0  0  0  0  0  0  0  0  0  0  0
    1.6674    0.4906   -2.6013 H   0  0  0  0  0  0  0  0  0  0  0  0
    3.3876   -0.7536   -2.4248 C   0  0  0  0  0  0  0  0  0  0  0  0
    3.2074   -1.8287   -2.4923 H   0  0  0  0  0  0  0  0  0  0  0  0
    3.6712   -0.3727   -3.4064 H   0  0  0  0  0  0  0  0  0  0  0  0
    4.2042   -0.5829   -1.7199 H   0  0  0  0  0  0  0  0  0  0  0  0
  5  6  2  0  0  0  0
  5  7  1  0  0  0  0
  2  3  1  0  0  0  0
  2  4  1  0  0  0  0
  2  5  1  0  0  0  0
  1  2  1  0  0  0  0
 19 20  2  0  0  0  0
 19 21  1  0  0  0  0
 17 18  1  0  0  0  0
 17 19  1  0  0  0  0
 14 15  1  0  0  0  0
 14 16  1  0  0  0  0
 14 17  1  0  0  0  0
 11 12  1  0  0  0  0
 11 13  1  0  0  0  0
 11 14  1  0  0  0  0
  8  9  1  0  0  0  0
  8 10  1  0  0  0  0
  8 11  1  0  0  0  0
  7  8  1  0  0  0  0
  7 17  1  0  0  0  0
 23 24  1  0  0  0  0
 23 25  1  0  0  0  0
 23 26  1  0  0  0  0
 21 22  1  0  0  0  0
 21 23  1  0  0  0  0
M  END
$$$$
default_name
  -OEChem-01062215323D

 26 26  0     1  0  0  0  0  0999 V2000
   -1.8446   -3.5060   -0.3010 H   0  0  0  0  0  0  0  0  0  0  0  0
   -2.0746   -2.4490   -0.4240 C   0  0  0  0  0  0  0  0  0  0  0  0
   -2.6906   -2.1160    0.4090 H   0  0  0  0  0  0  0  0  0  0  0  0
   -2.5986   -2.2980   -1.3650 H   0  0  0  0  0  0  0  0  0  0  0  0
   -0.7756   -1.6630   -0.4350 C   0  0  0  0  0  0  0  0  0  0  0  0
    0.2844   -2.2800   -0.4550 O   0  0  0  0  0  0  0  0  0  0  0  0
   -0.8246   -0.3180   -0.4350 N   0  0  0  0  0  0  0  0  0  0  0  0
   -2.0106    0.5080   -0.5910 C   0  0  0  0  0  0  0  0  0  0  0  0
   -2.9719    0.2724   -0.1315 H   0  0  0  0  0  0  0  0  0  0  0  0
   -2.0905    1.4093   -1.1978 H   0  0  0  0  0  0  0  0  0  0  0  0
   -0.9491    0.7004    0.4901 C   0  0  0  0  0  0  0  0  0  0  0  0
   -1.1446   -0.3594    0.6609 H   0  0  0  0  0  0  0  0  0  0  0  0
   -1.7226    1.3162    0.9500 H   0  0  0  0  0  0  0  0  0  0  0  0
    0.4250    1.1190    1.0131 C   0  0  0  0  0  0  0  0  0  0  0  0
    1.0143    0.4826    1.6763 H   0  0  0  0  0  0  0  0  0  0  0  0
    0.8288    2.1313    1.0060 H   0  0  0  0  0  0  0  0  0  0  0  0
    0.3724    0.5200   -0.4020 C   0  0  1  0  0  0  0  0  0  0  0  0
    0.2462    1.3278   -1.1231 H   0  0  0  0  0  0  0  0  0  0  0  0
    1.6465   -0.2733   -0.7371 C   0  0  0  0  0  0  0  0  0  0  0  0
    2.0050   -1.2079   -0.0235 O   0  0  0  0  0  0  0  0  0  0  0  0
    2.3495    0.1278   -1.8032 N   0  0  0  0  0  0  0  0  0  0  0  0
    1.9595    0.8626   -2.3714 H   0  0  0  0  0  0  0  0  0  0  0  0
    3.5846   -0.5098   -2.2531 C   0  0  0  0  0  0  0  0  0  0  0  0
    3.3707   -1.5309   -2.5760 H   0  0  0  0  0  0  0  0  0  0  0  0
    4.0183    0.0482   -3.0836 H   0  0  0  0  0  0  0  0  0  0  0  0
    4.3012   -0.5498   -1.4298 H   0  0  0  0  0  0  0  0  0  0  0  0
  5  6  2  0  0  0  0
  5  7  1  0  0  0  0
  2  3  1  0  0  0  0
  2  4  1  0  0  0  0
  2  5  1  0  0  0  0
  1  2  1  0  0  0  0
 19 20  2  0  0  0  0
 19 21  1  0  0  0  0
 17 18  1  0  0  0  0
 17 19  1  0  0  0  0
 14 15  1  0  0  0  0
 14 16  1  0  0  0  0
 14 17  1  0  0  0  0
 11 12  1  0  0  0  0
 11 13  1  0  0  0  0
 11 14  1  0  0  0  0
  8  9  1  0  0  0  0
  8 10  1  0  0  0  0
  8 11  1  0  0  0  0
  7  8  1  0  0  0  0
  7 17  1  0  0  0  0
 23 24  1  0  0  0  0
 23 25  1  0  0  0  0
 23 26  1  0  0  0  0
 21 22  1  0  0  0  0
 21 23  1  0  0  0  0
M  END
$$$$
default_name
  -OEChem-01062215323D

 26 26  0     1  0  0  0  0  0999 V2000
   -1.8446   -3.5060   -0.3010 H   0  0  0  0  0  0  0  0  0  0  0  0
   -2.0746   -2.4490   -0.4240 C   0  0  0  0  0  0  0  0  0  0  0  0
   -2.6906   -2.1160    0.4090 H   0  0  0  0  0  0  0  0  0  0  0  0
   -2.5986   -2.2980   -1.3650 H   0  0  0  0  0  0  0  0  0  0  0  0
   -0.7756   -1.6630   -0.4350 C   0  0  0  0  0  0  0  0  0  0  0  0
    0.2844   -2.2800   -0.4550 O   0  0  0  0  0  0  0  0  0  0  0  0
   -0.8246   -0.3180   -0.4350 N   0  0  0  0  0  0  0  0  0  0  0  0
   -2.0106    0.5080   -0.5910 C   0  0  0  0  0  0  0  0  0  0  0  0
   -2.9719    0.2724   -0.1315 H   0  0  0  0  0  0  0  0  0  0  0  0
   -2.0905    1.4093   -1.1978 H   0  0  0  0  0  0  0  0  0  0  0  0
   -0.9491    0.7004    0.4901 C   0  0  0  0  0  0  0  0  0  0  0  0
   -1.1446   -0.3594    0.6609 H   0  0  0  0  0  0  0  0  0  0  0  0
   -1.7226    1.3162    0.9500 H   0  0  0  0  0  0  0  0  0  0  0  0
    0.4250    1.1190    1.0131 C   0  0  0  0  0  0  0  0  0  0  0  0
    1.0143    0.4826    1.6763 H   0  0  0  0  0  0  0  0  0  0  0  0
    0.8288    2.1313    1.0060 H   0  0  0  0  0  0  0  0  0  0  0  0
    0.3724    0.5200   -0.4020 C   0  0  1  0  0  0  0  0  0  0  0  0
    0.2462    1.3278   -1.1231 H   0  0  0  0  0  0  0  0  0  0  0  0
    1.6465   -0.2733   -0.7371 C   0  0  0  0  0  0  0  0  0  0  0  0
    1.8624   -1.3603   -0.2049 O   0  0  0  0  0  0  0  0  0  0  0  0
    2.5077    0.2924   -1.5915 N   0  0  0  0  0  0  0  0  0  0  0  0
    2.2319    1.1561   -2.0306 H   0  0  0  0  0  0  0  0  0  0  0  0
    3.7658   -0.3222   -2.0087 C   0  0  0  0  0  0  0  0  0  0  0  0
    3.5565   -1.2346   -2.5712 H   0  0  0  0  0  0  0  0  0  0  0  0
    4.3341    0.3660   -2.6352 H   0  0  0  0  0  0  0  0  0  0  0  0
    4.3580   -0.5854   -1.1295 H   0  0  0  0  0  0  0  0  0  0  0  0
  5  6  2  0  0  0  0
  5  7  1  0  0  0  0
  2  3  1  0  0  0  0
  2  4  1  0  0  0  0
  2  5  1  0  0  0  0
  1  2  1  0  0  0  0
 19 20  2  0  0  0  0
 19 21  1  0  0  0  0
 17 18  1  0  0  0  0
 17 19  1  0  0  0  0
 14 15  1  0  0  0  0
 14 16  1  0  0  0  0
 14 17  1  0  0  0  0
 11 12  1  0  0  0  0
 11 13  1  0  0  0  0
 11 14  1  0  0  0  0
  8  9  1  0  0  0  0
  8 10  1  0  0  0  0
  8 11  1  0  0  0  0
  7  8  1  0  0  0  0
  7 17  1  0  0  0  0
 23 24  1  0  0  0  0
 23 25  1  0  0  0  0
 23 26  1  0  0  0  0
 21 22  1  0  0  0  0
 21 23  1  0  0  0  0
M  END
$$$$
default_name
  -OEChem-01062215323D

 26 26  0     1  0  0  0  0  0999 V2000
   -1.8446   -3.5060   -0.3010 H   0  0  0  0  0  0  0  0  0  0  0  0
   -2.0746   -2.4490   -0.4240 C   0  0  0  0  0  0  0  0  0  0  0  0
   -2.6906   -2.1160    0.4090 H   0  0  0  0  0  0  0  0  0  0  0  0
   -2.5986   -2.2980   -1.3650 H   0  0  0  0  0  0  0  0  0  0  0  0
   -0.7756   -1.6630   -0.4350 C   0  0  0  0  0  0  0  0  0  0  0  0
    0.2844   -2.2800   -0.4550 O   0  0  0  0  0  0  0  0  0  0  0  0
   -0.8246   -0.3180   -0.4350 N   0  0  0  0  0  0  0  0  0  0  0  0
   -2.0106    0.5080   -0.5910 C   0  0  0  0  0  0  0  0  0  0  0  0
   -2.9719    0.2724   -0.1315 H   0  0  0  0  0  0  0  0  0  0  0  0
   -2.0905    1.4093   -1.1978 H   0  0  0  0  0  0  0  0  0  0  0  0
   -0.9491    0.7004    0.4901 C   0  0  0  0  0  0  0  0  0  0  0  0
   -1.1446   -0.3594    0.6609 H   0  0  0  0  0  0  0  0  0  0  0  0
   -1.7226    1.3162    0.9500 H   0  0  0  0  0  0  0  0  0  0  0  0
    0.4250    1.1190    1.0131 C   0  0  0  0  0  0  0  0  0  0  0  0
    1.0143    0.4826    1.6763 H   0  0  0  0  0  0  0  0  0  0  0  0
    0.8288    2.1313    1.0060 H   0  0  0  0  0  0  0  0  0  0  0  0
    0.3724    0.5200   -0.4020 C   0  0  1  0  0  0  0  0  0  0  0  0
    0.2462    1.3278   -1.1231 H   0  0  0  0  0  0  0  0  0  0  0  0
    1.6465   -0.2733   -0.7371 C   0  0  0  0  0  0  0  0  0  0  0  0
    1.7403   -1.4605   -0.4319 O   0  0  0  0  0  0  0  0  0  0  0  0
    2.6415    0.3970   -1.3306 N   0  0  0  0  0  0  0  0  0  0  0  0
    2.4661    1.3512   -1.6020 H   0  0  0  0  0  0  0  0  0  0  0  0
    3.9187   -0.2036   -1.7081 C   0  0  0  0  0  0  0  0  0  0  0  0
    3.7520   -0.9599   -2.4782 H   0  0  0  0  0  0  0  0  0  0  0  0
    4.5972    0.5590   -2.0917 H   0  0  0  0  0  0  0  0  0  0  0  0
    4.3707   -0.6874   -0.8395 H   0  0  0  0  0  0  0  0  0  0  0  0
  5  6  2  0  0  0  0
  5  7  1  0  0  0  0
  2  3  1  0  0  0  0
  2  4  1  0  0  0  0
  2  5  1  0  0  0  0
  1  2  1  0  0  0  0
 19 20  2  0  0  0  0
 19 21  1  0  0  0  0
 17 18  1  0  0  0  0
 17 19  1  0  0  0  0
 14 15  1  0  0  0  0
 14 16  1  0  0  0  0
 14 17  1  0  0  0  0
 11 12  1  0  0  0  0
 11 13  1  0  0  0  0
 11 14  1  0  0  0  0
  8  9  1  0  0  0  0
  8 10  1  0  0  0  0
  8 11  1  0  0  0  0
  7  8  1  0  0  0  0
  7 17  1  0  0  0  0
 23 24  1  0  0  0  0
 23 25  1  0  0  0  0
 23 26  1  0  0  0  0
 21 22  1  0  0  0  0
 21 23  1  0  0  0  0
M  END
$$$$
default_name
  -OEChem-01062215323D

 26 26  0     1  0  0  0  0  0999 V2000
   -1.8446   -3.5060   -0.3010 H   0  0  0  0  0  0  0  0  0  0  0  0
   -2.0746   -2.4490   -0.4240 C   0  0  0  0  0  0  0  0  0  0  0  0
   -2.6906   -2.1160    0.4090 H   0  0  0  0  0  0  0  0  0  0  0  0
   -2.5986   -2.2980   -1.3650 H   0  0  0  0  0  0  0  0  0  0  0  0
   -0.7756   -1.6630   -0.4350 C   0  0  0  0  0  0  0  0  0  0  0  0
    0.2844   -2.2800   -0.4550 O   0  0  0  0  0  0  0  0  0  0  0  0
   -0.8246   -0.3180   -0.4350 N   0  0  0  0  0  0  0  0  0  0  0  0
   -2.0106    0.5080   -0.5910 C   0  0  0  0  0  0  0  0  0  0  0  0
   -2.9719    0.2724   -0.1315 H   0  0  0  0  0  0  0  0  0  0  0  0
   -2.0905    1.4093   -1.1978 H   0  0  0  0  0  0  0  0  0  0  0  0
   -0.9491    0.7004    0.4901 C   0  0  0  0  0  0  0  0  0  0  0  0
   -1.1446   -0.3594    0.6609 H   0  0  0  0  0  0  0  0  0  0  0  0
   -1.7226    1.3162    0.9500 H   0  0  0  0  0  0  0  0  0  0  0  0
    0.4250    1.1190    1.0131 C   0  0  0  0  0  0  0  0  0  0  0  0
    1.0143    0.4826    1.6763 H   0  0  0  0  0  0  0  0  0  0  0  0
    0.8288    2.1313    1.0060 H   0  0  0  0  0  0  0  0  0  0  0  0
    0.3724    0.5200   -0.4020 C   0  0  1  0  0  0  0  0  0  0  0  0
    0.2462    1.3278   -1.1231 H   0  0  0  0  0  0  0  0  0  0  0  0
    1.6465   -0.2733   -0.7371 C   0  0  0  0  0  0  0  0  0  0  0  0
    1.6469   -1.5018   -0.6890 O   0  0  0  0  0  0  0  0  0  0  0  0
    2.7418    0.4346   -1.0383 N   0  0  0  0  0  0  0  0  0  0  0  0
    2.6462    1.4346   -1.1150 H   0  0  0  0  0  0  0  0  0  0  0  0
    4.0329   -0.1621   -1.3720 C   0  0  0  0  0  0  0  0  0  0  0  0
    3.9440   -0.7255   -2.3033 H   0  0  0  0  0  0  0  0  0  0  0  0
    4.7897    0.6140   -1.4903 H   0  0  0  0  0  0  0  0  0  0  0  0
    4.3386   -0.8488   -0.5796 H   0  0  0  0  0  0  0  0  0  0  0  0
  5  6  2  0  0  0  0
  5  7  1  0  0  0  0
  2  3  1  0  0  0  0
  2  4  1  0  0  0  0
  2  5  1  0  0  0  0
  1  2  1  0  0  0  0
 19 20  2  0  0  0  0
 19 21  1  0  0  0  0
 17 18  1  0  0  0  0
 17 19  1  0  0  0  0
 14 15  1  0  0  0  0
 14 16  1  0  0  0  0
 14 17  1  0  0  0  0
 11 12  1  0  0  0  0
 11 13  1  0  0  0  0
 11 14  1  0  0  0  0
  8  9  1  0  0  0  0
  8 10  1  0  0  0  0
  8 11  1  0  0  0  0
  7  8  1  0  0  0  0
  7 17  1  0  0  0  0
 23 24  1  0  0  0  0
 23 25  1  0  0  0  0
 23 26  1  0  0  0  0
 21 22  1  0  0  0  0
 21 23  1  0  0  0  0
M  END
$$$$
default_name
  -OEChem-01062215323D

 26 26  0     1  0  0  0  0  0999 V2000
   -1.8446   -3.5060   -0.3010 H   0  0  0  0  0  0  0  0  0  0  0  0
   -2.0746   -2.4490   -0.4240 C   0  0  0  0  0  0  0  0  0  0  0  0
   -2.6906   -2.1160    0.4090 H   0  0  0  0  0  0  0  0  0  0  0  0
   -2.5986   -2.2980   -1.3650 H   0  0  0  0  0  0  0  0  0  0  0  0
   -0.7756   -1.6630   -0.4350 C   0  0  0  0  0  0  0  0  0  0  0  0
    0.2844   -2.2800   -0.4550 O   0  0  0  0  0  0  0  0  0  0  0  0
   -0.8246   -0.3180   -0.4350 N   0  0  0  0  0  0  0  0  0  0  0  0
   -2.0106    0.5080   -0.5910 C   0  0  0  0  0  0  0  0  0  0  0  0
   -2.9719    0.2724   -0.1315 H   0  0  0  0  0  0  0  0  0  0  0  0
   -2.0905    1.4093   -1.1978 H   0  0  0  0  0  0  0  0  0  0  0  0
   -0.9491    0.7004    0.4901 C   0  0  0  0  0  0  0  0  0  0  0  0
   -1.1446   -0.3594    0.6609 H   0  0  0  0  0  0  0  0  0  0  0  0
   -1.7226    1.3162    0.9500 H   0  0  0  0  0  0  0  0  0  0  0  0
    0.4250    1.1190    1.0131 C   0  0  0  0  0  0  0  0  0  0  0  0
    1.0143    0.4826    1.6763 H   0  0  0  0  0  0  0  0  0  0  0  0
    0.8288    2.1313    1.0060 H   0  0  0  0  0  0  0  0  0  0  0  0
    0.3724    0.5200   -0.4020 C   0  0  1  0  0  0  0  0  0  0  0  0
    0.2462    1.3278   -1.1231 H   0  0  0  0  0  0  0  0  0  0  0  0
    1.6465   -0.2733   -0.7371 C   0  0  0  0  0  0  0  0  0  0  0  0
    1.5888   -1.4812   -0.9586 O   0  0  0  0  0  0  0  0  0  0  0  0
    2.8018    0.4026   -0.7345 N   0  0  0  0  0  0  0  0  0  0  0  0
    2.7597    1.4005   -0.6027 H   0  0  0  0  0  0  0  0  0  0  0  0
    4.1008   -0.2006   -1.0232 C   0  0  0  0  0  0  0  0  0  0  0  0
    4.1193   -0.5474   -2.0586 H   0  0  0  0  0  0  0  0  0  0  0  0
    4.8985    0.5273   -0.8718 H   0  0  0  0  0  0  0  0  0  0  0  0
    4.2637   -1.0587   -0.3674 H   0  0  0  0  0  0  0  0  0  0  0  0
  5  6  2  0  0  0  0
  5  7  1  0  0  0  0
  2  3  1  0  0  0  0
  2  4  1  0  0  0  0
  2  5  1  0  0  0  0
  1  2  1  0  0  0  0
 19 20  2  0  0  0  0
 19 21  1  0  0  0  0
 17 18  1  0  0  0  0
 17 19  1  0  0  0  0
 14 15  1  0  0  0  0
 14 16  1  0  0  0  0
 14 17  1  0  0  0  0
 11 12  1  0  0  0  0
 11 13  1  0  0  0  0
 11 14  1  0  0  0  0
  8  9  1  0  0  0  0
  8 10  1  0  0  0  0
  8 11  1  0  0  0  0
  7  8  1  0  0  0  0
  7 17  1  0  0  0  0
 23 24  1  0  0  0  0
 23 25  1  0  0  0  0
 23 26  1  0  0  0  0
 21 22  1  0  0  0  0
 21 23  1  0  0  0  0
M  END
$$$$
default_name
  -OEChem-01062215323D

 26 26  0     1  0  0  0  0  0999 V2000
   -1.8446   -3.5060   -0.3010 H   0  0  0  0  0  0  0  0  0  0  0  0
   -2.0746   -2.4490   -0.4240 C   0  0  0  0  0  0  0  0  0  0  0  0
   -2.6906   -2.1160    0.4090 H   0  0  0  0  0  0  0  0  0  0  0  0
   -2.5986   -2.2980   -1.3650 H   0  0  0  0  0  0  0  0  0  0  0  0
   -0.7756   -1.6630   -0.4350 C   0  0  0  0  0  0  0  0  0  0  0  0
    0.2844   -2.2800   -0.4550 O   0  0  0  0  0  0  0  0  0  0  0  0
   -0.8246   -0.3180   -0.4350 N   0  0  0  0  0  0  0  0  0  0  0  0
   -2.0106    0.5080   -0.5910 C   0  0  0  0  0  0  0  0  0  0  0  0
   -2.9719    0.2724   -0.1315 H   0  0  0  0  0  0  0  0  0  0  0  0
   -2.0905    1.4093   -1.1978 H   0  0  0  0  0  0  0  0  0  0  0  0
   -0.9491    0.7004    0.4901 C   0  0  0  0  0  0  0  0  0  0  0  0
   -1.1446   -0.3594    0.6609 H   0  0  0  0  0  0  0  0  0  0  0  0
   -1.7226    1.3162    0.9500 H   0  0  0  0  0  0  0  0  0  0  0  0
    0.4250    1.1190    1.0131 C   0  0  0  0  0  0  0  0  0  0  0  0
    1.0143    0.4826    1.6763 H   0  0  0  0  0  0  0  0  0  0  0  0
    0.8288    2.1313    1.0060 H   0  0  0  0  0  0  0  0  0  0  0  0
    0.3724    0.5200   -0.4020 C   0  0  1  0  0  0  0  0  0  0  0  0
    0.2462    1.3278   -1.1231 H   0  0  0  0  0  0  0  0  0  0  0  0
    1.6465   -0.2733   -0.7371 C   0  0  0  0  0  0  0  0  0  0  0  0
    1.5698   -1.4003   -1.2224 O   0  0  0  0  0  0  0  0  0  0  0  0
    2.8173    0.3031   -0.4399 N   0  0  0  0  0  0  0  0  0  0  0  0
    2.7991    1.2513   -0.0999 H   0  0  0  0  0  0  0  0  0  0  0  0
    4.1175   -0.3164   -0.6854 C   0  0  0  0  0  0  0  0  0  0  0  0
    4.2659   -0.4378   -1.7606 H   0  0  0  0  0  0  0  0  0  0  0  0
    4.9160    0.3048   -0.2785 H   0  0  0  0  0  0  0  0  0  0  0  0
    4.1513   -1.3027   -0.2175 H   0  0  0  0  0  0  0  0  0  0  0  0
  5  6  2  0  0  0  0
  5  7  1  0  0  0  0
  2  3  1  0  0  0  0
  2  4  1  0  0  0  0
  2  5  1  0  0  0  0
  1  2  1  0  0  0  0
 19 20  2  0  0  0  0
 19 21  1  0  0  0  0
 17 18  1  0  0  0  0
 17 19  1  0  0  0  0
 14 15  1  0  0  0  0
 14 16  1  0  0  0  0
 14 17  1  0  0  0  0
 11 12  1  0  0  0  0
 11 13  1  0  0  0  0
 11 14  1  0  0  0  0
  8  9  1  0  0  0  0
  8 10  1  0  0  0  0
  8 11  1  0  0  0  0
  7  8  1  0  0  0  0
  7 17  1  0  0  0  0
 23 24  1  0  0  0  0
 23 25  1  0  0  0  0
 23 26  1  0  0  0  0
 21 22  1  0  0  0  0
 21 23  1  0  0  0  0
M  END
$$$$
default_name
  -OEChem-01062215323D

 26 26  0     1  0  0  0  0  0999 V2000
   -1.8446   -3.5060   -0.3010 H   0  0  0  0  0  0  0  0  0  0  0  0
   -2.0746   -2.4490   -0.4240 C   0  0  0  0  0  0  0  0  0  0  0  0
   -2.6906   -2.1160    0.4090 H   0  0  0  0  0  0  0  0  0  0  0  0
   -2.5986   -2.2980   -1.3650 H   0  0  0  0  0  0  0  0  0  0  0  0
   -0.7756   -1.6630   -0.4350 C   0  0  0  0  0  0  0  0  0  0  0  0
    0.2844   -2.2800   -0.4550 O   0  0  0  0  0  0  0  0  0  0  0  0
   -0.8246   -0.3180   -0.4350 N   0  0  0  0  0  0  0  0  0  0  0  0
   -2.0106    0.5080   -0.5910 C   0  0  0  0  0  0  0  0  0  0  0  0
   -2.9719    0.2724   -0.1315 H   0  0  0  0  0  0  0  0  0  0  0  0
   -2.0905    1.4093   -1.1978 H   0  0  0  0  0  0  0  0  0  0  0  0
   -0.9491    0.7004    0.4901 C   0  0  0  0  0  0  0  0  0  0  0  0
   -1.1446   -0.3594    0.6609 H   0  0  0  0  0  0  0  0  0  0  0  0
   -1.7226    1.3162    0.9500 H   0  0  0  0  0  0  0  0  0  0  0  0
    0.4250    1.1190    1.0131 C   0  0  0  0  0  0  0  0  0  0  0  0
    1.0143    0.4826    1.6763 H   0  0  0  0  0  0  0  0  0  0  0  0
    0.8288    2.1313    1.0060 H   0  0  0  0  0  0  0  0  0  0  0  0
    0.3724    0.5200   -0.4020 C   0  0  1  0  0  0  0  0  0  0  0  0
    0.2462    1.3278   -1.1231 H   0  0  0  0  0  0  0  0  0  0  0  0
    1.6465   -0.2733   -0.7371 C   0  0  0  0  0  0  0  0  0  0  0  0
    1.5913   -1.2645   -1.4624 O   0  0  0  0  0  0  0  0  0  0  0  0
    2.7874    0.1430   -0.1746 N   0  0  0  0  0  0  0  0  0  0  0  0
    2.7616    0.9972    0.3590 H   0  0  0  0  0  0  0  0  0  0  0  0
    4.0821   -0.5016   -0.3818 C   0  0  0  0  0  0  0  0  0  0  0  0
    4.3740   -0.4041   -1.4296 H   0  0  0  0  0  0  0  0  0  0  0  0
    4.8412   -0.0383    0.2492 H   0  0  0  0  0  0  0  0  0  0  0  0
    4.0088   -1.5642   -0.1400 H   0  0  0  0  0  0  0  0  0  0  0  0
  5  6  2  0  0  0  0
  5  7  1  0  0  0  0
  2  3  1  0  0  0  0
  2  4  1  0  0  0  0
  2  5  1  0  0  0  0
  1  2  1  0  0  0  0
 19 20  2  0  0  0  0
 19 21  1  0  0  0  0
 17 18  1  0  0  0  0
 17 19  1  0  0  0  0
 14 15  1  0  0  0  0
 14 16  1  0  0  0  0
 14 17  1  0  0  0  0
 11 12  1  0  0  0  0
 11 13  1  0  0  0  0
 11 14  1  0  0  0  0
  8  9  1  0  0  0  0
  8 10  1  0  0  0  0
  8 11  1  0  0  0  0
  7  8  1  0  0  0  0
  7 17  1  0  0  0  0
 23 24  1  0  0  0  0
 23 25  1  0  0  0  0
 23 26  1  0  0  0  0
 21 22  1  0  0  0  0
 21 23  1  0  0  0  0
M  END
$$$$
default_name
  -OEChem-01062215323D

 26 26  0     1  0  0  0  0  0999 V2000
   -1.8446   -3.5060   -0.3010 H   0  0  0  0  0  0  0  0  0  0  0  0
   -2.0746   -2.4490   -0.4240 C   0  0  0  0  0  0  0  0  0  0  0  0
   -2.6906   -2.1160    0.4090 H   0  0  0  0  0  0  0  0  0  0  0  0
   -2.5986   -2.2980   -1.3650 H   0  0  0  0  0  0  0  0  0  0  0  0
   -0.7756   -1.6630   -0.4350 C   0  0  0  0  0  0  0  0  0  0  0  0
    0.2844   -2.2800   -0.4550 O   0  0  0  0  0  0  0  0  0  0  0  0
   -0.8246   -0.3180   -0.4350 N   0  0  0  0  0  0  0  0  0  0  0  0
   -2.0106    0.5080   -0.5910 C   0  0  0  0  0  0  0  0  0  0  0  0
   -2.9719    0.2724   -0.1315 H   0  0  0  0  0  0  0  0  0  0  0  0
   -2.0905    1.4093   -1.1978 H   0  0  0  0  0  0  0  0  0  0  0  0
   -0.9491    0.7004    0.4901 C   0  0  0  0  0  0  0  0  0  0  0  0
   -1.1446   -0.3594    0.6609 H   0  0  0  0  0  0  0  0  0  0  0  0
   -1.7226    1.3162    0.9500 H   0  0  0  0  0  0  0  0  0  0  0  0
    0.4250    1.1190    1.0131 C   0  0  0  0  0  0  0  0  0  0  0  0
    1.0143    0.4826    1.6763 H   0  0  0  0  0  0  0  0  0  0  0  0
    0.8288    2.1313    1.0060 H   0  0  0  0  0  0  0  0  0  0  0  0
    0.3724    0.5200   -0.4020 C   0  0  1  0  0  0  0  0  0  0  0  0
    0.2462    1.3278   -1.1231 H   0  0  0  0  0  0  0  0  0  0  0  0
    1.6465   -0.2733   -0.7371 C   0  0  0  0  0  0  0  0  0  0  0  0
    1.6517   -1.0830   -1.6622 O   0  0  0  0  0  0  0  0  0  0  0  0
    2.7141   -0.0668    0.0433 N   0  0  0  0  0  0  0  0  0  0  0  0
    2.6497    0.6554    0.7427 H   0  0  0  0  0  0  0  0  0  0  0  0
    3.9969   -0.7436   -0.1329 C   0  0  0  0  0  0  0  0  0  0  0  0
    4.4361   -0.4486   -1.0883 H   0  0  0  0  0  0  0  0  0  0  0  0
    4.6792   -0.4786    0.6754 H   0  0  0  0  0  0  0  0  0  0  0  0
    3.8462   -1.8253   -0.1402 H   0  0  0  0  0  0  0  0  0  0  0  0
  5  6  2  0  0  0  0
  5  7  1  0  0  0  0
  2  3  1  0  0  0  0
  2  4  1  0  0  0  0
  2  5  1  0  0  0  0
  1  2  1  0  0  0  0
 19 20  2  0  0  0  0
 19 21  1  0  0  0  0
 17 18  1  0  0  0  0
 17 19  1  0  0  0  0
 14 15  1  0  0  0  0
 14 16  1  0  0  0  0
 14 17  1  0  0  0  0
 11 12  1  0  0  0  0
 11 13  1  0  0  0  0
 11 14  1  0  0  0  0
  8  9  1  0  0  0  0
  8 10  1  0  0  0  0
  8 11  1  0  0  0  0
  7  8  1  0  0  0  0
  7 17  1  0  0  0  0
 23 24  1  0  0  0  0
 23 25  1  0  0  0  0
 23 26  1  0  0  0  0
 21 22  1  0  0  0  0
 21 23  1  0  0  0  0
M  END
$$$$
default_name
  -OEChem-01062215323D

 26 26  0     1  0  0  0  0  0999 V2000
   -1.8446   -3.5060   -0.3010 H   0  0  0  0  0  0  0  0  0  0  0  0
   -2.0746   -2.4490   -0.4240 C   0  0  0  0  0  0  0  0  0  0  0  0
   -2.6906   -2.1160    0.4090 H   0  0  0  0  0  0  0  0  0  0  0  0
   -2.5986   -2.2980   -1.3650 H   0  0  0  0  0  0  0  0  0  0  0  0
   -0.7756   -1.6630   -0.4350 C   0  0  0  0  0  0  0  0  0  0  0  0
    0.2844   -2.2800   -0.4550 O   0  0  0  0  0  0  0  0  0  0  0  0
   -0.8246   -0.3180   -0.4350 N   0  0  0  0  0  0  0  0  0  0  0  0
   -2.0106    0.5080   -0.5910 C   0  0  0  0  0  0  0  0  0  0  0  0
   -2.9719    0.2724   -0.1315 H   0  0  0  0  0  0  0  0  0  0  0  0
   -2.0905    1.4093   -1.1978 H   0  0  0  0  0  0  0  0  0  0  0  0
   -0.9491    0.7004    0.4901 C   0  0  0  0  0  0  0  0  0  0  0  0
   -1.1446   -0.3594    0.6609 H   0  0  0  0  0  0  0  0  0  0  0  0
   -1.7226    1.3162    0.9500 H   0  0  0  0  0  0  0  0  0  0  0  0
    0.4250    1.1190    1.0131 C   0  0  0  0  0  0  0  0  0  0  0  0
    1.0143    0.4826    1.6763 H   0  0  0  0  0  0  0  0  0  0  0  0
    0.8288    2.1313    1.0060 H   0  0  0  0  0  0  0  0  0  0  0  0
    0.3724    0.5200   -0.4020 C   0  0  1  0  0  0  0  0  0  0  0  0
    0.2462    1.3278   -1.1231 H   0  0  0  0  0  0  0  0  0  0  0  0
    1.6465   -0.2733   -0.7371 C   0  0  0  0  0  0  0  0  0  0  0  0
    1.7469   -0.8683   -1.8082 O   0  0  0  0  0  0  0  0  0  0  0  0
    2.6023   -0.3121    0.1991 N   0  0  0  0  0  0  0  0  0  0  0  0
    2.4712    0.2493    1.0252 H   0  0  0  0  0  0  0  0  0  0  0  0
    3.8677   -1.0259    0.0442 C   0  0  0  0  0  0  0  0  0  0  0  0
    4.4480   -0.5682   -0.7598 H   0  0  0  0  0  0  0  0  0  0  0  0
    4.4409   -0.9862    0.9710 H   0  0  0  0  0  0  0  0  0  0  0  0
    3.6743   -2.0683   -0.2181 H   0  0  0  0  0  0  0  0  0  0  0  0
  5  6  2  0  0  0  0
  5  7  1  0  0  0  0
  2  3  1  0  0  0  0
  2  4  1  0  0  0  0
  2  5  1  0  0  0  0
  1  2  1  0  0  0  0
 19 20  2  0  0  0  0
 19 21  1  0  0  0  0
 17 18  1  0  0  0  0
 17 19  1  0  0  0  0
 14 15  1  0  0  0  0
 14 16  1  0  0  0  0
 14 17  1  0  0  0  0
 11 12  1  0  0  0  0
 11 13  1  0  0  0  0
 11 14  1  0  0  0  0
  8  9  1  0  0  0  0
  8 10  1  0  0  0  0
  8 11  1  0  0  0  0
  7  8  1  0  0  0  0
  7 17  1  0  0  0  0
 23 24  1  0  0  0  0
 23 25  1  0  0  0  0
 23 26  1  0  0  0  0
 21 22  1  0  0  0  0
 21 23  1  0  0  0  0
M  END
$$$$
default_name
  -OEChem-01062215323D

 26 26  0     1  0  0  0  0  0999 V2000
   -1.8446   -3.5060   -0.3010 H   0  0  0  0  0  0  0  0  0  0  0  0
   -2.0746   -2.4490   -0.4240 C   0  0  0  0  0  0  0  0  0  0  0  0
   -2.6906   -2.1160    0.4090 H   0  0  0  0  0  0  0  0  0  0  0  0
   -2.5986   -2.2980   -1.3650 H   0  0  0  0  0  0  0  0  0  0  0  0
   -0.7756   -1.6630   -0.4350 C   0  0  0  0  0  0  0  0  0  0  0  0
    0.2844   -2.2800   -0.4550 O   0  0  0  0  0  0  0  0  0  0  0  0
   -0.8246   -0.3180   -0.4350 N   0  0  0  0  0  0  0  0  0  0  0  0
   -2.0106    0.5080   -0.5910 C   0  0  0  0  0  0  0  0  0  0  0  0
   -2.9719    0.2724   -0.1315 H   0  0  0  0  0  0  0  0  0  0  0  0
   -2.0905    1.4093   -1.1978 H   0  0  0  0  0  0  0  0  0  0  0  0
   -0.9491    0.7004    0.4901 C   0  0  0  0  0  0  0  0  0  0  0  0
   -1.1446   -0.3594    0.6609 H   0  0  0  0  0  0  0  0  0  0  0  0
   -1.7226    1.3162    0.9500 H   0  0  0  0  0  0  0  0  0  0  0  0
    0.4250    1.1190    1.0131 C   0  0  0  0  0  0  0  0  0  0  0  0
    1.0143    0.4826    1.6763 H   0  0  0  0  0  0  0  0  0  0  0  0
    0.8288    2.1313    1.0060 H   0  0  0  0  0  0  0  0  0  0  0  0
    0.3724    0.5200   -0.4020 C   0  0  1  0  0  0  0  0  0  0  0  0
    0.2462    1.3278   -1.1231 H   0  0  0  0  0  0  0  0  0  0  0  0
    1.6465   -0.2733   -0.7371 C   0  0  0  0  0  0  0  0  0  0  0  0
    1.8706   -0.6350   -1.8905 O   0  0  0  0  0  0  0  0  0  0  0  0
    2.4597   -0.5762    0.2820 N   0  0  0  0  0  0  0  0  0  0  0  0
    2.2381   -0.1934    1.1871 H   0  0  0  0  0  0  0  0  0  0  0  0
    3.7033   -1.3293    0.1375 C   0  0  0  0  0  0  0  0  0  0  0  0
    4.4089   -0.7549   -0.4666 H   0  0  0  0  0  0  0  0  0  0  0  0
    4.1426   -1.5264    1.1159 H   0  0  0  0  0  0  0  0  0  0  0  0
    3.5051   -2.2766   -0.3685 H   0  0  0  0  0  0  0  0  0  0  0  0
  5  6  2  0  0  0  0
  5  7  1  0  0  0  0
  2  3  1  0  0  0  0
  2  4  1  0  0  0  0
  2  5  1  0  0  0  0
  1  2  1  0  0  0  0
 19 20  2  0  0  0  0
 19 21  1  0  0  0  0
 17 18  1  0  0  0  0
 17 19  1  0  0  0  0
 14 15  1  0  0  0  0
 14 16  1  0  0  0  0
 14 17  1  0  0  0  0
 11 12  1  0  0  0  0
 11 13  1  0  0  0  0
 11 14  1  0  0  0  0
  8  9  1  0  0  0  0
  8 10  1  0  0  0  0
  8 11  1  0  0  0  0
  7  8  1  0  0  0  0
  7 17  1  0  0  0  0
 23 24  1  0  0  0  0
 23 25  1  0  0  0  0
 23 26  1  0  0  0  0
 21 22  1  0  0  0  0
 21 23  1  0  0  0  0
M  END
$$$$
default_name
  -OEChem-01062215323D

 26 26  0     1  0  0  0  0  0999 V2000
   -1.8446   -3.5060   -0.3010 H   0  0  0  0  0  0  0  0  0  0  0  0
   -2.0746   -2.4490   -0.4240 C   0  0  0  0  0  0  0  0  0  0  0  0
   -2.6906   -2.1160    0.4090 H   0  0  0  0  0  0  0  0  0  0  0  0
   -2.5986   -2.2980   -1.3650 H   0  0  0  0  0  0  0  0  0  0  0  0
   -0.7756   -1.6630   -0.4350 C   0  0  0  0  0  0  0  0  0  0  0  0
    0.2844   -2.2800   -0.4550 O   0  0  0  0  0  0  0  0  0  0  0  0
   -0.8246   -0.3180   -0.4350 N   0  0  0  0  0  0  0  0  0  0  0  0
   -2.0106    0.5080   -0.5910 C   0  0  0  0  0  0  0  0  0  0  0  0
   -2.9719    0.2724   -0.1315 H   0  0  0  0  0  0  0  0  0  0  0  0
   -2.0905    1.4093   -1.1978 H   0  0  0  0  0  0  0  0  0  0  0  0
   -0.9491    0.7004    0.4901 C   0  0  0  0  0  0  0  0  0  0  0  0
   -1.1446   -0.3594    0.6609 H   0  0  0  0  0  0  0  0  0  0  0  0
   -1.7226    1.3162    0.9500 H   0  0  0  0  0  0  0  0  0  0  0  0
    0.4250    1.1190    1.0131 C   0  0  0  0  0  0  0  0  0  0  0  0
    1.0143    0.4826    1.6763 H   0  0  0  0  0  0  0  0  0  0  0  0
    0.8288    2.1313    1.0060 H   0  0  0  0  0  0  0  0  0  0  0  0
    0.3724    0.5200   -0.4020 C   0  0  1  0  0  0  0  0  0  0  0  0
    0.2462    1.3278   -1.1231 H   0  0  0  0  0  0  0  0  0  0  0  0
    1.6465   -0.2733   -0.7371 C   0  0  0  0  0  0  0  0  0  0  0  0
    2.0141   -0.3990   -1.9035 O   0  0  0  0  0  0  0  0  0  0  0  0
    2.2960   -0.8409    0.2864 N   0  0  0  0  0  0  0  0  0  0  0  0
    1.9664   -0.6426    1.2174 H   0  0  0  0  0  0  0  0  0  0  0  0
    3.5150   -1.6330    0.1407 C   0  0  0  0  0  0  0  0  0  0  0  0
    4.3214   -0.9959   -0.2287 H   0  0  0  0  0  0  0  0  0  0  0  0
    3.8046   -2.0625    1.1002 H   0  0  0  0  0  0  0  0  0  0  0  0
    3.3499   -2.4361   -0.5810 H   0  0  0  0  0  0  0  0  0  0  0  0
  5  6  2  0  0  0  0
  5  7  1  0  0  0  0
  2  3  1  0  0  0  0
  2  4  1  0  0  0  0
  2  5  1  0  0  0  0
  1  2  1  0  0  0  0
 19 20  2  0  0  0  0
 19 21  1  0  0  0  0
 17 18  1  0  0  0  0
 17 19  1  0  0  0  0
 14 15  1  0  0  0  0
 14 16  1  0  0  0  0
 14 17  1  0  0  0  0
 11 12  1  0  0  0  0
 11 13  1  0  0  0  0
 11 14  1  0  0  0  0
  8  9  1  0  0  0  0
  8 10  1  0  0  0  0
  8 11  1  0  0  0  0
  7  8  1  0  0  0  0
  7 17  1  0  0  0  0
 23 24  1  0  0  0  0
 23 25  1  0  0  0  0
 23 26  1  0  0  0  0
 21 22  1  0  0  0  0
 21 23  1  0  0  0  0
M  END
$$$$
default_name
  -OEChem-01062215323D

 26 26  0     1  0  0  0  0  0999 V2000
   -1.8446   -3.5060   -0.3010 H   0  0  0  0  0  0  0  0  0  0  0  0
   -2.0746   -2.4490   -0.4240 C   0  0  0  0  0  0  0  0  0  0  0  0
   -2.6906   -2.1160    0.4090 H   0  0  0  0  0  0  0  0  0  0  0  0
   -2.5986   -2.2980   -1.3650 H   0  0  0  0  0  0  0  0  0  0  0  0
   -0.7756   -1.6630   -0.4350 C   0  0  0  0  0  0  0  0  0  0  0  0
    0.2844   -2.2800   -0.4550 O   0  0  0  0  0  0  0  0  0  0  0  0
   -0.8246   -0.3180   -0.4350 N   0  0  0  0  0  0  0  0  0  0  0  0
   -2.0106    0.5080   -0.5910 C   0  0  0  0  0  0  0  0  0  0  0  0
   -2.9719    0.2724   -0.1315 H   0  0  0  0  0  0  0  0  0  0  0  0
   -2.0905    1.4093   -1.1978 H   0  0  0  0  0  0  0  0  0  0  0  0
   -0.9491    0.7004    0.4901 C   0  0  0  0  0  0  0  0  0  0  0  0
   -1.1446   -0.3594    0.6609 H   0  0  0  0  0  0  0  0  0  0  0  0
   -1.7226    1.3162    0.9500 H   0  0  0  0  0  0  0  0  0  0  0  0
    0.4250    1.1190    1.0131 C   0  0  0  0  0  0  0  0  0  0  0  0
    1.0143    0.4826    1.6763 H   0  0  0  0  0  0  0  0  0  0  0  0
    0.8288    2.1313    1.0060 H   0  0  0  0  0  0  0  0  0  0  0  0
    0.3724    0.5200   -0.4020 C   0  0  1  0  0  0  0  0  0  0  0  0
    0.2462    1.3278   -1.1231 H   0  0  0  0  0  0  0  0  0  0  0  0
    1.6465   -0.2733   -0.7371 C   0  0  0  0  0  0  0  0  0  0  0  0
    2.1678   -0.1763   -1.8462 O   0  0  0  0  0  0  0  0  0  0  0  0
    2.1224   -1.0884    0.2120 N   0  0  0  0  0  0  0  0  0  0  0  0
    1.6745   -1.0677    1.1141 H   0  0  0  0  0  0  0  0  0  0  0  0
    3.3155   -1.9165    0.0534 C   0  0  0  0  0  0  0  0  0  0  0  0
    4.1916   -1.2748   -0.0622 H   0  0  0  0  0  0  0  0  0  0  0  0
    3.4501   -2.5579    0.9250 H   0  0  0  0  0  0  0  0  0  0  0  0
    3.2193   -2.5358   -0.8411 H   0  0  0  0  0  0  0  0  0  0  0  0
  5  6  2  0  0  0  0
  5  7  1  0  0  0  0
  2  3  1  0  0  0  0
  2  4  1  0  0  0  0
  2  5  1  0  0  0  0
  1  2  1  0  0  0  0
 19 20  2  0  0  0  0
 19 21  1  0  0  0  0
 17 18  1  0  0  0  0
 17 19  1  0  0  0  0
 14 15  1  0  0  0  0
 14 16  1  0  0  0  0
 14 17  1  0  0  0  0
 11 12  1  0  0  0  0
 11 13  1  0  0  0  0
 11 14  1  0  0  0  0
  8  9  1  0  0  0  0
  8 10  1  0  0  0  0
  8 11  1  0  0  0  0
  7  8  1  0  0  0  0
  7 17  1  0  0  0  0
 23 24  1  0  0  0  0
 23 25  1  0  0  0  0
 23 26  1  0  0  0  0
 21 22  1  0  0  0  0
 21 23  1  0  0  0  0
M  END
$$$$
default_name
  -OEChem-01062215323D

 26 26  0     1  0  0  0  0  0999 V2000
   -1.8446   -3.5060   -0.3010 H   0  0  0  0  0  0  0  0  0  0  0  0
   -2.0746   -2.4490   -0.4240 C   0  0  0  0  0  0  0  0  0  0  0  0
   -2.6906   -2.1160    0.4090 H   0  0  0  0  0  0  0  0  0  0  0  0
   -2.5986   -2.2980   -1.3650 H   0  0  0  0  0  0  0  0  0  0  0  0
   -0.7756   -1.6630   -0.4350 C   0  0  0  0  0  0  0  0  0  0  0  0
    0.2844   -2.2800   -0.4550 O   0  0  0  0  0  0  0  0  0  0  0  0
   -0.8246   -0.3180   -0.4350 N   0  0  0  0  0  0  0  0  0  0  0  0
   -2.0106    0.5080   -0.5910 C   0  0  0  0  0  0  0  0  0  0  0  0
   -2.9719    0.2724   -0.1315 H   0  0  0  0  0  0  0  0  0  0  0  0
   -2.0905    1.4093   -1.1978 H   0  0  0  0  0  0  0  0  0  0  0  0
   -0.9491    0.7004    0.4901 C   0  0  0  0  0  0  0  0  0  0  0  0
   -1.1446   -0.3594    0.6609 H   0  0  0  0  0  0  0  0  0  0  0  0
   -1.7226    1.3162    0.9500 H   0  0  0  0  0  0  0  0  0  0  0  0
    0.4250    1.1190    1.0131 C   0  0  0  0  0  0  0  0  0  0  0  0
    1.0143    0.4826    1.6763 H   0  0  0  0  0  0  0  0  0  0  0  0
    0.8288    2.1313    1.0060 H   0  0  0  0  0  0  0  0  0  0  0  0
    0.3724    0.5200   -0.4020 C   0  0  1  0  0  0  0  0  0  0  0  0
    0.2462    1.3278   -1.1231 H   0  0  0  0  0  0  0  0  0  0  0  0
    1.6465   -0.2733   -0.7371 C   0  0  0  0  0  0  0  0  0  0  0  0
    2.3212    0.0178   -1.7227 O   0  0  0  0  0  0  0  0  0  0  0  0
    1.9506   -1.3016    0.0639 N   0  0  0  0  0  0  0  0  0  0  0  0
    1.3824   -1.4397    0.8843 H   0  0  0  0  0  0  0  0  0  0  0  0
    3.1185   -2.1604   -0.1183 C   0  0  0  0  0  0  0  0  0  0  0  0
    4.0282   -1.5725    0.0215 H   0  0  0  0  0  0  0  0  0  0  0  0
    3.1030   -2.9788    0.6021 H   0  0  0  0  0  0  0  0  0  0  0  0
    3.1224   -2.5690   -1.1312 H   0  0  0  0  0  0  0  0  0  0  0  0
  5  6  2  0  0  0  0
  5  7  1  0  0  0  0
  2  3  1  0  0  0  0
  2  4  1  0  0  0  0
  2  5  1  0  0  0  0
  1  2  1  0  0  0  0
 19 20  2  0  0  0  0
 19 21  1  0  0  0  0
 17 18  1  0  0  0  0
 17 19  1  0  0  0  0
 14 15  1  0  0  0  0
 14 16  1  0  0  0  0
 14 17  1  0  0  0  0
 11 12  1  0  0  0  0
 11 13  1  0  0  0  0
 11 14  1  0  0  0  0
  8  9  1  0  0  0  0
  8 10  1  0  0  0  0
  8 11  1  0  0  0  0
  7  8  1  0  0  0  0
  7 17  1  0  0  0  0
 23 24  1  0  0  0  0
 23 25  1  0  0  0  0
 23 26  1  0  0  0  0
 21 22  1  0  0  0  0
 21 23  1  0  0  0  0
M  END
$$$$
default_name
  -OEChem-01062215323D

 26 26  0     1  0  0  0  0  0999 V2000
   -1.8446   -3.5060   -0.3010 H   0  0  0  0  0  0  0  0  0  0  0  0
   -2.0746   -2.4490   -0.4240 C   0  0  0  0  0  0  0  0  0  0  0  0
   -2.6906   -2.1160    0.4090 H   0  0  0  0  0  0  0  0  0  0  0  0
   -2.5986   -2.2980   -1.3650 H   0  0  0  0  0  0  0  0  0  0  0  0
   -0.7756   -1.6630   -0.4350 C   0  0  0  0  0  0  0  0  0  0  0  0
    0.2844   -2.2800   -0.4550 O   0  0  0  0  0  0  0  0  0  0  0  0
   -0.8246   -0.3180   -0.4350 N   0  0  0  0  0  0  0  0  0  0  0  0
   -2.0106    0.5080   -0.5910 C   0  0  0  0  0  0  0  0  0  0  0  0
   -2.9719    0.2724   -0.1315 H   0  0  0  0  0  0  0  0  0  0  0  0
   -2.0905    1.4093   -1.1978 H   0  0  0  0  0  0  0  0  0  0  0  0
   -0.9491    0.7004    0.4901 C   0  0  0  0  0  0  0  0  0  0  0  0
   -1.1446   -0.3594    0.6609 H   0  0  0  0  0  0  0  0  0  0  0  0
   -1.7226    1.3162    0.9500 H   0  0  0  0  0  0  0  0  0  0  0  0
    0.4250    1.1190    1.0131 C   0  0  0  0  0  0  0  0  0  0  0  0
    1.0143    0.4826    1.6763 H   0  0  0  0  0  0  0  0  0  0  0  0
    0.8288    2.1313    1.0060 H   0  0  0  0  0  0  0  0  0  0  0  0
    0.3724    0.5200   -0.4020 C   0  0  1  0  0  0  0  0  0  0  0  0
    0.2462    1.3278   -1.1231 H   0  0  0  0  0  0  0  0  0  0  0  0
    1.6465   -0.2733   -0.7371 C   0  0  0  0  0  0  0  0  0  0  0  0
    2.4639    0.1702   -1.5412 O   0  0  0  0  0  0  0  0  0  0  0  0
    1.7924   -1.4662   -0.1478 N   0  0  0  0  0  0  0  0  0  0  0  0
    1.1099   -1.7332    0.5434 H   0  0  0  0  0  0  0  0  0  0  0  0
    2.9373   -2.3480   -0.3628 C   0  0  0  0  0  0  0  0  0  0  0  0
    3.8424   -1.8688    0.0167 H   0  0  0  0  0  0  0  0  0  0  0  0
    2.7872   -3.2965    0.1537 H   0  0  0  0  0  0  0  0  0  0  0  0
    3.0656   -2.5333   -1.4315 H   0  0  0  0  0  0  0  0  0  0  0  0
  5  6  2  0  0  0  0
  5  7  1  0  0  0  0
  2  3  1  0  0  0  0
  2  4  1  0  0  0  0
  2  5  1  0  0  0  0
  1  2  1  0  0  0  0
 19 20  2  0  0  0  0
 19 21  1  0  0  0  0
 17 18  1  0  0  0  0
 17 19  1  0  0  0  0
 14 15  1  0  0  0  0
 14 16  1  0  0  0  0
 14 17  1  0  0  0  0
 11 12  1  0  0  0  0
 11 13  1  0  0  0  0
 11 14  1  0  0  0  0
  8  9  1  0  0  0  0
  8 10  1  0  0  0  0
  8 11  1  0  0  0  0
  7  8  1  0  0  0  0
  7 17  1  0  0  0  0
 23 24  1  0  0  0  0
 23 25  1  0  0  0  0
 23 26  1  0  0  0  0
 21 22  1  0  0  0  0
 21 23  1  0  0  0  0
M  END
$$$$
default_name
  -OEChem-01062215323D

 26 26  0     1  0  0  0  0  0999 V2000
   -1.8446   -3.5060   -0.3010 H   0  0  0  0  0  0  0  0  0  0  0  0
   -2.0746   -2.4490   -0.4240 C   0  0  0  0  0  0  0  0  0  0  0  0
   -2.6906   -2.1160    0.4090 H   0  0  0  0  0  0  0  0  0  0  0  0
   -2.5986   -2.2980   -1.3650 H   0  0  0  0  0  0  0  0  0  0  0  0
   -0.7756   -1.6630   -0.4350 C   0  0  0  0  0  0  0  0  0  0  0  0
    0.2844   -2.2800   -0.4550 O   0  0  0  0  0  0  0  0  0  0  0  0
   -0.8246   -0.3180   -0.4350 N   0  0  0  0  0  0  0  0  0  0  0  0
   -2.0106    0.5080   -0.5910 C   0  0  0  0  0  0  0  0  0  0  0  0
   -2.9719    0.2724   -0.1315 H   0  0  0  0  0  0  0  0  0  0  0  0
   -2.0905    1.4093   -1.1978 H   0  0  0  0  0  0  0  0  0  0  0  0
   -0.9491    0.7004    0.4901 C   0  0  0  0  0  0  0  0  0  0  0  0
   -1.1446   -0.3594    0.6609 H   0  0  0  0  0  0  0  0  0  0  0  0
   -1.7226    1.3162    0.9500 H   0  0  0  0  0  0  0  0  0  0  0  0
    0.4250    1.1190    1.0131 C   0  0  0  0  0  0  0  0  0  0  0  0
    1.0143    0.4826    1.6763 H   0  0  0  0  0  0  0  0  0  0  0  0
    0.8288    2.1313    1.0060 H   0  0  0  0  0  0  0  0  0  0  0  0
    0.3724    0.5200   -0.4020 C   0  0  1  0  0  0  0  0  0  0  0  0
    0.2462    1.3278   -1.1231 H   0  0  0  0  0  0  0  0  0  0  0  0
    1.6465   -0.2733   -0.7371 C   0  0  0  0  0  0  0  0  0  0  0  0
    2.5860    0.2704   -1.3142 O   0  0  0  0  0  0  0  0  0  0  0  0
    1.6586   -1.5709   -0.4087 N   0  0  0  0  0  0  0  0  0  0  0  0
    0.8757   -1.9283    0.1149 H   0  0  0  0  0  0  0  0  0  0  0  0
    2.7844   -2.4665   -0.6633 C   0  0  0  0  0  0  0  0  0  0  0  0
    3.6469   -2.1435   -0.0763 H   0  0  0  0  0  0  0  0  0  0  0  0
    2.5241   -3.4895   -0.3897 H   0  0  0  0  0  0  0  0  0  0  0  0
    3.0528   -2.4313   -1.7214 H   0  0  0  0  0  0  0  0  0  0  0  0
  5  6  2  0  0  0  0
  5  7  1  0  0  0  0
  2  3  1  0  0  0  0
  2  4  1  0  0  0  0
  2  5  1  0  0  0  0
  1  2  1  0  0  0  0
 19 20  2  0  0  0  0
 19 21  1  0  0  0  0
 17 18  1  0  0  0  0
 17 19  1  0  0  0  0
 14 15  1  0  0  0  0
 14 16  1  0  0  0  0
 14 17  1  0  0  0  0
 11 12  1  0  0  0  0
 11 13  1  0  0  0  0
 11 14  1  0  0  0  0
  8  9  1  0  0  0  0
  8 10  1  0  0  0  0
  8 11  1  0  0  0  0
  7  8  1  0  0  0  0
  7 17  1  0  0  0  0
 23 24  1  0  0  0  0
 23 25  1  0  0  0  0
 23 26  1  0  0  0  0
 21 22  1  0  0  0  0
 21 23  1  0  0  0  0
M  END
$$$$
default_name
  -OEChem-01062215323D

 26 26  0     1  0  0  0  0  0999 V2000
   -1.8446   -3.5060   -0.3010 H   0  0  0  0  0  0  0  0  0  0  0  0
   -2.0746   -2.4490   -0.4240 C   0  0  0  0  0  0  0  0  0  0  0  0
   -2.6906   -2.1160    0.4090 H   0  0  0  0  0  0  0  0  0  0  0  0
   -2.5986   -2.2980   -1.3650 H   0  0  0  0  0  0  0  0  0  0  0  0
   -0.7756   -1.6630   -0.4350 C   0  0  0  0  0  0  0  0  0  0  0  0
    0.2844   -2.2800   -0.4550 O   0  0  0  0  0  0  0  0  0  0  0  0
   -0.8246   -0.3180   -0.4350 N   0  0  0  0  0  0  0  0  0  0  0  0
   -2.0106    0.5080   -0.5910 C   0  0  0  0  0  0  0  0  0  0  0  0
   -2.9719    0.2724   -0.1315 H   0  0  0  0  0  0  0  0  0  0  0  0
   -2.0905    1.4093   -1.1978 H   0  0  0  0  0  0  0  0  0  0  0  0
   -0.9491    0.7004    0.4901 C   0  0  0  0  0  0  0  0  0  0  0  0
   -1.1446   -0.3594    0.6609 H   0  0  0  0  0  0  0  0  0  0  0  0
   -1.7226    1.3162    0.9500 H   0  0  0  0  0  0  0  0  0  0  0  0
    0.4250    1.1190    1.0131 C   0  0  0  0  0  0  0  0  0  0  0  0
    1.0143    0.4826    1.6763 H   0  0  0  0  0  0  0  0  0  0  0  0
    0.8288    2.1313    1.0060 H   0  0  0  0  0  0  0  0  0  0  0  0
    0.3724    0.5200   -0.4020 C   0  0  1  0  0  0  0  0  0  0  0  0
    0.2462    1.3278   -1.1231 H   0  0  0  0  0  0  0  0  0  0  0  0
    1.6465   -0.2733   -0.7371 C   0  0  0  0  0  0  0  0  0  0  0  0
    2.6793    0.3117   -1.0571 O   0  0  0  0  0  0  0  0  0  0  0  0
    1.5583   -1.6085   -0.7010 N   0  0  0  0  0  0  0  0  0  0  0  0
    0.6957   -2.0117   -0.3721 H   0  0  0  0  0  0  0  0  0  0  0  0
    2.6702   -2.5080   -0.9995 C   0  0  0  0  0  0  0  0  0  0  0  0
    3.4549   -2.3779   -0.2512 H   0  0  0  0  0  0  0  0  0  0  0  0
    2.3316   -3.5445   -0.9912 H   0  0  0  0  0  0  0  0  0  0  0  0
    3.0849   -2.2699   -1.9814 H   0  0  0  0  0  0  0  0  0  0  0  0
  5  6  2  0  0  0  0
  5  7  1  0  0  0  0
  2  3  1  0  0  0  0
  2  4  1  0  0  0  0
  2  5  1  0  0  0  0
  1  2  1  0  0  0  0
 19 20  2  0  0  0  0
 19 21  1  0  0  0  0
 17 18  1  0  0  0  0
 17 19  1  0  0  0  0
 14 15  1  0  0  0  0
 14 16  1  0  0  0  0
 14 17  1  0  0  0  0
 11 12  1  0  0  0  0
 11 13  1  0  0  0  0
 11 14  1  0  0  0  0
  8  9  1  0  0  0  0
  8 10  1  0  0  0  0
  8 11  1  0  0  0  0
  7  8  1  0  0  0  0
  7 17  1  0  0  0  0
 23 24  1  0  0  0  0
 23 25  1  0  0  0  0
 23 26  1  0  0  0  0
 21 22  1  0  0  0  0
 21 23  1  0  0  0  0
M  END
$$$$
default_name
  -OEChem-01062215323D

 26 26  0     1  0  0  0  0  0999 V2000
   -1.8446   -3.5060   -0.3010 H   0  0  0  0  0  0  0  0  0  0  0  0
   -2.0746   -2.4490   -0.4240 C   0  0  0  0  0  0  0  0  0  0  0  0
   -2.6906   -2.1160    0.4090 H   0  0  0  0  0  0  0  0  0  0  0  0
   -2.5986   -2.2980   -1.3650 H   0  0  0  0  0  0  0  0  0  0  0  0
   -0.7756   -1.6630   -0.4350 C   0  0  0  0  0  0  0  0  0  0  0  0
    0.2844   -2.2800   -0.4550 O   0  0  0  0  0  0  0  0  0  0  0  0
   -0.8246   -0.3180   -0.4350 N   0  0  0  0  0  0  0  0  0  0  0  0
   -2.0106    0.5080   -0.5910 C   0  0  0  0  0  0  0  0  0  0  0  0
   -2.9719    0.2724   -0.1315 H   0  0  0  0  0  0  0  0  0  0  0  0
   -2.0905    1.4093   -1.1978 H   0  0  0  0  0  0  0  0  0  0  0  0
   -0.9491    0.7004    0.4901 C   0  0  0  0  0  0  0  0  0  0  0  0
   -1.1446   -0.3594    0.6609 H   0  0  0  0  0  0  0  0  0  0  0  0
   -1.7226    1.3162    0.9500 H   0  0  0  0  0  0  0  0  0  0  0  0
    0.4250    1.1190    1.0131 C   0  0  0  0  0  0  0  0  0  0  0  0
    1.0143    0.4826    1.6763 H   0  0  0  0  0  0  0  0  0  0  0  0
    0.8288    2.1313    1.0060 H   0  0  0  0  0  0  0  0  0  0  0  0
    0.3724    0.5200   -0.4020 C   0  0  1  0  0  0  0  0  0  0  0  0
    0.2462    1.3278   -1.1231 H   0  0  0  0  0  0  0  0  0  0  0  0
    1.6465   -0.2733   -0.7371 C   0  0  0  0  0  0  0  0  0  0  0  0
    2.7374    0.2911   -0.7875 O   0  0  0  0  0  0  0  0  0  0  0  0
    1.4983   -1.5764   -1.0048 N   0  0  0  0  0  0  0  0  0  0  0  0
    0.5821   -1.9776   -0.8845 H   0  0  0  0  0  0  0  0  0  0  0  0
    2.6024   -2.4695   -1.3483 C   0  0  0  0  0  0  0  0  0  0  0  0
    3.2797   -2.5560   -0.4959 H   0  0  0  0  0  0  0  0  0  0  0  0
    2.2228   -3.4579   -1.6096 H   0  0  0  0  0  0  0  0  0  0  0  0
    3.1598   -2.0600   -2.1935 H   0  0  0  0  0  0  0  0  0  0  0  0
  5  6  2  0  0  0  0
  5  7  1  0  0  0  0
  2  3  1  0  0  0  0
  2  4  1  0  0  0  0
  2  5  1  0  0  0  0
  1  2  1  0  0  0  0
 19 20  2  0  0  0  0
 19 21  1  0  0  0  0
 17 18  1  0  0  0  0
 17 19  1  0  0  0  0
 14 15  1  0  0  0  0
 14 16  1  0  0  0  0
 14 17  1  0  0  0  0
 11 12  1  0  0  0  0
 11 13  1  0  0  0  0
 11 14  1  0  0  0  0
  8  9  1  0  0  0  0
  8 10  1  0  0  0  0
  8 11  1  0  0  0  0
  7  8  1  0  0  0  0
  7 17  1  0  0  0  0
 23 24  1  0  0  0  0
 23 25  1  0  0  0  0
 23 26  1  0  0  0  0
 21 22  1  0  0  0  0
 21 23  1  0  0  0  0
M  END
$$$$
default_name
  -OEChem-01062215323D

 26 26  0     1  0  0  0  0  0999 V2000
   -1.8446   -3.5060   -0.3010 H   0  0  0  0  0  0  0  0  0  0  0  0
   -2.0746   -2.4490   -0.4240 C   0  0  0  0  0  0  0  0  0  0  0  0
   -2.6906   -2.1160    0.4090 H   0  0  0  0  0  0  0  0  0  0  0  0
   -2.5986   -2.2980   -1.3650 H   0  0  0  0  0  0  0  0  0  0  0  0
   -0.7756   -1.6630   -0.4350 C   0  0  0  0  0  0  0  0  0  0  0  0
    0.2844   -2.2800   -0.4550 O   0  0  0  0  0  0  0  0  0  0  0  0
   -0.8246   -0.3180   -0.4350 N   0  0  0  0  0  0  0  0  0  0  0  0
   -2.0106    0.5080   -0.5910 C   0  0  0  0  0  0  0  0  0  0  0  0
   -2.9719    0.2724   -0.1315 H   0  0  0  0  0  0  0  0  0  0  0  0
   -2.0905    1.4093   -1.1978 H   0  0  0  0  0  0  0  0  0  0  0  0
   -0.9491    0.7004    0.4901 C   0  0  0  0  0  0  0  0  0  0  0  0
   -1.1446   -0.3594    0.6609 H   0  0  0  0  0  0  0  0  0  0  0  0
   -1.7226    1.3162    0.9500 H   0  0  0  0  0  0  0  0  0  0  0  0
    0.4250    1.1190    1.0131 C   0  0  0  0  0  0  0  0  0  0  0  0
    1.0143    0.4826    1.6763 H   0  0  0  0  0  0  0  0  0  0  0  0
    0.8288    2.1313    1.0060 H   0  0  0  0  0  0  0  0  0  0  0  0
    0.3724    0.5200   -0.4020 C   0  0  1  0  0  0  0  0  0  0  0  0
    0.2462    1.3278   -1.1231 H   0  0  0  0  0  0  0  0  0  0  0  0
    1.6465   -0.2733   -0.7371 C   0  0  0  0  0  0  0  0  0  0  0  0
    2.7564    0.2102   -0.5237 O   0  0  0  0  0  0  0  0  0  0  0  0
    1.4828   -1.4770   -1.2994 N   0  0  0  0  0  0  0  0  0  0  0  0
    0.5427   -1.8284   -1.3872 H   0  0  0  0  0  0  0  0  0  0  0  0
    2.5856   -2.3538   -1.6860 C   0  0  0  0  0  0  0  0  0  0  0  0
    3.1330   -2.6656   -0.7939 H   0  0  0  0  0  0  0  0  0  0  0  0
    2.2053   -3.2354   -2.2029 H   0  0  0  0  0  0  0  0  0  0  0  0
    3.2723   -1.8161   -2.3435 H   0  0  0  0  0  0  0  0  0  0  0  0
  5  6  2  0  0  0  0
  5  7  1  0  0  0  0
  2  3  1  0  0  0  0
  2  4  1  0  0  0  0
  2  5  1  0  0  0  0
  1  2  1  0  0  0  0
 19 20  2  0  0  0  0
 19 21  1  0  0  0  0
 17 18  1  0  0  0  0
 17 19  1  0  0  0  0
 14 15  1  0  0  0  0
 14 16  1  0  0  0  0
 14 17  1  0  0  0  0
 11 12  1  0  0  0  0
 11 13  1  0  0  0  0
 11 14  1  0  0  0  0
  8  9  1  0  0  0  0
  8 10  1  0  0  0  0
  8 11  1  0  0  0  0
  7  8  1  0  0  0  0
  7 17  1  0  0  0  0
 23 24  1  0  0  0  0
 23 25  1  0  0  0  0
 23 26  1  0  0  0  0
 21 22  1  0  0  0  0
 21 23  1  0  0  0  0
M  END
$$$$
default_name
  -OEChem-01062215323D

 26 26  0     1  0  0  0  0  0999 V2000
   -1.8446   -3.5060   -0.3010 H   0  0  0  0  0  0  0  0  0  0  0  0
   -2.0746   -2.4490   -0.4240 C   0  0  0  0  0  0  0  0  0  0  0  0
   -2.6906   -2.1160    0.4090 H   0  0  0  0  0  0  0  0  0  0  0  0
   -2.5986   -2.2980   -1.3650 H   0  0  0  0  0  0  0  0  0  0  0  0
   -0.7756   -1.6630   -0.4350 C   0  0  0  0  0  0  0  0  0  0  0  0
    0.2844   -2.2800   -0.4550 O   0  0  0  0  0  0  0  0  0  0  0  0
   -0.8246   -0.3180   -0.4350 N   0  0  0  0  0  0  0  0  0  0  0  0
   -2.0106    0.5080   -0.5910 C   0  0  0  0  0  0  0  0  0  0  0  0
   -2.9719    0.2724   -0.1315 H   0  0  0  0  0  0  0  0  0  0  0  0
   -2.0905    1.4093   -1.1978 H   0  0  0  0  0  0  0  0  0  0  0  0
   -0.9491    0.7004    0.4901 C   0  0  0  0  0  0  0  0  0  0  0  0
   -1.1446   -0.3594    0.6609 H   0  0  0  0  0  0  0  0  0  0  0  0
   -1.7226    1.3162    0.9500 H   0  0  0  0  0  0  0  0  0  0  0  0
    0.4250    1.1190    1.0131 C   0  0  0  0  0  0  0  0  0  0  0  0
    1.0143    0.4826    1.6763 H   0  0  0  0  0  0  0  0  0  0  0  0
    0.8288    2.1313    1.0060 H   0  0  0  0  0  0  0  0  0  0  0  0
    0.3724    0.5200   -0.4020 C   0  0  1  0  0  0  0  0  0  0  0  0
    0.2462    1.3278   -1.1231 H   0  0  0  0  0  0  0  0  0  0  0  0
    1.6465   -0.2733   -0.7371 C   0  0  0  0  0  0  0  0  0  0  0  0
    2.7350    0.0744   -0.2837 O   0  0  0  0  0  0  0  0  0  0  0  0
    1.5127   -1.3169   -1.5647 N   0  0  0  0  0  0  0  0  0  0  0  0
    0.5803   -1.5743   -1.8461 H   0  0  0  0  0  0  0  0  0  0  0  0
    2.6210   -2.1686   -1.9897 C   0  0  0  0  0  0  0  0  0  0  0  0
    3.0249   -2.6993   -1.1249 H   0  0  0  0  0  0  0  0  0  0  0  0
    2.2801   -2.8923   -2.7307 H   0  0  0  0  0  0  0  0  0  0  0  0
    3.4147   -1.5546   -2.4210 H   0  0  0  0  0  0  0  0  0  0  0  0
  5  6  2  0  0  0  0
  5  7  1  0  0  0  0
  2  3  1  0  0  0  0
  2  4  1  0  0  0  0
  2  5  1  0  0  0  0
  1  2  1  0  0  0  0
 19 20  2  0  0  0  0
 19 21  1  0  0  0  0
 17 18  1  0  0  0  0
 17 19  1  0  0  0  0
 14 15  1  0  0  0  0
 14 16  1  0  0  0  0
 14 17  1  0  0  0  0
 11 12  1  0  0  0  0
 11 13  1  0  0  0  0
 11 14  1  0  0  0  0
  8  9  1  0  0  0  0
  8 10  1  0  0  0  0
  8 11  1  0  0  0  0
  7  8  1  0  0  0  0
  7 17  1  0  0  0  0
 23 24  1  0  0  0  0
 23 25  1  0  0  0  0
 23 26  1  0  0  0  0
 21 22  1  0  0  0  0
 21 23  1  0  0  0  0
M  END
$$$$
default_name
  -OEChem-01062215323D

 26 26  0     1  0  0  0  0  0999 V2000
   -1.8446   -3.5060   -0.3010 H   0  0  0  0  0  0  0  0  0  0  0  0
   -2.0746   -2.4490   -0.4240 C   0  0  0  0  0  0  0  0  0  0  0  0
   -2.6906   -2.1160    0.4090 H   0  0  0  0  0  0  0  0  0  0  0  0
   -2.5986   -2.2980   -1.3650 H   0  0  0  0  0  0  0  0  0  0  0  0
   -0.7756   -1.6630   -0.4350 C   0  0  0  0  0  0  0  0  0  0  0  0
    0.2844   -2.2800   -0.4550 O   0  0  0  0  0  0  0  0  0  0  0  0
   -0.8246   -0.3180   -0.4350 N   0  0  0  0  0  0  0  0  0  0  0  0
   -2.0106    0.5080   -0.5910 C   0  0  0  0  0  0  0  0  0  0  0  0
   -2.9719    0.2724   -0.1315 H   0  0  0  0  0  0  0  0  0  0  0  0
   -2.0905    1.4093   -1.1978 H   0  0  0  0  0  0  0  0  0  0  0  0
   -0.9491    0.7004    0.4901 C   0  0  0  0  0  0  0  0  0  0  0  0
   -1.1446   -0.3594    0.6609 H   0  0  0  0  0  0  0  0  0  0  0  0
   -1.7226    1.3162    0.9500 H   0  0  0  0  0  0  0  0  0  0  0  0
    0.4250    1.1190    1.0131 C   0  0  0  0  0  0  0  0  0  0  0  0
    1.0143    0.4826    1.6763 H   0  0  0  0  0  0  0  0  0  0  0  0
    0.8288    2.1313    1.0060 H   0  0  0  0  0  0  0  0  0  0  0  0
    0.3724    0.5200   -0.4020 C   0  0  1  0  0  0  0  0  0  0  0  0
    0.2462    1.3278   -1.1231 H   0  0  0  0  0  0  0  0  0  0  0  0
    1.6465   -0.2733   -0.7371 C   0  0  0  0  0  0  0  0  0  0  0  0
    2.6746   -0.1071   -0.0839 O   0  0  0  0  0  0  0  0  0  0  0  0
    1.5860   -1.1070   -1.7826 N   0  0  0  0  0  0  0  0  0  0  0  0
    0.6921   -1.2325   -2.2299 H   0  0  0  0  0  0  0  0  0  0  0  0
    2.7063   -1.9266   -2.2386 C   0  0  0  0  0  0  0  0  0  0  0  0
    2.9628   -2.6549   -1.4662 H   0  0  0  0  0  0  0  0  0  0  0  0
    2.4422   -2.4519   -3.1569 H   0  0  0  0  0  0  0  0  0  0  0  0
    3.5774   -1.2934   -2.4207 H   0  0  0  0  0  0  0  0  0  0  0  0
  5  6  2  0  0  0  0
  5  7  1  0  0  0  0
  2  3  1  0  0  0  0
  2  4  1  0  0  0  0
  2  5  1  0  0  0  0
  1  2  1  0  0  0  0
 19 20  2  0  0  0  0
 19 21  1  0  0  0  0
 17 18  1  0  0  0  0
 17 19  1  0  0  0  0
 14 15  1  0  0  0  0
 14 16  1  0  0  0  0
 14 17  1  0  0  0  0
 11 12  1  0  0  0  0
 11 13  1  0  0  0  0
 11 14  1  0  0  0  0
  8  9  1  0  0  0  0
  8 10  1  0  0  0  0
  8 11  1  0  0  0  0
  7  8  1  0  0  0  0
  7 17  1  0  0  0  0
 23 24  1  0  0  0  0
 23 25  1  0  0  0  0
 23 26  1  0  0  0  0
 21 22  1  0  0  0  0
 21 23  1  0  0  0  0
M  END
$$$$
default_name
  -OEChem-01062215323D

 26 26  0     1  0  0  0  0  0999 V2000
   -1.8446   -3.5060   -0.3010 H   0  0  0  0  0  0  0  0  0  0  0  0
   -2.0746   -2.4490   -0.4240 C   0  0  0  0  0  0  0  0  0  0  0  0
   -2.6906   -2.1160    0.4090 H   0  0  0  0  0  0  0  0  0  0  0  0
   -2.5986   -2.2980   -1.3650 H   0  0  0  0  0  0  0  0  0  0  0  0
   -0.7756   -1.6630   -0.4350 C   0  0  0  0  0  0  0  0  0  0  0  0
    0.2844   -2.2800   -0.4550 O   0  0  0  0  0  0  0  0  0  0  0  0
   -0.8246   -0.3180   -0.4350 N   0  0  0  0  0  0  0  0  0  0  0  0
   -2.0106    0.5080   -0.5910 C   0  0  0  0  0  0  0  0  0  0  0  0
   -2.9719    0.2724   -0.1315 H   0  0  0  0  0  0  0  0  0  0  0  0
   -2.0905    1.4093   -1.1978 H   0  0  0  0  0  0  0  0  0  0  0  0
   -0.9491    0.7004    0.4901 C   0  0  0  0  0  0  0  0  0  0  0  0
   -1.1446   -0.3594    0.6609 H   0  0  0  0  0  0  0  0  0  0  0  0
   -1.7226    1.3162    0.9500 H   0  0  0  0  0  0  0  0  0  0  0  0
    0.4250    1.1190    1.0131 C   0  0  0  0  0  0  0  0  0  0  0  0
    1.0143    0.4826    1.6763 H   0  0  0  0  0  0  0  0  0  0  0  0
    0.8288    2.1313    1.0060 H   0  0  0  0  0  0  0  0  0  0  0  0
    0.3724    0.5200   -0.4020 C   0  0  1  0  0  0  0  0  0  0  0  0
    0.2462    1.3278   -1.1231 H   0  0  0  0  0  0  0  0  0  0  0  0
    1.6465   -0.2733   -0.7371 C   0  0  0  0  0  0  0  0  0  0  0  0
    2.5793   -0.3218    0.0621 O   0  0  0  0  0  0  0  0  0  0  0  0
    1.6978   -0.8617   -1.9383 N   0  0  0  0  0  0  0  0  0  0  0  0
    0.8707   -0.8265   -2.5123 H   0  0  0  0  0  0  0  0  0  0  0  0
    2.8355   -1.6443   -2.4157 C   0  0  0  0  0  0  0  0  0  0  0  0
    2.9509   -2.5352   -1.7947 H   0  0  0  0  0  0  0  0  0  0  0  0
    2.6805   -1.9444   -3.4525 H   0  0  0  0  0  0  0  0  0  0  0  0
    3.7492   -1.0504   -2.3428 H   0  0  0  0  0  0  0  0  0  0  0  0
  5  6  2  0  0  0  0
  5  7  1  0  0  0  0
  2  3  1  0  0  0  0
  2  4  1  0  0  0  0
  2  5  1  0  0  0  0
  1  2  1  0  0  0  0
 19 20  2  0  0  0  0
 19 21  1  0  0  0  0
 17 18  1  0  0  0  0
 17 19  1  0  0  0  0
 14 15  1  0  0  0  0
 14 16  1  0  0  0  0
 14 17  1  0  0  0  0
 11 12  1  0  0  0  0
 11 13  1  0  0  0  0
 11 14  1  0  0  0  0
  8  9  1  0  0  0  0
  8 10  1  0  0  0  0
  8 11  1  0  0  0  0
  7  8  1  0  0  0  0
  7 17  1  0  0  0  0
 23 24  1  0  0  0  0
 23 25  1  0  0  0  0
 23 26  1  0  0  0  0
 21 22  1  0  0  0  0
 21 23  1  0  0  0  0
M  END
$$$$
default_name
  -OEChem-01062215323D

 26 26  0     1  0  0  0  0  0999 V2000
   -1.8446   -3.5060   -0.3010 H   0  0  0  0  0  0  0  0  0  0  0  0
   -2.0746   -2.4490   -0.4240 C   0  0  0  0  0  0  0  0  0  0  0  0
   -2.6906   -2.1160    0.4090 H   0  0  0  0  0  0  0  0  0  0  0  0
   -2.5986   -2.2980   -1.3650 H   0  0  0  0  0  0  0  0  0  0  0  0
   -0.7756   -1.6630   -0.4350 C   0  0  0  0  0  0  0  0  0  0  0  0
    0.2844   -2.2800   -0.4550 O   0  0  0  0  0  0  0  0  0  0  0  0
   -0.8246   -0.3180   -0.4350 N   0  0  0  0  0  0  0  0  0  0  0  0
   -2.0106    0.5080   -0.5910 C   0  0  0  0  0  0  0  0  0  0  0  0
   -2.9719    0.2724   -0.1315 H   0  0  0  0  0  0  0  0  0  0  0  0
   -2.0905    1.4093   -1.1978 H   0  0  0  0  0  0  0  0  0  0  0  0
   -0.9491    0.7004    0.4901 C   0  0  0  0  0  0  0  0  0  0  0  0
   -1.1446   -0.3594    0.6609 H   0  0  0  0  0  0  0  0  0  0  0  0
   -1.7226    1.3162    0.9500 H   0  0  0  0  0  0  0  0  0  0  0  0
    0.4250    1.1190    1.0131 C   0  0  0  0  0  0  0  0  0  0  0  0
    1.0143    0.4826    1.6763 H   0  0  0  0  0  0  0  0  0  0  0  0
    0.8288    2.1313    1.0060 H   0  0  0  0  0  0  0  0  0  0  0  0
    0.3724    0.5200   -0.4020 C   0  0  1  0  0  0  0  0  0  0  0  0
    0.2462    1.3278   -1.1231 H   0  0  0  0  0  0  0  0  0  0  0  0
    1.6465   -0.2733   -0.7371 C   0  0  0  0  0  0  0  0  0  0  0  0
    2.4557   -0.5551    0.1444 O   0  0  0  0  0  0  0  0  0  0  0  0
    1.8404   -0.5977   -2.0212 N   0  0  0  0  0  0  0  0  0  0  0  0
    1.1037   -0.3837   -2.6742 H   0  0  0  0  0  0  0  0  0  0  0  0
    2.9998   -1.3409   -2.5090 C   0  0  0  0  0  0  0  0  0  0  0  0
    2.9900   -2.3485   -2.0879 H   0  0  0  0  0  0  0  0  0  0  0  0
    2.9787   -1.4041   -3.5974 H   0  0  0  0  0  0  0  0  0  0  0  0
    3.9185   -0.8421   -2.1925 H   0  0  0  0  0  0  0  0  0  0  0  0
  5  6  2  0  0  0  0
  5  7  1  0  0  0  0
  2  3  1  0  0  0  0
  2  4  1  0  0  0  0
  2  5  1  0  0  0  0
  1  2  1  0  0  0  0
 19 20  2  0  0  0  0
 19 21  1  0  0  0  0
 17 18  1  0  0  0  0
 17 19  1  0  0  0  0
 14 15  1  0  0  0  0
 14 16  1  0  0  0  0
 14 17  1  0  0  0  0
 11 12  1  0  0  0  0
 11 13  1  0  0  0  0
 11 14  1  0  0  0  0
  8  9  1  0  0  0  0
  8 10  1  0  0  0  0
  8 11  1  0  0  0  0
  7  8  1  0  0  0  0
  7 17  1  0  0  0  0
 23 24  1  0  0  0  0
 23 25  1  0  0  0  0
 23 26  1  0  0  0  0
 21 22  1  0  0  0  0
 21 23  1  0  0  0  0
M  END
$$$$
default_name
  -OEChem-01062215323D

 26 26  0     1  0  0  0  0  0999 V2000
   -1.8446   -3.5060   -0.3010 H   0  0  0  0  0  0  0  0  0  0  0  0
   -2.0746   -2.4490   -0.4240 C   0  0  0  0  0  0  0  0  0  0  0  0
   -2.6906   -2.1160    0.4090 H   0  0  0  0  0  0  0  0  0  0  0  0
   -2.5986   -2.2980   -1.3650 H   0  0  0  0  0  0  0  0  0  0  0  0
   -0.7756   -1.6630   -0.4350 C   0  0  0  0  0  0  0  0  0  0  0  0
    0.2844   -2.2800   -0.4550 O   0  0  0  0  0  0  0  0  0  0  0  0
   -0.8246   -0.3180   -0.4350 N   0  0  0  0  0  0  0  0  0  0  0  0
   -2.0106    0.5080   -0.5910 C   0  0  0  0  0  0  0  0  0  0  0  0
   -2.9719    0.2724   -0.1315 H   0  0  0  0  0  0  0  0  0  0  0  0
   -2.0905    1.4093   -1.1978 H   0  0  0  0  0  0  0  0  0  0  0  0
   -0.9491    0.7004    0.4901 C   0  0  0  0  0  0  0  0  0  0  0  0
   -1.1446   -0.3594    0.6609 H   0  0  0  0  0  0  0  0  0  0  0  0
   -1.7226    1.3162    0.9500 H   0  0  0  0  0  0  0  0  0  0  0  0
    0.4250    1.1190    1.0131 C   0  0  0  0  0  0  0  0  0  0  0  0
    1.0143    0.4826    1.6763 H   0  0  0  0  0  0  0  0  0  0  0  0
    0.8288    2.1313    1.0060 H   0  0  0  0  0  0  0  0  0  0  0  0
    0.3724    0.5200   -0.4020 C   0  0  1  0  0  0  0  0  0  0  0  0
    0.2462    1.3278   -1.1231 H   0  0  0  0  0  0  0  0  0  0  0  0
    1.6465   -0.2733   -0.7371 C   0  0  0  0  0  0  0  0  0  0  0  0
    2.3121   -0.7911    0.1574 O   0  0  0  0  0  0  0  0  0  0  0  0
    2.0041   -0.3329   -2.0256 N   0  0  0  0  0  0  0  0  0  0  0  0
    1.3755    0.0655   -2.7046 H   0  0  0  0  0  0  0  0  0  0  0  0
    3.1882   -1.0371   -2.5121 C   0  0  0  0  0  0  0  0  0  0  0  0
    3.0775   -2.1075   -2.3258 H   0  0  0  0  0  0  0  0  0  0  0  0
    3.3167   -0.8681   -3.5817 H   0  0  0  0  0  0  0  0  0  0  0  0
    4.0737   -0.6826   -1.9800 H   0  0  0  0  0  0  0  0  0  0  0  0
  5  6  2  0  0  0  0
  5  7  1  0  0  0  0
  2  3  1  0  0  0  0
  2  4  1  0  0  0  0
  2  5  1  0  0  0  0
  1  2  1  0  0  0  0
 19 20  2  0  0  0  0
 19 21  1  0  0  0  0
 17 18  1  0  0  0  0
 17 19  1  0  0  0  0
 14 15  1  0  0  0  0
 14 16  1  0  0  0  0
 14 17  1  0  0  0  0
 11 12  1  0  0  0  0
 11 13  1  0  0  0  0
 11 14  1  0  0  0  0
  8  9  1  0  0  0  0
  8 10  1  0  0  0  0
  8 11  1  0  0  0  0
  7  8  1  0  0  0  0
  7 17  1  0  0  0  0
 23 24  1  0  0  0  0
 23 25  1  0  0  0  0
 23 26  1  0  0  0  0
 21 22  1  0  0  0  0
 21 23  1  0  0  0  0
M  END
$$$$
default_name
  -OEChem-01062215323D

 26 26  0     1  0  0  0  0  0999 V2000
   -1.8446   -3.5060   -0.3010 H   0  0  0  0  0  0  0  0  0  0  0  0
   -2.0746   -2.4490   -0.4240 C   0  0  0  0  0  0  0  0  0  0  0  0
   -2.6906   -2.1160    0.4090 H   0  0  0  0  0  0  0  0  0  0  0  0
   -2.5986   -2.2980   -1.3650 H   0  0  0  0  0  0  0  0  0  0  0  0
   -0.7756   -1.6630   -0.4350 C   0  0  0  0  0  0  0  0  0  0  0  0
    0.2844   -2.2800   -0.4550 O   0  0  0  0  0  0  0  0  0  0  0  0
   -0.8246   -0.3180   -0.4350 N   0  0  0  0  0  0  0  0  0  0  0  0
   -2.0106    0.5080   -0.5910 C   0  0  0  0  0  0  0  0  0  0  0  0
   -2.9719    0.2724   -0.1315 H   0  0  0  0  0  0  0  0  0  0  0  0
   -2.0905    1.4093   -1.1978 H   0  0  0  0  0  0  0  0  0  0  0  0
   -0.9491    0.7004    0.4901 C   0  0  0  0  0  0  0  0  0  0  0  0
   -1.1446   -0.3594    0.6609 H   0  0  0  0  0  0  0  0  0  0  0  0
   -1.7226    1.3162    0.9500 H   0  0  0  0  0  0  0  0  0  0  0  0
    0.4250    1.1190    1.0131 C   0  0  0  0  0  0  0  0  0  0  0  0
    1.0143    0.4826    1.6763 H   0  0  0  0  0  0  0  0  0  0  0  0
    0.8288    2.1313    1.0060 H   0  0  0  0  0  0  0  0  0  0  0  0
    0.3724    0.5200   -0.4020 C   0  0  1  0  0  0  0  0  0  0  0  0
    0.2462    1.3278   -1.1231 H   0  0  0  0  0  0  0  0  0  0  0  0
    1.6465   -0.2733   -0.7371 C   0  0  0  0  0  0  0  0  0  0  0  0
    2.1584   -1.0138    0.1001 O   0  0  0  0  0  0  0  0  0  0  0  0
    2.1778   -0.0855   -1.9513 N   0  0  0  0  0  0  0  0  0  0  0  0
    1.6674    0.4906   -2.6013 H   0  0  0  0  0  0  0  0  0  0  0  0
    3.3876   -0.7536   -2.4248 C   0  0  0  0  0  0  0  0  0  0  0  0
    3.2074   -1.8287   -2.4923 H   0  0  0  0  0  0  0  0  0  0  0  0
    3.6712   -0.3727   -3.4064 H   0  0  0  0  0  0  0  0  0  0  0  0
    4.2042   -0.5829   -1.7199 H   0  0  0  0  0  0  0  0  0  0  0  0
  5  6  2  0  0  0  0
  5  7  1  0  0  0  0
  2  3  1  0  0  0  0
  2  4  1  0  0  0  0
  2  5  1  0  0  0  0
  1  2  1  0  0  0  0
 19 20  2  0  0  0  0
 19 21  1  0  0  0  0
 17 18  1  0  0  0  0
 17 19  1  0  0  0  0
 14 15  1  0  0  0  0
 14 16  1  0  0  0  0
 14 17  1  0  0  0  0
 11 12  1  0  0  0  0
 11 13  1  0  0  0  0
 11 14  1  0  0  0  0
  8  9  1  0  0  0  0
  8 10  1  0  0  0  0
  8 11  1  0  0  0  0
  7  8  1  0  0  0  0
  7 17  1  0  0  0  0
 23 24  1  0  0  0  0
 23 25  1  0  0  0  0
 23 26  1  0  0  0  0
 21 22  1  0  0  0  0
 21 23  1  0  0  0  0
M  END
$$$$
default_name
  -OEChem-01062215323D

 26 26  0     1  0  0  0  0  0999 V2000
   -1.8446   -3.5060   -0.3010 H   0  0  0  0  0  0  0  0  0  0  0  0
   -2.0746   -2.4490   -0.4240 C   0  0  0  0  0  0  0  0  0  0  0  0
   -2.6906   -2.1160    0.4090 H   0  0  0  0  0  0  0  0  0  0  0  0
   -2.5986   -2.2980   -1.3650 H   0  0  0  0  0  0  0  0  0  0  0  0
   -0.7756   -1.6630   -0.4350 C   0  0  0  0  0  0  0  0  0  0  0  0
    0.2844   -2.2800   -0.4550 O   0  0  0  0  0  0  0  0  0  0  0  0
   -0.8246   -0.3180   -0.4350 N   0  0  0  0  0  0  0  0  0  0  0  0
   -2.0106    0.5080   -0.5910 C   0  0  0  0  0  0  0  0  0  0  0  0
   -2.9719    0.2724   -0.1315 H   0  0  0  0  0  0  0  0  0  0  0  0
   -2.0905    1.4093   -1.1978 H   0  0  0  0  0  0  0  0  0  0  0  0
   -0.9491    0.7004    0.4901 C   0  0  0  0  0  0  0  0  0  0  0  0
   -1.1446   -0.3594    0.6609 H   0  0  0  0  0  0  0  0  0  0  0  0
   -1.7226    1.3162    0.9500 H   0  0  0  0  0  0  0  0  0  0  0  0
    0.4250    1.1190    1.0131 C   0  0  0  0  0  0  0  0  0  0  0  0
    1.0143    0.4826    1.6763 H   0  0  0  0  0  0  0  0  0  0  0  0
    0.8288    2.1313    1.0060 H   0  0  0  0  0  0  0  0  0  0  0  0
    0.3724    0.5200   -0.4020 C   0  0  1  0  0  0  0  0  0  0  0  0
    0.2462    1.3278   -1.1231 H   0  0  0  0  0  0  0  0  0  0  0  0
    1.6465   -0.2733   -0.7371 C   0  0  0  0  0  0  0  0  0  0  0  0
    2.0050   -1.2079   -0.0235 O   0  0  0  0  0  0  0  0  0  0  0  0
    2.3495    0.1278   -1.8032 N   0  0  0  0  0  0  0  0  0  0  0  0
    1.9595    0.8626   -2.3714 H   0  0  0  0  0  0  0  0  0  0  0  0
    3.5846   -0.5098   -2.2531 C   0  0  0  0  0  0  0  0  0  0  0  0
    3.3707   -1.5309   -2.5760 H   0  0  0  0  0  0  0  0  0  0  0  0
    4.0183    0.0482   -3.0836 H   0  0  0  0  0  0  0  0  0  0  0  0
    4.3012   -0.5498   -1.4298 H   0  0  0  0  0  0  0  0  0  0  0  0
  5  6  2  0  0  0  0
  5  7  1  0  0  0  0
  2  3  1  0  0  0  0
  2  4  1  0  0  0  0
  2  5  1  0  0  0  0
  1  2  1  0  0  0  0
 19 20  2  0  0  0  0
 19 21  1  0  0  0  0
 17 18  1  0  0  0  0
 17 19  1  0  0  0  0
 14 15  1  0  0  0  0
 14 16  1  0  0  0  0
 14 17  1  0  0  0  0
 11 12  1  0  0  0  0
 11 13  1  0  0  0  0
 11 14  1  0  0  0  0
  8  9  1  0  0  0  0
  8 10  1  0  0  0  0
  8 11  1  0  0  0  0
  7  8  1  0  0  0  0
  7 17  1  0  0  0  0
 23 24  1  0  0  0  0
 23 25  1  0  0  0  0
 23 26  1  0  0  0  0
 21 22  1  0  0  0  0
 21 23  1  0  0  0  0
M  END
$$$$
default_name
  -OEChem-01062215323D

 26 26  0     1  0  0  0  0  0999 V2000
   -1.8446   -3.5060   -0.3010 H   0  0  0  0  0  0  0  0  0  0  0  0
   -2.0746   -2.4490   -0.4240 C   0  0  0  0  0  0  0  0  0  0  0  0
   -2.6906   -2.1160    0.4090 H   0  0  0  0  0  0  0  0  0  0  0  0
   -2.5986   -2.2980   -1.3650 H   0  0  0  0  0  0  0  0  0  0  0  0
   -0.7756   -1.6630   -0.4350 C   0  0  0  0  0  0  0  0  0  0  0  0
    0.2844   -2.2800   -0.4550 O   0  0  0  0  0  0  0  0  0  0  0  0
   -0.8246   -0.3180   -0.4350 N   0  0  0  0  0  0  0  0  0  0  0  0
   -2.0106    0.5080   -0.5910 C   0  0  0  0  0  0  0  0  0  0  0  0
   -2.9719    0.2724   -0.1315 H   0  0  0  0  0  0  0  0  0  0  0  0
   -2.0905    1.4093   -1.1978 H   0  0  0  0  0  0  0  0  0  0  0  0
   -0.9491    0.7004    0.4901 C   0  0  0  0  0  0  0  0  0  0  0  0
   -1.1446   -0.3594    0.6609 H   0  0  0  0  0  0  0  0  0  0  0  0
   -1.7226    1.3162    0.9500 H   0  0  0  0  0  0  0  0  0  0  0  0
    0.4250    1.1190    1.0131 C   0  0  0  0  0  0  0  0  0  0  0  0
    1.0143    0.4826    1.6763 H   0  0  0  0  0  0  0  0  0  0  0  0
    0.8288    2.1313    1.0060 H   0  0  0  0  0  0  0  0  0  0  0  0
    0.3724    0.5200   -0.4020 C   0  0  1  0  0  0  0  0  0  0  0  0
    0.2462    1.3278   -1.1231 H   0  0  0  0  0  0  0  0  0  0  0  0
    1.6465   -0.2733   -0.7371 C   0  0  0  0  0  0  0  0  0  0  0  0
    1.8624   -1.3603   -0.2049 O   0  0  0  0  0  0  0  0  0  0  0  0
    2.5077    0.2924   -1.5915 N   0  0  0  0  0  0  0  0  0  0  0  0
    2.2319    1.1561   -2.0306 H   0  0  0  0  0  0  0  0  0  0  0  0
    3.7658   -0.3222   -2.0087 C   0  0  0  0  0  0  0  0  0  0  0  0
    3.5565   -1.2346   -2.5712 H   0  0  0  0  0  0  0  0  0  0  0  0
    4.3341    0.3660   -2.6352 H   0  0  0  0  0  0  0  0  0  0  0  0
    4.3580   -0.5854   -1.1295 H   0  0  0  0  0  0  0  0  0  0  0  0
  5  6  2  0  0  0  0
  5  7  1  0  0  0  0
  2  3  1  0  0  0  0
  2  4  1  0  0  0  0
  2  5  1  0  0  0  0
  1  2  1  0  0  0  0
 19 20  2  0  0  0  0
 19 21  1  0  0  0  0
 17 18  1  0  0  0  0
 17 19  1  0  0  0  0
 14 15  1  0  0  0  0
 14 16  1  0  0  0  0
 14 17  1  0  0  0  0
 11 12  1  0  0  0  0
 11 13  1  0  0  0  0
 11 14  1  0  0  0  0
  8  9  1  0  0  0  0
  8 10  1  0  0  0  0
  8 11  1  0  0  0  0
  7  8  1  0  0  0  0
  7 17  1  0  0  0  0
 23 24  1  0  0  0  0
 23 25  1  0  0  0  0
 23 26  1  0  0  0  0
 21 22  1  0  0  0  0
 21 23  1  0  0  0  0
M  END
$$$$
default_name
  -OEChem-01062215323D

 26 26  0     1  0  0  0  0  0999 V2000
   -1.8446   -3.5060   -0.3010 H   0  0  0  0  0  0  0  0  0  0  0  0
   -2.0746   -2.4490   -0.4240 C   0  0  0  0  0  0  0  0  0  0  0  0
   -2.6906   -2.1160    0.4090 H   0  0  0  0  0  0  0  0  0  0  0  0
   -2.5986   -2.2980   -1.3650 H   0  0  0  0  0  0  0  0  0  0  0  0
   -0.7756   -1.6630   -0.4350 C   0  0  0  0  0  0  0  0  0  0  0  0
    0.2844   -2.2800   -0.4550 O   0  0  0  0  0  0  0  0  0  0  0  0
   -0.8246   -0.3180   -0.4350 N   0  0  0  0  0  0  0  0  0  0  0  0
   -2.0106    0.5080   -0.5910 C   0  0  0  0  0  0  0  0  0  0  0  0
   -2.9719    0.2724   -0.1315 H   0  0  0  0  0  0  0  0  0  0  0  0
   -2.0905    1.4093   -1.1978 H   0  0  0  0  0  0  0  0  0  0  0  0
   -0.9491    0.7004    0.4901 C   0  0  0  0  0  0  0  0  0  0  0  0
   -1.1446   -0.3594    0.6609 H   0  0  0  0  0  0  0  0  0  0  0  0
   -1.7226    1.3162    0.9500 H   0  0  0  0  0  0  0  0  0  0  0  0
    0.4250    1.1190    1.0131 C   0  0  0  0  0  0  0  0  0  0  0  0
    1.0143    0.4826    1.6763 H   0  0  0  0  0  0  0  0  0  0  0  0
    0.8288    2.1313    1.0060 H   0  0  0  0  0  0  0  0  0  0  0  0
    0.3724    0.5200   -0.4020 C   0  0  1  0  0  0  0  0  0  0  0  0
    0.2462    1.3278   -1.1231 H   0  0  0  0  0  0  0  0  0  0  0  0
    1.6465   -0.2733   -0.7371 C   0  0  0  0  0  0  0  0  0  0  0  0
    1.7403   -1.4605   -0.4319 O   0  0  0  0  0  0  0  0  0  0  0  0
    2.6415    0.3970   -1.3306 N   0  0  0  0  0  0  0  0  0  0  0  0
    2.4661    1.3512   -1.6020 H   0  0  0  0  0  0  0  0  0  0  0  0
    3.9187   -0.2036   -1.7081 C   0  0  0  0  0  0  0  0  0  0  0  0
    3.7520   -0.9599   -2.4782 H   0  0  0  0  0  0  0  0  0  0  0  0
    4.5972    0.5590   -2.0917 H   0  0  0  0  0  0  0  0  0  0  0  0
    4.3707   -0.6874   -0.8395 H   0  0  0  0  0  0  0  0  0  0  0  0
  5  6  2  0  0  0  0
  5  7  1  0  0  0  0
  2  3  1  0  0  0  0
  2  4  1  0  0  0  0
  2  5  1  0  0  0  0
  1  2  1  0  0  0  0
 19 20  2  0  0  0  0
 19 21  1  0  0  0  0
 17 18  1  0  0  0  0
 17 19  1  0  0  0  0
 14 15  1  0  0  0  0
 14 16  1  0  0  0  0
 14 17  1  0  0  0  0
 11 12  1  0  0  0  0
 11 13  1  0  0  0  0
 11 14  1  0  0  0  0
  8  9  1  0  0  0  0
  8 10  1  0  0  0  0
  8 11  1  0  0  0  0
  7  8  1  0  0  0  0
  7 17  1  0  0  0  0
 23 24  1  0  0  0  0
 23 25  1  0  0  0  0
 23 26  1  0  0  0  0
 21 22  1  0  0  0  0
 21 23  1  0  0  0  0
M  END
$$$$
default_name
  -OEChem-01062215323D

 26 26  0     1  0  0  0  0  0999 V2000
   -1.8446   -3.5060   -0.3010 H   0  0  0  0  0  0  0  0  0  0  0  0
   -2.0746   -2.4490   -0.4240 C   0  0  0  0  0  0  0  0  0  0  0  0
   -2.6906   -2.1160    0.4090 H   0  0  0  0  0  0  0  0  0  0  0  0
   -2.5986   -2.2980   -1.3650 H   0  0  0  0  0  0  0  0  0  0  0  0
   -0.7756   -1.6630   -0.4350 C   0  0  0  0  0  0  0  0  0  0  0  0
    0.2844   -2.2800   -0.4550 O   0  0  0  0  0  0  0  0  0  0  0  0
   -0.8246   -0.3180   -0.4350 N   0  0  0  0  0  0  0  0  0  0  0  0
   -2.0106    0.5080   -0.5910 C   0  0  0  0  0  0  0  0  0  0  0  0
   -2.9719    0.2724   -0.1315 H   0  0  0  0  0  0  0  0  0  0  0  0
   -2.0905    1.4093   -1.1978 H   0  0  0  0  0  0  0  0  0  0  0  0
   -0.9491    0.7004    0.4901 C   0  0  0  0  0  0  0  0  0  0  0  0
   -1.1446   -0.3594    0.6609 H   0  0  0  0  0  0  0  0  0  0  0  0
   -1.7226    1.3162    0.9500 H   0  0  0  0  0  0  0  0  0  0  0  0
    0.4250    1.1190    1.0131 C   0  0  0  0  0  0  0  0  0  0  0  0
    1.0143    0.4826    1.6763 H   0  0  0  0  0  0  0  0  0  0  0  0
    0.8288    2.1313    1.0060 H   0  0  0  0  0  0  0  0  0  0  0  0
    0.3724    0.5200   -0.4020 C   0  0  1  0  0  0  0  0  0  0  0  0
    0.2462    1.3278   -1.1231 H   0  0  0  0  0  0  0  0  0  0  0  0
    1.6465   -0.2733   -0.7371 C   0  0  0  0  0  0  0  0  0  0  0  0
    1.6469   -1.5018   -0.6890 O   0  0  0  0  0  0  0  0  0  0  0  0
    2.7418    0.4346   -1.0383 N   0  0  0  0  0  0  0  0  0  0  0  0
    2.6462    1.4346   -1.1150 H   0  0  0  0  0  0  0  0  0  0  0  0
    4.0329   -0.1621   -1.3720 C   0  0  0  0  0  0  0  0  0  0  0  0
    3.9440   -0.7255   -2.3033 H   0  0  0  0  0  0  0  0  0  0  0  0
    4.7897    0.6140   -1.4903 H   0  0  0  0  0  0  0  0  0  0  0  0
    4.3386   -0.8488   -0.5796 H   0  0  0  0  0  0  0  0  0  0  0  0
  5  6  2  0  0  0  0
  5  7  1  0  0  0  0
  2  3  1  0  0  0  0
  2  4  1  0  0  0  0
  2  5  1  0  0  0  0
  1  2  1  0  0  0  0
 19 20  2  0  0  0  0
 19 21  1  0  0  0  0
 17 18  1  0  0  0  0
 17 19  1  0  0  0  0
 14 15  1  0  0  0  0
 14 16  1  0  0  0  0
 14 17  1  0  0  0  0
 11 12  1  0  0  0  0
 11 13  1  0  0  0  0
 11 14  1  0  0  0  0
  8  9  1  0  0  0  0
  8 10  1  0  0  0  0
  8 11  1  0  0  0  0
  7  8  1  0  0  0  0
  7 17  1  0  0  0  0
 23 24  1  0  0  0  0
 23 25  1  0  0  0  0
 23 26  1  0  0  0  0
 21 22  1  0  0  0  0
 21 23  1  0  0  0  0
M  END
$$$$
default_name
  -OEChem-01062215323D

 26 26  0     1  0  0  0  0  0999 V2000
   -1.8446   -3.5060   -0.3010 H   0  0  0  0  0  0  0  0  0  0  0  0
   -2.0746   -2.4490   -0.4240 C   0  0  0  0  0  0  0  0  0  0  0  0
   -2.6906   -2.1160    0.4090 H   0  0  0  0  0  0  0  0  0  0  0  0
   -2.5986   -2.2980   -1.3650 H   0  0  0  0  0  0  0  0  0  0  0  0
   -0.7756   -1.6630   -0.4350 C   0  0  0  0  0  0  0  0  0  0  0  0
    0.2844   -2.2800   -0.4550 O   0  0  0  0  0  0  0  0  0  0  0  0
   -0.8246   -0.3180   -0.4350 N   0  0  0  0  0  0  0  0  0  0  0  0
   -2.0106    0.5080   -0.5910 C   0  0  0  0  0  0  0  0  0  0  0  0
   -2.9719    0.2724   -0.1315 H   0  0  0  0  0  0  0  0  0  0  0  0
   -2.0905    1.4093   -1.1978 H   0  0  0  0  0  0  0  0  0  0  0  0
   -0.9491    0.7004    0.4901 C   0  0  0  0  0  0  0  0  0  0  0  0
   -1.1446   -0.3594    0.6609 H   0  0  0  0  0  0  0  0  0  0  0  0
   -1.7226    1.3162    0.9500 H   0  0  0  0  0  0  0  0  0  0  0  0
    0.4250    1.1190    1.0131 C   0  0  0  0  0  0  0  0  0  0  0  0
    1.0143    0.4826    1.6763 H   0  0  0  0  0  0  0  0  0  0  0  0
    0.8288    2.1313    1.0060 H   0  0  0  0  0  0  0  0  0  0  0  0
    0.3724    0.5200   -0.4020 C   0  0  1  0  0  0  0  0  0  0  0  0
    0.2462    1.3278   -1.1231 H   0  0  0  0  0  0  0  0  0  0  0  0
    1.6465   -0.2733   -0.7371 C   0  0  0  0  0  0  0  0  0  0  0  0
    1.5888   -1.4812   -0.9586 O   0  0  0  0  0  0  0  0  0  0  0  0
    2.8018    0.4026   -0.7345 N   0  0  0  0  0  0  0  0  0  0  0  0
    2.7597    1.4005   -0.6027 H   0  0  0  0  0  0  0  0  0  0  0  0
    4.1008   -0.2006   -1.0232 C   0  0  0  0  0  0  0  0  0  0  0  0
    4.1193   -0.5474   -2.0586 H   0  0  0  0  0  0  0  0  0  0  0  0
    4.8985    0.5273   -0.8718 H   0  0  0  0  0  0  0  0  0  0  0  0
    4.2637   -1.0587   -0.3674 H   0  0  0  0  0  0  0  0  0  0  0  0
  5  6  2  0  0  0  0
  5  7  1  0  0  0  0
  2  3  1  0  0  0  0
  2  4  1  0  0  0  0
  2  5  1  0  0  0  0
  1  2  1  0  0  0  0
 19 20  2  0  0  0  0
 19 21  1  0  0  0  0
 17 18  1  0  0  0  0
 17 19  1  0  0  0  0
 14 15  1  0  0  0  0
 14 16  1  0  0  0  0
 14 17  1  0  0  0  0
 11 12  1  0  0  0  0
 11 13  1  0  0  0  0
 11 14  1  0  0  0  0
  8  9  1  0  0  0  0
  8 10  1  0  0  0  0
  8 11  1  0  0  0  0
  7  8  1  0  0  0  0
  7 17  1  0  0  0  0
 23 24  1  0  0  0  0
 23 25  1  0  0  0  0
 23 26  1  0  0  0  0
 21 22  1  0  0  0  0
 21 23  1  0  0  0  0
M  END
$$$$
default_name
  -OEChem-01062215323D

 26 26  0     1  0  0  0  0  0999 V2000
   -1.8446   -3.5060   -0.3010 H   0  0  0  0  0  0  0  0  0  0  0  0
   -2.0746   -2.4490   -0.4240 C   0  0  0  0  0  0  0  0  0  0  0  0
   -2.6906   -2.1160    0.4090 H   0  0  0  0  0  0  0  0  0  0  0  0
   -2.5986   -2.2980   -1.3650 H   0  0  0  0  0  0  0  0  0  0  0  0
   -0.7756   -1.6630   -0.4350 C   0  0  0  0  0  0  0  0  0  0  0  0
    0.2844   -2.2800   -0.4550 O   0  0  0  0  0  0  0  0  0  0  0  0
   -0.8246   -0.3180   -0.4350 N   0  0  0  0  0  0  0  0  0  0  0  0
   -2.0106    0.5080   -0.5910 C   0  0  0  0  0  0  0  0  0  0  0  0
   -2.9719    0.2724   -0.1315 H   0  0  0  0  0  0  0  0  0  0  0  0
   -2.0905    1.4093   -1.1978 H   0  0  0  0  0  0  0  0  0  0  0  0
   -0.9491    0.7004    0.4901 C   0  0  0  0  0  0  0  0  0  0  0  0
   -1.1446   -0.3594    0.6609 H   0  0  0  0  0  0  0  0  0  0  0  0
   -1.7226    1.3162    0.9500 H   0  0  0  0  0  0  0  0  0  0  0  0
    0.4250    1.1190    1.0131 C   0  0  0  0  0  0  0  0  0  0  0  0
    1.0143    0.4826    1.6763 H   0  0  0  0  0  0  0  0  0  0  0  0
    0.8288    2.1313    1.0060 H   0  0  0  0  0  0  0  0  0  0  0  0
    0.3724    0.5200   -0.4020 C   0  0  1  0  0  0  0  0  0  0  0  0
    0.2462    1.3278   -1.1231 H   0  0  0  0  0  0  0  0  0  0  0  0
    1.6465   -0.2733   -0.7371 C   0  0  0  0  0  0  0  0  0  0  0  0
    1.5698   -1.4003   -1.2224 O   0  0  0  0  0  0  0  0  0  0  0  0
    2.8173    0.3031   -0.4399 N   0  0  0  0  0  0  0  0  0  0  0  0
    2.7991    1.2513   -0.0999 H   0  0  0  0  0  0  0  0  0  0  0  0
    4.1175   -0.3164   -0.6854 C   0  0  0  0  0  0  0  0  0  0  0  0
    4.2659   -0.4378   -1.7606 H   0  0  0  0  0  0  0  0  0  0  0  0
    4.9160    0.3048   -0.2785 H   0  0  0  0  0  0  0  0  0  0  0  0
    4.1513   -1.3027   -0.2175 H   0  0  0  0  0  0  0  0  0  0  0  0
  5  6  2  0  0  0  0
  5  7  1  0  0  0  0
  2  3  1  0  0  0  0
  2  4  1  0  0  0  0
  2  5  1  0  0  0  0
  1  2  1  0  0  0  0
 19 20  2  0  0  0  0
 19 21  1  0  0  0  0
 17 18  1  0  0  0  0
 17 19  1  0  0  0  0
 14 15  1  0  0  0  0
 14 16  1  0  0  0  0
 14 17  1  0  0  0  0
 11 12  1  0  0  0  0
 11 13  1  0  0  0  0
 11 14  1  0  0  0  0
  8  9  1  0  0  0  0
  8 10  1  0  0  0  0
  8 11  1  0  0  0  0
  7  8  1  0  0  0  0
  7 17  1  0  0  0  0
 23 24  1  0  0  0  0
 23 25  1  0  0  0  0
 23 26  1  0  0  0  0
 21 22  1  0  0  0  0
 21 23  1  0  0  0  0
M  END
$$$$
default_name
  -OEChem-01062215323D

 26 26  0     1  0  0  0  0  0999 V2000
   -1.8446   -3.5060   -0.3010 H   0  0  0  0  0  0  0  0  0  0  0  0
   -2.0746   -2.4490   -0.4240 C   0  0  0  0  0  0  0  0  0  0  0  0
   -2.6906   -2.1160    0.4090 H   0  0  0  0  0  0  0  0  0  0  0  0
   -2.5986   -2.2980   -1.3650 H   0  0  0  0  0  0  0  0  0  0  0  0
   -0.7756   -1.6630   -0.4350 C   0  0  0  0  0  0  0  0  0  0  0  0
    0.2844   -2.2800   -0.4550 O   0  0  0  0  0  0  0  0  0  0  0  0
   -0.8246   -0.3180   -0.4350 N   0  0  0  0  0  0  0  0  0  0  0  0
   -2.0106    0.5080   -0.5910 C   0  0  0  0  0  0  0  0  0  0  0  0
   -2.9719    0.2724   -0.1315 H   0  0  0  0  0  0  0  0  0  0  0  0
   -2.0905    1.4093   -1.1978 H   0  0  0  0  0  0  0  0  0  0  0  0
   -0.9491    0.7004    0.4901 C   0  0  0  0  0  0  0  0  0  0  0  0
   -1.1446   -0.3594    0.6609 H   0  0  0  0  0  0  0  0  0  0  0  0
   -1.7226    1.3162    0.9500 H   0  0  0  0  0  0  0  0  0  0  0  0
    0.4250    1.1190    1.0131 C   0  0  0  0  0  0  0  0  0  0  0  0
    1.0143    0.4826    1.6763 H   0  0  0  0  0  0  0  0  0  0  0  0
    0.8288    2.1313    1.0060 H   0  0  0  0  0  0  0  0  0  0  0  0
    0.3724    0.5200   -0.4020 C   0  0  1  0  0  0  0  0  0  0  0  0
    0.2462    1.3278   -1.1231 H   0  0  0  0  0  0  0  0  0  0  0  0
    1.6465   -0.2733   -0.7371 C   0  0  0  0  0  0  0  0  0  0  0  0
    1.5913   -1.2645   -1.4624 O   0  0  0  0  0  0  0  0  0  0  0  0
    2.7874    0.1430   -0.1746 N   0  0  0  0  0  0  0  0  0  0  0  0
    2.7616    0.9972    0.3590 H   0  0  0  0  0  0  0  0  0  0  0  0
    4.0821   -0.5016   -0.3818 C   0  0  0  0  0  0  0  0  0  0  0  0
    4.3740   -0.4041   -1.4296 H   0  0  0  0  0  0  0  0  0  0  0  0
    4.8412   -0.0383    0.2492 H   0  0  0  0  0  0  0  0  0  0  0  0
    4.0088   -1.5642   -0.1400 H   0  0  0  0  0  0  0  0  0  0  0  0
  5  6  2  0  0  0  0
  5  7  1  0  0  0  0
  2  3  1  0  0  0  0
  2  4  1  0  0  0  0
  2  5  1  0  0  0  0
  1  2  1  0  0  0  0
 19 20  2  0  0  0  0
 19 21  1  0  0  0  0
 17 18  1  0  0  0  0
 17 19  1  0  0  0  0
 14 15  1  0  0  0  0
 14 16  1  0  0  0  0
 14 17  1  0  0  0  0
 11 12  1  0  0  0  0
 11 13  1  0  0  0  0
 11 14  1  0  0  0  0
  8  9  1  0  0  0  0
  8 10  1  0  0  0  0
  8 11  1  0  0  0  0
  7  8  1  0  0  0  0
  7 17  1  0  0  0  0
 23 24  1  0  0  0  0
 23 25  1  0  0  0  0
 23 26  1  0  0  0  0
 21 22  1  0  0  0  0
 21 23  1  0  0  0  0
M  END
$$$$
default_name
  -OEChem-01062215323D

 26 26  0     1  0  0  0  0  0999 V2000
   -1.8446   -3.5060   -0.3010 H   0  0  0  0  0  0  0  0  0  0  0  0
   -2.0746   -2.4490   -0.4240 C   0  0  0  0  0  0  0  0  0  0  0  0
   -2.6906   -2.1160    0.4090 H   0  0  0  0  0  0  0  0  0  0  0  0
   -2.5986   -2.2980   -1.3650 H   0  0  0  0  0  0  0  0  0  0  0  0
   -0.7756   -1.6630   -0.4350 C   0  0  0  0  0  0  0  0  0  0  0  0
    0.2844   -2.2800   -0.4550 O   0  0  0  0  0  0  0  0  0  0  0  0
   -0.8246   -0.3180   -0.4350 N   0  0  0  0  0  0  0  0  0  0  0  0
   -2.0106    0.5080   -0.5910 C   0  0  0  0  0  0  0  0  0  0  0  0
   -2.9719    0.2724   -0.1315 H   0  0  0  0  0  0  0  0  0  0  0  0
   -2.0905    1.4093   -1.1978 H   0  0  0  0  0  0  0  0  0  0  0  0
   -0.9491    0.7004    0.4901 C   0  0  0  0  0  0  0  0  0  0  0  0
   -1.1446   -0.3594    0.6609 H   0  0  0  0  0  0  0  0  0  0  0  0
   -1.7226    1.3162    0.9500 H   0  0  0  0  0  0  0  0  0  0  0  0
    0.4250    1.1190    1.0131 C   0  0  0  0  0  0  0  0  0  0  0  0
    1.0143    0.4826    1.6763 H   0  0  0  0  0  0  0  0  0  0  0  0
    0.8288    2.1313    1.0060 H   0  0  0  0  0  0  0  0  0  0  0  0
    0.3724    0.5200   -0.4020 C   0  0  1  0  0  0  0  0  0  0  0  0
    0.2462    1.3278   -1.1231 H   0  0  0  0  0  0  0  0  0  0  0  0
    1.6465   -0.2733   -0.7371 C   0  0  0  0  0  0  0  0  0  0  0  0
    1.6517   -1.0830   -1.6622 O   0  0  0  0  0  0  0  0  0  0  0  0
    2.7141   -0.0668    0.0433 N   0  0  0  0  0  0  0  0  0  0  0  0
    2.6497    0.6554    0.7427 H   0  0  0  0  0  0  0  0  0  0  0  0
    3.9969   -0.7436   -0.1329 C   0  0  0  0  0  0  0  0  0  0  0  0
    4.4361   -0.4486   -1.0883 H   0  0  0  0  0  0  0  0  0  0  0  0
    4.6792   -0.4786    0.6754 H   0  0  0  0  0  0  0  0  0  0  0  0
    3.8462   -1.8253   -0.1402 H   0  0  0  0  0  0  0  0  0  0  0  0
  5  6  2  0  0  0  0
  5  7  1  0  0  0  0
  2  3  1  0  0  0  0
  2  4  1  0  0  0  0
  2  5  1  0  0  0  0
  1  2  1  0  0  0  0
 19 20  2  0  0  0  0
 19 21  1  0  0  0  0
 17 18  1  0  0  0  0
 17 19  1  0  0  0  0
 14 15  1  0  0  0  0
 14 16  1  0  0  0  0
 14 17  1  0  0  0  0
 11 12  1  0  0  0  0
 11 13  1  0  0  0  0
 11 14  1  0  0  0  0
  8  9  1  0  0  0  0
  8 10  1  0  0  0  0
  8 11  1  0  0  0  0
  7  8  1  0  0  0  0
  7 17  1  0  0  0  0
 23 24  1  0  0  0  0
 23 25  1  0  0  0  0
 23 26  1  0  0  0  0
 21 22  1  0  0  0  0
 21 23  1  0  0  0  0
M  END
$$$$
default_name
  -OEChem-01062215323D

 26 26  0     1  0  0  0  0  0999 V2000
   -1.8446   -3.5060   -0.3010 H   0  0  0  0  0  0  0  0  0  0  0  0
   -2.0746   -2.4490   -0.4240 C   0  0  0  0  0  0  0  0  0  0  0  0
   -2.6906   -2.1160    0.4090 H   0  0  0  0  0  0  0  0  0  0  0  0
   -2.5986   -2.2980   -1.3650 H   0  0  0  0  0  0  0  0  0  0  0  0
   -0.7756   -1.6630   -0.4350 C   0  0  0  0  0  0  0  0  0  0  0  0
    0.2844   -2.2800   -0.4550 O   0  0  0  0  0  0  0  0  0  0  0  0
   -0.8246   -0.3180   -0.4350 N   0  0  0  0  0  0  0  0  0  0  0  0
   -2.0106    0.5080   -0.5910 C   0  0  0  0  0  0  0  0  0  0  0  0
   -2.9719    0.2724   -0.1315 H   0  0  0  0  0  0  0  0  0  0  0  0
   -2.0905    1.4093   -1.1978 H   0  0  0  0  0  0  0  0  0  0  0  0
   -0.9491    0.7004    0.4901 C   0  0  0  0  0  0  0  0  0  0  0  0
   -1.1446   -0.3594    0.6609 H   0  0  0  0  0  0  0  0  0  0  0  0
   -1.7226    1.3162    0.9500 H   0  0  0  0  0  0  0  0  0  0  0  0
    0.4250    1.1190    1.0131 C   0  0  0  0  0  0  0  0  0  0  0  0
    1.0143    0.4826    1.6763 H   0  0  0  0  0  0  0  0  0  0  0  0
    0.8288    2.1313    1.0060 H   0  0  0  0  0  0  0  0  0  0  0  0
    0.3724    0.5200   -0.4020 C   0  0  1  0  0  0  0  0  0  0  0  0
    0.2462    1.3278   -1.1231 H   0  0  0  0  0  0  0  0  0  0  0  0
    1.6465   -0.2733   -0.7371 C   0  0  0  0  0  0  0  0  0  0  0  0
    1.7469   -0.8683   -1.8082 O   0  0  0  0  0  0  0  0  0  0  0  0
    2.6023   -0.3121    0.1991 N   0  0  0  0  0  0  0  0  0  0  0  0
    2.4712    0.2493    1.0252 H   0  0  0  0  0  0  0  0  0  0  0  0
    3.8677   -1.0259    0.0442 C   0  0  0  0  0  0  0  0  0  0  0  0
    4.4480   -0.5682   -0.7598 H   0  0  0  0  0  0  0  0  0  0  0  0
    4.4409   -0.9862    0.9710 H   0  0  0  0  0  0  0  0  0  0  0  0
    3.6743   -2.0683   -0.2181 H   0  0  0  0  0  0  0  0  0  0  0  0
  5  6  2  0  0  0  0
  5  7  1  0  0  0  0
  2  3  1  0  0  0  0
  2  4  1  0  0  0  0
  2  5  1  0  0  0  0
  1  2  1  0  0  0  0
 19 20  2  0  0  0  0
 19 21  1  0  0  0  0
 17 18  1  0  0  0  0
 17 19  1  0  0  0  0
 14 15  1  0  0  0  0
 14 16  1  0  0  0  0
 14 17  1  0  0  0  0
 11 12  1  0  0  0  0
 11 13  1  0  0  0  0
 11 14  1  0  0  0  0
  8  9  1  0  0  0  0
  8 10  1  0  0  0  0
  8 11  1  0  0  0  0
  7  8  1  0  0  0  0
  7 17  1  0  0  0  0
 23 24  1  0  0  0  0
 23 25  1  0  0  0  0
 23 26  1  0  0  0  0
 21 22  1  0  0  0  0
 21 23  1  0  0  0  0
M  END
$$$$
default_name
  -OEChem-01062215323D

 26 26  0     1  0  0  0  0  0999 V2000
   -1.8446   -3.5060   -0.3010 H   0  0  0  0  0  0  0  0  0  0  0  0
   -2.0746   -2.4490   -0.4240 C   0  0  0  0  0  0  0  0  0  0  0  0
   -2.6906   -2.1160    0.4090 H   0  0  0  0  0  0  0  0  0  0  0  0
   -2.5986   -2.2980   -1.3650 H   0  0  0  0  0  0  0  0  0  0  0  0
   -0.7756   -1.6630   -0.4350 C   0  0  0  0  0  0  0  0  0  0  0  0
    0.2844   -2.2800   -0.4550 O   0  0  0  0  0  0  0  0  0  0  0  0
   -0.8246   -0.3180   -0.4350 N   0  0  0  0  0  0  0  0  0  0  0  0
   -2.0106    0.5080   -0.5910 C   0  0  0  0  0  0  0  0  0  0  0  0
   -2.9719    0.2724   -0.1315 H   0  0  0  0  0  0  0  0  0  0  0  0
   -2.0905    1.4093   -1.1978 H   0  0  0  0  0  0  0  0  0  0  0  0
   -0.9491    0.7004    0.4901 C   0  0  0  0  0  0  0  0  0  0  0  0
   -1.1446   -0.3594    0.6609 H   0  0  0  0  0  0  0  0  0  0  0  0
   -1.7226    1.3162    0.9500 H   0  0  0  0  0  0  0  0  0  0  0  0
    0.4250    1.1190    1.0131 C   0  0  0  0  0  0  0  0  0  0  0  0
    1.0143    0.4826    1.6763 H   0  0  0  0  0  0  0  0  0  0  0  0
    0.8288    2.1313    1.0060 H   0  0  0  0  0  0  0  0  0  0  0  0
    0.3724    0.5200   -0.4020 C   0  0  1  0  0  0  0  0  0  0  0  0
    0.2462    1.3278   -1.1231 H   0  0  0  0  0  0  0  0  0  0  0  0
    1.6465   -0.2733   -0.7371 C   0  0  0  0  0  0  0  0  0  0  0  0
    1.8706   -0.6350   -1.8905 O   0  0  0  0  0  0  0  0  0  0  0  0
    2.4597   -0.5762    0.2820 N   0  0  0  0  0  0  0  0  0  0  0  0
    2.2381   -0.1934    1.1871 H   0  0  0  0  0  0  0  0  0  0  0  0
    3.7033   -1.3293    0.1375 C   0  0  0  0  0  0  0  0  0  0  0  0
    4.4089   -0.7549   -0.4666 H   0  0  0  0  0  0  0  0  0  0  0  0
    4.1426   -1.5264    1.1159 H   0  0  0  0  0  0  0  0  0  0  0  0
    3.5051   -2.2766   -0.3685 H   0  0  0  0  0  0  0  0  0  0  0  0
  5  6  2  0  0  0  0
  5  7  1  0  0  0  0
  2  3  1  0  0  0  0
  2  4  1  0  0  0  0
  2  5  1  0  0  0  0
  1  2  1  0  0  0  0
 19 20  2  0  0  0  0
 19 21  1  0  0  0  0
 17 18  1  0  0  0  0
 17 19  1  0  0  0  0
 14 15  1  0  0  0  0
 14 16  1  0  0  0  0
 14 17  1  0  0  0  0
 11 12  1  0  0  0  0
 11 13  1  0  0  0  0
 11 14  1  0  0  0  0
  8  9  1  0  0  0  0
  8 10  1  0  0  0  0
  8 11  1  0  0  0  0
  7  8  1  0  0  0  0
  7 17  1  0  0  0  0
 23 24  1  0  0  0  0
 23 25  1  0  0  0  0
 23 26  1  0  0  0  0
 21 22  1  0  0  0  0
 21 23  1  0  0  0  0
M  END
$$$$
default_name
  -OEChem-01062215323D

 26 26  0     1  0  0  0  0  0999 V2000
   -1.8446   -3.5060   -0.3010 H   0  0  0  0  0  0  0  0  0  0  0  0
   -2.0746   -2.4490   -0.4240 C   0  0  0  0  0  0  0  0  0  0  0  0
   -2.6906   -2.1160    0.4090 H   0  0  0  0  0  0  0  0  0  0  0  0
   -2.5986   -2.2980   -1.3650 H   0  0  0  0  0  0  0  0  0  0  0  0
   -0.7756   -1.6630   -0.4350 C   0  0  0  0  0  0  0  0  0  0  0  0
    0.2844   -2.2800   -0.4550 O   0  0  0  0  0  0  0  0  0  0  0  0
   -0.8246   -0.3180   -0.4350 N   0  0  0  0  0  0  0  0  0  0  0  0
   -2.0106    0.5080   -0.5910 C   0  0  0  0  0  0  0  0  0  0  0  0
   -2.9719    0.2724   -0.1315 H   0  0  0  0  0  0  0  0  0  0  0  0
   -2.0905    1.4093   -1.1978 H   0  0  0  0  0  0  0  0  0  0  0  0
   -0.9491    0.7004    0.4901 C   0  0  0  0  0  0  0  0  0  0  0  0
   -1.1446   -0.3594    0.6609 H   0  0  0  0  0  0  0  0  0  0  0  0
   -1.7226    1.3162    0.9500 H   0  0  0  0  0  0  0  0  0  0  0  0
    0.4250    1.1190    1.0131 C   0  0  0  0  0  0  0  0  0  0  0  0
    1.0143    0.4826    1.6763 H   0  0  0  0  0  0  0  0  0  0  0  0
    0.8288    2.1313    1.0060 H   0  0  0  0  0  0  0  0  0  0  0  0
    0.3724    0.5200   -0.4020 C   0  0  1  0  0  0  0  0  0  0  0  0
    0.2462    1.3278   -1.1231 H   0  0  0  0  0  0  0  0  0  0  0  0
    1.6465   -0.2733   -0.7371 C   0  0  0  0  0  0  0  0  0  0  0  0
    2.0141   -0.3990   -1.9035 O   0  0  0  0  0  0  0  0  0  0  0  0
    2.2960   -0.8409    0.2864 N   0  0  0  0  0  0  0  0  0  0  0  0
    1.9664   -0.6426    1.2174 H   0  0  0  0  0  0  0  0  0  0  0  0
    3.5150   -1.6330    0.1407 C   0  0  0  0  0  0  0  0  0  0  0  0
    4.3214   -0.9959   -0.2287 H   0  0  0  0  0  0  0  0  0  0  0  0
    3.8046   -2.0625    1.1002 H   0  0  0  0  0  0  0  0  0  0  0  0
    3.3499   -2.4361   -0.5810 H   0  0  0  0  0  0  0  0  0  0  0  0
  5  6  2  0  0  0  0
  5  7  1  0  0  0  0
  2  3  1  0  0  0  0
  2  4  1  0  0  0  0
  2  5  1  0  0  0  0
  1  2  1  0  0  0  0
 19 20  2  0  0  0  0
 19 21  1  0  0  0  0
 17 18  1  0  0  0  0
 17 19  1  0  0  0  0
 14 15  1  0  0  0  0
 14 16  1  0  0  0  0
 14 17  1  0  0  0  0
 11 12  1  0  0  0  0
 11 13  1  0  0  0  0
 11 14  1  0  0  0  0
  8  9  1  0  0  0  0
  8 10  1  0  0  0  0
  8 11  1  0  0  0  0
  7  8  1  0  0  0  0
  7 17  1  0  0  0  0
 23 24  1  0  0  0  0
 23 25  1  0  0  0  0
 23 26  1  0  0  0  0
 21 22  1  0  0  0  0
 21 23  1  0  0  0  0
M  END
$$$$
default_name
  -OEChem-01062215323D

 26 26  0     1  0  0  0  0  0999 V2000
   -1.8446   -3.5060   -0.3010 H   0  0  0  0  0  0  0  0  0  0  0  0
   -2.0746   -2.4490   -0.4240 C   0  0  0  0  0  0  0  0  0  0  0  0
   -2.6906   -2.1160    0.4090 H   0  0  0  0  0  0  0  0  0  0  0  0
   -2.5986   -2.2980   -1.3650 H   0  0  0  0  0  0  0  0  0  0  0  0
   -0.7756   -1.6630   -0.4350 C   0  0  0  0  0  0  0  0  0  0  0  0
    0.2844   -2.2800   -0.4550 O   0  0  0  0  0  0  0  0  0  0  0  0
   -0.8246   -0.3180   -0.4350 N   0  0  0  0  0  0  0  0  0  0  0  0
   -2.0106    0.5080   -0.5910 C   0  0  0  0  0  0  0  0  0  0  0  0
   -2.9719    0.2724   -0.1315 H   0  0  0  0  0  0  0  0  0  0  0  0
   -2.0905    1.4093   -1.1978 H   0  0  0  0  0  0  0  0  0  0  0  0
   -0.9491    0.7004    0.4901 C   0  0  0  0  0  0  0  0  0  0  0  0
   -1.1446   -0.3594    0.6609 H   0  0  0  0  0  0  0  0  0  0  0  0
   -1.7226    1.3162    0.9500 H   0  0  0  0  0  0  0  0  0  0  0  0
    0.4250    1.1190    1.0131 C   0  0  0  0  0  0  0  0  0  0  0  0
    1.0143    0.4826    1.6763 H   0  0  0  0  0  0  0  0  0  0  0  0
    0.8288    2.1313    1.0060 H   0  0  0  0  0  0  0  0  0  0  0  0
    0.3724    0.5200   -0.4020 C   0  0  1  0  0  0  0  0  0  0  0  0
    0.2462    1.3278   -1.1231 H   0  0  0  0  0  0  0  0  0  0  0  0
    1.6465   -0.2733   -0.7371 C   0  0  0  0  0  0  0  0  0  0  0  0
    2.1678   -0.1763   -1.8462 O   0  0  0  0  0  0  0  0  0  0  0  0
    2.1224   -1.0884    0.2120 N   0  0  0  0  0  0  0  0  0  0  0  0
    1.6745   -1.0677    1.1141 H   0  0  0  0  0  0  0  0  0  0  0  0
    3.3155   -1.9165    0.0534 C   0  0  0  0  0  0  0  0  0  0  0  0
    4.1916   -1.2748   -0.0622 H   0  0  0  0  0  0  0  0  0  0  0  0
    3.4501   -2.5579    0.9250 H   0  0  0  0  0  0  0  0  0  0  0  0
    3.2193   -2.5358   -0.8411 H   0  0  0  0  0  0  0  0  0  0  0  0
  5  6  2  0  0  0  0
  5  7  1  0  0  0  0
  2  3  1  0  0  0  0
  2  4  1  0  0  0  0
  2  5  1  0  0  0  0
  1  2  1  0  0  0  0
 19 20  2  0  0  0  0
 19 21  1  0  0  0  0
 17 18  1  0  0  0  0
 17 19  1  0  0  0  0
 14 15  1  0  0  0  0
 14 16  1  0  0  0  0
 14 17  1  0  0  0  0
 11 12  1  0  0  0  0
 11 13  1  0  0  0  0
 11 14  1  0  0  0  0
  8  9  1  0  0  0  0
  8 10  1  0  0  0  0
  8 11  1  0  0  0  0
  7  8  1  0  0  0  0
  7 17  1  0  0  0  0
 23 24  1  0  0  0  0
 23 25  1  0  0  0  0
 23 26  1  0  0  0  0
 21 22  1  0  0  0  0
 21 23  1  0  0  0  0
M  END
$$$$
default_name
  -OEChem-01062215323D

 26 26  0     1  0  0  0  0  0999 V2000
   -1.8446   -3.5060   -0.3010 H   0  0  0  0  0  0  0  0  0  0  0  0
   -2.0746   -2.4490   -0.4240 C   0  0  0  0  0  0  0  0  0  0  0  0
   -2.6906   -2.1160    0.4090 H   0  0  0  0  0  0  0  0  0  0  0  0
   -2.5986   -2.2980   -1.3650 H   0  0  0  0  0  0  0  0  0  0  0  0
   -0.7756   -1.6630   -0.4350 C   0  0  0  0  0  0  0  0  0  0  0  0
    0.2844   -2.2800   -0.4550 O   0  0  0  0  0  0  0  0  0  0  0  0
   -0.8246   -0.3180   -0.4350 N   0  0  0  0  0  0  0  0  0  0  0  0
   -2.0106    0.5080   -0.5910 C   0  0  0  0  0  0  0  0  0  0  0  0
   -2.9719    0.2724   -0.1315 H   0  0  0  0  0  0  0  0  0  0  0  0
   -2.0905    1.4093   -1.1978 H   0  0  0  0  0  0  0  0  0  0  0  0
   -0.9491    0.7004    0.4901 C   0  0  0  0  0  0  0  0  0  0  0  0
   -1.1446   -0.3594    0.6609 H   0  0  0  0  0  0  0  0  0  0  0  0
   -1.7226    1.3162    0.9500 H   0  0  0  0  0  0  0  0  0  0  0  0
    0.4250    1.1190    1.0131 C   0  0  0  0  0  0  0  0  0  0  0  0
    1.0143    0.4826    1.6763 H   0  0  0  0  0  0  0  0  0  0  0  0
    0.8288    2.1313    1.0060 H   0  0  0  0  0  0  0  0  0  0  0  0
    0.3724    0.5200   -0.4020 C   0  0  1  0  0  0  0  0  0  0  0  0
    0.2462    1.3278   -1.1231 H   0  0  0  0  0  0  0  0  0  0  0  0
    1.6465   -0.2733   -0.7371 C   0  0  0  0  0  0  0  0  0  0  0  0
    2.3212    0.0178   -1.7227 O   0  0  0  0  0  0  0  0  0  0  0  0
    1.9506   -1.3016    0.0639 N   0  0  0  0  0  0  0  0  0  0  0  0
    1.3824   -1.4397    0.8843 H   0  0  0  0  0  0  0  0  0  0  0  0
    3.1185   -2.1604   -0.1183 C   0  0  0  0  0  0  0  0  0  0  0  0
    4.0282   -1.5725    0.0215 H   0  0  0  0  0  0  0  0  0  0  0  0
    3.1030   -2.9788    0.6021 H   0  0  0  0  0  0  0  0  0  0  0  0
    3.1224   -2.5690   -1.1312 H   0  0  0  0  0  0  0  0  0  0  0  0
  5  6  2  0  0  0  0
  5  7  1  0  0  0  0
  2  3  1  0  0  0  0
  2  4  1  0  0  0  0
  2  5  1  0  0  0  0
  1  2  1  0  0  0  0
 19 20  2  0  0  0  0
 19 21  1  0  0  0  0
 17 18  1  0  0  0  0
 17 19  1  0  0  0  0
 14 15  1  0  0  0  0
 14 16  1  0  0  0  0
 14 17  1  0  0  0  0
 11 12  1  0  0  0  0
 11 13  1  0  0  0  0
 11 14  1  0  0  0  0
  8  9  1  0  0  0  0
  8 10  1  0  0  0  0
  8 11  1  0  0  0  0
  7  8  1  0  0  0  0
  7 17  1  0  0  0  0
 23 24  1  0  0  0  0
 23 25  1  0  0  0  0
 23 26  1  0  0  0  0
 21 22  1  0  0  0  0
 21 23  1  0  0  0  0
M  END
$$$$
default_name
  -OEChem-01062215323D

 26 26  0     1  0  0  0  0  0999 V2000
   -1.8446   -3.5060   -0.3010 H   0  0  0  0  0  0  0  0  0  0  0  0
   -2.0746   -2.4490   -0.4240 C   0  0  0  0  0  0  0  0  0  0  0  0
   -2.6906   -2.1160    0.4090 H   0  0  0  0  0  0  0  0  0  0  0  0
   -2.5986   -2.2980   -1.3650 H   0  0  0  0  0  0  0  0  0  0  0  0
   -0.7756   -1.6630   -0.4350 C   0  0  0  0  0  0  0  0  0  0  0  0
    0.2844   -2.2800   -0.4550 O   0  0  0  0  0  0  0  0  0  0  0  0
   -0.8246   -0.3180   -0.4350 N   0  0  0  0  0  0  0  0  0  0  0  0
   -2.0106    0.5080   -0.5910 C   0  0  0  0  0  0  0  0  0  0  0  0
   -2.9719    0.2724   -0.1315 H   0  0  0  0  0  0  0  0  0  0  0  0
   -2.0905    1.4093   -1.1978 H   0  0  0  0  0  0  0  0  0  0  0  0
   -0.9491    0.7004    0.4901 C   0  0  0  0  0  0  0  0  0  0  0  0
   -1.1446   -0.3594    0.6609 H   0  0  0  0  0  0  0  0  0  0  0  0
   -1.7226    1.3162    0.9500 H   0  0  0  0  0  0  0  0  0  0  0  0
    0.4250    1.1190    1.0131 C   0  0  0  0  0  0  0  0  0  0  0  0
    1.0143    0.4826    1.6763 H   0  0  0  0  0  0  0  0  0  0  0  0
    0.8288    2.1313    1.0060 H   0  0  0  0  0  0  0  0  0  0  0  0
    0.3724    0.5200   -0.4020 C   0  0  1  0  0  0  0  0  0  0  0  0
    0.2462    1.3278   -1.1231 H   0  0  0  0  0  0  0  0  0  0  0  0
    1.6465   -0.2733   -0.7371 C   0  0  0  0  0  0  0  0  0  0  0  0
    2.4639    0.1702   -1.5412 O   0  0  0  0  0  0  0  0  0  0  0  0
    1.7924   -1.4662   -0.1478 N   0  0  0  0  0  0  0  0  0  0  0  0
    1.1099   -1.7332    0.5434 H   0  0  0  0  0  0  0  0  0  0  0  0
    2.9373   -2.3480   -0.3628 C   0  0  0  0  0  0  0  0  0  0  0  0
    3.8424   -1.8688    0.0167 H   0  0  0  0  0  0  0  0  0  0  0  0
    2.7872   -3.2965    0.1537 H   0  0  0  0  0  0  0  0  0  0  0  0
    3.0656   -2.5333   -1.4315 H   0  0  0  0  0  0  0  0  0  0  0  0
  5  6  2  0  0  0  0
  5  7  1  0  0  0  0
  2  3  1  0  0  0  0
  2  4  1  0  0  0  0
  2  5  1  0  0  0  0
  1  2  1  0  0  0  0
 19 20  2  0  0  0  0
 19 21  1  0  0  0  0
 17 18  1  0  0  0  0
 17 19  1  0  0  0  0
 14 15  1  0  0  0  0
 14 16  1  0  0  0  0
 14 17  1  0  0  0  0
 11 12  1  0  0  0  0
 11 13  1  0  0  0  0
 11 14  1  0  0  0  0
  8  9  1  0  0  0  0
  8 10  1  0  0  0  0
  8 11  1  0  0  0  0
  7  8  1  0  0  0  0
  7 17  1  0  0  0  0
 23 24  1  0  0  0  0
 23 25  1  0  0  0  0
 23 26  1  0  0  0  0
 21 22  1  0  0  0  0
 21 23  1  0  0  0  0
M  END
$$$$
default_name
  -OEChem-01062215323D

 26 26  0     1  0  0  0  0  0999 V2000
   -1.8446   -3.5060   -0.3010 H   0  0  0  0  0  0  0  0  0  0  0  0
   -2.0746   -2.4490   -0.4240 C   0  0  0  0  0  0  0  0  0  0  0  0
   -2.6906   -2.1160    0.4090 H   0  0  0  0  0  0  0  0  0  0  0  0
   -2.5986   -2.2980   -1.3650 H   0  0  0  0  0  0  0  0  0  0  0  0
   -0.7756   -1.6630   -0.4350 C   0  0  0  0  0  0  0  0  0  0  0  0
    0.2844   -2.2800   -0.4550 O   0  0  0  0  0  0  0  0  0  0  0  0
   -0.8246   -0.3180   -0.4350 N   0  0  0  0  0  0  0  0  0  0  0  0
   -2.0106    0.5080   -0.5910 C   0  0  0  0  0  0  0  0  0  0  0  0
   -2.9719    0.2724   -0.1315 H   0  0  0  0  0  0  0  0  0  0  0  0
   -2.0905    1.4093   -1.1978 H   0  0  0  0  0  0  0  0  0  0  0  0
   -0.9491    0.7004    0.4901 C   0  0  0  0  0  0  0  0  0  0  0  0
   -1.1446   -0.3594    0.6609 H   0  0  0  0  0  0  0  0  0  0  0  0
   -1.7226    1.3162    0.9500 H   0  0  0  0  0  0  0  0  0  0  0  0
    0.4250    1.1190    1.0131 C   0  0  0  0  0  0  0  0  0  0  0  0
    1.0143    0.4826    1.6763 H   0  0  0  0  0  0  0  0  0  0  0  0
    0.8288    2.1313    1.0060 H   0  0  0  0  0  0  0  0  0  0  0  0
    0.3724    0.5200   -0.4020 C   0  0  1  0  0  0  0  0  0  0  0  0
    0.2462    1.3278   -1.1231 H   0  0  0  0  0  0  0  0  0  0  0  0
    1.6465   -0.2733   -0.7371 C   0  0  0  0  0  0  0  0  0  0  0  0
    2.5860    0.2704   -1.3142 O   0  0  0  0  0  0  0  0  0  0  0  0
    1.6586   -1.5709   -0.4087 N   0  0  0  0  0  0  0  0  0  0  0  0
    0.8757   -1.9283    0.1149 H   0  0  0  0  0  0  0  0  0  0  0  0
    2.7844   -2.4665   -0.6633 C   0  0  0  0  0  0  0  0  0  0  0  0
    3.6469   -2.1435   -0.0763 H   0  0  0  0  0  0  0  0  0  0  0  0
    2.5241   -3.4895   -0.3897 H   0  0  0  0  0  0  0  0  0  0  0  0
    3.0528   -2.4313   -1.7214 H   0  0  0  0  0  0  0  0  0  0  0  0
  5  6  2  0  0  0  0
  5  7  1  0  0  0  0
  2  3  1  0  0  0  0
  2  4  1  0  0  0  0
  2  5  1  0  0  0  0
  1  2  1  0  0  0  0
 19 20  2  0  0  0  0
 19 21  1  0  0  0  0
 17 18  1  0  0  0  0
 17 19  1  0  0  0  0
 14 15  1  0  0  0  0
 14 16  1  0  0  0  0
 14 17  1  0  0  0  0
 11 12  1  0  0  0  0
 11 13  1  0  0  0  0
 11 14  1  0  0  0  0
  8  9  1  0  0  0  0
  8 10  1  0  0  0  0
  8 11  1  0  0  0  0
  7  8  1  0  0  0  0
  7 17  1  0  0  0  0
 23 24  1  0  0  0  0
 23 25  1  0  0  0  0
 23 26  1  0  0  0  0
 21 22  1  0  0  0  0
 21 23  1  0  0  0  0
M  END
$$$$
default_name
  -OEChem-01062215323D

 26 26  0     1  0  0  0  0  0999 V2000
   -1.8446   -3.5060   -0.3010 H   0  0  0  0  0  0  0  0  0  0  0  0
   -2.0746   -2.4490   -0.4240 C   0  0  0  0  0  0  0  0  0  0  0  0
   -2.6906   -2.1160    0.4090 H   0  0  0  0  0  0  0  0  0  0  0  0
   -2.5986   -2.2980   -1.3650 H   0  0  0  0  0  0  0  0  0  0  0  0
   -0.7756   -1.6630   -0.4350 C   0  0  0  0  0  0  0  0  0  0  0  0
    0.2844   -2.2800   -0.4550 O   0  0  0  0  0  0  0  0  0  0  0  0
   -0.8246   -0.3180   -0.4350 N   0  0  0  0  0  0  0  0  0  0  0  0
   -2.0106    0.5080   -0.5910 C   0  0  0  0  0  0  0  0  0  0  0  0
   -2.9719    0.2724   -0.1315 H   0  0  0  0  0  0  0  0  0  0  0  0
   -2.0905    1.4093   -1.1978 H   0  0  0  0  0  0  0  0  0  0  0  0
   -0.9491    0.7004    0.4901 C   0  0  0  0  0  0  0  0  0  0  0  0
   -1.1446   -0.3594    0.6609 H   0  0  0  0  0  0  0  0  0  0  0  0
   -1.7226    1.3162    0.9500 H   0  0  0  0  0  0  0  0  0  0  0  0
    0.4250    1.1190    1.0131 C   0  0  0  0  0  0  0  0  0  0  0  0
    1.0143    0.4826    1.6763 H   0  0  0  0  0  0  0  0  0  0  0  0
    0.8288    2.1313    1.0060 H   0  0  0  0  0  0  0  0  0  0  0  0
    0.3724    0.5200   -0.4020 C   0  0  1  0  0  0  0  0  0  0  0  0
    0.2462    1.3278   -1.1231 H   0  0  0  0  0  0  0  0  0  0  0  0
    1.6465   -0.2733   -0.7371 C   0  0  0  0  0  0  0  0  0  0  0  0
    2.6793    0.3117   -1.0571 O   0  0  0  0  0  0  0  0  0  0  0  0
    1.5583   -1.6085   -0.7010 N   0  0  0  0  0  0  0  0  0  0  0  0
    0.6957   -2.0117   -0.3721 H   0  0  0  0  0  0  0  0  0  0  0  0
    2.6702   -2.5080   -0.9995 C   0  0  0  0  0  0  0  0  0  0  0  0
    3.4549   -2.3779   -0.2512 H   0  0  0  0  0  0  0  0  0  0  0  0
    2.3316   -3.5445   -0.9912 H   0  0  0  0  0  0  0  0  0  0  0  0
    3.0849   -2.2699   -1.9814 H   0  0  0  0  0  0  0  0  0  0  0  0
  5  6  2  0  0  0  0
  5  7  1  0  0  0  0
  2  3  1  0  0  0  0
  2  4  1  0  0  0  0
  2  5  1  0  0  0  0
  1  2  1  0  0  0  0
 19 20  2  0  0  0  0
 19 21  1  0  0  0  0
 17 18  1  0  0  0  0
 17 19  1  0  0  0  0
 14 15  1  0  0  0  0
 14 16  1  0  0  0  0
 14 17  1  0  0  0  0
 11 12  1  0  0  0  0
 11 13  1  0  0  0  0
 11 14  1  0  0  0  0
  8  9  1  0  0  0  0
  8 10  1  0  0  0  0
  8 11  1  0  0  0  0
  7  8  1  0  0  0  0
  7 17  1  0  0  0  0
 23 24  1  0  0  0  0
 23 25  1  0  0  0  0
 23 26  1  0  0  0  0
 21 22  1  0  0  0  0
 21 23  1  0  0  0  0
M  END
$$$$
default_name
  -OEChem-01062215323D

 26 26  0     1  0  0  0  0  0999 V2000
   -1.8446   -3.5060   -0.3010 H   0  0  0  0  0  0  0  0  0  0  0  0
   -2.0746   -2.4490   -0.4240 C   0  0  0  0  0  0  0  0  0  0  0  0
   -2.6906   -2.1160    0.4090 H   0  0  0  0  0  0  0  0  0  0  0  0
   -2.5986   -2.2980   -1.3650 H   0  0  0  0  0  0  0  0  0  0  0  0
   -0.7756   -1.6630   -0.4350 C   0  0  0  0  0  0  0  0  0  0  0  0
    0.2844   -2.2800   -0.4550 O   0  0  0  0  0  0  0  0  0  0  0  0
   -0.8246   -0.3180   -0.4350 N   0  0  0  0  0  0  0  0  0  0  0  0
   -2.0106    0.5080   -0.5910 C   0  0  0  0  0  0  0  0  0  0  0  0
   -2.9719    0.2724   -0.1315 H   0  0  0  0  0  0  0  0  0  0  0  0
   -2.0905    1.4093   -1.1978 H   0  0  0  0  0  0  0  0  0  0  0  0
   -0.9491    0.7004    0.4901 C   0  0  0  0  0  0  0  0  0  0  0  0
   -1.1446   -0.3594    0.6609 H   0  0  0  0  0  0  0  0  0  0  0  0
   -1.7226    1.3162    0.9500 H   0  0  0  0  0  0  0  0  0  0  0  0
    0.4250    1.1190    1.0131 C   0  0  0  0  0  0  0  0  0  0  0  0
    1.0143    0.4826    1.6763 H   0  0  0  0  0  0  0  0  0  0  0  0
    0.8288    2.1313    1.0060 H   0  0  0  0  0  0  0  0  0  0  0  0
    0.3724    0.5200   -0.4020 C   0  0  1  0  0  0  0  0  0  0  0  0
    0.2462    1.3278   -1.1231 H   0  0  0  0  0  0  0  0  0  0  0  0
    1.6465   -0.2733   -0.7371 C   0  0  0  0  0  0  0  0  0  0  0  0
    2.7374    0.2911   -0.7875 O   0  0  0  0  0  0  0  0  0  0  0  0
    1.4983   -1.5764   -1.0048 N   0  0  0  0  0  0  0  0  0  0  0  0
    0.5821   -1.9776   -0.8845 H   0  0  0  0  0  0  0  0  0  0  0  0
    2.6024   -2.4695   -1.3483 C   0  0  0  0  0  0  0  0  0  0  0  0
    3.2797   -2.5560   -0.4959 H   0  0  0  0  0  0  0  0  0  0  0  0
    2.2228   -3.4579   -1.6096 H   0  0  0  0  0  0  0  0  0  0  0  0
    3.1598   -2.0600   -2.1935 H   0  0  0  0  0  0  0  0  0  0  0  0
  5  6  2  0  0  0  0
  5  7  1  0  0  0  0
  2  3  1  0  0  0  0
  2  4  1  0  0  0  0
  2  5  1  0  0  0  0
  1  2  1  0  0  0  0
 19 20  2  0  0  0  0
 19 21  1  0  0  0  0
 17 18  1  0  0  0  0
 17 19  1  0  0  0  0
 14 15  1  0  0  0  0
 14 16  1  0  0  0  0
 14 17  1  0  0  0  0
 11 12  1  0  0  0  0
 11 13  1  0  0  0  0
 11 14  1  0  0  0  0
  8  9  1  0  0  0  0
  8 10  1  0  0  0  0
  8 11  1  0  0  0  0
  7  8  1  0  0  0  0
  7 17  1  0  0  0  0
 23 24  1  0  0  0  0
 23 25  1  0  0  0  0
 23 26  1  0  0  0  0
 21 22  1  0  0  0  0
 21 23  1  0  0  0  0
M  END
$$$$
default_name
  -OEChem-01062215323D

 26 26  0     1  0  0  0  0  0999 V2000
   -1.8446   -3.5060   -0.3010 H   0  0  0  0  0  0  0  0  0  0  0  0
   -2.0746   -2.4490   -0.4240 C   0  0  0  0  0  0  0  0  0  0  0  0
   -2.6906   -2.1160    0.4090 H   0  0  0  0  0  0  0  0  0  0  0  0
   -2.5986   -2.2980   -1.3650 H   0  0  0  0  0  0  0  0  0  0  0  0
   -0.7756   -1.6630   -0.4350 C   0  0  0  0  0  0  0  0  0  0  0  0
    0.2844   -2.2800   -0.4550 O   0  0  0  0  0  0  0  0  0  0  0  0
   -0.8246   -0.3180   -0.4350 N   0  0  0  0  0  0  0  0  0  0  0  0
   -2.0106    0.5080   -0.5910 C   0  0  0  0  0  0  0  0  0  0  0  0
   -2.9719    0.2724   -0.1315 H   0  0  0  0  0  0  0  0  0  0  0  0
   -2.0905    1.4093   -1.1978 H   0  0  0  0  0  0  0  0  0  0  0  0
   -0.9491    0.7004    0.4901 C   0  0  0  0  0  0  0  0  0  0  0  0
   -1.1446   -0.3594    0.6609 H   0  0  0  0  0  0  0  0  0  0  0  0
   -1.7226    1.3162    0.9500 H   0  0  0  0  0  0  0  0  0  0  0  0
    0.4250    1.1190    1.0131 C   0  0  0  0  0  0  0  0  0  0  0  0
    1.0143    0.4826    1.6763 H   0  0  0  0  0  0  0  0  0  0  0  0
    0.8288    2.1313    1.0060 H   0  0  0  0  0  0  0  0  0  0  0  0
    0.3724    0.5200   -0.4020 C   0  0  1  0  0  0  0  0  0  0  0  0
    0.2462    1.3278   -1.1231 H   0  0  0  0  0  0  0  0  0  0  0  0
    1.6465   -0.2733   -0.7371 C   0  0  0  0  0  0  0  0  0  0  0  0
    2.7564    0.2102   -0.5237 O   0  0  0  0  0  0  0  0  0  0  0  0
    1.4828   -1.4770   -1.2994 N   0  0  0  0  0  0  0  0  0  0  0  0
    0.5427   -1.8284   -1.3872 H   0  0  0  0  0  0  0  0  0  0  0  0
    2.5856   -2.3538   -1.6860 C   0  0  0  0  0  0  0  0  0  0  0  0
    3.1330   -2.6656   -0.7939 H   0  0  0  0  0  0  0  0  0  0  0  0
    2.2053   -3.2354   -2.2029 H   0  0  0  0  0  0  0  0  0  0  0  0
    3.2723   -1.8161   -2.3435 H   0  0  0  0  0  0  0  0  0  0  0  0
  5  6  2  0  0  0  0
  5  7  1  0  0  0  0
  2  3  1  0  0  0  0
  2  4  1  0  0  0  0
  2  5  1  0  0  0  0
  1  2  1  0  0  0  0
 19 20  2  0  0  0  0
 19 21  1  0  0  0  0
 17 18  1  0  0  0  0
 17 19  1  0  0  0  0
 14 15  1  0  0  0  0
 14 16  1  0  0  0  0
 14 17  1  0  0  0  0
 11 12  1  0  0  0  0
 11 13  1  0  0  0  0
 11 14  1  0  0  0  0
  8  9  1  0  0  0  0
  8 10  1  0  0  0  0
  8 11  1  0  0  0  0
  7  8  1  0  0  0  0
  7 17  1  0  0  0  0
 23 24  1  0  0  0  0
 23 25  1  0  0  0  0
 23 26  1  0  0  0  0
 21 22  1  0  0  0  0
 21 23  1  0  0  0  0
M  END
$$$$
default_name
  -OEChem-01062215323D

 26 26  0     1  0  0  0  0  0999 V2000
   -1.8446   -3.5060   -0.3010 H   0  0  0  0  0  0  0  0  0  0  0  0
   -2.0746   -2.4490   -0.4240 C   0  0  0  0  0  0  0  0  0  0  0  0
   -2.6906   -2.1160    0.4090 H   0  0  0  0  0  0  0  0  0  0  0  0
   -2.5986   -2.2980   -1.3650 H   0  0  0  0  0  0  0  0  0  0  0  0
   -0.7756   -1.6630   -0.4350 C   0  0  0  0  0  0  0  0  0  0  0  0
    0.2844   -2.2800   -0.4550 O   0  0  0  0  0  0  0  0  0  0  0  0
   -0.8246   -0.3180   -0.4350 N   0  0  0  0  0  0  0  0  0  0  0  0
   -2.0106    0.5080   -0.5910 C   0  0  0  0  0  0  0  0  0  0  0  0
   -2.9719    0.2724   -0.1315 H   0  0  0  0  0  0  0  0  0  0  0  0
   -2.0905    1.4093   -1.1978 H   0  0  0  0  0  0  0  0  0  0  0  0
   -0.9491    0.7004    0.4901 C   0  0  0  0  0  0  0  0  0  0  0  0
   -1.1446   -0.3594    0.6609 H   0  0  0  0  0  0  0  0  0  0  0  0
   -1.7226    1.3162    0.9500 H   0  0  0  0  0  0  0  0  0  0  0  0
    0.4250    1.1190    1.0131 C   0  0  0  0  0  0  0  0  0  0  0  0
    1.0143    0.4826    1.6763 H   0  0  0  0  0  0  0  0  0  0  0  0
    0.8288    2.1313    1.0060 H   0  0  0  0  0  0  0  0  0  0  0  0
    0.3724    0.5200   -0.4020 C   0  0  1  0  0  0  0  0  0  0  0  0
    0.2462    1.3278   -1.1231 H   0  0  0  0  0  0  0  0  0  0  0  0
    1.6465   -0.2733   -0.7371 C   0  0  0  0  0  0  0  0  0  0  0  0
    2.7350    0.0744   -0.2837 O   0  0  0  0  0  0  0  0  0  0  0  0
    1.5127   -1.3169   -1.5647 N   0  0  0  0  0  0  0  0  0  0  0  0
    0.5803   -1.5743   -1.8461 H   0  0  0  0  0  0  0  0  0  0  0  0
    2.6210   -2.1686   -1.9897 C   0  0  0  0  0  0  0  0  0  0  0  0
    3.0249   -2.6993   -1.1249 H   0  0  0  0  0  0  0  0  0  0  0  0
    2.2801   -2.8923   -2.7307 H   0  0  0  0  0  0  0  0  0  0  0  0
    3.4147   -1.5546   -2.4210 H   0  0  0  0  0  0  0  0  0  0  0  0
  5  6  2  0  0  0  0
  5  7  1  0  0  0  0
  2  3  1  0  0  0  0
  2  4  1  0  0  0  0
  2  5  1  0  0  0  0
  1  2  1  0  0  0  0
 19 20  2  0  0  0  0
 19 21  1  0  0  0  0
 17 18  1  0  0  0  0
 17 19  1  0  0  0  0
 14 15  1  0  0  0  0
 14 16  1  0  0  0  0
 14 17  1  0  0  0  0
 11 12  1  0  0  0  0
 11 13  1  0  0  0  0
 11 14  1  0  0  0  0
  8  9  1  0  0  0  0
  8 10  1  0  0  0  0
  8 11  1  0  0  0  0
  7  8  1  0  0  0  0
  7 17  1  0  0  0  0
 23 24  1  0  0  0  0
 23 25  1  0  0  0  0
 23 26  1  0  0  0  0
 21 22  1  0  0  0  0
 21 23  1  0  0  0  0
M  END
$$$$
default_name
  -OEChem-01062215323D

 26 26  0     1  0  0  0  0  0999 V2000
   -1.8446   -3.5060   -0.3010 H   0  0  0  0  0  0  0  0  0  0  0  0
   -2.0746   -2.4490   -0.4240 C   0  0  0  0  0  0  0  0  0  0  0  0
   -2.6906   -2.1160    0.4090 H   0  0  0  0  0  0  0  0  0  0  0  0
   -2.5986   -2.2980   -1.3650 H   0  0  0  0  0  0  0  0  0  0  0  0
   -0.7756   -1.6630   -0.4350 C   0  0  0  0  0  0  0  0  0  0  0  0
    0.2844   -2.2800   -0.4550 O   0  0  0  0  0  0  0  0  0  0  0  0
   -0.8246   -0.3180   -0.4350 N   0  0  0  0  0  0  0  0  0  0  0  0
   -2.0106    0.5080   -0.5910 C   0  0  0  0  0  0  0  0  0  0  0  0
   -2.9719    0.2724   -0.1315 H   0  0  0  0  0  0  0  0  0  0  0  0
   -2.0905    1.4093   -1.1978 H   0  0  0  0  0  0  0  0  0  0  0  0
   -0.9491    0.7004    0.4901 C   0  0  0  0  0  0  0  0  0  0  0  0
   -1.1446   -0.3594    0.6609 H   0  0  0  0  0  0  0  0  0  0  0  0
   -1.7226    1.3162    0.9500 H   0  0  0  0  0  0  0  0  0  0  0  0
    0.4250    1.1190    1.0131 C   0  0  0  0  0  0  0  0  0  0  0  0
    1.0143    0.4826    1.6763 H   0  0  0  0  0  0  0  0  0  0  0  0
    0.8288    2.1313    1.0060 H   0  0  0  0  0  0  0  0  0  0  0  0
    0.3724    0.5200   -0.4020 C   0  0  1  0  0  0  0  0  0  0  0  0
    0.2462    1.3278   -1.1231 H   0  0  0  0  0  0  0  0  0  0  0  0
    1.6465   -0.2733   -0.7371 C   0  0  0  0  0  0  0  0  0  0  0  0
    2.6746   -0.1071   -0.0839 O   0  0  0  0  0  0  0  0  0  0  0  0
    1.5860   -1.1070   -1.7826 N   0  0  0  0  0  0  0  0  0  0  0  0
    0.6921   -1.2325   -2.2299 H   0  0  0  0  0  0  0  0  0  0  0  0
    2.7063   -1.9266   -2.2386 C   0  0  0  0  0  0  0  0  0  0  0  0
    2.9628   -2.6549   -1.4662 H   0  0  0  0  0  0  0  0  0  0  0  0
    2.4422   -2.4519   -3.1569 H   0  0  0  0  0  0  0  0  0  0  0  0
    3.5774   -1.2934   -2.4207 H   0  0  0  0  0  0  0  0  0  0  0  0
  5  6  2  0  0  0  0
  5  7  1  0  0  0  0
  2  3  1  0  0  0  0
  2  4  1  0  0  0  0
  2  5  1  0  0  0  0
  1  2  1  0  0  0  0
 19 20  2  0  0  0  0
 19 21  1  0  0  0  0
 17 18  1  0  0  0  0
 17 19  1  0  0  0  0
 14 15  1  0  0  0  0
 14 16  1  0  0  0  0
 14 17  1  0  0  0  0
 11 12  1  0  0  0  0
 11 13  1  0  0  0  0
 11 14  1  0  0  0  0
  8  9  1  0  0  0  0
  8 10  1  0  0  0  0
  8 11  1  0  0  0  0
  7  8  1  0  0  0  0
  7 17  1  0  0  0  0
 23 24  1  0  0  0  0
 23 25  1  0  0  0  0
 23 26  1  0  0  0  0
 21 22  1  0  0  0  0
 21 23  1  0  0  0  0
M  END
$$$$
default_name
  -OEChem-01062215323D

 26 26  0     1  0  0  0  0  0999 V2000
   -1.8446   -3.5060   -0.3010 H   0  0  0  0  0  0  0  0  0  0  0  0
   -2.0746   -2.4490   -0.4240 C   0  0  0  0  0  0  0  0  0  0  0  0
   -2.6906   -2.1160    0.4090 H   0  0  0  0  0  0  0  0  0  0  0  0
   -2.5986   -2.2980   -1.3650 H   0  0  0  0  0  0  0  0  0  0  0  0
   -0.7756   -1.6630   -0.4350 C   0  0  0  0  0  0  0  0  0  0  0  0
    0.2844   -2.2800   -0.4550 O   0  0  0  0  0  0  0  0  0  0  0  0
   -0.8246   -0.3180   -0.4350 N   0  0  0  0  0  0  0  0  0  0  0  0
   -2.0106    0.5080   -0.5910 C   0  0  0  0  0  0  0  0  0  0  0  0
   -2.9719    0.2724   -0.1315 H   0  0  0  0  0  0  0  0  0  0  0  0
   -2.0905    1.4093   -1.1978 H   0  0  0  0  0  0  0  0  0  0  0  0
   -0.9491    0.7004    0.4901 C   0  0  0  0  0  0  0  0  0  0  0  0
   -1.1446   -0.3594    0.6609 H   0  0  0  0  0  0  0  0  0  0  0  0
   -1.7226    1.3162    0.9500 H   0  0  0  0  0  0  0  0  0  0  0  0
    0.4250    1.1190    1.0131 C   0  0  0  0  0  0  0  0  0  0  0  0
    1.0143    0.4826    1.6763 H   0  0  0  0  0  0  0  0  0  0  0  0
    0.8288    2.1313    1.0060 H   0  0  0  0  0  0  0  0  0  0  0  0
    0.3724    0.5200   -0.4020 C   0  0  1  0  0  0  0  0  0  0  0  0
    0.2462    1.3278   -1.1231 H   0  0  0  0  0  0  0  0  0  0  0  0
    1.6465   -0.2733   -0.7371 C   0  0  0  0  0  0  0  0  0  0  0  0
    2.5793   -0.3218    0.0621 O   0  0  0  0  0  0  0  0  0  0  0  0
    1.6978   -0.8617   -1.9383 N   0  0  0  0  0  0  0  0  0  0  0  0
    0.8707   -0.8265   -2.5123 H   0  0  0  0  0  0  0  0  0  0  0  0
    2.8355   -1.6443   -2.4157 C   0  0  0  0  0  0  0  0  0  0  0  0
    2.9509   -2.5352   -1.7947 H   0  0  0  0  0  0  0  0  0  0  0  0
    2.6805   -1.9444   -3.4525 H   0  0  0  0  0  0  0  0  0  0  0  0
    3.7492   -1.0504   -2.3428 H   0  0  0  0  0  0  0  0  0  0  0  0
  5  6  2  0  0  0  0
  5  7  1  0  0  0  0
  2  3  1  0  0  0  0
  2  4  1  0  0  0  0
  2  5  1  0  0  0  0
  1  2  1  0  0  0  0
 19 20  2  0  0  0  0
 19 21  1  0  0  0  0
 17 18  1  0  0  0  0
 17 19  1  0  0  0  0
 14 15  1  0  0  0  0
 14 16  1  0  0  0  0
 14 17  1  0  0  0  0
 11 12  1  0  0  0  0
 11 13  1  0  0  0  0
 11 14  1  0  0  0  0
  8  9  1  0  0  0  0
  8 10  1  0  0  0  0
  8 11  1  0  0  0  0
  7  8  1  0  0  0  0
  7 17  1  0  0  0  0
 23 24  1  0  0  0  0
 23 25  1  0  0  0  0
 23 26  1  0  0  0  0
 21 22  1  0  0  0  0
 21 23  1  0  0  0  0
M  END
$$$$
default_name
  -OEChem-01062215323D

 26 26  0     1  0  0  0  0  0999 V2000
   -1.8446   -3.5060   -0.3010 H   0  0  0  0  0  0  0  0  0  0  0  0
   -2.0746   -2.4490   -0.4240 C   0  0  0  0  0  0  0  0  0  0  0  0
   -2.6906   -2.1160    0.4090 H   0  0  0  0  0  0  0  0  0  0  0  0
   -2.5986   -2.2980   -1.3650 H   0  0  0  0  0  0  0  0  0  0  0  0
   -0.7756   -1.6630   -0.4350 C   0  0  0  0  0  0  0  0  0  0  0  0
    0.2844   -2.2800   -0.4550 O   0  0  0  0  0  0  0  0  0  0  0  0
   -0.8246   -0.3180   -0.4350 N   0  0  0  0  0  0  0  0  0  0  0  0
   -2.0106    0.5080   -0.5910 C   0  0  0  0  0  0  0  0  0  0  0  0
   -2.9719    0.2724   -0.1315 H   0  0  0  0  0  0  0  0  0  0  0  0
   -2.0905    1.4093   -1.1978 H   0  0  0  0  0  0  0  0  0  0  0  0
   -0.9491    0.7004    0.4901 C   0  0  0  0  0  0  0  0  0  0  0  0
   -1.1446   -0.3594    0.6609 H   0  0  0  0  0  0  0  0  0  0  0  0
   -1.7226    1.3162    0.9500 H   0  0  0  0  0  0  0  0  0  0  0  0
    0.4250    1.1190    1.0131 C   0  0  0  0  0  0  0  0  0  0  0  0
    1.0143    0.4826    1.6763 H   0  0  0  0  0  0  0  0  0  0  0  0
    0.8288    2.1313    1.0060 H   0  0  0  0  0  0  0  0  0  0  0  0
    0.3724    0.5200   -0.4020 C   0  0  1  0  0  0  0  0  0  0  0  0
    0.2462    1.3278   -1.1231 H   0  0  0  0  0  0  0  0  0  0  0  0
    1.6465   -0.2733   -0.7371 C   0  0  0  0  0  0  0  0  0  0  0  0
    2.4557   -0.5551    0.1444 O   0  0  0  0  0  0  0  0  0  0  0  0
    1.8404   -0.5977   -2.0212 N   0  0  0  0  0  0  0  0  0  0  0  0
    1.1037   -0.3837   -2.6742 H   0  0  0  0  0  0  0  0  0  0  0  0
    2.9998   -1.3409   -2.5090 C   0  0  0  0  0  0  0  0  0  0  0  0
    2.9900   -2.3485   -2.0879 H   0  0  0  0  0  0  0  0  0  0  0  0
    2.9787   -1.4041   -3.5974 H   0  0  0  0  0  0  0  0  0  0  0  0
    3.9185   -0.8421   -2.1925 H   0  0  0  0  0  0  0  0  0  0  0  0
  5  6  2  0  0  0  0
  5  7  1  0  0  0  0
  2  3  1  0  0  0  0
  2  4  1  0  0  0  0
  2  5  1  0  0  0  0
  1  2  1  0  0  0  0
 19 20  2  0  0  0  0
 19 21  1  0  0  0  0
 17 18  1  0  0  0  0
 17 19  1  0  0  0  0
 14 15  1  0  0  0  0
 14 16  1  0  0  0  0
 14 17  1  0  0  0  0
 11 12  1  0  0  0  0
 11 13  1  0  0  0  0
 11 14  1  0  0  0  0
  8  9  1  0  0  0  0
  8 10  1  0  0  0  0
  8 11  1  0  0  0  0
  7  8  1  0  0  0  0
  7 17  1  0  0  0  0
 23 24  1  0  0  0  0
 23 25  1  0  0  0  0
 23 26  1  0  0  0  0
 21 22  1  0  0  0  0
 21 23  1  0  0  0  0
M  END
$$$$
default_name
  -OEChem-01062215323D

 26 26  0     1  0  0  0  0  0999 V2000
   -1.8446   -3.5060   -0.3010 H   0  0  0  0  0  0  0  0  0  0  0  0
   -2.0746   -2.4490   -0.4240 C   0  0  0  0  0  0  0  0  0  0  0  0
   -2.6906   -2.1160    0.4090 H   0  0  0  0  0  0  0  0  0  0  0  0
   -2.5986   -2.2980   -1.3650 H   0  0  0  0  0  0  0  0  0  0  0  0
   -0.7756   -1.6630   -0.4350 C   0  0  0  0  0  0  0  0  0  0  0  0
    0.2844   -2.2800   -0.4550 O   0  0  0  0  0  0  0  0  0  0  0  0
   -0.8246   -0.3180   -0.4350 N   0  0  0  0  0  0  0  0  0  0  0  0
   -2.0106    0.5080   -0.5910 C   0  0  0  0  0  0  0  0  0  0  0  0
   -2.9719    0.2724   -0.1315 H   0  0  0  0  0  0  0  0  0  0  0  0
   -2.0905    1.4093   -1.1978 H   0  0  0  0  0  0  0  0  0  0  0  0
   -0.9491    0.7004    0.4901 C   0  0  0  0  0  0  0  0  0  0  0  0
   -1.1446   -0.3594    0.6609 H   0  0  0  0  0  0  0  0  0  0  0  0
   -1.7226    1.3162    0.9500 H   0  0  0  0  0  0  0  0  0  0  0  0
    0.4250    1.1190    1.0131 C   0  0  0  0  0  0  0  0  0  0  0  0
    1.0143    0.4826    1.6763 H   0  0  0  0  0  0  0  0  0  0  0  0
    0.8288    2.1313    1.0060 H   0  0  0  0  0  0  0  0  0  0  0  0
    0.3724    0.5200   -0.4020 C   0  0  1  0  0  0  0  0  0  0  0  0
    0.2462    1.3278   -1.1231 H   0  0  0  0  0  0  0  0  0  0  0  0
    1.6465   -0.2733   -0.7371 C   0  0  0  0  0  0  0  0  0  0  0  0
    2.3121   -0.7911    0.1574 O   0  0  0  0  0  0  0  0  0  0  0  0
    2.0041   -0.3329   -2.0256 N   0  0  0  0  0  0  0  0  0  0  0  0
    1.3755    0.0655   -2.7046 H   0  0  0  0  0  0  0  0  0  0  0  0
    3.1882   -1.0371   -2.5121 C   0  0  0  0  0  0  0  0  0  0  0  0
    3.0775   -2.1075   -2.3258 H   0  0  0  0  0  0  0  0  0  0  0  0
    3.3167   -0.8681   -3.5817 H   0  0  0  0  0  0  0  0  0  0  0  0
    4.0737   -0.6826   -1.9800 H   0  0  0  0  0  0  0  0  0  0  0  0
  5  6  2  0  0  0  0
  5  7  1  0  0  0  0
  2  3  1  0  0  0  0
  2  4  1  0  0  0  0
  2  5  1  0  0  0  0
  1  2  1  0  0  0  0
 19 20  2  0  0  0  0
 19 21  1  0  0  0  0
 17 18  1  0  0  0  0
 17 19  1  0  0  0  0
 14 15  1  0  0  0  0
 14 16  1  0  0  0  0
 14 17  1  0  0  0  0
 11 12  1  0  0  0  0
 11 13  1  0  0  0  0
 11 14  1  0  0  0  0
  8  9  1  0  0  0  0
  8 10  1  0  0  0  0
  8 11  1  0  0  0  0
  7  8  1  0  0  0  0
  7 17  1  0  0  0  0
 23 24  1  0  0  0  0
 23 25  1  0  0  0  0
 23 26  1  0  0  0  0
 21 22  1  0  0  0  0
 21 23  1  0  0  0  0
M  END
$$$$
default_name
  -OEChem-01062215323D

 26 26  0     1  0  0  0  0  0999 V2000
   -1.8446   -3.5060   -0.3010 H   0  0  0  0  0  0  0  0  0  0  0  0
   -2.0746   -2.4490   -0.4240 C   0  0  0  0  0  0  0  0  0  0  0  0
   -2.6906   -2.1160    0.4090 H   0  0  0  0  0  0  0  0  0  0  0  0
   -2.5986   -2.2980   -1.3650 H   0  0  0  0  0  0  0  0  0  0  0  0
   -0.7756   -1.6630   -0.4350 C   0  0  0  0  0  0  0  0  0  0  0  0
    0.2844   -2.2800   -0.4550 O   0  0  0  0  0  0  0  0  0  0  0  0
   -0.8246   -0.3180   -0.4350 N   0  0  0  0  0  0  0  0  0  0  0  0
   -2.0106    0.5080   -0.5910 C   0  0  0  0  0  0  0  0  0  0  0  0
   -2.9719    0.2724   -0.1315 H   0  0  0  0  0  0  0  0  0  0  0  0
   -2.0905    1.4093   -1.1978 H   0  0  0  0  0  0  0  0  0  0  0  0
   -0.9491    0.7004    0.4901 C   0  0  0  0  0  0  0  0  0  0  0  0
   -1.1446   -0.3594    0.6609 H   0  0  0  0  0  0  0  0  0  0  0  0
   -1.7226    1.3162    0.9500 H   0  0  0  0  0  0  0  0  0  0  0  0
    0.4250    1.1190    1.0131 C   0  0  0  0  0  0  0  0  0  0  0  0
    1.0143    0.4826    1.6763 H   0  0  0  0  0  0  0  0  0  0  0  0
    0.8288    2.1313    1.0060 H   0  0  0  0  0  0  0  0  0  0  0  0
    0.3724    0.5200   -0.4020 C   0  0  1  0  0  0  0  0  0  0  0  0
    0.2462    1.3278   -1.1231 H   0  0  0  0  0  0  0  0  0  0  0  0
    1.6465   -0.2733   -0.7371 C   0  0  0  0  0  0  0  0  0  0  0  0
    2.1584   -1.0138    0.1001 O   0  0  0  0  0  0  0  0  0  0  0  0
    2.1778   -0.0855   -1.9513 N   0  0  0  0  0  0  0  0  0  0  0  0
    1.6674    0.4906   -2.6013 H   0  0  0  0  0  0  0  0  0  0  0  0
    3.3876   -0.7536   -2.4248 C   0  0  0  0  0  0  0  0  0  0  0  0
    3.2074   -1.8287   -2.4923 H   0  0  0  0  0  0  0  0  0  0  0  0
    3.6712   -0.3727   -3.4064 H   0  0  0  0  0  0  0  0  0  0  0  0
    4.2042   -0.5829   -1.7199 H   0  0  0  0  0  0  0  0  0  0  0  0
  5  6  2  0  0  0  0
  5  7  1  0  0  0  0
  2  3  1  0  0  0  0
  2  4  1  0  0  0  0
  2  5  1  0  0  0  0
  1  2  1  0  0  0  0
 19 20  2  0  0  0  0
 19 21  1  0  0  0  0
 17 18  1  0  0  0  0
 17 19  1  0  0  0  0
 14 15  1  0  0  0  0
 14 16  1  0  0  0  0
 14 17  1  0  0  0  0
 11 12  1  0  0  0  0
 11 13  1  0  0  0  0
 11 14  1  0  0  0  0
  8  9  1  0  0  0  0
  8 10  1  0  0  0  0
  8 11  1  0  0  0  0
  7  8  1  0  0  0  0
  7 17  1  0  0  0  0
 23 24  1  0  0  0  0
 23 25  1  0  0  0  0
 23 26  1  0  0  0  0
 21 22  1  0  0  0  0
 21 23  1  0  0  0  0
M  END
$$$$
default_name
  -OEChem-01062215323D

 26 26  0     1  0  0  0  0  0999 V2000
   -1.8446   -3.5060   -0.3010 H   0  0  0  0  0  0  0  0  0  0  0  0
   -2.0746   -2.4490   -0.4240 C   0  0  0  0  0  0  0  0  0  0  0  0
   -2.6906   -2.1160    0.4090 H   0  0  0  0  0  0  0  0  0  0  0  0
   -2.5986   -2.2980   -1.3650 H   0  0  0  0  0  0  0  0  0  0  0  0
   -0.7756   -1.6630   -0.4350 C   0  0  0  0  0  0  0  0  0  0  0  0
    0.2844   -2.2800   -0.4550 O   0  0  0  0  0  0  0  0  0  0  0  0
   -0.8246   -0.3180   -0.4350 N   0  0  0  0  0  0  0  0  0  0  0  0
   -2.0106    0.5080   -0.5910 C   0  0  0  0  0  0  0  0  0  0  0  0
   -2.9719    0.2724   -0.1315 H   0  0  0  0  0  0  0  0  0  0  0  0
   -2.0905    1.4093   -1.1978 H   0  0  0  0  0  0  0  0  0  0  0  0
   -0.9491    0.7004    0.4901 C   0  0  0  0  0  0  0  0  0  0  0  0
   -1.1446   -0.3594    0.6609 H   0  0  0  0  0  0  0  0  0  0  0  0
   -1.7226    1.3162    0.9500 H   0  0  0  0  0  0  0  0  0  0  0  0
    0.4250    1.1190    1.0131 C   0  0  0  0  0  0  0  0  0  0  0  0
    1.0143    0.4826    1.6763 H   0  0  0  0  0  0  0  0  0  0  0  0
    0.8288    2.1313    1.0060 H   0  0  0  0  0  0  0  0  0  0  0  0
    0.3724    0.5200   -0.4020 C   0  0  1  0  0  0  0  0  0  0  0  0
    0.2462    1.3278   -1.1231 H   0  0  0  0  0  0  0  0  0  0  0  0
    1.6465   -0.2733   -0.7371 C   0  0  0  0  0  0  0  0  0  0  0  0
    2.0050   -1.2079   -0.0235 O   0  0  0  0  0  0  0  0  0  0  0  0
    2.3495    0.1278   -1.8032 N   0  0  0  0  0  0  0  0  0  0  0  0
    1.9595    0.8626   -2.3714 H   0  0  0  0  0  0  0  0  0  0  0  0
    3.5846   -0.5098   -2.2531 C   0  0  0  0  0  0  0  0  0  0  0  0
    3.3707   -1.5309   -2.5760 H   0  0  0  0  0  0  0  0  0  0  0  0
    4.0183    0.0482   -3.0836 H   0  0  0  0  0  0  0  0  0  0  0  0
    4.3012   -0.5498   -1.4298 H   0  0  0  0  0  0  0  0  0  0  0  0
  5  6  2  0  0  0  0
  5  7  1  0  0  0  0
  2  3  1  0  0  0  0
  2  4  1  0  0  0  0
  2  5  1  0  0  0  0
  1  2  1  0  0  0  0
 19 20  2  0  0  0  0
 19 21  1  0  0  0  0
 17 18  1  0  0  0  0
 17 19  1  0  0  0  0
 14 15  1  0  0  0  0
 14 16  1  0  0  0  0
 14 17  1  0  0  0  0
 11 12  1  0  0  0  0
 11 13  1  0  0  0  0
 11 14  1  0  0  0  0
  8  9  1  0  0  0  0
  8 10  1  0  0  0  0
  8 11  1  0  0  0  0
  7  8  1  0  0  0  0
  7 17  1  0  0  0  0
 23 24  1  0  0  0  0
 23 25  1  0  0  0  0
 23 26  1  0  0  0  0
 21 22  1  0  0  0  0
 21 23  1  0  0  0  0
M  END
$$$$
default_name
  -OEChem-01062215323D

 26 26  0     1  0  0  0  0  0999 V2000
   -1.8446   -3.5060   -0.3010 H   0  0  0  0  0  0  0  0  0  0  0  0
   -2.0746   -2.4490   -0.4240 C   0  0  0  0  0  0  0  0  0  0  0  0
   -2.6906   -2.1160    0.4090 H   0  0  0  0  0  0  0  0  0  0  0  0
   -2.5986   -2.2980   -1.3650 H   0  0  0  0  0  0  0  0  0  0  0  0
   -0.7756   -1.6630   -0.4350 C   0  0  0  0  0  0  0  0  0  0  0  0
    0.2844   -2.2800   -0.4550 O   0  0  0  0  0  0  0  0  0  0  0  0
   -0.8246   -0.3180   -0.4350 N   0  0  0  0  0  0  0  0  0  0  0  0
   -2.0106    0.5080   -0.5910 C   0  0  0  0  0  0  0  0  0  0  0  0
   -2.9719    0.2724   -0.1315 H   0  0  0  0  0  0  0  0  0  0  0  0
   -2.0905    1.4093   -1.1978 H   0  0  0  0  0  0  0  0  0  0  0  0
   -0.9491    0.7004    0.4901 C   0  0  0  0  0  0  0  0  0  0  0  0
   -1.1446   -0.3594    0.6609 H   0  0  0  0  0  0  0  0  0  0  0  0
   -1.7226    1.3162    0.9500 H   0  0  0  0  0  0  0  0  0  0  0  0
    0.4250    1.1190    1.0131 C   0  0  0  0  0  0  0  0  0  0  0  0
    1.0143    0.4826    1.6763 H   0  0  0  0  0  0  0  0  0  0  0  0
    0.8288    2.1313    1.0060 H   0  0  0  0  0  0  0  0  0  0  0  0
    0.3724    0.5200   -0.4020 C   0  0  1  0  0  0  0  0  0  0  0  0
    0.2462    1.3278   -1.1231 H   0  0  0  0  0  0  0  0  0  0  0  0
    1.6465   -0.2733   -0.7371 C   0  0  0  0  0  0  0  0  0  0  0  0
    1.8624   -1.3603   -0.2049 O   0  0  0  0  0  0  0  0  0  0  0  0
    2.5077    0.2924   -1.5915 N   0  0  0  0  0  0  0  0  0  0  0  0
    2.2319    1.1561   -2.0306 H   0  0  0  0  0  0  0  0  0  0  0  0
    3.7658   -0.3222   -2.0087 C   0  0  0  0  0  0  0  0  0  0  0  0
    3.5565   -1.2346   -2.5712 H   0  0  0  0  0  0  0  0  0  0  0  0
    4.3341    0.3660   -2.6352 H   0  0  0  0  0  0  0  0  0  0  0  0
    4.3580   -0.5854   -1.1295 H   0  0  0  0  0  0  0  0  0  0  0  0
  5  6  2  0  0  0  0
  5  7  1  0  0  0  0
  2  3  1  0  0  0  0
  2  4  1  0  0  0  0
  2  5  1  0  0  0  0
  1  2  1  0  0  0  0
 19 20  2  0  0  0  0
 19 21  1  0  0  0  0
 17 18  1  0  0  0  0
 17 19  1  0  0  0  0
 14 15  1  0  0  0  0
 14 16  1  0  0  0  0
 14 17  1  0  0  0  0
 11 12  1  0  0  0  0
 11 13  1  0  0  0  0
 11 14  1  0  0  0  0
  8  9  1  0  0  0  0
  8 10  1  0  0  0  0
  8 11  1  0  0  0  0
  7  8  1  0  0  0  0
  7 17  1  0  0  0  0
 23 24  1  0  0  0  0
 23 25  1  0  0  0  0
 23 26  1  0  0  0  0
 21 22  1  0  0  0  0
 21 23  1  0  0  0  0
M  END
$$$$
default_name
  -OEChem-01062215323D

 26 26  0     1  0  0  0  0  0999 V2000
   -1.8446   -3.5060   -0.3010 H   0  0  0  0  0  0  0  0  0  0  0  0
   -2.0746   -2.4490   -0.4240 C   0  0  0  0  0  0  0  0  0  0  0  0
   -2.6906   -2.1160    0.4090 H   0  0  0  0  0  0  0  0  0  0  0  0
   -2.5986   -2.2980   -1.3650 H   0  0  0  0  0  0  0  0  0  0  0  0
   -0.7756   -1.6630   -0.4350 C   0  0  0  0  0  0  0  0  0  0  0  0
    0.2844   -2.2800   -0.4550 O   0  0  0  0  0  0  0  0  0  0  0  0
   -0.8246   -0.3180   -0.4350 N   0  0  0  0  0  0  0  0  0  0  0  0
   -2.0106    0.5080   -0.5910 C   0  0  0  0  0  0  0  0  0  0  0  0
   -2.9719    0.2724   -0.1315 H   0  0  0  0  0  0  0  0  0  0  0  0
   -2.0905    1.4093   -1.1978 H   0  0  0  0  0  0  0  0  0  0  0  0
   -0.9491    0.7004    0.4901 C   0  0  0  0  0  0  0  0  0  0  0  0
   -1.1446   -0.3594    0.6609 H   0  0  0  0  0  0  0  0  0  0  0  0
   -1.7226    1.3162    0.9500 H   0  0  0  0  0  0  0  0  0  0  0  0
    0.4250    1.1190    1.0131 C   0  0  0  0  0  0  0  0  0  0  0  0
    1.0143    0.4826    1.6763 H   0  0  0  0  0  0  0  0  0  0  0  0
    0.8288    2.1313    1.0060 H   0  0  0  0  0  0  0  0  0  0  0  0
    0.3724    0.5200   -0.4020 C   0  0  1  0  0  0  0  0  0  0  0  0
    0.2462    1.3278   -1.1231 H   0  0  0  0  0  0  0  0  0  0  0  0
    1.6465   -0.2733   -0.7371 C   0  0  0  0  0  0  0  0  0  0  0  0
    1.7403   -1.4605   -0.4319 O   0  0  0  0  0  0  0  0  0  0  0  0
    2.6415    0.3970   -1.3306 N   0  0  0  0  0  0  0  0  0  0  0  0
    2.4661    1.3512   -1.6020 H   0  0  0  0  0  0  0  0  0  0  0  0
    3.9187   -0.2036   -1.7081 C   0  0  0  0  0  0  0  0  0  0  0  0
    3.7520   -0.9599   -2.4782 H   0  0  0  0  0  0  0  0  0  0  0  0
    4.5972    0.5590   -2.0917 H   0  0  0  0  0  0  0  0  0  0  0  0
    4.3707   -0.6874   -0.8395 H   0  0  0  0  0  0  0  0  0  0  0  0
  5  6  2  0  0  0  0
  5  7  1  0  0  0  0
  2  3  1  0  0  0  0
  2  4  1  0  0  0  0
  2  5  1  0  0  0  0
  1  2  1  0  0  0  0
 19 20  2  0  0  0  0
 19 21  1  0  0  0  0
 17 18  1  0  0  0  0
 17 19  1  0  0  0  0
 14 15  1  0  0  0  0
 14 16  1  0  0  0  0
 14 17  1  0  0  0  0
 11 12  1  0  0  0  0
 11 13  1  0  0  0  0
 11 14  1  0  0  0  0
  8  9  1  0  0  0  0
  8 10  1  0  0  0  0
  8 11  1  0  0  0  0
  7  8  1  0  0  0  0
  7 17  1  0  0  0  0
 23 24  1  0  0  0  0
 23 25  1  0  0  0  0
 23 26  1  0  0  0  0
 21 22  1  0  0  0  0
 21 23  1  0  0  0  0
M  END
$$$$
default_name
  -OEChem-01062215323D

 26 26  0     1  0  0  0  0  0999 V2000
   -1.8446   -3.5060   -0.3010 H   0  0  0  0  0  0  0  0  0  0  0  0
   -2.0746   -2.4490   -0.4240 C   0  0  0  0  0  0  0  0  0  0  0  0
   -2.6906   -2.1160    0.4090 H   0  0  0  0  0  0  0  0  0  0  0  0
   -2.5986   -2.2980   -1.3650 H   0  0  0  0  0  0  0  0  0  0  0  0
   -0.7756   -1.6630   -0.4350 C   0  0  0  0  0  0  0  0  0  0  0  0
    0.2844   -2.2800   -0.4550 O   0  0  0  0  0  0  0  0  0  0  0  0
   -0.8246   -0.3180   -0.4350 N   0  0  0  0  0  0  0  0  0  0  0  0
   -2.0106    0.5080   -0.5910 C   0  0  0  0  0  0  0  0  0  0  0  0
   -2.9719    0.2724   -0.1315 H   0  0  0  0  0  0  0  0  0  0  0  0
   -2.0905    1.4093   -1.1978 H   0  0  0  0  0  0  0  0  0  0  0  0
   -0.9491    0.7004    0.4901 C   0  0  0  0  0  0  0  0  0  0  0  0
   -1.1446   -0.3594    0.6609 H   0  0  0  0  0  0  0  0  0  0  0  0
   -1.7226    1.3162    0.9500 H   0  0  0  0  0  0  0  0  0  0  0  0
    0.4250    1.1190    1.0131 C   0  0  0  0  0  0  0  0  0  0  0  0
    1.0143    0.4826    1.6763 H   0  0  0  0  0  0  0  0  0  0  0  0
    0.8288    2.1313    1.0060 H   0  0  0  0  0  0  0  0  0  0  0  0
    0.3724    0.5200   -0.4020 C   0  0  1  0  0  0  0  0  0  0  0  0
    0.2462    1.3278   -1.1231 H   0  0  0  0  0  0  0  0  0  0  0  0
    1.6465   -0.2733   -0.7371 C   0  0  0  0  0  0  0  0  0  0  0  0
    1.6469   -1.5018   -0.6890 O   0  0  0  0  0  0  0  0  0  0  0  0
    2.7418    0.4346   -1.0383 N   0  0  0  0  0  0  0  0  0  0  0  0
    2.6462    1.4346   -1.1150 H   0  0  0  0  0  0  0  0  0  0  0  0
    4.0329   -0.1621   -1.3720 C   0  0  0  0  0  0  0  0  0  0  0  0
    3.9440   -0.7255   -2.3033 H   0  0  0  0  0  0  0  0  0  0  0  0
    4.7897    0.6140   -1.4903 H   0  0  0  0  0  0  0  0  0  0  0  0
    4.3386   -0.8488   -0.5796 H   0  0  0  0  0  0  0  0  0  0  0  0
  5  6  2  0  0  0  0
  5  7  1  0  0  0  0
  2  3  1  0  0  0  0
  2  4  1  0  0  0  0
  2  5  1  0  0  0  0
  1  2  1  0  0  0  0
 19 20  2  0  0  0  0
 19 21  1  0  0  0  0
 17 18  1  0  0  0  0
 17 19  1  0  0  0  0
 14 15  1  0  0  0  0
 14 16  1  0  0  0  0
 14 17  1  0  0  0  0
 11 12  1  0  0  0  0
 11 13  1  0  0  0  0
 11 14  1  0  0  0  0
  8  9  1  0  0  0  0
  8 10  1  0  0  0  0
  8 11  1  0  0  0  0
  7  8  1  0  0  0  0
  7 17  1  0  0  0  0
 23 24  1  0  0  0  0
 23 25  1  0  0  0  0
 23 26  1  0  0  0  0
 21 22  1  0  0  0  0
 21 23  1  0  0  0  0
M  END
$$$$
